
#######################################################################
#
#                 Cambridge Crystallographic Data Centre
#                                CCDC 
#
#######################################################################
#
# If this CIF has been generated from an entry in the Cambridge 
# Structural Database, then it will include bibliographic, chemical, 
# crystal, experimental, refinement or atomic coordinate data resulting 
# from the CCDC's data processing and validation procedures.
#
#######################################################################

data_XAYMOC
_chemical_formula_moiety         'C88 H52 N6 O12'
_chemical_name_systematic        
"tricyclo(4,4';12,12';17,17'-tris(2,2'-dioxo[2H,2'H-6,6'-bi-1,3-benzoxazine]-3,3'(4H,4'H)-diyl)bis(triptycene)) unknown solvate"
_symmetry_cell_setting           triclinic
_symmetry_space_group_name_H-M   'P -1'
_symmetry_Int_Tables_number      2
_space_group_name_Hall           '-P 1'
loop_
_symmetry_equiv_pos_site_id
_symmetry_equiv_pos_as_xyz
1 x,y,z
2 -x,-y,-z
_cell_length_a                   18.7671(3)
_cell_length_b                   19.4091(4)
_cell_length_c                   27.7570(6)
_cell_angle_alpha                76.070(2)
_cell_angle_beta                 87.338(2)
_cell_angle_gamma                84.030(2)
_cell_volume                     9757.59
_exptl_crystal_colour            colorless
_exptl_crystal_description       needle
_cell_formula_units_Z            4
_exptl_crystal_recrystallization_method methanol/N,N-dimethylformamide
loop_
_atom_site_label
_atom_site_type_symbol
_atom_site_fract_x
_atom_site_fract_y
_atom_site_fract_z
C1 C 0.50465(17) 0.86111(16) 0.32616(12)
H1 H 0.4715 0.9045 0.3273
C2 C 0.59046(18) 0.74797(17) 0.32324(12)
H2 H 0.6236 0.7045 0.3222
C3 C 0.23593(16) 1.30067(16) 0.42847(11)
H3 H 0.2656 1.2544 0.4299
C4 C 0.15884(16) 1.42116(16) 0.42523(11)
H4 H 0.1292 1.4675 0.4238
C5 C 0.46809(17) 0.80361(16) 0.31048(12)
C6 C 0.39640(18) 0.80653(17) 0.30170(12)
H5 H 0.3655 0.8483 0.3023
C7 C 0.36960(17) 0.74703(17) 0.29186(13)
C8 C 0.41411(19) 0.68616(17) 0.28969(13)
H6 H 0.3950 0.6464 0.2825
C9 C 0.48722(18) 0.68379(17) 0.29815(13)
H7 H 0.5182 0.6423 0.2969
C10 C 0.51421(18) 0.74251(17) 0.30840(12)
N1 N 0.29370(15) 0.75126(14) 0.28544(11)
C11 C 0.25358(19) 0.70762(18) 0.31900(15)
O1 O 0.27510(15) 0.65610(13) 0.34999(11)
O2 O 0.18037(13) 0.72782(12) 0.31759(11)
C12 C 0.53683(18) 0.82411(17) 0.37605(12)
C13 C 0.52362(18) 0.84484(18) 0.42035(12)
H8 H 0.4922 0.8861 0.4216
C14 C 0.55710(19) 0.80435(18) 0.46283(12)
C15 C 0.60307(19) 0.74369(19) 0.46191(13)
H9 H 0.6252 0.7166 0.4915
C16 C 0.61660(19) 0.72265(18) 0.41730(13)
H10 H 0.6482 0.6815 0.4161
C17 C 0.58294(18) 0.76306(17) 0.37485(12)
N2 N 0.54364(16) 0.82668(16) 0.50871(11)
C18 C 0.59932(19) 0.84382(19) 0.53103(13)
O3 O 0.66037(13) 0.84419(14) 0.51545(10)
O4 O 0.58424(13) 0.86217(14) 0.57577(9)
C19 C 0.56895(17) 0.87699(16) 0.29114(12)
C20 C 0.58537(17) 0.94351(17) 0.26463(12)
H11 H 0.5534 0.9847 0.2649
C21 C 0.64958(18) 0.94885(17) 0.23756(12)
C22 C 0.69565(19) 0.88900(18) 0.23541(13)
H12 H 0.7389 0.8938 0.2163
C23 C 0.67828(18) 0.82179(18) 0.26140(12)
H13 H 0.7095 0.7805 0.2599
C24 C 0.61530(17) 0.81538(16) 0.28952(12)
N3 N 0.67045(15) 1.01953(15) 0.21691(10)
C25 C 0.65970(17) 1.05184(18) 0.16871(12)
O5 O 0.64102(13) 1.02548(14) 0.13669(9)
O6 O 0.67190(12) 1.12382(13) 0.15505(8)
C26 C 0.17853(16) 1.31684(16) 0.38950(11)
C27 C 0.16537(17) 1.27503(16) 0.35757(12)
H14 H 0.1947 1.2321 0.3576
C28 C 0.10823(17) 1.29708(17) 0.32535(12)
C29 C 0.06536(17) 1.35994(17) 0.32505(13)
H15 H 0.0259 1.3736 0.3034
C30 C 0.07976(17) 1.40292(17) 0.35608(12)
H16 H 0.0510 1.4464 0.3554
C31 C 0.13665(16) 1.38146(16) 0.38812(12)
N4 N 0.09357(15) 1.25411(14) 0.29198(10)
C32 C 0.08967(19) 1.28502(17) 0.24302(12)
O7 O 0.10356(14) 1.34556(12) 0.22337(9)
O8 O 0.06772(14) 1.24474(12) 0.21302(9)
C33 C 0.19591(16) 1.30348(16) 0.47692(11)
C34 C 0.19596(17) 1.24824(17) 0.51893(12)
H17 H 0.2255 1.2050 0.5204
C35 C 0.15166(17) 1.25719(17) 0.55925(12)
C36 C 0.10887(19) 1.32037(18) 0.55761(13)
H18 H 0.0787 1.3255 0.5852
C37 C 0.11017(18) 1.37649(18) 0.51542(12)
H19 H 0.0815 1.4201 0.5143
C38 C 0.15348(16) 1.36797(16) 0.47528(12)
N5 N 0.15028(15) 1.19724(15) 0.60174(10)
C39 C 0.09288(19) 1.15877(19) 0.60876(13)
O9 O 0.03287(13) 1.18035(14) 0.59416(11)
O10 O 0.10567(13) 1.08846(13) 0.63510(10)
C40 C 0.27959(16) 1.36473(16) 0.41643(11)
C41 C 0.35259(17) 1.36268(17) 0.40717(12)
H20 H 0.3806 1.3185 0.4088
C42 C 0.38454(17) 1.42651(18) 0.39535(12)
C43 C 0.34400(18) 1.49152(18) 0.39194(13)
H21 H 0.3662 1.5348 0.3832
C44 C 0.27022(17) 1.49246(17) 0.40158(12)
H22 H 0.2418 1.5366 0.3990
C45 C 0.23856(16) 1.42943(16) 0.41483(12)
N6 N 0.46060(15) 1.42246(17) 0.38524(11)
C46 C 0.50480(18) 1.4100(2) 0.42403(14)
O11 O 0.48818(14) 1.41335(17) 0.46583(10)
O12 O 0.57623(12) 1.39069(15) 0.41405(9)
C47 C 0.11701(18) 0.94512(17) 0.27175(13)
C48 C 0.17507(18) 0.91430(17) 0.24798(13)
H23 H 0.2006 0.9433 0.2217
C49 C 0.19536(18) 0.84147(17) 0.26271(13)
C50 C 0.15778(19) 0.80070(17) 0.30106(14)
C51 C 0.09965(19) 0.82894(18) 0.32537(15)
H24 H 0.0744 0.7996 0.3516
C52 C 0.07971(19) 0.90190(18) 0.30984(14)
H25 H 0.0399 0.9226 0.3256
C53 C 0.26003(18) 0.80387(18) 0.24352(13)
H26 H 0.2460 0.7797 0.2183
H27 H 0.2942 0.8386 0.2277
C54 C 0.37903(18) 0.95267(17) 0.60185(12)
C55 C 0.38906(19) 0.90337(18) 0.57217(12)
H28 H 0.3488 0.8915 0.5574
C56 C 0.45652(19) 0.87152(18) 0.56396(12)
C57 C 0.51440(19) 0.89091(19) 0.58482(12)
C58 C 0.50726(19) 0.93837(19) 0.61524(13)
H29 H 0.5478 0.9499 0.6300
C59 C 0.43865(19) 0.96857(19) 0.62346(13)
H30 H 0.4324 1.0010 0.6444
C60 C 0.4723(2) 0.8182(2) 0.53298(14)
H31 H 0.4714 0.7693 0.5542
H32 H 0.4353 0.8254 0.5075
C61 C 0.63724(17) 1.24113(18) 0.26339(12)
C62 C 0.66391(17) 1.16916(17) 0.27619(12)
H33 H 0.6731 1.1466 0.3100
C63 C 0.67706(17) 1.13049(17) 0.24031(12)
C64 C 0.66145(17) 1.16304(18) 0.19158(12)
C65 C 0.63606(17) 1.23436(18) 0.17725(12)
H34 H 0.6268 1.2563 0.1434
C66 C 0.62426(17) 1.27331(18) 0.21357(12)
H35 H 0.6072 1.3224 0.2042
C67 C 0.7056(2) 1.05388(18) 0.25001(14)
H36 H 0.7581 1.0499 0.2438
H37 H 0.6959 1.0299 0.2851
C68 C 0.09897(17) 1.02358(17) 0.25668(13)
C69 C 0.08602(18) 1.06370(17) 0.29243(13)
H38 H 0.0844 1.0401 0.3266
C70 C 0.07556(17) 1.13745(16) 0.27853(12)
C71 C 0.07667(18) 1.17075(17) 0.22878(12)
C72 C 0.08876(19) 1.13301(18) 0.19211(13)
H39 H 0.0892 1.1571 0.1580
C73 C 0.10015(19) 1.05948(18) 0.20655(13)
H40 H 0.1089 1.0329 0.1820
C74 C 0.0654(2) 1.18484(17) 0.31451(13)
H41 H 0.0138 1.1927 0.3229
H42 H 0.0909 1.1616 0.3455
C75 C 0.30638(18) 0.98793(17) 0.61027(12)
C76 C 0.29925(18) 1.05889(17) 0.61479(12)
H43 H 0.3403 1.0846 0.6114
C77 C 0.23289(18) 1.09147(17) 0.62419(12)
C78 C 0.17350(18) 1.05433(18) 0.62727(13)
C79 C 0.1782(2) 0.98453(18) 0.62255(13)
H44 H 0.1367 0.9596 0.6254
C80 C 0.24499(19) 0.95214(19) 0.61350(13)
H45 H 0.2491 0.9047 0.6094
C81 C 0.21671(18) 1.16763(18) 0.62732(13)
H46 H 0.2118 1.1701 0.6625
H47 H 0.2565 1.1956 0.6118
C82 C 0.62380(17) 1.28245(18) 0.30235(12)
C83 C 0.56474(17) 1.33393(18) 0.29862(12)
H48 H 0.5350 1.3435 0.2705
C84 C 0.54921(17) 1.37086(18) 0.33505(12)
C85 C 0.59251(17) 1.35588(19) 0.37568(13)
C86 C 0.65160(18) 1.30590(19) 0.38094(13)
H49 H 0.6810 1.2967 0.4092
C87 C 0.66652(18) 1.26972(19) 0.34368(12)
H50 H 0.7070 1.2354 0.3465
C88 C 0.48630(19) 1.4262(2) 0.33395(13)
H51 H 0.5010 1.4743 0.3187
H52 H 0.4476 1.4169 0.3140
C89 C -0.00705(15) 0.49168(16) 0.20127(11)
H53 H 0.0188 0.4608 0.1807
C90 C -0.07392(16) 0.57125(16) 0.25510(11)
H54 H -0.0998 0.6022 0.2757
C91 C 0.28389(15) 0.20870(16) -0.03415(12)
H55 H 0.2605 0.2390 -0.0123
C92 C 0.34451(17) 0.13044(17) -0.09109(13)
H56 H 0.3680 0.0999 -0.1128
C93 C 0.04255(15) 0.51781(16) 0.23322(11)
C94 C 0.11649(16) 0.50514(16) 0.23284(12)
H57 H 0.1404 0.4761 0.2128
C95 C 0.15494(16) 0.53575(16) 0.26235(12)
C96 C 0.12073(17) 0.57853(17) 0.29193(12)
H58 H 0.1478 0.5983 0.3124
C97 C 0.04620(17) 0.59195(17) 0.29103(12)
H59 H 0.0224 0.6221 0.3103
C98 C 0.00704(16) 0.56155(16) 0.26218(11)
N7 N 0.23163(13) 0.52096(13) 0.26170(10)
C99 C 0.27246(16) 0.57525(17) 0.24402(13)
O13 O 0.25248(12) 0.63809(12) 0.23282(10)
O14 O 0.34485(11) 0.55541(12) 0.23806(9)
C100 C -0.06332(16) 0.45423(16) 0.23637(12)
C101 C -0.07975(16) 0.38544(16) 0.24129(12)
H60 H -0.0551 0.3562 0.2217
C102 C -0.13295(17) 0.35912(17) 0.27534(12)
C103 C -0.16896(17) 0.40015(18) 0.30482(13)
H61 H -0.2051 0.3813 0.3279
C104 C -0.15139(17) 0.46979(18) 0.30023(12)
H62 H -0.1752 0.4984 0.3205
C105 C -0.09911(16) 0.49700(17) 0.26595(12)
N8 N -0.15011(15) 0.28774(14) 0.27685(11)
C106 C -0.13121(19) 0.23385(18) 0.31583(13)
O15 O -0.10970(16) 0.23973(14) 0.35494(10)
O16 O -0.13612(14) 0.16583(12) 0.30969(9)
C107 C -0.04543(15) 0.55929(16) 0.17035(11)
C108 C -0.04275(17) 0.58170(17) 0.11944(12)
H63 H -0.0174 0.5525 0.1001
C109 C -0.07738(18) 0.64732(17) 0.09652(12)
C110 C -0.11618(18) 0.68962(18) 0.12470(12)
H64 H -0.1407 0.7340 0.1088
C111 C -0.11894(17) 0.66647(17) 0.17639(12)
H65 H -0.1458 0.6947 0.1958
C112 C -0.08232(16) 0.60234(16) 0.19914(11)
N9 N -0.06826(15) 0.67272(15) 0.04397(10)
C113 C -0.12161(19) 0.6704(2) 0.01384(13)
O17 O -0.17919(14) 0.64906(16) 0.02639(10)
O18 O -0.10762(15) 0.69625(16) -0.03637(9)
C114 C 0.35196(16) 0.16588(17) -0.01290(12)
C115 C 0.38078(17) 0.16744(17) 0.03124(13)
H66 H 0.3568 0.1951 0.0521
C116 C 0.44601(17) 0.12748(18) 0.04489(13)
C117 C 0.48212(19) 0.08917(19) 0.01335(14)
H67 H 0.5279 0.0645 0.0220
C118 C 0.45090(17) 0.08690(18) -0.03138(14)
H68 H 0.4750 0.0602 -0.0529
C119 C 0.38479(16) 0.12407(17) -0.04353(12)
N10 N 0.47559(16) 0.13110(15) 0.09084(11)
C120 C 0.4804(2) 0.0733(2) 0.12918(14)
O19 O 0.47031(16) 0.01328(14) 0.12750(11)
O20 O 0.49616(14) 0.08464(13) 0.17481(10)
C121 C 0.23593(16) 0.15572(16) -0.04400(12)
C122 C 0.16620(16) 0.14918(16) -0.02700(13)
H69 H 0.1449 0.1779 -0.0059
C123 C 0.12742(17) 0.10038(18) -0.04097(14)
C124 C 0.15882(18) 0.05697(18) -0.07043(14)
H70 H 0.1324 0.0224 -0.0788
C125 C 0.22972(18) 0.06382(18) -0.08806(14)
H71 H 0.2512 0.0347 -0.1088
C126 C 0.26812(17) 0.11368(17) -0.07480(13)
N11 N 0.05485(14) 0.09507(15) -0.02182(11)
C127 C 0.00036(18) 0.1163(2) -0.05365(14)
O21 O 0.00646(14) 0.13348(16) -0.09849(10)
O22 O -0.06787(12) 0.11781(14) -0.03314(9)
C128 C 0.30634(16) 0.25218(16) -0.08511(12)
C129 C 0.30016(16) 0.32530(17) -0.10040(12)
H72 H 0.2786 0.3537 -0.0792
C130 C 0.32606(17) 0.35704(17) -0.14756(13)
C131 C 0.35773(19) 0.31672(19) -0.17894(14)
H73 H 0.3746 0.3391 -0.2111
C132 C 0.36455(19) 0.24206(19) -0.16255(13)
H74 H 0.3867 0.2136 -0.1835
C133 C 0.33899(17) 0.21002(17) -0.11594(12)
N12 N 0.32011(15) 0.43418(15) -0.16076(12)
C134 C 0.37802(19) 0.46641(19) -0.15533(15)
O23 O 0.43909(13) 0.43825(14) -0.15200(12)
O24 O 0.36669(13) 0.53711(13) -0.15327(10)
C135 C 0.41000(16) 0.35506(17) 0.21296(12)
C136 C 0.34912(16) 0.36504(18) 0.24261(12)
H75 H 0.3230 0.3256 0.2572
C137 C 0.32655(15) 0.43131(17) 0.25088(12)
C138 C 0.36510(16) 0.48806(17) 0.22955(13)
C139 C 0.42610(17) 0.48093(19) 0.20005(13)
H76 H 0.4523 0.5206 0.1859
C140 C 0.44739(16) 0.41394(18) 0.19203(13)
H77 H 0.4886 0.4080 0.1717
C141 C 0.26154(16) 0.44697(16) 0.28123(13)
H78 H 0.2253 0.4140 0.2798
H79 H 0.2747 0.4400 0.3163
C142 C -0.11569(17) 0.13146(19) 0.16680(13)
C143 C -0.14718(18) 0.19605(19) 0.17523(14)
H80 H -0.1639 0.2328 0.1478
C144 C -0.15474(16) 0.20794(18) 0.22220(13)
C145 C -0.12949(18) 0.15479(18) 0.26190(13)
C146 C -0.09753(18) 0.08868(19) 0.25548(14)
H81 H -0.0814 0.0520 0.2832
C147 C -0.09022(18) 0.07845(19) 0.20791(14)
H82 H -0.0675 0.0346 0.2029
C148 C -0.18565(18) 0.27720(18) 0.23339(14)
H83 H -0.1782 0.3172 0.2044
H84 H -0.2378 0.2762 0.2403
C149 C 0.0990(2) 0.6398(2) -0.08274(13)
C150 C 0.0878(2) 0.6616(2) -0.03838(13)
H85 H 0.1272 0.6618 -0.0182
C151 C 0.0186(2) 0.6829(2) -0.02367(13)
C152 C -0.0376(2) 0.6811(2) -0.05312(13)
C153 C -0.0282(2) 0.6639(3) -0.09835(14)
H86 H -0.0677 0.6659 -0.1190
C154 C 0.0404(2) 0.6435(3) -0.11280(15)
H87 H 0.0480 0.6316 -0.1440
C155 C -0.0004(2) 0.7022(2) 0.02464(14)
H88 H 0.0382 0.6824 0.0487
H89 H -0.0058 0.7547 0.0197
C156 C 0.43321(17) 0.28372(18) 0.20320(13)
C157 C 0.45223(17) 0.27770(18) 0.15486(13)
H90 H 0.4503 0.3192 0.1284
C158 C 0.47383(17) 0.21187(18) 0.14541(13)
C159 C 0.47572(18) 0.15200(18) 0.18393(13)
C160 C 0.45888(19) 0.15541(19) 0.23256(14)
H91 H 0.4614 0.1135 0.2588
C161 C 0.43823(18) 0.22202(19) 0.24178(13)
H92 H 0.4273 0.2257 0.2749
C162 C 0.4964(2) 0.2012(2) 0.09527(14)
H93 H 0.4729 0.2400 0.0693
H94 H 0.5489 0.2023 0.0907
C163 C -0.10449(18) 0.12355(19) 0.11517(14)
C164 C -0.03841(17) 0.09536(18) 0.09946(13)
H95 H -0.0018 0.0773 0.1230
C165 C -0.02501(17) 0.09311(18) 0.05013(13)
C166 C -0.07884(17) 0.11919(19) 0.01655(13)
C167 C -0.14550(18) 0.1458(2) 0.03113(14)
H96 H -0.1824 0.1623 0.0077
C168 C -0.15773(18) 0.1481(2) 0.08019(14)
H97 H -0.2033 0.1668 0.0902
C169 C 0.04575(18) 0.06591(18) 0.03201(13)
H98 H 0.0845 0.0797 0.0497
H99 H 0.0493 0.0132 0.0392
C170 C 0.17011(19) 0.6108(2) -0.09887(13)
C171 C 0.17484(19) 0.55586(19) -0.12351(13)
H100 H 0.1326 0.5352 -0.1279
C172 C 0.23990(18) 0.53047(18) -0.14184(13)
C173 C 0.30049(18) 0.56053(19) -0.13414(13)
C174 C 0.2993(2) 0.6120(2) -0.10722(14)
H101 H 0.3423 0.6294 -0.1006
C175 C 0.2340(2) 0.6371(2) -0.09032(14)
H102 H 0.2321 0.6732 -0.0724
C176 C 0.24854(18) 0.47322(19) -0.16978(14)
H103 H 0.2112 0.4400 -0.1587
H104 H 0.2430 0.4946 -0.2057
loop_
_geom_bond_atom_site_label_1
_geom_bond_atom_site_label_2
_geom_bond_site_symmetry_1
_geom_bond_site_symmetry_2
C1 H1 1_555 1_555
C2 H2 1_555 1_555
C3 H3 1_555 1_555
C4 H4 1_555 1_555
C5 C1 1_555 1_555
C6 C5 1_555 1_555
H5 C6 1_555 1_555
C7 C6 1_555 1_555
C8 C7 1_555 1_555
H6 C8 1_555 1_555
C9 C8 1_555 1_555
H7 C9 1_555 1_555
C10 C2 1_555 1_555
N1 C7 1_555 1_555
C11 N1 1_555 1_555
O1 C11 1_555 1_555
O2 C11 1_555 1_555
C12 C1 1_555 1_555
C13 C12 1_555 1_555
H8 C13 1_555 1_555
C14 C13 1_555 1_555
C15 C14 1_555 1_555
H9 C15 1_555 1_555
C16 C15 1_555 1_555
H10 C16 1_555 1_555
C17 C2 1_555 1_555
N2 C14 1_555 1_555
C18 N2 1_555 1_555
O3 C18 1_555 1_555
O4 C18 1_555 1_555
C19 C1 1_555 1_555
C20 C19 1_555 1_555
H11 C20 1_555 1_555
C21 C20 1_555 1_555
C22 C21 1_555 1_555
H12 C22 1_555 1_555
C23 C22 1_555 1_555
H13 C23 1_555 1_555
C24 C2 1_555 1_555
N3 C21 1_555 1_555
C25 N3 1_555 1_555
O5 C25 1_555 1_555
O6 C25 1_555 1_555
C26 C3 1_555 1_555
C27 C26 1_555 1_555
H14 C27 1_555 1_555
C28 C27 1_555 1_555
C29 C28 1_555 1_555
H15 C29 1_555 1_555
C30 C29 1_555 1_555
H16 C30 1_555 1_555
C31 C4 1_555 1_555
N4 C28 1_555 1_555
C32 N4 1_555 1_555
O7 C32 1_555 1_555
O8 C32 1_555 1_555
C33 C3 1_555 1_555
C34 C33 1_555 1_555
H17 C34 1_555 1_555
C35 C34 1_555 1_555
C36 C35 1_555 1_555
H18 C36 1_555 1_555
C37 C36 1_555 1_555
H19 C37 1_555 1_555
C38 C4 1_555 1_555
N5 C35 1_555 1_555
C39 N5 1_555 1_555
O9 C39 1_555 1_555
O10 C39 1_555 1_555
C40 C3 1_555 1_555
C41 C40 1_555 1_555
H20 C41 1_555 1_555
C42 C41 1_555 1_555
C43 C42 1_555 1_555
H21 C43 1_555 1_555
C44 C43 1_555 1_555
H22 C44 1_555 1_555
C45 C4 1_555 1_555
N6 C42 1_555 1_555
C46 N6 1_555 1_555
O11 C46 1_555 1_555
O12 C46 1_555 1_555
C47 C48 1_555 1_555
C48 H23 1_555 1_555
C49 C48 1_555 1_555
C50 O2 1_555 1_555
C51 C50 1_555 1_555
H24 C51 1_555 1_555
C52 C47 1_555 1_555
H25 C52 1_555 1_555
C53 N1 1_555 1_555
H26 C53 1_555 1_555
H27 C53 1_555 1_555
C54 C55 1_555 1_555
C55 H28 1_555 1_555
C56 C55 1_555 1_555
C57 O4 1_555 1_555
C58 C57 1_555 1_555
H29 C58 1_555 1_555
C59 C54 1_555 1_555
H30 C59 1_555 1_555
C60 N2 1_555 1_555
H31 C60 1_555 1_555
H32 C60 1_555 1_555
C61 C62 1_555 1_555
C62 H33 1_555 1_555
C63 C62 1_555 1_555
C64 O6 1_555 1_555
C65 C64 1_555 1_555
H34 C65 1_555 1_555
C66 C61 1_555 1_555
H35 C66 1_555 1_555
C67 N3 1_555 1_555
H36 C67 1_555 1_555
H37 C67 1_555 1_555
C68 C47 1_555 1_555
C69 C68 1_555 1_555
H38 C69 1_555 1_555
C70 C69 1_555 1_555
C71 O8 1_555 1_555
C72 C71 1_555 1_555
H39 C72 1_555 1_555
C73 C68 1_555 1_555
H40 C73 1_555 1_555
C74 N4 1_555 1_555
H41 C74 1_555 1_555
H42 C74 1_555 1_555
C75 C54 1_555 1_555
C76 C75 1_555 1_555
H43 C76 1_555 1_555
C77 C76 1_555 1_555
C78 O10 1_555 1_555
C79 C78 1_555 1_555
H44 C79 1_555 1_555
C80 C75 1_555 1_555
H45 C80 1_555 1_555
C81 N5 1_555 1_555
H46 C81 1_555 1_555
H47 C81 1_555 1_555
C82 C61 1_555 1_555
C83 C82 1_555 1_555
H48 C83 1_555 1_555
C84 C83 1_555 1_555
C85 O12 1_555 1_555
C86 C85 1_555 1_555
H49 C86 1_555 1_555
C87 C82 1_555 1_555
H50 C87 1_555 1_555
C88 N6 1_555 1_555
H51 C88 1_555 1_555
H52 C88 1_555 1_555
C89 H53 1_555 1_555
C90 H54 1_555 1_555
C91 H55 1_555 1_555
C92 H56 1_555 1_555
C93 C89 1_555 1_555
C94 C93 1_555 1_555
H57 C94 1_555 1_555
C95 C94 1_555 1_555
C96 C95 1_555 1_555
H58 C96 1_555 1_555
C97 C96 1_555 1_555
H59 C97 1_555 1_555
C98 C90 1_555 1_555
N7 C95 1_555 1_555
C99 N7 1_555 1_555
O13 C99 1_555 1_555
O14 C99 1_555 1_555
C100 C89 1_555 1_555
C101 C100 1_555 1_555
H60 C101 1_555 1_555
C102 C101 1_555 1_555
C103 C102 1_555 1_555
H61 C103 1_555 1_555
C104 C103 1_555 1_555
H62 C104 1_555 1_555
C105 C90 1_555 1_555
N8 C102 1_555 1_555
C106 N8 1_555 1_555
O15 C106 1_555 1_555
O16 C106 1_555 1_555
C107 C89 1_555 1_555
C108 C107 1_555 1_555
H63 C108 1_555 1_555
C109 C108 1_555 1_555
C110 C109 1_555 1_555
H64 C110 1_555 1_555
C111 C110 1_555 1_555
H65 C111 1_555 1_555
C112 C90 1_555 1_555
N9 C109 1_555 1_555
C113 N9 1_555 1_555
O17 C113 1_555 1_555
O18 C113 1_555 1_555
C114 C91 1_555 1_555
C115 C114 1_555 1_555
H66 C115 1_555 1_555
C116 C115 1_555 1_555
C117 C116 1_555 1_555
H67 C117 1_555 1_555
C118 C117 1_555 1_555
H68 C118 1_555 1_555
C119 C92 1_555 1_555
N10 C116 1_555 1_555
C120 N10 1_555 1_555
O19 C120 1_555 1_555
O20 C120 1_555 1_555
C121 C91 1_555 1_555
C122 C121 1_555 1_555
H69 C122 1_555 1_555
C123 C122 1_555 1_555
C124 C123 1_555 1_555
H70 C124 1_555 1_555
C125 C124 1_555 1_555
H71 C125 1_555 1_555
C126 C92 1_555 1_555
N11 C123 1_555 1_555
C127 N11 1_555 1_555
O21 C127 1_555 1_555
O22 C127 1_555 1_555
C128 C91 1_555 1_555
C129 C128 1_555 1_555
H72 C129 1_555 1_555
C130 C129 1_555 1_555
C131 C130 1_555 1_555
H73 C131 1_555 1_555
C132 C131 1_555 1_555
H74 C132 1_555 1_555
C133 C92 1_555 1_555
N12 C130 1_555 1_555
C134 N12 1_555 1_555
O23 C134 1_555 1_555
O24 C134 1_555 1_555
C135 C136 1_555 1_555
C136 H75 1_555 1_555
C137 C136 1_555 1_555
C138 O14 1_555 1_555
C139 C138 1_555 1_555
H76 C139 1_555 1_555
C140 C135 1_555 1_555
H77 C140 1_555 1_555
C141 N7 1_555 1_555
H78 C141 1_555 1_555
H79 C141 1_555 1_555
C142 C143 1_555 1_555
C143 H80 1_555 1_555
C144 C143 1_555 1_555
C145 O16 1_555 1_555
C146 C145 1_555 1_555
H81 C146 1_555 1_555
C147 C142 1_555 1_555
H82 C147 1_555 1_555
C148 N8 1_555 1_555
H83 C148 1_555 1_555
H84 C148 1_555 1_555
C149 C150 1_555 1_555
C150 H85 1_555 1_555
C151 C150 1_555 1_555
C152 O18 1_555 1_555
C153 C152 1_555 1_555
H86 C153 1_555 1_555
C154 C149 1_555 1_555
H87 C154 1_555 1_555
C155 N9 1_555 1_555
H88 C155 1_555 1_555
H89 C155 1_555 1_555
C156 C135 1_555 1_555
C157 C156 1_555 1_555
H90 C157 1_555 1_555
C158 C157 1_555 1_555
C159 O20 1_555 1_555
C160 C159 1_555 1_555
H91 C160 1_555 1_555
C161 C156 1_555 1_555
H92 C161 1_555 1_555
C162 N10 1_555 1_555
H93 C162 1_555 1_555
H94 C162 1_555 1_555
C163 C142 1_555 1_555
C164 C163 1_555 1_555
H95 C164 1_555 1_555
C165 C164 1_555 1_555
C166 O22 1_555 1_555
C167 C166 1_555 1_555
H96 C167 1_555 1_555
C168 C163 1_555 1_555
H97 C168 1_555 1_555
C169 N11 1_555 1_555
H98 C169 1_555 1_555
H99 C169 1_555 1_555
C170 C149 1_555 1_555
C171 C170 1_555 1_555
H100 C171 1_555 1_555
C172 C171 1_555 1_555
C173 O24 1_555 1_555
C174 C173 1_555 1_555
H101 C174 1_555 1_555
C175 C170 1_555 1_555
H102 C175 1_555 1_555
C176 N12 1_555 1_555
H103 C176 1_555 1_555
H104 C176 1_555 1_555
C5 C10 1_555 1_555
C9 C10 1_555 1_555
C12 C17 1_555 1_555
C16 C17 1_555 1_555
C19 C24 1_555 1_555
C23 C24 1_555 1_555
C26 C31 1_555 1_555
C30 C31 1_555 1_555
C33 C38 1_555 1_555
C37 C38 1_555 1_555
C40 C45 1_555 1_555
C44 C45 1_555 1_555
C49 C50 1_555 1_555
C49 C53 1_555 1_555
C51 C52 1_555 1_555
C56 C57 1_555 1_555
C56 C60 1_555 1_555
C58 C59 1_555 1_555
C63 C64 1_555 1_555
C63 C67 1_555 1_555
C65 C66 1_555 1_555
C70 C71 1_555 1_555
C70 C74 1_555 1_555
C72 C73 1_555 1_555
C77 C78 1_555 1_555
C77 C81 1_555 1_555
C79 C80 1_555 1_555
C84 C85 1_555 1_555
C84 C88 1_555 1_555
C86 C87 1_555 1_555
C93 C98 1_555 1_555
C97 C98 1_555 1_555
C100 C105 1_555 1_555
C104 C105 1_555 1_555
C107 C112 1_555 1_555
C111 C112 1_555 1_555
C114 C119 1_555 1_555
C118 C119 1_555 1_555
C121 C126 1_555 1_555
C125 C126 1_555 1_555
C128 C133 1_555 1_555
C132 C133 1_555 1_555
C137 C138 1_555 1_555
C137 C141 1_555 1_555
C139 C140 1_555 1_555
C144 C145 1_555 1_555
C144 C148 1_555 1_555
C146 C147 1_555 1_555
C151 C152 1_555 1_555
C151 C155 1_555 1_555
C153 C154 1_555 1_555
C158 C159 1_555 1_555
C158 C162 1_555 1_555
C160 C161 1_555 1_555
C165 C166 1_555 1_555
C165 C169 1_555 1_555
C167 C168 1_555 1_555
C172 C173 1_555 1_555
C172 C176 1_555 1_555
C174 C175 1_555 1_555

#END
