
#######################################################################
#
#                 Cambridge Crystallographic Data Centre
#                                CCDC 
#
#######################################################################
#
# If this CIF has been generated from an entry in the Cambridge 
# Structural Database, then it will include bibliographic, chemical, 
# crystal, experimental, refinement or atomic coordinate data resulting 
# from the CCDC's data processing and validation procedures.
#
#######################################################################

data_XAYMUI
_chemical_formula_moiety         'C88 H52 N6 O12'
_symmetry_cell_setting           triclinic
_symmetry_space_group_name_H-M   'P -1'
_symmetry_Int_Tables_number      2
_space_group_name_Hall           '-P 1'
loop_
_symmetry_equiv_pos_site_id
_symmetry_equiv_pos_as_xyz
1 x,y,z
2 -x,-y,-z
_cell_length_a                   15.638(3)
_cell_length_b                   16.513(3)
_cell_length_c                   18.346(3)
_cell_angle_alpha                83.365(13)
_cell_angle_beta                 68.721(13)
_cell_angle_gamma                72.264(12)
_cell_volume                     4204.62
loop_
_atom_site_label
_atom_site_type_symbol
_atom_site_fract_x
_atom_site_fract_y
_atom_site_fract_z
C1 C 0.4000(8) 0.1883(8) 0.8085(9)
H1 H 0.414479 0.219333 0.757284
C2 C 0.3610(8) 0.1064(8) 0.9448(9)
H2 H 0.346635 0.075676 0.996147
C3 C 0.5692(8) 0.3190(7) 0.2071(9)
H3 H 0.546210 0.293708 0.260286
C4 C 0.6321(8) 0.3843(7) 0.0661(9)
H4 H 0.655433 0.409602 0.012939
C5 C 0.3827(11) 0.1016(8) 0.8055(8)
C6 C 0.3868(11) 0.0690(9) 0.7384(9)
H5 H 0.397849 0.099908 0.690471
C7 C 0.3737(11) -0.0125(9) 0.7442(8)
C8 C 0.3558(12) -0.0571(9) 0.8128(8)
H6 H 0.346056 -0.111407 0.814581
C9 C 0.3517(11) -0.0223(9) 0.8808(9)
H7 H 0.341252 -0.053497 0.928580
C10 C 0.3631(11) 0.0574(8) 0.8771(8)
C11 C 0.4389(12) -0.1208(10) 0.6463(9)
O1 O 0.4993(8) -0.1643(7) 0.6730(7)
O2 O 0.4398(7) -0.1521(6) 0.5790(6)
N1 N 0.3761(9) -0.0450(7) 0.6724(7)
C12 C 0.2944(11) -0.0040(11) 0.6444(8)
H8 H 0.239457 -0.026391 0.674368
H9 H 0.273969 0.058209 0.652477
C13 C 0.4808(9) 0.1658(8) 0.8443(8)
C14 C 0.5677(9) 0.1811(9) 0.8063(9)
H10 H 0.581648 0.208024 0.756476
C15 C 0.6356(9) 0.1551(10) 0.8443(9)
C16 C 0.6158(10) 0.1136(10) 0.9140(9)
H11 H 0.663900 0.093626 0.937079
C17 C 0.5258(9) 0.0994(9) 0.9530(8)
H12 H 0.510826 0.074454 1.003664
C18 C 0.4602(9) 0.1228(9) 0.9154(8)
C19 C 0.7506(11) 0.2376(10) 0.8055(9)
O3 O 0.7040(10) 0.2923(8) 0.8552(8)
O4 O 0.8307(8) 0.2515(7) 0.7462(7)
N2 N 0.7307(8) 0.1642(7) 0.8020(7)
C20 C 0.7989(11) 0.0986(9) 0.7425(8)
H13 H 0.852729 0.065406 0.759674
H14 H 0.765998 0.058977 0.735550
C21 C 0.3097(10) 0.2368(8) 0.8743(8)
C22 C 0.2544(10) 0.3167(8) 0.8648(9)
H15 H 0.270018 0.345980 0.816172
C23 C 0.1737(9) 0.3540(7) 0.9292(8)
C24 C 0.1526(11) 0.3127(9) 0.9981(9)
H16 H 0.098821 0.339799 1.041162
C25 C 0.2079(9) 0.2310(8) 1.0077(8)
H17 H 0.190015 0.201245 1.055826
C26 C 0.2890(9) 0.1942(8) 0.9461(8)
C27 C 0.0289(10) 0.4472(9) 0.9120(9)
O5 O -0.0220(8) 0.4019(7) 0.9439(7)
O6 O -0.0048(7) 0.5202(6) 0.8744(6)
N3 N 0.1165(8) 0.4382(7) 0.9179(8)
C28 C 0.1648(10) 0.5075(9) 0.8860(8)
H18 H 0.136622 0.555061 0.923545
H19 H 0.233938 0.485197 0.877784
C29 C 0.5233(10) 0.3037(9) 0.1501(8)
C30 C 0.4512(10) 0.2649(9) 0.1718(9)
H20 H 0.429884 0.240263 0.222160
C31 C 0.4108(9) 0.2639(9) 0.1142(8)
C32 C 0.4428(10) 0.2963(9) 0.0419(9)
H21 H 0.415006 0.292403 0.004654
C33 C 0.5161(10) 0.3356(9) 0.0205(9)
H22 H 0.537376 0.359436 -0.030267
C34 C 0.5567(10) 0.3387(9) 0.0750(8)
C35 C 0.2428(9) 0.2744(9) 0.1638(9)
O7 O 0.2132(8) 0.3493(6) 0.1507(7)
O8 O 0.1763(7) 0.2364(6) 0.2162(6)
N4 N 0.3338(8) 0.2235(7) 0.1377(7)
C36 C 0.3550(11) 0.1313(8) 0.1570(8)
H23 H 0.337712 0.101133 0.123265
H24 H 0.424191 0.106891 0.148010
C37 C 0.6781(8) 0.2852(8) 0.1635(8)
C38 C 0.7406(8) 0.2293(8) 0.1958(8)
H25 H 0.718310 0.204115 0.245749
C39 C 0.8382(9) 0.2115(9) 0.1517(9)
C40 C 0.8724(11) 0.2472(10) 0.0799(9)
H26 H 0.939394 0.235425 0.053031
C41 C 0.8084(9) 0.3009(10) 0.0462(9)
H27 H 0.830717 0.324114 -0.004631
C42 C 0.7122(9) 0.3192(8) 0.0888(8)
C43 C 0.9178(13) 0.0710(9) 0.1828(10)
O9 O 0.8982(8) 0.0359(7) 0.1388(7)
O10 O 0.9629(8) 0.0204(6) 0.2316(6)
N5 N 0.9040(9) 0.1548(7) 0.1872(8)
C44 C 0.9405(12) 0.1905(9) 0.2371(8)
H28 H 1.008255 0.188677 0.208609
H29 H 0.903023 0.250628 0.249438
C45 C 0.5513(11) 0.4162(8) 0.2069(9)
C46 C 0.5105(11) 0.4671(8) 0.2718(9)
H30 H 0.485626 0.444104 0.322308
C47 C 0.5062(11) 0.5534(8) 0.2625(8)
C48 C 0.5364(11) 0.5873(9) 0.1898(8)
H31 H 0.527546 0.646894 0.183618
C49 C 0.5802(10) 0.5350(8) 0.1243(8)
H32 H 0.607045 0.558052 0.074196
C50 C 0.5848(10) 0.4505(8) 0.1319(8)
C51 C 0.5254(10) 0.6373(10) 0.3488(9)
O11 O 0.6053(8) 0.6393(7) 0.3061(7)
O12 O 0.4891(8) 0.6794(7) 0.4193(7)
N6 N 0.4653(8) 0.6023(8) 0.3334(7)
C52 C 0.3636(9) 0.6167(11) 0.3837(8)
H33 H 0.324303 0.669068 0.366419
H34 H 0.341216 0.568472 0.378233
C53 C 0.3137(11) 0.0086(9) 0.4301(8)
C54 C 0.2853(11) 0.0309(9) 0.5085(8)
H35 H 0.238124 0.083077 0.527189
C55 C 0.3254(11) -0.0227(9) 0.5599(8)
C56 C 0.3968(11) -0.0954(9) 0.5286(8)
C57 C 0.4232(12) -0.1236(10) 0.4552(9)
H36 H 0.466432 -0.178148 0.439030
C58 C 0.3839(11) -0.0687(9) 0.4040(9)
H37 H 0.405167 -0.084096 0.350650
C59 C 0.2779(10) 0.0659(9) 0.3726(8)
C60 C 0.3334(10) 0.0678(9) 0.2939(8)
H38 H 0.397065 0.031644 0.276330
C61 C 0.2987(9) 0.1209(8) 0.2401(7)
C62 C 0.2057(10) 0.1735(9) 0.2695(8)
C63 C 0.1490(11) 0.1771(9) 0.3447(8)
H39 H 0.087489 0.217215 0.361587
C64 C 0.1828(10) 0.1197(9) 0.3989(9)
H40 H 0.142323 0.117397 0.451773
C65 C 0.8888(11) 0.1552(9) 0.5258(8)
C66 C 0.8528(10) 0.1134(9) 0.5946(7)
H41 H 0.839621 0.061715 0.591307
C67 C 0.8345(12) 0.1428(9) 0.6688(8)
C68 C 0.8512(13) 0.2203(10) 0.6706(9)
C69 C 0.8873(13) 0.2637(11) 0.6061(9)
H42 H 0.896691 0.316693 0.610986
C70 C 0.9115(13) 0.2313(10) 0.5308(9)
H43 H 0.941916 0.259450 0.485003
C71 C 0.9103(11) 0.1204(8) 0.4486(8)
C72 C 0.9115(11) 0.1727(9) 0.3840(8)
H44 H 0.897863 0.232206 0.389978
C73 C 0.9322(12) 0.1411(8) 0.3098(8)
C74 C 0.9487(11) 0.0540(8) 0.3050(8)
C75 C 0.9450(12) 0.0015(9) 0.3667(8)
H45 H 0.954230 -0.057269 0.360522
C76 C 0.9277(12) 0.0322(9) 0.4397(9)
H46 H 0.927575 -0.005417 0.482948
C77 C 0.1998(10) 0.5906(9) 0.6774(8)
C78 C 0.2194(10) 0.5580(9) 0.7439(8)
H47 H 0.282114 0.549183 0.744427
C79 C 0.1507(9) 0.5377(9) 0.8104(8)
C80 C 0.0604(9) 0.5481(9) 0.8074(8)
C81 C 0.0397(10) 0.5709(9) 0.7411(8)
H48 H -0.019222 0.569336 0.738248
C82 C 0.1078(10) 0.5970(10) 0.6769(9)
H49 H 0.091849 0.619493 0.631914
C83 C 0.2721(10) 0.6127(10) 0.6068(8)
C84 C 0.2809(10) 0.6007(10) 0.5304(8)
H50 H 0.238587 0.575406 0.521312
C85 C 0.3509(11) 0.6251(10) 0.4665(8)
C86 C 0.4144(11) 0.6566(11) 0.4827(9)
C87 C 0.4097(11) 0.6694(10) 0.5546(9)
H51 H 0.454790 0.692273 0.561975
C88 C 0.3377(10) 0.6489(10) 0.6190(9)
H52 H 0.332606 0.658961 0.670554
loop_
_geom_bond_atom_site_label_1
_geom_bond_atom_site_label_2
_geom_bond_site_symmetry_1
_geom_bond_site_symmetry_2
C1 H1 1_555 1_555
C2 H2 1_555 1_555
C3 H3 1_555 1_555
C4 H4 1_555 1_555
C5 C1 1_555 1_555
C6 C5 1_555 1_555
H5 C6 1_555 1_555
C7 C6 1_555 1_555
C8 C7 1_555 1_555
H6 C8 1_555 1_555
C9 C8 1_555 1_555
H7 C9 1_555 1_555
C10 C2 1_555 1_555
C11 O1 1_555 1_555
O2 C11 1_555 1_555
N1 C7 1_555 1_555
C12 N1 1_555 1_555
H8 C12 1_555 1_555
H9 C12 1_555 1_555
C13 C1 1_555 1_555
C14 C13 1_555 1_555
H10 C14 1_555 1_555
C15 C14 1_555 1_555
C16 C15 1_555 1_555
H11 C16 1_555 1_555
C17 C16 1_555 1_555
H12 C17 1_555 1_555
C18 C2 1_555 1_555
C19 O3 1_555 1_555
O4 C19 1_555 1_555
N2 C15 1_555 1_555
C20 N2 1_555 1_555
H13 C20 1_555 1_555
H14 C20 1_555 1_555
C21 C1 1_555 1_555
C22 C21 1_555 1_555
H15 C22 1_555 1_555
C23 C22 1_555 1_555
C24 C23 1_555 1_555
H16 C24 1_555 1_555
C25 C24 1_555 1_555
H17 C25 1_555 1_555
C26 C2 1_555 1_555
C27 O5 1_555 1_555
O6 C27 1_555 1_555
N3 C23 1_555 1_555
C28 N3 1_555 1_555
H18 C28 1_555 1_555
H19 C28 1_555 1_555
C29 C3 1_555 1_555
C30 C29 1_555 1_555
H20 C30 1_555 1_555
C31 C30 1_555 1_555
C32 C31 1_555 1_555
H21 C32 1_555 1_555
C33 C32 1_555 1_555
H22 C33 1_555 1_555
C34 C4 1_555 1_555
C35 O7 1_555 1_555
O8 C35 1_555 1_555
N4 C31 1_555 1_555
C36 N4 1_555 1_555
H23 C36 1_555 1_555
H24 C36 1_555 1_555
C37 C3 1_555 1_555
C38 C37 1_555 1_555
H25 C38 1_555 1_555
C39 C38 1_555 1_555
C40 C39 1_555 1_555
H26 C40 1_555 1_555
C41 C40 1_555 1_555
H27 C41 1_555 1_555
C42 C4 1_555 1_555
C43 O9 1_555 1_555
O10 C43 1_555 1_555
N5 C39 1_555 1_555
C44 N5 1_555 1_555
H28 C44 1_555 1_555
H29 C44 1_555 1_555
C45 C3 1_555 1_555
C46 C45 1_555 1_555
H30 C46 1_555 1_555
C47 C46 1_555 1_555
C48 C47 1_555 1_555
H31 C48 1_555 1_555
C49 C48 1_555 1_555
H32 C49 1_555 1_555
C50 C4 1_555 1_555
C51 O11 1_555 1_555
O12 C51 1_555 1_555
N6 C47 1_555 1_555
C52 N6 1_555 1_555
H33 C52 1_555 1_555
H34 C52 1_555 1_555
C53 C54 1_555 1_555
C54 H35 1_555 1_555
C55 C12 1_555 1_555
C56 O2 1_555 1_555
C57 C56 1_555 1_555
H36 C57 1_555 1_555
C58 C53 1_555 1_555
H37 C58 1_555 1_555
C59 C53 1_555 1_555
C60 C59 1_555 1_555
H38 C60 1_555 1_555
C61 C36 1_555 1_555
C62 O8 1_555 1_555
C63 C62 1_555 1_555
H39 C63 1_555 1_555
C64 C59 1_555 1_555
H40 C64 1_555 1_555
C65 C66 1_555 1_555
C66 H41 1_555 1_555
C67 C20 1_555 1_555
C68 O4 1_555 1_555
C69 C68 1_555 1_555
H42 C69 1_555 1_555
C70 C65 1_555 1_555
H43 C70 1_555 1_555
C71 C65 1_555 1_555
C72 C71 1_555 1_555
H44 C72 1_555 1_555
C73 C44 1_555 1_555
C74 O10 1_555 1_555
C75 C74 1_555 1_555
H45 C75 1_555 1_555
C76 C71 1_555 1_555
H46 C76 1_555 1_555
C77 C78 1_555 1_555
C78 H47 1_555 1_555
C79 C28 1_555 1_555
C80 O6 1_555 1_555
C81 C80 1_555 1_555
H48 C81 1_555 1_555
C82 C77 1_555 1_555
H49 C82 1_555 1_555
C83 C77 1_555 1_555
C84 C83 1_555 1_555
H50 C84 1_555 1_555
C85 C52 1_555 1_555
C86 O12 1_555 1_555
C87 C86 1_555 1_555
H51 C87 1_555 1_555
C88 C83 1_555 1_555
H52 C88 1_555 1_555
C5 C10 1_555 1_555
C9 C10 1_555 1_555
C11 N1 1_555 1_555
C13 C18 1_555 1_555
C17 C18 1_555 1_555
C19 N2 1_555 1_555
C21 C26 1_555 1_555
C25 C26 1_555 1_555
C27 N3 1_555 1_555
C29 C34 1_555 1_555
C33 C34 1_555 1_555
C35 N4 1_555 1_555
C37 C42 1_555 1_555
C41 C42 1_555 1_555
C43 N5 1_555 1_555
C45 C50 1_555 1_555
C49 C50 1_555 1_555
C51 N6 1_555 1_555
C54 C55 1_555 1_555
C55 C56 1_555 1_555
C57 C58 1_555 1_555
C60 C61 1_555 1_555
C61 C62 1_555 1_555
C63 C64 1_555 1_555
C66 C67 1_555 1_555
C67 C68 1_555 1_555
C69 C70 1_555 1_555
C72 C73 1_555 1_555
C73 C74 1_555 1_555
C75 C76 1_555 1_555
C78 C79 1_555 1_555
C79 C80 1_555 1_555
C81 C82 1_555 1_555
C84 C85 1_555 1_555
C85 C86 1_555 1_555
C87 C88 1_555 1_555

#END
