
#######################################################################
#
#                 Cambridge Crystallographic Data Centre
#                                CCDC 
#
#######################################################################
#
# If this CIF has been generated from an entry in the Cambridge 
# Structural Database, then it will include bibliographic, chemical, 
# crystal, experimental, refinement or atomic coordinate data resulting 
# from the CCDC's data processing and validation procedures.
#
#######################################################################

data_YEZMIC
_chemical_formula_moiety         'C71.8 H91.25 O12'
_symmetry_cell_setting           monoclinic
_symmetry_space_group_name_H-M   'I 2/a'
_symmetry_Int_Tables_number      15
_space_group_name_Hall           '-I 2ya'
loop_
_symmetry_equiv_pos_site_id
_symmetry_equiv_pos_as_xyz
1 x,y,z
2 1/2-x,y,-z
3 1/2+x,1/2+y,1/2+z
4 -x,1/2+y,1/2-z
5 -x,-y,-z
6 1/2+x,-y,z
7 1/2-x,1/2-y,1/2-z
8 x,1/2-y,1/2+z
_cell_length_a                   24.6748(18)
_cell_length_b                   12.5778(9)
_cell_length_c                   26.133(3)
_cell_angle_alpha                90
_cell_angle_beta                 116.6494(18)
_cell_angle_gamma                90
_cell_volume                     7248.9
loop_
_atom_site_label
_atom_site_type_symbol
_atom_site_fract_x
_atom_site_fract_y
_atom_site_fract_z
O1 O 0.70092(12) 0.46974(17) 0.26371(12)
O2 O 0.82301(8) 0.83782(14) 0.36754(9)
O3 O 0.53043(9) 0.45625(14) 0.33730(8)
O4 O 0.59387(9) 0.83999(14) 0.27530(8)
O5 O 0.59925(8) 0.47008(13) 0.55524(7)
O6 O 0.51316(10) 0.83249(14) 0.42318(8)
C1 C 0.89373(12) 0.6575(2) 0.38503(11)
H1 H 0.9109 0.5961 0.3735
H2 H 0.9089 0.7229 0.3747
C2 C 0.72917(6) 0.74731(10) 0.30631(7)
H3 H 0.7065 0.8111 0.3001
C3 C 0.70014(5) 0.65326(13) 0.28062(7)
C4 C 0.73332(7) 0.55986(10) 0.28976(8)
C5 C 0.79554(7) 0.56051(10) 0.32460(8)
H4 H 0.8182 0.4967 0.3308
C6 C 0.82458(5) 0.65456(12) 0.35029(7)
C7 C 0.79140(7) 0.74796(10) 0.34115(7)
C8 C 0.63209(12) 0.6559(2) 0.24073(11)
H5 H 0.6222 0.7216 0.2174
H6 H 0.6212 0.5944 0.2144
C9 C 0.59474(12) 0.6526(2) 0.27368(11)
C10 C 0.57942(12) 0.5556(2) 0.28909(11)
H7 H 0.5919 0.4916 0.2782
C11 C 0.54618(12) 0.5505(2) 0.32005(11)
C12 C 0.52478(11) 0.6429(2) 0.33386(11)
C13 C 0.54085(12) 0.7403(2) 0.31904(11)
H8 H 0.5275 0.8043 0.3290
C14 C 0.57605(12) 0.7451(2) 0.28993(11)
C15 C 0.48637(12) 0.6396(2) 0.36545(11)
H9 H 0.4630 0.5724 0.3559
H10 H 0.4570 0.6990 0.3520
C16 C 0.52296(12) 0.6473(2) 0.42985(11)
C17 C 0.54543(12) 0.5553(2) 0.46211(11)
H11 H 0.5399 0.4888 0.4431
C18 C 0.57577(12) 0.55889(19) 0.52157(11)
C19 C 0.58221(11) 0.65499(19) 0.55022(11)
C20 C 0.56148(12) 0.7474(2) 0.51780(11)
H12 H 0.5667 0.8139 0.5366
C21 C 0.53323(12) 0.7437(2) 0.45825(11)
C22 C 0.7197(2) 0.3745(3) 0.2828(2)
H13 H 0.7300 0.3710 0.3240
H14 H 0.7570 0.3588 0.2788
C23 C 0.6720(2) 0.2925(3) 0.2505(2)
H15 H 0.6616 0.2964 0.2097
H16 H 0.6357 0.3064 0.2558
H17 H 0.6877 0.2215 0.2651
C24 C 0.78783(14) 0.9313(2) 0.36031(16)
H18 H 0.7583 0.9199 0.3758
H19 H 0.7652 0.9490 0.3191
C25 C 0.83011(17) 1.0200(3) 0.3917(2)
H20 H 0.8558 1.0365 0.3731
H21 H 0.8556 0.9985 0.4314
H22 H 0.8066 1.0831 0.3912
C26 C 0.55814(14) 0.3607(2) 0.33082(13)
H23 H 0.6028 0.3679 0.3499
H24 H 0.5448 0.3455 0.2897
C27 C 0.53884(15) 0.2723(2) 0.35797(14)
H25 H 0.4945 0.2668 0.3391
H26 H 0.5530 0.2876 0.3987
H27 H 0.5564 0.2051 0.3537
C28 C 0.58467(14) 0.9353(2) 0.29939(13)
H28 H 0.6029 0.9291 0.3416
H29 H 0.5407 0.9494 0.2847
C29 C 0.61434(14) 1.0245(2) 0.28274(14)
H30 H 0.5972 1.0281 0.2409
H31 H 0.6581 1.0116 0.2991
H32 H 0.6071 1.0920 0.2974
C30 C 0.59348(13) 0.3720(2) 0.52587(12)
H33 H 0.6128 0.3776 0.5000
H34 H 0.5501 0.3543 0.5026
C31 C 0.62419(14) 0.2869(2) 0.57014(13)
H35 H 0.6196 0.2181 0.5511
H36 H 0.6055 0.2835 0.5962
H37 H 0.6674 0.3038 0.5919
C32 C 0.51651(18) 0.9307(2) 0.44822(14)
H38 H 0.5586 0.9448 0.4774
H39 H 0.4897 0.9322 0.4673
C33 C 0.49674(19) 1.0142(2) 0.40172(16)
H40 H 0.4564 0.9963 0.3714
H41 H 0.5257 1.0168 0.3856
H42 H 0.4952 1.0838 0.4180
O1A O 0.79908(12) 0.46974(17) 0.73629(12)
O2A O 0.67699(8) 0.83782(14) 0.63246(9)
O3A O 0.96957(9) 0.45625(14) 0.66270(8)
O4A O 0.90613(9) 0.83999(14) 0.72470(8)
O5A O 0.90075(8) 0.47008(13) 0.44476(7)
O6A O 0.98684(10) 0.83249(14) 0.57682(8)
C1A C 0.60627(12) 0.6575(2) 0.61497(11)
H1A H 0.5891 0.5961 0.6265
H2A H 0.5911 0.7229 0.6253
C2A C 0.77083(6) 0.74731(10) 0.69369(7)
H3A H 0.7935 0.8111 0.6999
C3A C 0.79986(5) 0.65326(13) 0.71938(7)
C4A C 0.76668(7) 0.55986(10) 0.71024(8)
C5A C 0.70446(7) 0.56051(10) 0.67540(8)
H4A H 0.6818 0.4967 0.6692
C6A C 0.67542(5) 0.65456(12) 0.64971(7)
C7A C 0.70860(7) 0.74796(10) 0.65885(7)
C8A C 0.86791(12) 0.6559(2) 0.75927(11)
H5A H 0.8778 0.7216 0.7826
H6A H 0.8788 0.5944 0.7856
C9A C 0.90526(12) 0.6526(2) 0.72632(11)
C10A C 0.92058(12) 0.5556(2) 0.71091(11)
H7A H 0.9081 0.4916 0.7218
C11A C 0.95382(12) 0.5505(2) 0.67995(11)
C12A C 0.97522(11) 0.6429(2) 0.66614(11)
C13A C 0.95915(12) 0.7403(2) 0.68096(11)
H8A H 0.9725 0.8043 0.6710
C14A C 0.92395(12) 0.7451(2) 0.71007(11)
C15A C 1.01363(12) 0.6396(2) 0.63455(11)
H9A H 1.0370 0.5724 0.6441
H10A H 1.0430 0.6990 0.6480
C16A C 0.97704(12) 0.6473(2) 0.57015(11)
C17A C 0.95457(12) 0.5553(2) 0.53789(11)
H11A H 0.9601 0.4888 0.5569
C18A C 0.92423(12) 0.55889(19) 0.47843(11)
C19A C 0.91779(11) 0.65499(19) 0.44978(11)
C20A C 0.93852(12) 0.7474(2) 0.48220(11)
H12A H 0.9333 0.8139 0.4634
C21A C 0.96677(12) 0.7437(2) 0.54175(11)
C22A C 0.7803(2) 0.3745(3) 0.7172(2)
H13A H 0.7700 0.3710 0.6760
H14A H 0.7430 0.3588 0.7212
C23A C 0.8280(2) 0.2925(3) 0.7495(2)
H15A H 0.8384 0.2964 0.7903
H16A H 0.8643 0.3064 0.7442
H17A H 0.8123 0.2215 0.7349
C24A C 0.71217(14) 0.9313(2) 0.63969(16)
H18A H 0.7417 0.9199 0.6242
H19A H 0.7348 0.9490 0.6809
C25A C 0.66989(17) 1.0200(3) 0.6083(2)
H20A H 0.6442 1.0365 0.6269
H21A H 0.6444 0.9985 0.5686
H22A H 0.6934 1.0831 0.6088
C26A C 0.94186(14) 0.3607(2) 0.66918(13)
H23A H 0.8972 0.3679 0.6501
H24A H 0.9552 0.3455 0.7103
C27A C 0.96116(15) 0.2723(2) 0.64203(14)
H25A H 1.0055 0.2668 0.6609
H26A H 0.9470 0.2876 0.6013
H27A H 0.9436 0.2051 0.6463
C28A C 0.91533(14) 0.9353(2) 0.70061(13)
H28A H 0.8971 0.9291 0.6584
H29A H 0.9593 0.9494 0.7153
C29A C 0.88566(14) 1.0245(2) 0.71726(14)
H30A H 0.9028 1.0281 0.7591
H31A H 0.8419 1.0116 0.7009
H32A H 0.8929 1.0920 0.7026
C30A C 0.90652(13) 0.3720(2) 0.47413(12)
H33A H 0.8872 0.3776 0.5000
H34A H 0.9499 0.3543 0.4974
C31A C 0.87581(14) 0.2869(2) 0.42986(13)
H35A H 0.8804 0.2181 0.4489
H36A H 0.8945 0.2835 0.4038
H37A H 0.8326 0.3038 0.4081
C32A C 0.98349(18) 0.9307(2) 0.55178(14)
H38A H 0.9414 0.9448 0.5226
H39A H 1.0103 0.9322 0.5327
C33A C 1.00326(19) 1.0142(2) 0.59828(16)
H40A H 1.0436 0.9963 0.6286
H41A H 0.9743 1.0168 0.6144
H42A H 1.0048 1.0838 0.5820
C34 C 0.7429(2) 0.3068(11) 0.4709(3)
H43 H 0.7381 0.2413 0.4512
C35 C 0.7356(4) 0.4047(11) 0.4411(5)
H44 H 0.7259 0.4053 0.4016
C36 C 0.7429(3) 0.4970(11) 0.4702(3)
C37 C 0.7367(5) 0.6061(13) 0.4454(8)
H45 H 0.7333 0.6582 0.4717
H46 H 0.7004 0.6093 0.4086
H47 H 0.7725 0.6223 0.4398
C34A C 0.7571(2) 0.3068(11) 0.5291(3)
H43A H 0.7619 0.2413 0.5488
C35A C 0.7644(4) 0.4047(11) 0.5589(5)
H44A H 0.7741 0.4053 0.5984
C36A C 0.7571(3) 0.4970(11) 0.5298(3)
C37A C 0.7633(5) 0.6061(13) 0.5546(8)
H45A H 0.7667 0.6582 0.5283
H46A H 0.7996 0.6093 0.5914
H47A H 0.7275 0.6223 0.5602
C38? C 0.6848(7) 0.8720(13) 0.4679(4)
H48? H 0.6998 0.8307 0.4450
H49? H 0.6412 0.8847 0.4454
H50? H 0.6920 0.8324 0.5026
C39? C 0.7180(3) 0.9781(12) 0.4842(2)
C40? C 0.6865(7) 1.0751(12) 0.4687(5)
H51? H 0.6436 1.0765 0.4476
C41? C 0.7195(3) 1.1681(13) 0.4849(2)
H52? H 0.6986 1.2341 0.4746
C42? C 0.71835(14) 0.8107(12) 0.48502(8)
C43? C 0.6844(3) 0.7102(13) 0.46896(19)
H53? H 0.6926 0.6692 0.5036
H54? H 0.6971 0.6690 0.4443
H55? H 0.6409 0.7253 0.4482
C44? C 0.6846(7) 0.9042(13) 0.4690(3)
H56? H 0.6416 0.9041 0.4487
C45? C 0.7184(2) 0.9983(17) 0.48503(13)
H57? H 0.6976 1.0644 0.4752
loop_
_geom_bond_atom_site_label_1
_geom_bond_atom_site_label_2
_geom_bond_site_symmetry_1
_geom_bond_site_symmetry_2
O1 C4 1_555 1_555
O2 C7 1_555 1_555
O3 C11 1_555 1_555
O4 C14 1_555 1_555
O5 C18 1_555 1_555
O6 C21 1_555 1_555
C1 H1 1_555 1_555
H2 C1 1_555 1_555
C2 H3 1_555 1_555
C3 C2 1_555 1_555
C4 C3 1_555 1_555
C5 C4 1_555 1_555
H4 C5 1_555 1_555
C6 C1 1_555 1_555
C7 C2 1_555 1_555
C8 C3 1_555 1_555
H5 C8 1_555 1_555
H6 C8 1_555 1_555
C9 C8 1_555 1_555
C10 C9 1_555 1_555
H7 C10 1_555 1_555
C11 C10 1_555 1_555
C12 C11 1_555 1_555
C13 C12 1_555 1_555
H8 C13 1_555 1_555
C14 C9 1_555 1_555
C15 C12 1_555 1_555
H9 C15 1_555 1_555
H10 C15 1_555 1_555
C16 C15 1_555 1_555
C17 C16 1_555 1_555
H11 C17 1_555 1_555
C18 C17 1_555 1_555
C19 C18 1_555 1_555
C20 C19 1_555 1_555
H12 C20 1_555 1_555
C21 C16 1_555 1_555
C22 O1 1_555 1_555
H13 C22 1_555 1_555
H14 C22 1_555 1_555
C23 C22 1_555 1_555
H15 C23 1_555 1_555
H16 C23 1_555 1_555
H17 C23 1_555 1_555
C24 O2 1_555 1_555
H18 C24 1_555 1_555
H19 C24 1_555 1_555
C25 C24 1_555 1_555
H20 C25 1_555 1_555
H21 C25 1_555 1_555
H22 C25 1_555 1_555
C26 O3 1_555 1_555
H23 C26 1_555 1_555
H24 C26 1_555 1_555
C27 C26 1_555 1_555
H25 C27 1_555 1_555
H26 C27 1_555 1_555
H27 C27 1_555 1_555
C28 O4 1_555 1_555
H28 C28 1_555 1_555
H29 C28 1_555 1_555
C29 C28 1_555 1_555
H30 C29 1_555 1_555
H31 C29 1_555 1_555
H32 C29 1_555 1_555
C30 O5 1_555 1_555
H33 C30 1_555 1_555
H34 C30 1_555 1_555
C31 C30 1_555 1_555
H35 C31 1_555 1_555
H36 C31 1_555 1_555
H37 C31 1_555 1_555
C32 O6 1_555 1_555
H38 C32 1_555 1_555
H39 C32 1_555 1_555
C33 C32 1_555 1_555
H40 C33 1_555 1_555
H41 C33 1_555 1_555
H42 C33 1_555 1_555
C34 H43 1_555 1_555
C35 C34 1_555 1_555
H44 C35 1_555 1_555
C36 C35 1_555 1_555
C37 C36 1_555 1_555
H45 C37 1_555 1_555
H46 C37 1_555 1_555
H47 C37 1_555 1_555
O1A C4A 1_555 1_555
O2A C7A 1_555 1_555
O3A C11A 1_555 1_555
O4A C14A 1_555 1_555
O5A C18A 1_555 1_555
O6A C21A 1_555 1_555
C1A C19 1_555 1_555
H1A C1A 1_555 1_555
H2A C1A 1_555 1_555
C2A H3A 1_555 1_555
C3A C2A 1_555 1_555
C4A C3A 1_555 1_555
C5A C4A 1_555 1_555
H4A C5A 1_555 1_555
C6A C1A 1_555 1_555
C7A C2A 1_555 1_555
C8A C3A 1_555 1_555
H5A C8A 1_555 1_555
H6A C8A 1_555 1_555
C9A C8A 1_555 1_555
C10A C9A 1_555 1_555
H7A C10A 1_555 1_555
C11A C10A 1_555 1_555
C12A C11A 1_555 1_555
C13A C12A 1_555 1_555
H8A C13A 1_555 1_555
C14A C9A 1_555 1_555
C15A C12A 1_555 1_555
H9A C15A 1_555 1_555
H10A C15A 1_555 1_555
C16A C15A 1_555 1_555
C17A C16A 1_555 1_555
H11A C17A 1_555 1_555
C18A C17A 1_555 1_555
C19A C1 1_555 1_555
C20A C19A 1_555 1_555
H12A C20A 1_555 1_555
C21A C16A 1_555 1_555
C22A O1A 1_555 1_555
H13A C22A 1_555 1_555
H14A C22A 1_555 1_555
C23A C22A 1_555 1_555
H15A C23A 1_555 1_555
H16A C23A 1_555 1_555
H17A C23A 1_555 1_555
C24A O2A 1_555 1_555
H18A C24A 1_555 1_555
H19A C24A 1_555 1_555
C25A C24A 1_555 1_555
H20A C25A 1_555 1_555
H21A C25A 1_555 1_555
H22A C25A 1_555 1_555
C26A O3A 1_555 1_555
H23A C26A 1_555 1_555
H24A C26A 1_555 1_555
C27A C26A 1_555 1_555
H25A C27A 1_555 1_555
H26A C27A 1_555 1_555
H27A C27A 1_555 1_555
C28A O4A 1_555 1_555
H28A C28A 1_555 1_555
H29A C28A 1_555 1_555
C29A C28A 1_555 1_555
H30A C29A 1_555 1_555
H31A C29A 1_555 1_555
H32A C29A 1_555 1_555
C30A O5A 1_555 1_555
H33A C30A 1_555 1_555
H34A C30A 1_555 1_555
C31A C30A 1_555 1_555
H35A C31A 1_555 1_555
H36A C31A 1_555 1_555
H37A C31A 1_555 1_555
C32A O6A 1_555 1_555
H38A C32A 1_555 1_555
H39A C32A 1_555 1_555
C33A C32A 1_555 1_555
H40A C33A 1_555 1_555
H41A C33A 1_555 1_555
H42A C33A 1_555 1_555
C34A C34 1_555 1_555
H43A C34A 1_555 1_555
C35A C34A 1_555 1_555
H44A C35A 1_555 1_555
C36A C36 1_555 1_555
C37A C36A 1_555 1_555
H45A C37A 1_555 1_555
H46A C37A 1_555 1_555
H47A C37A 1_555 1_555
C5 C6 1_555 1_555
C6 C7 1_555 1_555
C13 C14 1_555 1_555
C20 C21 1_555 1_555
C5A C6A 1_555 1_555
C6A C7A 1_555 1_555
C13A C14A 1_555 1_555
C18A C19A 1_555 1_555
C20A C21A 1_555 1_555
C35A C36A 1_555 1_555

#END
