
#######################################################################
#
#                 Cambridge Crystallographic Data Centre
#                                CCDC 
#
#######################################################################
#
# If this CIF has been generated from an entry in the Cambridge 
# Structural Database, then it will include bibliographic, chemical, 
# crystal, experimental, refinement or atomic coordinate data resulting 
# from the CCDC's data processing and validation procedures.
#
#######################################################################

data_YEZNAV
_chemical_formula_moiety         'C137.896 H174.87 O20'
_symmetry_cell_setting           triclinic
_symmetry_space_group_name_H-M   'P -1'
_symmetry_Int_Tables_number      2
_space_group_name_Hall           '-P 1'
loop_
_symmetry_equiv_pos_site_id
_symmetry_equiv_pos_as_xyz
1 x,y,z
2 -x,-y,-z
_cell_length_a                   14.0646(13)
_cell_length_b                   21.414(2)
_cell_length_c                   21.8397(19)
_cell_angle_alpha                76.973(2)
_cell_angle_beta                 84.468(2)
_cell_angle_gamma                84.137(2)
_cell_volume                     6356.56
loop_
_atom_site_label
_atom_site_type_symbol
_atom_site_fract_x
_atom_site_fract_y
_atom_site_fract_z
O1 O 0.08948(15) 0.38620(9) 0.45106(9)
O2 O -0.02117(16) 0.37204(11) 0.23054(9)
O3 O 0.31455(15) 0.25052(10) 0.32911(9)
O4 O 0.56508(17) 0.41288(9) 0.23283(10)
O5 O 0.30414(18) 0.36589(11) 0.07836(10)
O6 O 0.52059(17) 0.62220(11) 0.28972(10)
O7 O 0.40864(16) 0.59282(10) 0.06251(10)
O8 O 0.18753(17) 0.60436(12) 0.43222(10)
O9 O -0.08424(17) 0.58967(10) 0.28459(10)
C1 C 0.0466(2) 0.43831(14) 0.41068(13)
C2 C -0.0050(2) 0.42370(13) 0.36490(13)
C3 C -0.0493(2) 0.47453(15) 0.32313(14)
H1 H -0.0849 0.4658 0.2922
C4 C -0.0421(2) 0.53785(15) 0.32603(14)
C5 C 0.0076(2) 0.55223(13) 0.37221(13)
C6 C 0.0511(2) 0.50129(14) 0.41436(13)
H2 H 0.0845 0.5101 0.4463
C7 C -0.0125(2) 0.35480(13) 0.36013(13)
H3 H -0.0119 0.3269 0.4024
H4 H -0.0736 0.3518 0.3433
C8 C 0.0689(2) 0.33122(13) 0.31807(13)
C9 C 0.1520(2) 0.29961(13) 0.34281(13)
H5 H 0.1558 0.2903 0.3867
C10 C 0.2300(2) 0.28112(13) 0.30491(14)
C11 C 0.2278(2) 0.29561(13) 0.23990(13)
C12 C 0.1432(2) 0.32633(14) 0.21468(14)
H6 H 0.1395 0.3358 0.1708
C13 C 0.0647(2) 0.34313(14) 0.25292(14)
C14 C 0.3138(2) 0.28096(14) 0.19707(14)
H7 H 0.2919 0.2696 0.1600
H8 H 0.3527 0.2436 0.2193
C15 C 0.3759(2) 0.33736(13) 0.17542(13)
C16 C 0.4415(2) 0.34851(13) 0.21416(14)
H9 H 0.4480 0.3204 0.2536
C17 C 0.4979(2) 0.40000(14) 0.19635(14)
C18 C 0.4873(2) 0.44341(13) 0.13880(13)
C19 C 0.4227(2) 0.43178(14) 0.10004(14)
H10 H 0.4154 0.4602 0.0608
C20 C 0.3682(2) 0.37934(15) 0.11715(13)
C21 C 0.5465(2) 0.50135(13) 0.11909(14)
H11 H 0.6118 0.4888 0.1320
H12 H 0.5503 0.5155 0.0731
C22 C 0.5038(2) 0.55673(13) 0.14819(14)
C23 C 0.5331(2) 0.56396(14) 0.20471(14)
H13 H 0.5819 0.5351 0.2241
C24 C 0.4921(2) 0.61304(15) 0.23367(14)
C25 C 0.4201(2) 0.65582(14) 0.20601(15)
C26 C 0.3910(2) 0.64938(14) 0.14889(15)
H14 H 0.3423 0.6784 0.1296
C27 C 0.4326(2) 0.60069(14) 0.11973(14)
C28 C 0.3724(2) 0.70873(15) 0.23755(15)
H15 H 0.4160 0.7180 0.2661
H16 H 0.3600 0.7480 0.2053
C29 C 0.2791(2) 0.69013(14) 0.27423(15)
C30 C 0.2777(2) 0.65742(15) 0.33694(15)
H17 H 0.3350 0.6491 0.3573
C31 C 0.1933(2) 0.63681(15) 0.36999(14)
C32 C 0.1074(2) 0.64756(13) 0.34088(14)
C33 C 0.1087(2) 0.68141(14) 0.27901(14)
H18 H 0.0512 0.6906 0.2588
C34 C 0.1934(3) 0.70215(14) 0.24596(15)
C35 C 0.0164(2) 0.62149(14) 0.37598(14)
H19 H -0.0391 0.6485 0.3582
H20 H 0.0158 0.6238 0.4203
C36 C 0.1582(2) 0.39806(15) 0.48988(14)
H21 H 0.1275 0.4229 0.5201
H22 H 0.2086 0.4225 0.4641
C37 C 0.2002(3) 0.33365(15) 0.52403(15)
H23 H 0.2313 0.3099 0.4936
H24 H 0.1495 0.3097 0.5489
H25 H 0.2468 0.3398 0.5516
C38 C -0.1244(3) 0.57775(17) 0.23210(16)
H26 H -0.1780 0.5508 0.2460
H27 H -0.0762 0.5554 0.2074
C39 C -0.1587(3) 0.64158(18) 0.19304(18)
H28 H -0.1831 0.6353 0.1550
H29 H -0.1058 0.6688 0.1818
H30 H -0.2093 0.6620 0.2170
C40 C 0.3077(2) 0.20552(15) 0.38865(14)
H31 H 0.2763 0.2278 0.4207
H32 H 0.3724 0.1894 0.4009
C41 C 0.2528(3) 0.14992(16) 0.38706(16)
H33 H 0.2796 0.1303 0.3526
H34 H 0.1862 0.1648 0.3810
H35 H 0.2570 0.1185 0.4265
C42 C -0.0367(3) 0.3765(2) 0.16643(16)
H36 H -0.0275 0.3337 0.1566
H37 H 0.0090 0.4039 0.1389
C43 C -0.1374(3) 0.4049(3) 0.15600(19)
H38 H -0.1505 0.4069 0.1128
H39 H -0.1449 0.4479 0.1641
H40 H -0.1819 0.3782 0.1844
C44 C 0.6003(2) 0.36328(15) 0.28122(16)
H41 H 0.6285 0.3267 0.2637
H42 H 0.5477 0.3487 0.3124
C45 C 0.6744(3) 0.38810(18) 0.31198(17)
H43 H 0.7255 0.4032 0.2807
H44 H 0.7003 0.3539 0.3447
H45 H 0.6454 0.4233 0.3305
C46 C 0.3179(3) 0.3946(2) 0.01284(16)
H46 H 0.3848 0.3860 -0.0023
H47 H 0.3037 0.4413 0.0062
C47 C 0.2545(4) 0.3680(3) -0.0223(2)
H48 H 0.2584 0.3908 -0.0661
H49 H 0.1890 0.3728 -0.0044
H50 H 0.2739 0.3228 -0.0198
C48 C 0.6081(3) 0.58954(19) 0.31119(17)
H51 H 0.6590 0.5961 0.2770
H52 H 0.6012 0.5433 0.3249
C49 C 0.6335(4) 0.6155(2) 0.3652(2)
H53 H 0.6402 0.6613 0.3513
H54 H 0.6936 0.5938 0.3802
H55 H 0.5833 0.6083 0.3991
C50 C 0.3325(2) 0.63341(16) 0.03288(15)
H56 H 0.3463 0.6785 0.0258
H57 H 0.2727 0.6276 0.0597
C51 C 0.3228(3) 0.61593(18) -0.02848(17)
H58 H 0.3805 0.6249 -0.0559
H59 H 0.2681 0.6410 -0.0482
H60 H 0.3134 0.5705 -0.0212
C52 C 0.2602(3) 0.6035(2) 0.46984(17)
H61 H 0.2736 0.6476 0.4694
H62 H 0.3186 0.5813 0.4538
C53 C 0.2322(3) 0.5696(3) 0.53559(17)
H63 H 0.2098 0.5283 0.5351
H64 H 0.1813 0.5954 0.5538
H65 H 0.2872 0.5629 0.5606
O10 O 0.1934(8) 0.7275(5) 0.1802(4)
C54 C 0.1156(9) 0.7661(6) 0.1564(4)
H66 H 0.0919 0.7948 0.1847
H67 H 0.0642 0.7393 0.1540
C55 C 0.1417(11) 0.8057(8) 0.0917(5)
H68 H 0.0844 0.8186 0.0690
H69 H 0.1868 0.7802 0.0687
H70 H 0.1708 0.8436 0.0956
O11 O 1.00647(19) 0.16812(11) 0.09697(13)
O12 O 0.74653(17) 0.20634(11) 0.31262(11)
O13 O 0.67506(15) 0.01451(9) 0.48529(9)
O14 O 0.88466(16) -0.17938(11) 0.39842(9)
O15 O 1.03831(16) -0.07138(11) 0.18909(10)
O16 O 0.44781(16) 0.09681(10) 0.28462(10)
O17 O 0.49359(16) -0.14100(10) 0.37526(11)
O18 O 0.72593(16) -0.20905(10) 0.19289(10)
O19 O 0.61339(17) 0.21159(13) 0.08141(10)
C56 C 0.7772(2) 0.21345(14) 0.19954(17)
H71 H 0.8425 0.2183 0.2014
C57 C 0.7170(2) 0.20600(14) 0.25433(15)
C58 C 0.6206(2) 0.19782(13) 0.25273(14)
C59 C 0.5861(2) 0.20029(14) 0.19499(14)
H72 H 0.5207 0.1961 0.1929
C60 C 0.6461(2) 0.20879(15) 0.14007(15)
C61 C 0.7431(2) 0.21388(15) 0.14206(15)
C62 C 0.5544(2) 0.18832(13) 0.31211(13)
H73 H 0.4886 0.2023 0.3008
H74 H 0.5715 0.2159 0.3389
C63 C 0.5574(2) 0.11907(13) 0.34985(13)
C64 C 0.6146(2) 0.09897(14) 0.40006(13)
H75 H 0.6516 0.1286 0.4107
C65 C 0.6186(2) 0.03610(14) 0.43506(13)
C66 C 0.5634(2) -0.00822(13) 0.42119(13)
C67 C 0.5062(2) 0.01193(14) 0.37079(14)
H76 H 0.4684 -0.0175 0.3606
C68 C 0.5037(2) 0.07449(14) 0.33504(13)
C69 C 0.5663(2) -0.07788(13) 0.45766(13)
H77 H 0.5913 -0.0811 0.4987
H78 H 0.5011 -0.0917 0.4651
C70 C 0.6289(2) -0.12188(13) 0.42194(13)
C71 C 0.7266(2) -0.13257(13) 0.42912(13)
H79 H 0.7525 -0.1152 0.4591
C72 C 0.7871(2) -0.16812(14) 0.39332(13)
C73 C 0.7503(2) -0.19391(13) 0.34836(13)
C74 C 0.6528(2) -0.18477(13) 0.34266(13)
H80 H 0.6268 -0.2026 0.3130
C75 C 0.5915(2) -0.15019(13) 0.37910(14)
C76 C 0.8154(2) -0.22923(14) 0.30579(13)
H81 H 0.7807 -0.2622 0.2950
H82 H 0.8708 -0.2509 0.3283
C77 C 0.8505(2) -0.18380(13) 0.24547(13)
C78 C 0.9278(2) -0.14906(14) 0.24543(14)
H83 H 0.9593 -0.1546 0.2826
C79 C 0.9601(2) -0.10600(14) 0.19173(14)
C80 C 0.9158(2) -0.09761(14) 0.13596(13)
C81 C 0.8386(2) -0.13280(14) 0.13617(14)
H84 H 0.8079 -0.1281 0.0988
C82 C 0.8052(2) -0.17503(14) 0.19035(14)
C83 C 0.9493(2) -0.05040(15) 0.07664(14)
H85 H 1.0195 -0.0544 0.0720
H86 H 0.9263 -0.0620 0.0401
C84 C 0.9150(2) 0.01907(15) 0.07653(13)
C85 C 0.9755(2) 0.06124(16) 0.08625(14)
H87 H 1.0397 0.0464 0.0929
C86 C 0.9462(2) 0.12525(16) 0.08669(14)
C87 C 0.8519(2) 0.14761(16) 0.07873(14)
C88 C 0.7915(3) 0.10509(19) 0.0675(2)
H88 H 0.7272 0.1196 0.0607
C89 C 0.8219(3) 0.04211(19) 0.0660(2)
C90 C 0.8130(3) 0.21527(16) 0.08417(16)
H89 H 0.7805 0.2364 0.0463
H90 H 0.8664 0.2403 0.0869
C91 C 0.8410(3) 0.22203(19) 0.31717(19)
H91 H 0.8495 0.2661 0.2939
H92 H 0.8879 0.1928 0.2991
C92 C 0.8553(3) 0.2157(2) 0.3851(2)
H93 H 0.9189 0.2272 0.3892
H94 H 0.8485 0.1716 0.4075
H95 H 0.8077 0.2441 0.4028
C93 C 0.7245(3) 0.06105(16) 0.50447(16)
H96 H 0.6786 0.0950 0.5158
H97 H 0.7691 0.0808 0.4700
C94 C 0.7779(3) 0.02744(19) 0.56000(19)
H98 H 0.8234 -0.0059 0.5482
H99 H 0.7331 0.0082 0.5939
H100 H 0.8121 0.0582 0.5740
C95 C 0.9242(3) -0.1693(2) 0.45217(17)
H101 H 0.8919 -0.1934 0.4907
H102 H 0.9167 -0.1235 0.4532
C96 C 1.0286(3) -0.1924(3) 0.4476(2)
H103 H 1.0599 -0.1681 0.4094
H104 H 1.0350 -0.2377 0.4465
H105 H 1.0584 -0.1864 0.4839
C97 C 1.0841(3) -0.0768(2) 0.24587(18)
H106 H 1.1071 -0.1216 0.2626
H107 H 1.0392 -0.0620 0.2778
C98 C 1.1672(3) -0.0351(2) 0.2292(2)
H108 H 1.2141 -0.0528 0.2008
H109 H 1.1965 -0.0339 0.2673
H110 H 1.1442 0.0081 0.2088
C99 C 1.1058(3) 0.1546(2) 0.0838(2)
H111 H 1.1182 0.1480 0.0407
H112 H 1.1287 0.1153 0.1129
C100 C 1.1574(4) 0.2100(2) 0.0909(3)
H113 H 1.1374 0.2481 0.0601
H114 H 1.2259 0.2000 0.0843
H115 H 1.1422 0.2177 0.1330
C101 C 0.3952(3) 0.05339(18) 0.26484(17)
H116 H 0.3492 0.0345 0.2989
H117 H 0.4382 0.0186 0.2526
C102 C 0.3434(4) 0.0913(2) 0.2093(2)
H118 H 0.3898 0.1084 0.1754
H119 H 0.3028 0.1265 0.2217
H120 H 0.3042 0.0634 0.1950
C103 C 0.4503(3) -0.17746(19) 0.3402(2)
H121 H 0.4689 -0.2234 0.3548
H122 H 0.4712 -0.1648 0.2954
C104 C 0.3439(3) -0.1645(3) 0.3499(3)
H123 H 0.3125 -0.1853 0.3232
H124 H 0.3269 -0.1185 0.3392
H125 H 0.3232 -0.1812 0.3937
C105 C 0.6872(3) -0.21028(19) 0.13592(17)
H126 H 0.7359 -0.2278 0.1077
H127 H 0.6644 -0.1667 0.1146
C106 C 0.6054(3) -0.2524(2) 0.1529(2)
H128 H 0.5822 -0.2593 0.1147
H129 H 0.5540 -0.2316 0.1760
H130 H 0.6271 -0.2934 0.1788
C107 C 0.5153(3) 0.2194(2) 0.07514(17)
H131 H 0.4882 0.2595 0.0868
H132 H 0.4842 0.1837 0.1033
C108 C 0.4977(3) 0.2213(3) 0.00832(19)
H133 H 0.5217 0.2598 -0.0187
H134 H 0.4294 0.2218 0.0047
H135 H 0.5305 0.1836 -0.0043
O20 O 0.7481(5) 0.0030(3) 0.0731(4)
C109 C 0.6475(7) 0.0183(5) 0.0970(6)
H136 H 0.6083 0.0329 0.0609
H137 H 0.6464 0.0541 0.1183
C110 C 0.6018(12) -0.0382(7) 0.1429(9)
H138 H 0.6192 -0.0775 0.1278
H139 H 0.5326 -0.0297 0.1455
H140 H 0.6247 -0.0431 0.1844
C111 C 0.7820(3) 0.0175(2) 0.2658(2)
H141 H 0.7587 -0.0229 0.2890
H142 H 0.8040 0.0140 0.2232
H143 H 0.7306 0.0516 0.2646
C112 C 0.8628(3) 0.03281(18) 0.29761(19)
C113 C 0.8714(3) 0.0107(2) 0.3616(2)
H144 H 0.8253 -0.0151 0.3861
C114 C 0.9468(4) 0.0260(2) 0.3901(2)
H145 H 0.9524 0.0091 0.4333
C115 C 1.0114(4) 0.0639(2) 0.3579(2)
H146 H 1.0620 0.0735 0.3785
C116 C 1.0052(3) 0.0890(2) 0.2957(2)
C117 C 0.9318(3) 0.0722(2) 0.26583(19)
H147 H 0.9290 0.0883 0.2222
C118 C 1.0746(4) 0.1385(3) 0.2607(3)
H148 H 1.0674 0.1755 0.2800
H149 H 1.0603 0.1521 0.2169
H150 H 1.1400 0.1191 0.2632
C119 C 0.8666(3) 0.4549(3) -0.1351(2)
C120 C 0.8613(4) 0.4945(3) -0.0913(3)
H151 H 0.8295 0.5359 -0.0999
C121 C 0.9041(5) 0.4711(4) -0.0351(3)
H152 H 0.9022 0.4974 -0.0057
C122 C 0.9497(5) 0.4097(4) -0.0215(3)
H153 H 0.9774 0.3948 0.0172
C123 C 0.9552(4) 0.3706(4) -0.0631(3)
C124 C 0.9131(3) 0.3945(3) -0.1184(2)
H154 H 0.9161 0.3676 -0.1472
C125 C 0.8211(4) 0.4760(3) -0.1956(2)
H155 H 0.7698 0.5091 -0.1919
H156 H 0.7951 0.4396 -0.2057
H157 H 0.8685 0.4930 -0.2288
C126 C 1.0047(5) 0.3033(3) -0.0462(3)
H158 H 1.0681 0.3025 -0.0681
H159 H 0.9673 0.2732 -0.0586
H160 H 1.0105 0.2912 -0.0010
C127 C 0.3110(3) 0.4525(2) 0.3198(2)
H161 H 0.2718 0.4910 0.3258
H162 H 0.2701 0.4183 0.3213
H163 H 0.3474 0.4615 0.2792
C128 C 0.3784(3) 0.4322(2) 0.37088(18)
C129 C 0.4264(4) 0.4768(2) 0.3892(2)
H164 H 0.4174 0.5205 0.3692
C130 C 0.4863(5) 0.4585(3) 0.4357(3)
H165 H 0.5173 0.4901 0.4480
C131 C 0.5038(4) 0.3954(3) 0.4657(2)
H166 H 0.5456 0.3840 0.4983
C132 C 0.4586(3) 0.3485(2) 0.44740(19)
C133 C 0.3963(3) 0.36872(19) 0.40055(17)
H167 H 0.3644 0.3376 0.3882
C134 C 0.4766(4) 0.2785(2) 0.4785(2)
H168 H 0.5242 0.2737 0.5089
H169 H 0.4998 0.2542 0.4467
H170 H 0.4173 0.2624 0.4998
O21? O 0.2040(14) 0.7463(9) 0.1894(9)
C135? C 0.1588(17) 0.7890(10) 0.1662(8)
H171? H 0.1621 0.8237 0.1882
H172? H 0.0921 0.7780 0.1712
C136? C 0.1852(18) 0.8140(13) 0.0970(10)
H173? H 0.1691 0.7838 0.0733
H174? H 0.2535 0.8189 0.0904
H175? H 0.1501 0.8553 0.0827
O22? O 0.7779(5) -0.0042(3) 0.0364(3)
C137? C 0.6996(6) 0.0202(4) 0.0005(4)
H176? H 0.7198 0.0534 -0.0360
H177? H 0.6494 0.0401 0.0260
C138? C 0.6620(10) -0.0311(5) -0.0208(6)
H178? H 0.7130 -0.0528 -0.0434
H179? H 0.6115 -0.0132 -0.0486
H180? H 0.6362 -0.0616 0.0152
C139? C 0.3914(4) 0.0125(4) 0.0813(2)
C140? C 0.4704(5) 0.0235(3) 0.1097(3)
H181? H 0.4891 0.0655 0.1037
C141? C 0.5218(4) -0.0275(4) 0.1470(2)
C142? C 0.4942(5) -0.0896(3) 0.1559(3)
H182? H 0.5289 -0.1241 0.1811
C143? C 0.4151(6) -0.1007(3) 0.1274(4)
H183? H 0.3964 -0.1426 0.1334
C144? C 0.3637(4) -0.0496(4) 0.0901(3)
H184? H 0.3103 -0.0571 0.0708
C145? C 0.6083(6) -0.0116(6) 0.1769(4)
H185? H 0.6590 0.0007 0.1444
H186? H 0.6312 -0.0491 0.2075
H187? H 0.5892 0.0236 0.1979
C146? C 0.3371(8) 0.0664(6) 0.0419(4)
H188? H 0.3751 0.1032 0.0304
H189? H 0.2780 0.0776 0.0652
H190? H 0.3223 0.0540 0.0040
loop_
_geom_bond_atom_site_label_1
_geom_bond_atom_site_label_2
_geom_bond_site_symmetry_1
_geom_bond_site_symmetry_2
O1 C1 1_555 1_555
O2 C13 1_555 1_555
O3 C10 1_555 1_555
O4 C17 1_555 1_555
O5 C20 1_555 1_555
O6 C24 1_555 1_555
O7 C27 1_555 1_555
O8 C31 1_555 1_555
O9 C4 1_555 1_555
C1 C2 1_555 1_555
C2 C3 1_555 1_555
C3 H1 1_555 1_555
C4 C3 1_555 1_555
C5 C4 1_555 1_555
C6 C1 1_555 1_555
H2 C6 1_555 1_555
C7 C2 1_555 1_555
H3 C7 1_555 1_555
H4 C7 1_555 1_555
C8 C7 1_555 1_555
C9 C8 1_555 1_555
H5 C9 1_555 1_555
C10 C9 1_555 1_555
C11 C10 1_555 1_555
C12 C11 1_555 1_555
H6 C12 1_555 1_555
C13 C8 1_555 1_555
C14 C11 1_555 1_555
H7 C14 1_555 1_555
H8 C14 1_555 1_555
C15 C14 1_555 1_555
C16 C15 1_555 1_555
H9 C16 1_555 1_555
C17 C16 1_555 1_555
C18 C17 1_555 1_555
C19 C18 1_555 1_555
H10 C19 1_555 1_555
C20 C15 1_555 1_555
C21 C18 1_555 1_555
H11 C21 1_555 1_555
H12 C21 1_555 1_555
C22 C21 1_555 1_555
C23 C22 1_555 1_555
H13 C23 1_555 1_555
C24 C23 1_555 1_555
C25 C24 1_555 1_555
C26 C25 1_555 1_555
H14 C26 1_555 1_555
C27 C22 1_555 1_555
C28 C25 1_555 1_555
H15 C28 1_555 1_555
H16 C28 1_555 1_555
C29 C28 1_555 1_555
C30 C29 1_555 1_555
H17 C30 1_555 1_555
C31 C30 1_555 1_555
C32 C31 1_555 1_555
C33 C32 1_555 1_555
H18 C33 1_555 1_555
C34 C29 1_555 1_555
C35 C5 1_555 1_555
H19 C35 1_555 1_555
H20 C35 1_555 1_555
C36 O1 1_555 1_555
H21 C36 1_555 1_555
H22 C36 1_555 1_555
C37 C36 1_555 1_555
H23 C37 1_555 1_555
H24 C37 1_555 1_555
H25 C37 1_555 1_555
C38 O9 1_555 1_555
H26 C38 1_555 1_555
H27 C38 1_555 1_555
C39 C38 1_555 1_555
H28 C39 1_555 1_555
H29 C39 1_555 1_555
H30 C39 1_555 1_555
C40 O3 1_555 1_555
H31 C40 1_555 1_555
H32 C40 1_555 1_555
C41 C40 1_555 1_555
H33 C41 1_555 1_555
H34 C41 1_555 1_555
H35 C41 1_555 1_555
C42 O2 1_555 1_555
H36 C42 1_555 1_555
H37 C42 1_555 1_555
C43 C42 1_555 1_555
H38 C43 1_555 1_555
H39 C43 1_555 1_555
H40 C43 1_555 1_555
C44 O4 1_555 1_555
H41 C44 1_555 1_555
H42 C44 1_555 1_555
C45 C44 1_555 1_555
H43 C45 1_555 1_555
H44 C45 1_555 1_555
H45 C45 1_555 1_555
C46 O5 1_555 1_555
H46 C46 1_555 1_555
H47 C46 1_555 1_555
C47 C46 1_555 1_555
H48 C47 1_555 1_555
H49 C47 1_555 1_555
H50 C47 1_555 1_555
C48 O6 1_555 1_555
H51 C48 1_555 1_555
H52 C48 1_555 1_555
C49 C48 1_555 1_555
H53 C49 1_555 1_555
H54 C49 1_555 1_555
H55 C49 1_555 1_555
C50 O7 1_555 1_555
H56 C50 1_555 1_555
H57 C50 1_555 1_555
C51 C50 1_555 1_555
H58 C51 1_555 1_555
H59 C51 1_555 1_555
H60 C51 1_555 1_555
C52 O8 1_555 1_555
H61 C52 1_555 1_555
H62 C52 1_555 1_555
C53 C52 1_555 1_555
H63 C53 1_555 1_555
H64 C53 1_555 1_555
H65 C53 1_555 1_555
O10 C34 1_555 1_555
C54 O10 1_555 1_555
H66 C54 1_555 1_555
H67 C54 1_555 1_555
C55 C54 1_555 1_555
H68 C55 1_555 1_555
H69 C55 1_555 1_555
H70 C55 1_555 1_555
O11 C86 1_555 1_555
O12 C57 1_555 1_555
O13 C65 1_555 1_555
O14 C72 1_555 1_555
O15 C79 1_555 1_555
O16 C68 1_555 1_555
O17 C75 1_555 1_555
O18 C82 1_555 1_555
O19 C60 1_555 1_555
C56 H71 1_555 1_555
C57 C56 1_555 1_555
C58 C57 1_555 1_555
C59 C58 1_555 1_555
H72 C59 1_555 1_555
C60 C59 1_555 1_555
C61 C56 1_555 1_555
C62 C58 1_555 1_555
H73 C62 1_555 1_555
H74 C62 1_555 1_555
C63 C62 1_555 1_555
C64 C63 1_555 1_555
H75 C64 1_555 1_555
C65 C64 1_555 1_555
C66 C65 1_555 1_555
C67 C66 1_555 1_555
H76 C67 1_555 1_555
C68 C63 1_555 1_555
C69 C66 1_555 1_555
H77 C69 1_555 1_555
H78 C69 1_555 1_555
C70 C69 1_555 1_555
C71 C70 1_555 1_555
H79 C71 1_555 1_555
C72 C71 1_555 1_555
C73 C72 1_555 1_555
C74 C73 1_555 1_555
H80 C74 1_555 1_555
C75 C70 1_555 1_555
C76 C73 1_555 1_555
H81 C76 1_555 1_555
H82 C76 1_555 1_555
C77 C76 1_555 1_555
C78 C77 1_555 1_555
H83 C78 1_555 1_555
C79 C78 1_555 1_555
C80 C79 1_555 1_555
C81 C80 1_555 1_555
H84 C81 1_555 1_555
C82 C77 1_555 1_555
C83 C80 1_555 1_555
H85 C83 1_555 1_555
H86 C83 1_555 1_555
C84 C83 1_555 1_555
C85 C84 1_555 1_555
H87 C85 1_555 1_555
C86 C85 1_555 1_555
C87 C86 1_555 1_555
C88 C87 1_555 1_555
H88 C88 1_555 1_555
C89 C84 1_555 1_555
C90 C61 1_555 1_555
H89 C90 1_555 1_555
H90 C90 1_555 1_555
C91 O12 1_555 1_555
H91 C91 1_555 1_555
H92 C91 1_555 1_555
C92 C91 1_555 1_555
H93 C92 1_555 1_555
H94 C92 1_555 1_555
H95 C92 1_555 1_555
C93 O13 1_555 1_555
H96 C93 1_555 1_555
H97 C93 1_555 1_555
C94 C93 1_555 1_555
H98 C94 1_555 1_555
H99 C94 1_555 1_555
H100 C94 1_555 1_555
C95 O14 1_555 1_555
H101 C95 1_555 1_555
H102 C95 1_555 1_555
C96 C95 1_555 1_555
H103 C96 1_555 1_555
H104 C96 1_555 1_555
H105 C96 1_555 1_555
C97 O15 1_555 1_555
H106 C97 1_555 1_555
H107 C97 1_555 1_555
C98 C97 1_555 1_555
H108 C98 1_555 1_555
H109 C98 1_555 1_555
H110 C98 1_555 1_555
C99 O11 1_555 1_555
H111 C99 1_555 1_555
H112 C99 1_555 1_555
C100 C99 1_555 1_555
H113 C100 1_555 1_555
H114 C100 1_555 1_555
H115 C100 1_555 1_555
C101 O16 1_555 1_555
H116 C101 1_555 1_555
H117 C101 1_555 1_555
C102 C101 1_555 1_555
H118 C102 1_555 1_555
H119 C102 1_555 1_555
H120 C102 1_555 1_555
C103 O17 1_555 1_555
H121 C103 1_555 1_555
H122 C103 1_555 1_555
C104 C103 1_555 1_555
H123 C104 1_555 1_555
H124 C104 1_555 1_555
H125 C104 1_555 1_555
C105 O18 1_555 1_555
H126 C105 1_555 1_555
H127 C105 1_555 1_555
C106 C105 1_555 1_555
H128 C106 1_555 1_555
H129 C106 1_555 1_555
H130 C106 1_555 1_555
C107 O19 1_555 1_555
H131 C107 1_555 1_555
H132 C107 1_555 1_555
C108 C107 1_555 1_555
H133 C108 1_555 1_555
H134 C108 1_555 1_555
H135 C108 1_555 1_555
O20 C89 1_555 1_555
C109 O20 1_555 1_555
H136 C109 1_555 1_555
H137 C109 1_555 1_555
C110 C109 1_555 1_555
H138 C110 1_555 1_555
H139 C110 1_555 1_555
H140 C110 1_555 1_555
C111 H141 1_555 1_555
H142 C111 1_555 1_555
H143 C111 1_555 1_555
C112 C111 1_555 1_555
C113 C112 1_555 1_555
H144 C113 1_555 1_555
C114 C113 1_555 1_555
H145 C114 1_555 1_555
C115 C114 1_555 1_555
H146 C115 1_555 1_555
C116 C115 1_555 1_555
C117 C112 1_555 1_555
H147 C117 1_555 1_555
C118 C116 1_555 1_555
H148 C118 1_555 1_555
H149 C118 1_555 1_555
H150 C118 1_555 1_555
C119 C120 1_555 1_555
C120 H151 1_555 1_555
C121 C120 1_555 1_555
H152 C121 1_555 1_555
C122 C121 1_555 1_555
H153 C122 1_555 1_555
C123 C122 1_555 1_555
C124 C119 1_555 1_555
H154 C124 1_555 1_555
C125 C119 1_555 1_555
H155 C125 1_555 1_555
H156 C125 1_555 1_555
H157 C125 1_555 1_555
C126 C123 1_555 1_555
H158 C126 1_555 1_555
H159 C126 1_555 1_555
H160 C126 1_555 1_555
C127 H161 1_555 1_555
H162 C127 1_555 1_555
H163 C127 1_555 1_555
C128 C127 1_555 1_555
C129 C128 1_555 1_555
H164 C129 1_555 1_555
C130 C129 1_555 1_555
H165 C130 1_555 1_555
C131 C130 1_555 1_555
H166 C131 1_555 1_555
C132 C131 1_555 1_555
C133 C128 1_555 1_555
H167 C133 1_555 1_555
C134 C132 1_555 1_555
H168 C134 1_555 1_555
H169 C134 1_555 1_555
H170 C134 1_555 1_555
C5 C6 1_555 1_555
C12 C13 1_555 1_555
C19 C20 1_555 1_555
C26 C27 1_555 1_555
C32 C35 1_555 1_555
C33 C34 1_555 1_555
C60 C61 1_555 1_555
C67 C68 1_555 1_555
C74 C75 1_555 1_555
C81 C82 1_555 1_555
C87 C90 1_555 1_555
C88 C89 1_555 1_555
C116 C117 1_555 1_555
C123 C124 1_555 1_555
C132 C133 1_555 1_555

#END
