
#######################################################################
#
#                 Cambridge Crystallographic Data Centre
#                                CCDC 
#
#######################################################################
#
# If this CIF has been generated from an entry in the Cambridge 
# Structural Database, then it will include bibliographic, chemical, 
# crystal, experimental, refinement or atomic coordinate data resulting 
# from the CCDC's data processing and validation procedures.
#
#######################################################################

data_YIGQEN
_chemical_formula_moiety         'C116 H44 B12 Br12 O24'
_symmetry_cell_setting           monoclinic
_symmetry_space_group_name_H-M   'P 21/c'
_symmetry_Int_Tables_number      14
_space_group_name_Hall           '-P 2ybc'
loop_
_symmetry_equiv_pos_site_id
_symmetry_equiv_pos_as_xyz
1 x,y,z
2 -x,1/2+y,1/2-z
3 -x,-y,-z
4 x,1/2-y,1/2+z
_cell_length_a                   24.635(2)
_cell_length_b                   22.3101(17)
_cell_length_c                   32.056(2)
_cell_angle_alpha                90
_cell_angle_beta                 93.898(2)
_cell_angle_gamma                90
_cell_volume                     17577.5
loop_
_atom_site_label
_atom_site_type_symbol
_atom_site_fract_x
_atom_site_fract_y
_atom_site_fract_z
Br1 Br 1.20091(3) 0.49693(4) 0.66486(4)
Br2 Br 1.27026(3) 0.33264(4) 0.74754(3)
Br3 Br 1.23935(3) 0.31935(4) 0.61582(3)
Br4 Br 0.51198(3) 0.73106(3) 0.69681(3)
Br5 Br 0.40225(3) 0.63346(4) 0.78245(3)
Br6 Br 0.39311(3) 0.61294(4) 0.63604(3)
Br7 Br 0.85136(4) -0.02443(5) 1.09803(3)
Br8 Br 0.68407(4) 0.06127(5) 1.11305(3)
Br9 Br 0.70075(4) -0.12203(4) 1.05719(3)
Br10 Br 0.71384(4) -0.17359(5) 0.43505(3)
Br11 Br 0.59761(4) -0.24921(4) 0.51710(3)
Br12 Br 0.55086(4) -0.08534(4) 0.42022(3)
B1 B 0.9519(3) 0.4928(3) 0.6989(3)
B2 B 1.0598(3) 0.2282(4) 0.8211(3)
B3 B 1.0122(3) 0.1905(4) 0.6000(3)
B4 B 0.7244(3) 0.5729(3) 0.7057(3)
B5 B 0.5400(3) 0.4075(3) 0.8428(2)
B6 B 0.5173(3) 0.3691(3) 0.6154(2)
B7 B 0.9245(3) 0.0985(4) 0.9349(3)
B8 B 0.6415(4) 0.2206(4) 0.9520(2)
B9 B 0.6597(3) -0.0641(3) 0.8649(2)
B10 B 0.8421(3) 0.0177(5) 0.5463(3)
B11 B 0.6191(3) -0.1038(3) 0.6854(2)
B12 B 0.5667(4) 0.1345(3) 0.5438(3)
C1 C 1.0608(3) 0.3283(3) 0.6986(2)
H1 H 1.0228 0.3147 0.7026
C2 C 1.1592(3) 0.3626(3) 0.6878(2)
H2 H 1.1972 0.3762 0.6837
C3 C 0.5551(2) 0.5016(3) 0.71972(19)
H3 H 0.5817 0.4677 0.7224
C4 C 0.4861(2) 0.5898(3) 0.71305(19)
H4 H 0.4596 0.6237 0.7105
C5 C 0.7492(2) 0.0572(3) 0.9589(2)
H5 H 0.7501 0.0753 0.9304
C6 C 0.7471(2) 0.0094(3) 1.0325(2)
H6 H 0.7460 -0.0089 1.0609
C7 C 0.6661(2) -0.0330(3) 0.5608(2)
H7 H 0.6773 -0.0034 0.5832
C8 C 0.6373(3) -0.1103(3) 0.5029(2)
H8 H 0.6260 -0.1399 0.4806
C9 C 1.0658(2) 0.3954(3) 0.6937(2)
C10 C 1.1192(2) 0.4142(3) 0.6867(2)
C11 C 1.1303(2) 0.4738(3) 0.6795(3)
C12 C 1.0906(3) 0.5181(3) 0.6798(3)
H9 H 1.0983 0.5590 0.6747
C13 C 1.0397(2) 0.4987(3) 0.6879(3)
C14 C 1.0270(2) 0.4394(3) 0.6943(2)
O1 O 0.99271(18) 0.5335(2) 0.69017(17)
O2 O 0.97238(17) 0.4344(2) 0.70120(16)
C15 C 1.1010(2) 0.3123(3) 0.7347(2)
C16 C 1.1552(2) 0.3298(3) 0.7290(2)
C17 C 1.1973(2) 0.3119(3) 0.7572(2)
C18 C 1.1887(3) 0.2790(4) 0.7928(3)
H10 H 1.2178 0.2670 0.8120
C19 C 1.1357(3) 0.2649(3) 0.7984(2)
C20 C 1.0933(2) 0.2806(3) 0.7703(2)
O3 O 1.11653(19) 0.2313(2) 0.83069(17)
O4 O 1.04500(17) 0.2579(2) 0.78451(16)
C21 C 1.0845(2) 0.3011(3) 0.6605(2)
C22 C 1.1384(2) 0.3196(3) 0.6542(2)
C23 C 1.1662(3) 0.2952(3) 0.6225(2)
C24 C 1.1433(3) 0.2525(3) 0.5951(3)
H11 H 1.1624 0.2362 0.5729
C25 C 1.0916(3) 0.2357(3) 0.6020(2)
C26 C 1.0626(3) 0.2591(3) 0.6338(2)
O5 O 1.0602(2) 0.1928(2) 0.58021(18)
O6 O 1.01191(18) 0.2319(2) 0.63255(16)
C27 C 0.5820(2) 0.5616(3) 0.7139(2)
C28 C 0.5452(2) 0.6100(3) 0.7103(2)
C29 C 0.5637(2) 0.6675(3) 0.7032(2)
C30 C 0.6182(2) 0.6808(3) 0.6993(2)
H12 H 0.6307 0.7203 0.6946
C31 C 0.6526(2) 0.6326(3) 0.7029(2)
C32 C 0.6360(2) 0.5751(3) 0.7097(2)
O7 O 0.70894(17) 0.6320(2) 0.70022(17)
O8 O 0.67996(17) 0.5359(2) 0.71125(15)
C33 C 0.5214(2) 0.5078(3) 0.7576(2)
C34 C 0.4845(2) 0.5562(3) 0.75429(19)
C35 C 0.4525(2) 0.5683(3) 0.7872(2)
C36 C 0.4544(3) 0.5342(3) 0.8233(2)
H13 H 0.4322 0.5430 0.8457
C37 C 0.4899(3) 0.4870(3) 0.8250(2)
C38 C 0.5232(3) 0.4748(3) 0.7931(2)
O9 O 0.49938(19) 0.4449(2) 0.85631(15)
O10 O 0.55476(18) 0.4244(2) 0.80345(15)
C39 C 0.5142(2) 0.4947(3) 0.6828(2)
C40 C 0.4774(2) 0.5438(3) 0.67795(19)
C41 C 0.4413(2) 0.5470(3) 0.6431(2)
C42 C 0.4392(3) 0.5029(3) 0.6122(2)
H14 H 0.4155 0.5062 0.5877
C43 C 0.4730(2) 0.4549(3) 0.6190(2)
C44 C 0.5103(2) 0.4511(3) 0.6535(2)
O11 O 0.47792(18) 0.4049(2) 0.59409(15)
O12 O 0.53844(17) 0.39703(19) 0.65162(15)
C45 C 0.8058(2) 0.0495(3) 0.9813(2)
C46 C 0.8049(2) 0.0227(3) 1.0211(2)
C47 C 0.8530(3) 0.0119(3) 1.0447(2)
C48 C 0.9030(3) 0.0266(3) 1.0303(2)
H15 H 0.9361 0.0184 1.0463
C49 C 0.9026(3) 0.0533(3) 0.9923(2)
C50 C 0.8551(2) 0.0646(3) 0.9676(2)
O13 O 0.94656(19) 0.0732(2) 0.97146(16)
O14 O 0.86776(18) 0.0929(2) 0.93104(15)
C51 C 0.7167(3) 0.0935(3) 0.9884(2)
C52 C 0.7155(3) 0.0682(3) 1.0285(2)
C53 C 0.6850(3) 0.0951(3) 1.0581(2)
C54 C 0.6544(3) 0.1473(3) 1.0497(2)
H16 H 0.6338 0.1660 1.0701
C55 C 0.6563(3) 0.1692(3) 1.0103(2)
C56 C 0.6866(3) 0.1442(3) 0.9803(2)
O15 O 0.6277(2) 0.2181(2) 0.99308(16)
O16 O 0.67893(19) 0.1768(2) 0.94347(14)
C57 C 0.7222(3) -0.0036(3) 0.9588(2)
C58 C 0.7226(3) -0.0310(3) 0.9984(2)
C59 C 0.6986(3) -0.0860(3) 1.0028(2)
C60 C 0.6735(3) -0.1175(3) 0.9696(2)
H17 H 0.6579 -0.1560 0.9731
C61 C 0.6727(3) -0.0897(3) 0.9317(2)
C62 C 0.6973(3) -0.0340(3) 0.9261(2)
O17 O 0.64960(19) -0.1098(2) 0.89378(15)
O18 O 0.69013(17) -0.01780(19) 0.88445(14)
C63 C 0.7128(3) -0.0517(3) 0.5343(2)
C64 C 0.6966(3) -0.0936(3) 0.5028(2)
C65 C 0.7338(3) -0.1141(4) 0.4754(3)
C66 C 0.7870(3) -0.0928(4) 0.4767(3)
H18 H 0.8121 -0.1061 0.4575
C67 C 0.8012(3) -0.0517(4) 0.5072(3)
C68 C 0.7648(3) -0.0308(3) 0.5349(2)
O19 O 0.8498(2) -0.0218(3) 0.5140(2)
O20 O 0.7899(2) 0.0130(2) 0.56042(17)
C69 C 0.6421(3) -0.0905(3) 0.5776(2)
C70 C 0.6281(3) -0.1330(3) 0.5464(2)
C71 C 0.6090(3) -0.1883(3) 0.5583(2)
C72 C 0.5984(3) -0.2021(3) 0.5992(2)
H19 H 0.5845 -0.2401 0.6065
C73 C 0.6091(3) -0.1585(3) 0.6282(2)
C74 C 0.6316(3) -0.1036(3) 0.6179(2)
O21 O 0.6012(2) -0.1589(2) 0.67034(16)
O22 O 0.63805(18) -0.0683(2) 0.65362(14)
C75 C 0.6220(3) -0.0098(3) 0.5299(2)
C76 C 0.6068(3) -0.0506(3) 0.4978(2)
C77 C 0.5695(3) -0.0327(3) 0.4659(2)
C78 C 0.5446(3) 0.0227(3) 0.4655(2)
H20 H 0.5188 0.0341 0.4436
C79 C 0.5588(3) 0.0605(3) 0.4978(2)
C80 C 0.5963(3) 0.0445(3) 0.5298(2)
O23 O 0.5401(2) 0.1174(2) 0.50596(16)
O24 O 0.6026(2) 0.0902(2) 0.55869(15)
C81 C 0.8926(3) 0.5119(3) 0.7025(2)
C82 C 0.8516(3) 0.4723(3) 0.7106(3)
H21 H 0.8602 0.4314 0.7160
C83 C 0.7977(3) 0.4912(3) 0.7110(3)
H22 H 0.7701 0.4628 0.7160
C84 C 0.7836(2) 0.5506(3) 0.7045(2)
C85 C 0.8252(2) 0.5906(3) 0.6976(2)
H23 H 0.8167 0.6318 0.6933
C86 C 0.8788(3) 0.5721(3) 0.6969(2)
H24 H 0.9064 0.6007 0.6925
C87 C 1.0234(3) 0.1936(3) 0.8495(2)
C88 C 0.9667(3) 0.1959(3) 0.8440(3)
H25 H 0.9496 0.2189 0.8219
C89 C 0.9356(3) 0.1646(3) 0.8707(2)
H26 H 0.8971 0.1665 0.8666
C90 C 0.9586(3) 0.1307(3) 0.9032(2)
C91 C 1.0149(3) 0.1290(4) 0.9084(3)
H27 H 1.0318 0.1063 0.9308
C92 C 1.0466(3) 0.1593(4) 0.8822(3)
H28 H 1.0851 0.1569 0.8864
C93 C 0.9665(3) 0.1461(4) 0.5874(3)
C94 C 0.9160(3) 0.1471(4) 0.6045(3)
H29 H 0.9088 0.1762 0.6250
C95 C 0.8764(3) 0.1057(4) 0.5919(3)
H30 H 0.8423 0.1067 0.6041
C96 C 0.8852(3) 0.0635(4) 0.5622(3)
C97 C 0.9344(4) 0.0642(5) 0.5443(4)
H31 H 0.9404 0.0370 0.5223
C98 C 0.9750(4) 0.1030(5) 0.5575(4)
H32 H 1.0095 0.1003 0.5461
C99 C 0.5649(3) 0.3553(3) 0.8688(2)
C100 C 0.6107(3) 0.3248(3) 0.8573(3)
H33 H 0.6255 0.3341 0.8315
C101 C 0.6350(3) 0.2809(3) 0.8828(2)
H34 H 0.6662 0.2606 0.8743
C102 C 0.6144(3) 0.2663(3) 0.9207(2)
C103 C 0.5686(3) 0.2963(3) 0.9317(3)
H35 H 0.5537 0.2871 0.9575
C104 C 0.5438(3) 0.3395(3) 0.9061(2)
H36 H 0.5117 0.3586 0.9143
C105 C 0.6413(3) -0.0693(3) 0.8182(2)
C106 C 0.6559(3) -0.0258(3) 0.7896(2)
H37 H 0.6729 0.0101 0.7995
C107 C 0.6458(3) -0.0345(3) 0.7470(2)
H38 H 0.6562 -0.0047 0.7279
C108 C 0.6201(3) -0.0869(3) 0.7321(2)
C109 C 0.6017(3) -0.1279(3) 0.7608(2)
H39 H 0.5814 -0.1620 0.7510
C110 C 0.6126(3) -0.1193(3) 0.8032(2)
H40 H 0.6004 -0.1480 0.8224
C111 C 0.5564(3) 0.1953(3) 0.5644(2)
C112 C 0.5772(3) 0.2112(3) 0.6041(2)
H41 H 0.5996 0.1838 0.6202
C113 C 0.5654(3) 0.2675(3) 0.6207(2)
H42 H 0.5807 0.2783 0.6477
C114 C 0.5317(3) 0.3078(3) 0.5982(2)
C115 C 0.5103(3) 0.2903(3) 0.5593(2)
H43 H 0.4867 0.3167 0.5435
C116 C 0.5227(3) 0.2357(3) 0.5429(3)
H44 H 0.5075 0.2253 0.5159
loop_
_geom_bond_atom_site_label_1
_geom_bond_atom_site_label_2
_geom_bond_site_symmetry_1
_geom_bond_site_symmetry_2
Br1 C11 1_555 1_555
Br2 C17 1_555 1_555
Br3 C23 1_555 1_555
Br4 C29 1_555 1_555
Br5 C35 1_555 1_555
Br6 C41 1_555 1_555
Br7 C47 1_555 1_555
Br8 C53 1_555 1_555
Br9 C59 1_555 1_555
Br10 C65 1_555 1_555
Br11 C71 1_555 1_555
Br12 C77 1_555 1_555
B1 O1 1_555 1_555
B2 O3 1_555 1_555
B3 O5 1_555 1_555
B4 O7 1_555 1_555
B5 O9 1_555 1_555
B6 O11 1_555 1_555
B7 O13 1_555 1_555
B8 O15 1_555 1_555
B9 O17 1_555 1_555
B10 O19 1_555 1_555
B11 O21 1_555 1_555
B12 O23 1_555 1_555
C1 H1 1_555 1_555
C2 H2 1_555 1_555
C3 H3 1_555 1_555
C4 H4 1_555 1_555
C5 H5 1_555 1_555
C6 H6 1_555 1_555
C7 H7 1_555 1_555
C8 H8 1_555 1_555
C9 C1 1_555 1_555
C10 C2 1_555 1_555
C11 C10 1_555 1_555
C12 C11 1_555 1_555
H9 C12 1_555 1_555
C13 C12 1_555 1_555
C14 C9 1_555 1_555
O1 C13 1_555 1_555
O2 B1 1_555 1_555
C15 C1 1_555 1_555
C16 C2 1_555 1_555
C17 C16 1_555 1_555
C18 C17 1_555 1_555
H10 C18 1_555 1_555
C19 C18 1_555 1_555
C20 C15 1_555 1_555
O3 C19 1_555 1_555
O4 B2 1_555 1_555
C21 C1 1_555 1_555
C22 C2 1_555 1_555
C23 C22 1_555 1_555
C24 C23 1_555 1_555
H11 C24 1_555 1_555
C25 C24 1_555 1_555
C26 C21 1_555 1_555
O5 C25 1_555 1_555
O6 B3 1_555 1_555
C27 C3 1_555 1_555
C28 C4 1_555 1_555
C29 C28 1_555 1_555
C30 C29 1_555 1_555
H12 C30 1_555 1_555
C31 C30 1_555 1_555
C32 C27 1_555 1_555
O7 C31 1_555 1_555
O8 B4 1_555 1_555
C33 C3 1_555 1_555
C34 C4 1_555 1_555
C35 C34 1_555 1_555
C36 C35 1_555 1_555
H13 C36 1_555 1_555
C37 C36 1_555 1_555
C38 C33 1_555 1_555
O9 C37 1_555 1_555
O10 B5 1_555 1_555
C39 C3 1_555 1_555
C40 C4 1_555 1_555
C41 C40 1_555 1_555
C42 C41 1_555 1_555
H14 C42 1_555 1_555
C43 C42 1_555 1_555
C44 C39 1_555 1_555
O11 C43 1_555 1_555
O12 B6 1_555 1_555
C45 C5 1_555 1_555
C46 C6 1_555 1_555
C47 C46 1_555 1_555
C48 C47 1_555 1_555
H15 C48 1_555 1_555
C49 C48 1_555 1_555
C50 C45 1_555 1_555
O13 C49 1_555 1_555
O14 B7 1_555 1_555
C51 C5 1_555 1_555
C52 C6 1_555 1_555
C53 C52 1_555 1_555
C54 C53 1_555 1_555
H16 C54 1_555 1_555
C55 C54 1_555 1_555
C56 C51 1_555 1_555
O15 C55 1_555 1_555
O16 B8 1_555 1_555
C57 C5 1_555 1_555
C58 C6 1_555 1_555
C59 C58 1_555 1_555
C60 C59 1_555 1_555
H17 C60 1_555 1_555
C61 C60 1_555 1_555
C62 C57 1_555 1_555
O17 C61 1_555 1_555
O18 B9 1_555 1_555
C63 C7 1_555 1_555
C64 C8 1_555 1_555
C65 C64 1_555 1_555
C66 C65 1_555 1_555
H18 C66 1_555 1_555
C67 C66 1_555 1_555
C68 C63 1_555 1_555
O19 C67 1_555 1_555
O20 B10 1_555 1_555
C69 C7 1_555 1_555
C70 C8 1_555 1_555
C71 C70 1_555 1_555
C72 C71 1_555 1_555
H19 C72 1_555 1_555
C73 C72 1_555 1_555
C74 C69 1_555 1_555
O21 C73 1_555 1_555
O22 B11 1_555 1_555
C75 C7 1_555 1_555
C76 C8 1_555 1_555
C77 C76 1_555 1_555
C78 C77 1_555 1_555
H20 C78 1_555 1_555
C79 C78 1_555 1_555
C80 C75 1_555 1_555
O23 C79 1_555 1_555
O24 B12 1_555 1_555
C81 B1 1_555 1_555
C82 C81 1_555 1_555
H21 C82 1_555 1_555
C83 C82 1_555 1_555
H22 C83 1_555 1_555
C84 B4 1_555 1_555
C85 C84 1_555 1_555
H23 C85 1_555 1_555
C86 C81 1_555 1_555
H24 C86 1_555 1_555
C87 B2 1_555 1_555
C88 C87 1_555 1_555
H25 C88 1_555 1_555
C89 C88 1_555 1_555
H26 C89 1_555 1_555
C90 B7 1_555 1_555
C91 C90 1_555 1_555
H27 C91 1_555 1_555
C92 C87 1_555 1_555
H28 C92 1_555 1_555
C93 B3 1_555 1_555
C94 C93 1_555 1_555
H29 C94 1_555 1_555
C95 C94 1_555 1_555
H30 C95 1_555 1_555
C96 B10 1_555 1_555
C97 C96 1_555 1_555
H31 C97 1_555 1_555
C98 C93 1_555 1_555
H32 C98 1_555 1_555
C99 B5 1_555 1_555
C100 C99 1_555 1_555
H33 C100 1_555 1_555
C101 C100 1_555 1_555
H34 C101 1_555 1_555
C102 B8 1_555 1_555
C103 C102 1_555 1_555
H35 C103 1_555 1_555
C104 C99 1_555 1_555
H36 C104 1_555 1_555
C105 B9 1_555 1_555
C106 C105 1_555 1_555
H37 C106 1_555 1_555
C107 C106 1_555 1_555
H38 C107 1_555 1_555
C108 B11 1_555 1_555
C109 C108 1_555 1_555
H39 C109 1_555 1_555
C110 C105 1_555 1_555
H40 C110 1_555 1_555
C111 B12 1_555 1_555
C112 C111 1_555 1_555
H41 C112 1_555 1_555
C113 C112 1_555 1_555
H42 C113 1_555 1_555
C114 B6 1_555 1_555
C115 C114 1_555 1_555
H43 C115 1_555 1_555
C116 C111 1_555 1_555
H44 C116 1_555 1_555
C9 C10 1_555 1_555
C13 C14 1_555 1_555
C14 O2 1_555 1_555
C15 C16 1_555 1_555
C19 C20 1_555 1_555
C20 O4 1_555 1_555
C21 C22 1_555 1_555
C25 C26 1_555 1_555
C26 O6 1_555 1_555
C27 C28 1_555 1_555
C31 C32 1_555 1_555
C32 O8 1_555 1_555
C33 C34 1_555 1_555
C37 C38 1_555 1_555
C38 O10 1_555 1_555
C39 C40 1_555 1_555
C43 C44 1_555 1_555
C44 O12 1_555 1_555
C45 C46 1_555 1_555
C49 C50 1_555 1_555
C50 O14 1_555 1_555
C51 C52 1_555 1_555
C55 C56 1_555 1_555
C56 O16 1_555 1_555
C57 C58 1_555 1_555
C61 C62 1_555 1_555
C62 O18 1_555 1_555
C63 C64 1_555 1_555
C67 C68 1_555 1_555
C68 O20 1_555 1_555
C69 C70 1_555 1_555
C73 C74 1_555 1_555
C74 O22 1_555 1_555
C75 C76 1_555 1_555
C79 C80 1_555 1_555
C80 O24 1_555 1_555
C83 C84 1_555 1_555
C85 C86 1_555 1_555
C89 C90 1_555 1_555
C91 C92 1_555 1_555
C95 C96 1_555 1_555
C97 C98 1_555 1_555
C101 C102 1_555 1_555
C103 C104 1_555 1_555
C107 C108 1_555 1_555
C109 C110 1_555 1_555
C113 C114 1_555 1_555
C115 C116 1_555 1_555

#END
