
#######################################################################
#
#                 Cambridge Crystallographic Data Centre
#                                CCDC 
#
#######################################################################
#
# If this CIF has been generated from an entry in the Cambridge 
# Structural Database, then it will include bibliographic, chemical, 
# crystal, experimental, refinement or atomic coordinate data resulting 
# from the CCDC's data processing and validation procedures.
#
#######################################################################

data_AJOGUB
_chemical_formula_moiety         'C28 H10 F10 S1,0.5(C6 H12)'
_chemical_name_systematic        
'3,4-bis(Pentafluorophenyl)-2,5-diphenylthiophene cyclohexane solvate'
_symmetry_cell_setting           triclinic
_symmetry_space_group_name_H-M   'P -1'
_symmetry_Int_Tables_number      2
_space_group_name_Hall           '-P 1'
loop_
_symmetry_equiv_pos_site_id
_symmetry_equiv_pos_as_xyz
1 x,y,z
2 -x,-y,-z
_cell_length_a                   12.5044(8)
_cell_length_b                   13.6022(8)
_cell_length_c                   16.7412(10)
_cell_angle_alpha                79.390(1)
_cell_angle_beta                 68.093(1)
_cell_angle_gamma                86.523(2)
_cell_volume                     2596.58
_exptl_crystal_colour            yellow
_exptl_crystal_description       block
_cell_formula_units_Z            4
_exptl_crystal_recrystallization_method acetonitrile/cyclohexane
loop_
_atom_site_label
_atom_site_type_symbol
_atom_site_fract_x
_atom_site_fract_y
_atom_site_fract_z
S1 S 0.74856(8) 0.46456(7) 0.51203(6)
F1 F 1.03425(17) 0.68226(15) 0.33652(14)
F2 F 1.1191(2) 0.86652(16) 0.25699(15)
F3 F 0.9734(2) 1.02238(16) 0.25033(15)
F4 F 0.7429(2) 0.99033(15) 0.31633(15)
F5 F 0.6560(2) 0.80469(14) 0.39471(14)
F6 F 0.92348(17) 0.60674(14) 0.21637(13)
F7 F 0.9064(2) 0.68316(15) 0.06197(13)
F8 F 0.6965(2) 0.73654(15) 0.05358(14)
F9 F 0.50654(18) 0.72000(15) 0.20266(15)
F10 F 0.52221(18) 0.64254(14) 0.35807(14)
C1 C 0.8060(3) 0.5838(3) 0.4882(2)
C2 C 0.8569(3) 0.6178(3) 0.5450(2)
C3 C 0.9144(3) 0.5513(3) 0.5887(2)
C4 C 0.9625(3) 0.5838(3) 0.6415(3)
C5 C 0.9555(3) 0.6835(3) 0.6502(3)
C6 C 0.8974(3) 0.7500(3) 0.6082(3)
C7 C 0.8469(3) 0.7177(3) 0.5568(2)
C8 C 0.7948(3) 0.6353(3) 0.4128(2)
C9 C 0.8416(3) 0.7375(3) 0.3692(2)
C10 C 0.9593(3) 0.7572(3) 0.3334(2)
C11 C 1.0041(4) 0.8515(3) 0.2930(3)
C12 C 0.9316(4) 0.9292(3) 0.2879(3)
C13 C 0.8146(4) 0.9135(3) 0.3214(3)
C14 C 0.7717(3) 0.8179(3) 0.3610(2)
C15 C 0.7373(3) 0.5787(3) 0.3761(2)
C16 C 0.7229(3) 0.6189(3) 0.2917(3)
C17 C 0.8181(3) 0.6328(3) 0.2147(3)
C18 C 0.8111(3) 0.6715(3) 0.1351(3)
C19 C 0.7060(4) 0.6989(3) 0.1309(3)
C20 C 0.6086(3) 0.6890(3) 0.2063(3)
C21 C 0.6186(3) 0.6492(3) 0.2850(3)
C22 C 0.7082(3) 0.4839(3) 0.4218(2)
C23 C 0.6550(3) 0.4011(3) 0.4021(2)
C24 C 0.5402(3) 0.4045(3) 0.4107(3)
C25 C 0.4919(3) 0.3277(3) 0.3903(3)
C26 C 0.5570(4) 0.2470(3) 0.3618(3)
C27 C 0.6714(4) 0.2428(3) 0.3528(3)
C28 C 0.7203(3) 0.3194(3) 0.3730(3)
H1 H 0.9206 0.483 0.5822
H2 H 1.0004 0.5377 0.6719
H3 H 0.9906 0.7062 0.685
H4 H 0.8922 0.8183 0.6146
H5 H 0.8053 0.7635 0.5295
H6 H 0.4943 0.4597 0.4308
H7 H 0.4133 0.3311 0.3962
H8 H 0.5235 0.1946 0.3483
H9 H 0.7168 0.1874 0.3328
H10 H 0.799 0.3158 0.3668
S2 S 0.66321(8) 0.43844(7) 0.15425(7)
F11 F 0.60724(18) 0.22253(15) -0.03775(13)
F12 F 0.4640(2) 0.08994(15) -0.04901(14)
F13 F 0.2702(2) 0.02711(16) 0.09113(15)
F14 F 0.21843(18) 0.09886(16) 0.24156(15)
F15 F 0.36366(17) 0.22801(15) 0.25518(14)
F16 F 0.87106(18) 0.24723(15) -0.05119(14)
F17 F 0.9593(2) 0.07012(17) -0.09308(15)
F18 F 0.8734(2) -0.10246(16) 0.01887(16)
F19 F 0.6964(2) -0.09682(15) 0.17381(15)
F20 F 0.60605(18) 0.07998(14) 0.21623(14)
C29 C 0.5458(3) 0.3888(3) 0.1433(2)
C30 C 0.4423(3) 0.4501(3) 0.1541(2)
C31 C 0.3984(3) 0.5049(3) 0.2221(3)
C32 C 0.3064(3) 0.5680(3) 0.2278(3)
C33 C 0.2560(3) 0.5788(3) 0.1662(3)
C34 C 0.2988(3) 0.5256(3) 0.0979(3)
C35 C 0.3896(3) 0.4611(3) 0.0924(2)
C36 C 0.5728(3) 0.2969(3) 0.1190(2)
C37 C 0.4904(3) 0.2306(3) 0.1091(3)
C38 C 0.5125(3) 0.1926(3) 0.0329(3)
C39 C 0.4396(4) 0.1251(3) 0.0260(3)
C40 C 0.3414(3) 0.0937(3) 0.0966(3)
C41 C 0.3148(3) 0.1297(3) 0.1733(3)
C42 C 0.3902(3) 0.1969(3) 0.1781(3)
C43 C 0.6879(3) 0.2667(3) 0.1096(2)
C44 C 0.7369(3) 0.1696(3) 0.084(2)
C45 C 0.8260(3) 0.1629(3) 0.0066(3)
C46 C 0.8731(3) 0.0733(3) -0.0156(3)
C47 C 0.8289(4) -0.0141(3) 0.0404(3)
C48 C 0.7396(4) -0.0116(3) 0.1180(3)
C49 C 0.6947(3) 0.0796(3) 0.1387(3)
C50 C 0.7495(3) 0.3359(3) 0.1264(2)
C51 C 0.8672(3) 0.3338(3) 0.1260(2)
C52 C 0.9211(3) 0.2458(3) 0.1475(3)
C53 C 1.0313(3) 0.2471(3) 0.1468(3)
C54 C 1.0901(3) 0.3369(3) 0.1269(3)
C55 C 1.0374(3) 0.4244(3) 0.1072(3)
C56 C 0.9279(3) 0.4232(3) 0.1056(3)
H11 H 0.4324 0.4985 0.265
H12 H 0.2774 0.6044 0.2747
H13 H 0.1925 0.6223 0.1706
H14 H 0.2653 0.5337 0.0547
H15 H 0.4168 0.4236 0.0462
H16 H 0.881 0.1839 0.163
H17 H 1.0674 0.1861 0.16
H18 H 1.166 0.3379 0.1269
H19 H 1.0766 0.4864 0.0946
H20 H 0.8934 0.4843 0.0903
C57 C 0.4074(5) -0.0448(4) 0.4172(3)
C58 C 0.3913(5) -0.1038(4) 0.3559(4)
C59 C 0.2809(6) -0.1637(4) 0.3955(4)
C60 C 0.1760(5) -0.0977(5) 0.4344(4)
C61 C 0.1955(5) -0.0368(4) 0.4950(3)
C62 C 0.3077(5) 0.0206(4) 0.4527(3)
H21 H 0.4173 -0.0898 0.4645
H22 H 0.4746 -0.0041 0.387
H23 H 0.4541 -0.1484 0.3395
H24 H 0.3904 -0.0591 0.3054
H25 H 0.2862 -0.2152 0.4406
H26 H 0.2703 -0.1927 0.3515
H27 H 0.1629 -0.0535 0.388
H28 H 0.1102 -0.1395 0.4663
H29 H 0.1964 -0.0807 0.5459
H30 H 0.1341 0.0092 0.511
H31 H 0.3196 0.0519 0.495
H32 H 0.3029 0.0703 0.4061
loop_
_geom_bond_atom_site_label_1
_geom_bond_atom_site_label_2
_geom_bond_site_symmetry_1
_geom_bond_site_symmetry_2
S1 C1 1_555 1_555
S2 C29 1_555 1_555
F1 C10 1_555 1_555
F2 C11 1_555 1_555
F3 C12 1_555 1_555
F4 C13 1_555 1_555
F5 C14 1_555 1_555
F6 C17 1_555 1_555
F7 C18 1_555 1_555
F8 C19 1_555 1_555
F9 C20 1_555 1_555
F10 C21 1_555 1_555
F11 C38 1_555 1_555
F12 C39 1_555 1_555
F13 C40 1_555 1_555
F14 C41 1_555 1_555
F15 C42 1_555 1_555
F16 C45 1_555 1_555
F17 C46 1_555 1_555
F18 C47 1_555 1_555
F19 C48 1_555 1_555
F20 C49 1_555 1_555
C1 C2 1_555 1_555
C2 C3 1_555 1_555
C3 C4 1_555 1_555
C4 C5 1_555 1_555
C5 C6 1_555 1_555
C6 C7 1_555 1_555
C7 C2 1_555 1_555
C8 C1 1_555 1_555
C9 C8 1_555 1_555
C10 C9 1_555 1_555
C11 C10 1_555 1_555
C12 C11 1_555 1_555
C13 C12 1_555 1_555
C14 C9 1_555 1_555
C15 C8 1_555 1_555
C16 C15 1_555 1_555
C17 C16 1_555 1_555
C18 C17 1_555 1_555
C19 C18 1_555 1_555
C20 C19 1_555 1_555
C21 C16 1_555 1_555
C22 S1 1_555 1_555
C23 C22 1_555 1_555
C24 C23 1_555 1_555
C25 C24 1_555 1_555
C26 C25 1_555 1_555
C27 C26 1_555 1_555
C28 C23 1_555 1_555
C29 C30 1_555 1_555
C30 C31 1_555 1_555
C31 C32 1_555 1_555
C32 C33 1_555 1_555
C33 C34 1_555 1_555
C34 C35 1_555 1_555
C35 C30 1_555 1_555
C36 C29 1_555 1_555
C37 C36 1_555 1_555
C38 C37 1_555 1_555
C39 C38 1_555 1_555
C40 C39 1_555 1_555
C41 C40 1_555 1_555
C42 C37 1_555 1_555
C43 C36 1_555 1_555
C44 C43 1_555 1_555
C45 C44 1_555 1_555
C46 C45 1_555 1_555
C47 C46 1_555 1_555
C48 C47 1_555 1_555
C49 C44 1_555 1_555
C50 S2 1_555 1_555
C51 C50 1_555 1_555
C52 C51 1_555 1_555
C53 C52 1_555 1_555
C54 C53 1_555 1_555
C55 C54 1_555 1_555
C56 C51 1_555 1_555
C57 C58 1_555 1_555
C58 C59 1_555 1_555
C59 C60 1_555 1_555
C60 C61 1_555 1_555
C61 C62 1_555 1_555
C62 C57 1_555 1_555
H1 C3 1_555 1_555
H2 C4 1_555 1_555
H3 C5 1_555 1_555
H4 C6 1_555 1_555
H5 C7 1_555 1_555
H6 C24 1_555 1_555
H7 C25 1_555 1_555
H8 C26 1_555 1_555
H9 C27 1_555 1_555
H10 C28 1_555 1_555
H11 C31 1_555 1_555
H12 C32 1_555 1_555
H13 C33 1_555 1_555
H14 C34 1_555 1_555
H15 C35 1_555 1_555
H16 C52 1_555 1_555
H17 C53 1_555 1_555
H18 C54 1_555 1_555
H19 C55 1_555 1_555
H20 C56 1_555 1_555
H21 C57 1_555 1_555
H22 C57 1_555 1_555
H23 C58 1_555 1_555
H24 C58 1_555 1_555
H25 C59 1_555 1_555
H26 C59 1_555 1_555
H27 C60 1_555 1_555
H28 C60 1_555 1_555
H29 C61 1_555 1_555
H30 C61 1_555 1_555
H31 C62 1_555 1_555
H32 C62 1_555 1_555
C13 C14 1_555 1_555
C15 C22 1_555 1_555
C20 C21 1_555 1_555
C27 C28 1_555 1_555
C41 C42 1_555 1_555
C43 C50 1_555 1_555
C48 C49 1_555 1_555
C55 C56 1_555 1_555

#END
