
#######################################################################
#
#                 Cambridge Crystallographic Data Centre
#                                CCDC 
#
#######################################################################
#
# If this CIF has been generated from an entry in the Cambridge 
# Structural Database, then it will include bibliographic, chemical, 
# crystal, experimental, refinement or atomic coordinate data resulting 
# from the CCDC's data processing and validation procedures.
#
#######################################################################

data_ATOHIB
_chemical_formula_moiety         'C41 H62 O8 Si2'
_chemical_name_systematic        
'Methyl (4-((t-butyl(dimethyl)silyl)oxy)-6-((4-((t-butyl(diphenyl)silyl)oxy)-6-(2,2-dimethyl-1,3-dioxolan-4-yl)tetrahydro-2H-pyran-2-yl)methyl)-5,6-dihydro-2H-pyran-2-yl)acetate'
_symmetry_cell_setting           monoclinic
_symmetry_space_group_name_H-M   'P 21'
_symmetry_Int_Tables_number      4
_space_group_name_Hall           'P 2yb'
loop_
_symmetry_equiv_pos_site_id
_symmetry_equiv_pos_as_xyz
1 x,y,z
2 -x,1/2+y,-z
_cell_length_a                   15.3315(9)
_cell_length_b                   8.2072(5)
_cell_length_c                   17.2595(11)
_cell_angle_alpha                90
_cell_angle_beta                 99.414(1)
_cell_angle_gamma                90
_cell_volume                     2142.49
_exptl_crystal_colour            colorless
_exptl_crystal_description       needle
_cell_formula_units_Z            2
loop_
_atom_site_label
_atom_site_type_symbol
_atom_site_fract_x
_atom_site_fract_y
_atom_site_fract_z
Si1 Si 0.2457(2) 0.3788(3) 0.43145(13)
Si2 Si -0.4594(2) 0.7605(3) 0.18843(14)
O1 O 0.1219(5) 0.5539(9) -0.0113(3)
O2 O 0.2226(4) 0.5672(9) 0.0970(3)
O3 O 0.0552(4) 0.6997(6) 0.2092(3)
O4 O 0.2005(3) 0.4803(6) 0.3533(3)
O5 O -0.1421(3) 0.5113(6) 0.2535(3)
O6 O -0.3640(4) 0.7712(7) 0.1547(3)
O7 O -0.1051(4) 0.1258(7) 0.2101(3)
O8 O -0.0028(4) 0.2365(7) 0.1467(3)
C1 C -0.0839(7) 0.2301(11) 0.1680(5)
C2 C -0.1434(6) 0.3661(10) 0.1325(5)
H1 H -0.1827(6) 0.3264(10) 0.0850(5)
H2 H -0.1073(6) 0.4566(10) 0.1169(5)
C3 C -0.1994(6) 0.4273(10) 0.1932(5)
H3 H -0.2222(6) 0.3290(10) 0.2177(5)
C4 C -0.2794(6) 0.5308(11) 0.1591(5)
H4 H -0.3241(6) 0.4838(11) 0.1211(5)
C5 C -0.2885(6) 0.6823(10) 0.1807(5)
C6 C -0.2161(5) 0.7682(11) 0.2323(5)
H5 H -0.2303(5) 0.7748(11) 0.2862(5)
H6 H -0.2109(5) 0.8806(11) 0.2128(5)
C7 C -0.1284(6) 0.6797(9) 0.2344(5)
H7 H -0.1121(6) 0.6840(9) 0.1807(5)
C8 C -0.0527(5) 0.7455(10) 0.2914(4)
H8 H -0.0660(5) 0.7329(10) 0.3453(4)
H9 H -0.0468(5) 0.8635(10) 0.2814(4)
C9 C 0.0351(5) 0.6627(10) 0.2868(4)
H10 H 0.0281(5) 0.5422(10) 0.2919(4)
C10 C 0.1090(5) 0.7216(10) 0.3499(4)
H11 H 0.0958(5) 0.6888(10) 0.4020(4)
H12 H 0.1112(5) 0.8421(10) 0.3485(4)
C11 C 0.1990(5) 0.6542(10) 0.3402(4)
H13 H 0.2466(5) 0.7085(10) 0.3779(4)
C12 C 0.2142(6) 0.6817(10) 0.2551(4)
H14 H 0.2230(6) 0.7993(10) 0.2464(4)
H15 H 0.2682(6) 0.6232(10) 0.2465(4)
C13 C 0.1361(5) 0.6212(10) 0.1974(4)
H16 H 0.1300(5) 0.5012(10) 0.2048(4)
C14 C 0.1465(6) 0.6533(10) 0.1129(5)
H17 H 0.1554(6) 0.7727(10) 0.1056(5)
C15 C 0.0746(6) 0.5939(12) 0.0505(5)
H18 H 0.0447(6) 0.4971(12) 0.0683(5)
H19 H 0.0301(6) 0.6800(12) 0.0343(5)
C16 C 0.2722(7) 0.5153(17) -0.0235(5)
H20 H 0.2766(7) 0.6336(17) -0.0294(5)
H21 H 0.2537(7) 0.4654(17) -0.0751(5)
H22 H 0.3299(7) 0.4715(17) 0.0002(5)
C17 C 0.2054(6) 0.4783(13) 0.0284(6)
C18 C 0.1959(11) 0.3052(16) 0.0406(10)
H23 H 0.1394(11) 0.2833(16) 0.0581(10)
H24 H 0.2445(11) 0.2678(16) 0.0807(10)
H25 H 0.1979(11) 0.2472(16) -0.0087(10)
C19 C 0.1601(5) 0.2331(10) 0.4537(5)
C20 C 0.1720(6) 0.1274(11) 0.5180(5)
H26 H 0.2263(6) 0.1300(11) 0.5535(5)
C21 C 0.1063(7) 0.0176(11) 0.5317(5)
H27 H 0.1161(7) -0.0541(11) 0.5754(5)
C22 C 0.0270(7) 0.0154(11) 0.4803(6)
H28 H -0.0185(7) -0.0569(11) 0.4897(6)
C23 C 0.0131(6) 0.1166(10) 0.4158(5)
H29 H -0.0414(6) 0.1124(10) 0.3806(5)
C24 C 0.0783(5) 0.2240(9) 0.4025(5)
H30 H 0.0679(5) 0.2935(9) 0.3579(5)
C25 C 0.3999(6) 0.3700(13) 0.3602(5)
H31 H 0.4506(6) 0.3069(13) 0.3488(5)
H32 H 0.4211(6) 0.4644(13) 0.3926(5)
H33 H 0.3647(6) 0.4073(13) 0.3109(5)
C26 C 0.3062(7) 0.1201(14) 0.3496(6)
H34 H 0.3550(7) 0.0688(14) 0.3284(6)
H35 H 0.2629(7) 0.1630(14) 0.3063(6)
H36 H 0.2777(7) 0.0391(14) 0.3789(6)
C27 C 0.4010(6) 0.1929(11) 0.4760(5)
H37 H 0.4432(6) 0.1161(11) 0.4591(5)
H38 H 0.3645(6) 0.1359(11) 0.5090(5)
H39 H 0.4334(6) 0.2814(11) 0.5061(5)
C28 C 0.3426(5) 0.2623(12) 0.4050(5)
C29 C 0.2759(6) 0.5223(10) 0.5156(4)
C30 C 0.3432(6) 0.6427(12) 0.5193(5)
H40 H 0.3783(6) 0.6453(12) 0.4789(5)
C31 C 0.3596(6) 0.7558(12) 0.5789(5)
H41 H 0.4050(6) 0.8346(12) 0.5788(5)
C32 C 0.3103(6) 0.7541(12) 0.6382(5)
H42 H 0.3216(6) 0.8315(12) 0.6795(5)
C33 C 0.2446(6) 0.6412(12) 0.6382(5)
H43 H 0.2106(6) 0.6410(12) 0.6795(5)
C34 C 0.2273(5) 0.5262(10) 0.5781(4)
H44 H 0.1815(5) 0.4487(10) 0.5793(4)
C35 C -0.4384(6) 0.7920(13) 0.2966(5)
H45 H -0.4063(6) 0.6980(13) 0.3222(5)
H46 H -0.4949(6) 0.8036(13) 0.3155(5)
H47 H -0.4030(6) 0.8908(13) 0.3092(5)
C36 C -0.4841(8) 1.0959(11) 0.1548(7)
H48 H -0.5132(8) 1.1777(11) 0.1180(7)
H49 H -0.4210(8) 1.0918(11) 0.1514(7)
H50 H -0.4916(8) 1.1251(11) 0.2084(7)
C37 C -0.6212(6) 0.9220(14) 0.1546(6)
H51 H -0.6561(6) 1.0115(14) 0.1277(6)
H52 H -0.6182(6) 0.9337(14) 0.2115(6)
H53 H -0.6492(6) 0.8178(14) 0.1375(6)
C38 C -0.5339(6) 0.8979(14) 0.0437(5)
H54 H -0.5720(6) 0.9817(14) 0.0154(5)
H55 H -0.5596(6) 0.7901(14) 0.0305(5)
H56 H -0.4751(6) 0.9036(14) 0.0286(5)
C39 C -0.5263(6) 0.9269(11) 0.1336(5)
C40 C -0.5134(6) 0.5566(11) 0.1657(5)
H57 H -0.4804(6) 0.4733(11) 0.1992(5)
H58 H -0.5135(6) 0.5294(11) 0.1104(5)
H59 H -0.5744(6) 0.5607(11) 0.1760(5)
C41 C 0.0540(7) 0.1015(12) 0.1763(6)
H60 H 0.1118(7) 0.1139(12) 0.1596(6)
H61 H 0.0267(7) -0.0008(12) 0.1554(6)
H62 H 0.0618(7) 0.0996(12) 0.2338(6)
loop_
_geom_bond_atom_site_label_1
_geom_bond_atom_site_label_2
_geom_bond_site_symmetry_1
_geom_bond_site_symmetry_2
Si1 O4 1_555 1_555
Si2 O6 1_555 1_555
O1 C15 1_555 1_555
O2 C14 1_555 1_555
O3 C9 1_555 1_555
O4 C11 1_555 1_555
O5 C3 1_555 1_555
O6 C5 1_555 1_555
O7 C1 1_555 1_555
O8 C1 1_555 1_555
C1 C2 1_555 1_555
C2 H1 1_555 1_555
H2 C2 1_555 1_555
C3 C2 1_555 1_555
H3 C3 1_555 1_555
C4 C3 1_555 1_555
H4 C4 1_555 1_555
C5 C4 1_555 1_555
C6 C5 1_555 1_555
H5 C6 1_555 1_555
H6 C6 1_555 1_555
C7 O5 1_555 1_555
H7 C7 1_555 1_555
C8 C7 1_555 1_555
H8 C8 1_555 1_555
H9 C8 1_555 1_555
C9 C8 1_555 1_555
H10 C9 1_555 1_555
C10 C9 1_555 1_555
H11 C10 1_555 1_555
H12 C10 1_555 1_555
C11 C10 1_555 1_555
H13 C11 1_555 1_555
C12 C11 1_555 1_555
H14 C12 1_555 1_555
H15 C12 1_555 1_555
C13 O3 1_555 1_555
H16 C13 1_555 1_555
C14 C13 1_555 1_555
H17 C14 1_555 1_555
C15 C14 1_555 1_555
H18 C15 1_555 1_555
H19 C15 1_555 1_555
C16 H20 1_555 1_555
H21 C16 1_555 1_555
H22 C16 1_555 1_555
C17 O1 1_555 1_555
C18 C17 1_555 1_555
H23 C18 1_555 1_555
H24 C18 1_555 1_555
H25 C18 1_555 1_555
C19 Si1 1_555 1_555
C20 C19 1_555 1_555
H26 C20 1_555 1_555
C21 C20 1_555 1_555
H27 C21 1_555 1_555
C22 C21 1_555 1_555
H28 C22 1_555 1_555
C23 C22 1_555 1_555
H29 C23 1_555 1_555
C24 C19 1_555 1_555
H30 C24 1_555 1_555
C25 H31 1_555 1_555
H32 C25 1_555 1_555
H33 C25 1_555 1_555
C26 H34 1_555 1_555
H35 C26 1_555 1_555
H36 C26 1_555 1_555
C27 H37 1_555 1_555
H38 C27 1_555 1_555
H39 C27 1_555 1_555
C28 Si1 1_555 1_555
C29 Si1 1_555 1_555
C30 C29 1_555 1_555
H40 C30 1_555 1_555
C31 C30 1_555 1_555
H41 C31 1_555 1_555
C32 C31 1_555 1_555
H42 C32 1_555 1_555
C33 C32 1_555 1_555
H43 C33 1_555 1_555
C34 C29 1_555 1_555
H44 C34 1_555 1_555
C35 Si2 1_555 1_555
H45 C35 1_555 1_555
H46 C35 1_555 1_555
H47 C35 1_555 1_555
C36 H48 1_555 1_555
H49 C36 1_555 1_555
H50 C36 1_555 1_555
C37 H51 1_555 1_555
H52 C37 1_555 1_555
H53 C37 1_555 1_555
C38 H54 1_555 1_555
H55 C38 1_555 1_555
H56 C38 1_555 1_555
C39 Si2 1_555 1_555
C40 Si2 1_555 1_555
H57 C40 1_555 1_555
H58 C40 1_555 1_555
H59 C40 1_555 1_555
C41 O8 1_555 1_555
H60 C41 1_555 1_555
H61 C41 1_555 1_555
H62 C41 1_555 1_555
O2 C17 1_555 1_555
C6 C7 1_555 1_555
C12 C13 1_555 1_555
C16 C17 1_555 1_555
C23 C24 1_555 1_555
C25 C28 1_555 1_555
C26 C28 1_555 1_555
C27 C28 1_555 1_555
C33 C34 1_555 1_555
C36 C39 1_555 1_555
C37 C39 1_555 1_555
C38 C39 1_555 1_555

#END
