
#######################################################################
#
#                 Cambridge Crystallographic Data Centre
#                                CCDC 
#
#######################################################################
#
# If this CIF has been generated from an entry in the Cambridge 
# Structural Database, then it will include bibliographic, chemical, 
# crystal, experimental, refinement or atomic coordinate data resulting 
# from the CCDC's data processing and validation procedures.
#
#######################################################################

data_BEQWEC
_chemical_formula_moiety         'C12 H11 F1 N4 O3'
_chemical_name_systematic        
N-[(4-fluorophenyl)methoxy]-1-(1-methyl-5-nitro-1H-imidazol-2-yl)methanimine
_symmetry_cell_setting           monoclinic
_symmetry_space_group_name_H-M   'P 21/n'
_symmetry_Int_Tables_number      14
_space_group_name_Hall           '-P 2yn'
loop_
_symmetry_equiv_pos_site_id
_symmetry_equiv_pos_as_xyz
1 x,y,z
2 1/2-x,1/2+y,1/2-z
3 -x,-y,-z
4 1/2+x,1/2-y,1/2+z
_cell_length_a                   7.5484(2)
_cell_length_b                   12.6442(4)
_cell_length_c                   13.4150(9)
_cell_angle_alpha                90
_cell_angle_beta                 102.988(7)
_cell_angle_gamma                90
_cell_volume                     1247.62
_exptl_crystal_colour            orange
_exptl_crystal_description       block
_cell_formula_units_Z            4
loop_
_atom_site_label
_atom_site_type_symbol
_atom_site_fract_x
_atom_site_fract_y
_atom_site_fract_z
C1 C 0.40044(15) 0.59196(9) 0.16775(9)
C2 C 0.38559(16) 0.48697(9) 0.14129(9)
H1 H 0.3923 0.4590 0.0765
C3 C 0.35720(15) 0.49975(9) 0.29626(9)
C4 C 0.40828(17) 0.69554(9) 0.33328(9)
H2 H 0.3204 0.7499 0.3025
H3 H 0.5320 0.7228 0.3401
H4 H 0.3892 0.6769 0.4010
C5 C 0.32784(15) 0.46335(9) 0.39394(9)
H5 H 0.3457 0.3906 0.4109
C6 C 0.18665(15) 0.54029(9) 0.60895(9)
H6 H 0.0718 0.5716 0.5697
H7 H 0.2737 0.5984 0.6330
C7 C 0.15188(14) 0.47943(9) 0.69873(9)
C8 C 0.10500(15) 0.37210(9) 0.69078(9)
H8 H 0.1018 0.3354 0.6286
C9 C 0.06311(16) 0.31892(10) 0.77312(10)
H9 H 0.0328 0.2459 0.7684
C10 C 0.06662(16) 0.37454(11) 0.86169(10)
C11 C 0.11210(17) 0.48020(11) 0.87283(9)
H10 H 0.1132 0.5165 0.9350
C12 C 0.15620(16) 0.53179(10) 0.79027(9)
H11 H 0.1900 0.6043 0.7965
N1 N 0.36001(13) 0.42969(8) 0.22186(7)
N2 N 0.38326(12) 0.60100(7) 0.26758(7)
N3 N 0.27904(12) 0.52518(8) 0.45773(7)
N4 N 0.42710(14) 0.67827(8) 0.10515(8)
O1 O 0.26029(11) 0.46915(6) 0.54488(6)
O2 O 0.44180(14) 0.76801(7) 0.14148(7)
O3 O 0.43216(14) 0.65795(8) 0.01587(7)
F1 F 0.02098(11) 0.32309(7) 0.94206(6)
loop_
_geom_bond_atom_site_label_1
_geom_bond_atom_site_label_2
_geom_bond_site_symmetry_1
_geom_bond_site_symmetry_2
C1 C2 1_555 1_555
C2 H1 1_555 1_555
C3 C5 1_555 1_555
C4 H2 1_555 1_555
H3 C4 1_555 1_555
H4 C4 1_555 1_555
C5 H5 1_555 1_555
C6 H6 1_555 1_555
H7 C6 1_555 1_555
C7 C6 1_555 1_555
C8 C7 1_555 1_555
H8 C8 1_555 1_555
C9 C8 1_555 1_555
H9 C9 1_555 1_555
C10 C9 1_555 1_555
C11 C10 1_555 1_555
H10 C11 1_555 1_555
C12 C7 1_555 1_555
H11 C12 1_555 1_555
N1 C2 1_555 1_555
N2 C1 1_555 1_555
N3 C5 1_555 1_555
N4 C1 1_555 1_555
O1 C6 1_555 1_555
O2 N4 1_555 1_555
O3 N4 1_555 1_555
F1 C10 1_555 1_555
C3 N1 1_555 1_555
C3 N2 1_555 1_555
C4 N2 1_555 1_555
C11 C12 1_555 1_555
N3 O1 1_555 1_555

#END
