
#######################################################################
#
#                 Cambridge Crystallographic Data Centre
#                                CCDC 
#
#######################################################################
#
# If this CIF has been generated from an entry in the Cambridge 
# Structural Database, then it will include bibliographic, chemical, 
# crystal, experimental, refinement or atomic coordinate data resulting 
# from the CCDC's data processing and validation procedures.
#
#######################################################################

data_CETROK
_chemical_formula_moiety         'C70 H44,C6 H3 Cl3,0.5(C6 H2 Cl4)'
_chemical_name_systematic        
'6-(Diphenylmethylene)-13-(13-(diphenylmethylene)pentacen-6(13H)-ylidene)-6,13-dihydropentacene 1,2,4,5-tetrachlorobenzene 1,2,4-trichlorobenzene solvate'
_symmetry_cell_setting           triclinic
_symmetry_space_group_name_H-M   'P -1'
_symmetry_Int_Tables_number      2
_space_group_name_Hall           '-P 1'
loop_
_symmetry_equiv_pos_site_id
_symmetry_equiv_pos_as_xyz
1 x,y,z
2 -x,-y,-z
_cell_length_a                   12.2674(12)
_cell_length_b                   13.4426(14)
_cell_length_c                   19.906(2)
_cell_angle_alpha                83.633(9)
_cell_angle_beta                 76.942(9)
_cell_angle_gamma                65.569(10)
_cell_volume                     2910.84
_cell_formula_units_Z            2
_exptl_crystal_recrystallization_method methanol/1,2,4-trichlorobenzene
loop_
_atom_site_label
_atom_site_type_symbol
_atom_site_fract_x
_atom_site_fract_y
_atom_site_fract_z
C1 C 0.0240(5) 0.9536(5) 0.0181(3)
C2 C -0.0240(6) 0.8670(5) 0.0299(3)
C3 C -0.0401(6) 0.8241(5) 0.0988(3)
C4 C -0.0046(6) 0.8714(5) 0.1501(3)
C5 C 0.1124(6) 0.8844(5) 0.1220(3)
C6 C 0.1282(6) 0.9257(5) 0.0530(3)
C7 C 0.2366(6) 0.9318(5) 0.0210(4)
C8 C 0.3347(6) 0.8968(5) 0.0565(4)
C9 C 0.3186(6) 0.8577(5) 0.1257(4)
C10 C 0.2045(6) 0.8529(5) 0.1585(3)
C11 C 0.4180(6) 0.8202(6) 0.1606(4)
C12 C 0.5294(7) 0.8182(6) 0.1265(5)
C13 C 0.5458(7) 0.8565(6) 0.0575(5)
C14 C 0.4504(6) 0.8957(6) 0.0223(4)
C15 C -0.0730(6) 0.9063(5) 0.2124(3)
C16 C -0.1938(6) 0.8987(6) 0.2376(4)
C17 C -0.2956(7) 0.9853(7) 0.2203(4)
C18 C -0.4108(8) 0.9837(9) 0.2418(5)
C19 C -0.4225(9) 0.8969(9) 0.2815(5)
C20 C -0.3241(10) 0.8108(8) 0.3005(5)
C21 C -0.2072(8) 0.8116(7) 0.2787(4)
C22 C -0.0455(6) 0.9722(6) 0.2561(4)
C23 C -0.0453(7) 1.0734(7) 0.2299(5)
C24 C -0.0231(8) 1.1389(8) 0.2700(5)
C25 C 0.0000(8) 1.1044(10) 0.3346(5)
C26 C -0.0011(9) 1.0051(10) 0.3611(5)
C27 C -0.0245(7) 0.9381(8) 0.3229(4)
C28 C -0.0817(6) 0.7429(5) 0.1135(4)
C29 C -0.1068(6) 0.6981(6) 0.0601(4)
C30 C -0.0885(6) 0.7390(6) -0.0085(4)
C31 C -0.0468(6) 0.8242(6) -0.0226(4)
C32 C -0.1114(6) 0.6926(6) -0.0620(4)
C33 C -0.1526(7) 0.6097(6) -0.0459(4)
C34 C -0.1709(7) 0.5691(6) 0.0220(5)
C35 C -0.1491(6) 0.6122(6) 0.0742(4)
C1A C -0.0240(5) 1.0464(5) -0.0181(3)
C2A C 0.0240(6) 1.1330(5) -0.0299(3)
C3A C 0.0401(6) 1.1759(5) -0.0988(3)
C4A C 0.0046(6) 1.1286(5) -0.1501(3)
C5A C -0.1124(6) 1.1156(5) -0.1220(3)
C6A C -0.1282(6) 1.0743(5) -0.0530(3)
C7A C -0.2366(6) 1.0682(5) -0.0210(4)
C8A C -0.3347(6) 1.1032(5) -0.0565(4)
C9A C -0.3186(6) 1.1423(5) -0.1257(4)
C10A C -0.2045(6) 1.1471(5) -0.1585(3)
C11A C -0.4180(6) 1.1798(6) -0.1606(4)
C12A C -0.5294(7) 1.1818(6) -0.1265(5)
C13A C -0.5458(7) 1.1435(6) -0.0575(5)
C14A C -0.4504(6) 1.1043(6) -0.0223(4)
C15A C 0.0730(6) 1.0937(5) -0.2124(3)
C16A C 0.1938(6) 1.1013(6) -0.2376(4)
C17A C 0.2956(7) 1.0147(7) -0.2203(4)
C18A C 0.4108(8) 1.0163(9) -0.2418(5)
C19A C 0.4225(9) 1.1031(9) -0.2815(5)
C20A C 0.3241(10) 1.1892(8) -0.3005(5)
C21A C 0.2072(8) 1.1884(7) -0.2787(4)
C22A C 0.0455(6) 1.0278(6) -0.2561(4)
C23A C 0.0453(7) 0.9266(7) -0.2299(5)
C24A C 0.0231(8) 0.8611(8) -0.2700(5)
C25A C 0.0000(8) 0.8956(10) -0.3346(5)
C26A C 0.0011(9) 0.9949(10) -0.3611(5)
C27A C 0.0245(7) 1.0619(8) -0.3229(4)
C28A C 0.0817(6) 1.2571(5) -0.1135(4)
C29A C 0.1068(6) 1.3019(6) -0.0601(4)
C30A C 0.0885(6) 1.2610(6) 0.0085(4)
C31A C 0.0468(6) 1.1758(6) 0.0226(4)
C32A C 0.1114(6) 1.3074(6) 0.0620(4)
C33A C 0.1526(7) 1.3903(6) 0.0459(4)
C34A C 0.1709(7) 1.4309(6) -0.0220(5)
C35A C 0.1491(6) 1.3878(6) -0.0742(4)
C36 C 1.0155(6) 0.5177(6) 0.4676(4)
C37 C 0.9736(6) 0.4994(6) 0.4068(3)
C38 C 1.0630(6) 0.4624(6) 0.3451(4)
C39 C 1.1887(6) 0.4498(6) 0.3475(3)
C40 C 1.1866(6) 0.5401(6) 0.3835(3)
C41 C 1.0966(6) 0.5766(6) 0.4460(3)
C42 C 1.2627(6) 0.5935(6) 0.3584(4)
C43 C 1.2556(7) 0.6812(7) 0.3943(4)
C44 C 1.2915(6) 0.3633(6) 0.3230(3)
C45 C 0.8531(6) 0.5231(6) 0.4087(3)
C46 C 0.8165(6) 0.5060(6) 0.3497(4)
C47 C 0.9057(6) 0.4665(6) 0.2889(3)
C48 C 0.8693(7) 0.4471(6) 0.2302(4)
C49 C 1.0276(6) 0.4466(6) 0.2876(4)
C50 C 1.1661(7) 0.7183(7) 0.4553(4)
C51 C 1.4136(6) 0.3385(6) 0.3392(4)
C52 C 1.2908(6) 0.2791(6) 0.2800(4)
C53 C 0.6591(7) 0.5097(7) 0.2938(4)
C54 C 1.3383(8) 0.7352(7) 0.3704(4)
C55 C 1.6433(8) 0.2785(8) 0.3724(5)
C56 C 1.1589(8) 0.8071(7) 0.4913(4)
C57 C 1.2975(8) 0.1210(9) 0.1962(7)
C58 C 1.3252(8) 0.2078(8) 0.1662(5)
C59 C 1.3231(7) 0.2873(7) 0.2067(4)
C60 C 1.0868(7) 0.6635(7) 0.4796(4)
C61 C 1.3300(8) 0.8192(8) 0.4076(5)
C62 C 1.5366(8) 0.3261(7) 0.4226(5)
C63 C 1.5199(7) 0.2912(6) 0.2900(4)
C64 C 0.6926(7) 0.5271(7) 0.3504(4)
C65 C 1.2668(7) 0.1901(7) 0.3106(6)
C66 C 0.7488(7) 0.4682(7) 0.2329(4)
C67 C 1.4231(7) 0.3551(7) 0.4057(4)
C68 C 1.6335(8) 0.2626(7) 0.3083(5)
C69 C 1.2692(8) 0.1106(8) 0.2671(7)
C70 C 1.2415(9) 0.8565(8) 0.4681(5)
C36A C 0.9845(6) 0.4823(6) 0.5324(4)
C37A C 1.0264(6) 0.5006(6) 0.5932(3)
C38A C 0.9370(6) 0.5376(6) 0.6549(4)
C39A C 0.8113(6) 0.5502(6) 0.6525(3)
C40A C 0.8134(6) 0.4599(6) 0.6165(3)
C41A C 0.9034(6) 0.4234(6) 0.5540(3)
C42A C 0.7373(6) 0.4065(6) 0.6416(4)
C43A C 0.7444(7) 0.3188(7) 0.6057(4)
C44A C 0.7085(6) 0.6367(6) 0.6770(3)
C45A C 1.1469(6) 0.4769(6) 0.5913(3)
C46A C 1.1835(6) 0.4940(6) 0.6503(4)
C47A C 1.0943(6) 0.5335(6) 0.7111(3)
C48A C 1.1307(7) 0.5529(6) 0.7698(4)
C49A C 0.9724(6) 0.5534(6) 0.7124(4)
C50A C 0.8339(7) 0.2817(7) 0.5447(4)
C51A C 0.5864(6) 0.6615(6) 0.6608(4)
C52A C 0.7092(6) 0.7209(6) 0.7200(4)
C53A C 1.3409(7) 0.4903(7) 0.7062(4)
C54A C 0.6617(8) 0.2648(7) 0.6296(4)
C55A C 0.3567(8) 0.7215(8) 0.6276(5)
C56A C 0.8411(8) 0.1929(7) 0.5087(4)
C57A C 0.7025(8) 0.8790(9) 0.8038(7)
C58A C 0.6748(8) 0.7922(8) 0.8338(5)
C59A C 0.6769(7) 0.7127(7) 0.7933(4)
C60A C 0.9132(7) 0.3365(7) 0.5204(4)
C61A C 0.6700(8) 0.1808(8) 0.5924(5)
C62A C 0.4634(8) 0.6739(7) 0.5774(5)
C63A C 0.4801(7) 0.7088(6) 0.7100(4)
C64A C 1.3074(7) 0.4729(7) 0.6496(4)
C65A C 0.7332(7) 0.8099(7) 0.6894(6)
C66A C 1.2512(7) 0.5318(7) 0.7671(4)
C67A C 0.5769(7) 0.6449(7) 0.5943(4)
C68A C 0.3665(8) 0.7374(7) 0.6917(5)
C69A C 0.7308(8) 0.8894(8) 0.7329(7)
C70A C 0.7585(9) 0.1435(8) 0.5319(5)
C71 C 0.4195(7) 0.5901(6) 0.0927(4)
C72 C 0.3012(6) 0.6065(6) 0.0893(4)
C73 C 0.2576(7) 0.6473(6) 0.0287(4)
C74 C 0.3349(8) 0.6705(6) -0.0271(4)
C75 C 0.4528(8) 0.6569(7) -0.0249(5)
C76 C 0.4953(7) 0.6151(6) 0.0372(5)
Cl1 Cl 0.2061(2) 0.58050(17) 0.15955(12)
Cl2 Cl 0.4731(2) 0.5366(2) 0.16694(13)
Cl3 Cl 0.2795(2) 0.7246(2) -0.10209(12)
Cl4 Cl 0.6823(5) 1.0097(4) 0.4005(3)
Cl5 Cl 0.7570(5) 0.8146(3) 0.4916(3)
C77 C 0.6099(18) 0.9189(11) 0.5007(11)
C78 C 0.5223(17) 0.9163(12) 0.5507(12)
C79 C 0.5761(15) 1.0026(14) 0.4574(8)
Cl4A Cl 0.3177(5) 0.9903(4) 0.5995(3)
Cl5A Cl 0.2430(5) 1.1854(3) 0.5084(3)
C77A C 0.3901(18) 1.0811(11) 0.4993(11)
C78A C 0.4777(17) 1.0837(12) 0.4493(12)
C79A C 0.4239(15) 0.9974(14) 0.5426(8)
loop_
_geom_bond_atom_site_label_1
_geom_bond_atom_site_label_2
_geom_bond_site_symmetry_1
_geom_bond_site_symmetry_2
C1 C2 1_555 1_555
C2 C3 1_555 1_555
C3 C4 1_555 1_555
C4 C5 1_555 1_555
C5 C6 1_555 1_555
C6 C1 1_555 1_555
C7 C6 1_555 1_555
C8 C7 1_555 1_555
C9 C8 1_555 1_555
C10 C5 1_555 1_555
C11 C9 1_555 1_555
C12 C11 1_555 1_555
C13 C12 1_555 1_555
C14 C8 1_555 1_555
C15 C4 1_555 1_555
C16 C15 1_555 1_555
C17 C16 1_555 1_555
C18 C17 1_555 1_555
C19 C18 1_555 1_555
C20 C19 1_555 1_555
C21 C16 1_555 1_555
C22 C15 1_555 1_555
C23 C22 1_555 1_555
C24 C23 1_555 1_555
C25 C24 1_555 1_555
C26 C25 1_555 1_555
C27 C22 1_555 1_555
C28 C3 1_555 1_555
C29 C28 1_555 1_555
C30 C29 1_555 1_555
C31 C2 1_555 1_555
C32 C30 1_555 1_555
C33 C32 1_555 1_555
C34 C33 1_555 1_555
C35 C29 1_555 1_555
C36 C37 1_555 1_555
C37 C38 1_555 1_555
C38 C39 1_555 1_555
C39 C40 1_555 1_555
C40 C41 1_555 1_555
C41 C36 1_555 1_555
C42 C40 1_555 1_555
C43 C42 1_555 1_555
C44 C39 1_555 1_555
C45 C37 1_555 1_555
C46 C45 1_555 1_555
C47 C46 1_555 1_555
C48 C47 1_555 1_555
C49 C38 1_555 1_555
C50 C43 1_555 1_555
C51 C44 1_555 1_555
C52 C44 1_555 1_555
C53 C64 1_555 1_555
C54 C43 1_555 1_555
C55 C62 1_555 1_555
C56 C50 1_555 1_555
C57 C58 1_555 1_555
C58 C59 1_555 1_555
C59 C52 1_555 1_555
C60 C41 1_555 1_555
C61 C54 1_555 1_555
C62 C67 1_555 1_555
C63 C51 1_555 1_555
C64 C46 1_555 1_555
C65 C52 1_555 1_555
C66 C48 1_555 1_555
C67 C51 1_555 1_555
C68 C55 1_555 1_555
C69 C57 1_555 1_555
C70 C56 1_555 1_555
C71 C72 1_555 1_555
C72 C73 1_555 1_555
C73 C74 1_555 1_555
C74 C75 1_555 1_555
C75 C76 1_555 1_555
C76 C71 1_555 1_555
Cl1 C72 1_555 1_555
Cl2 C71 1_555 1_555
Cl3 C74 1_555 1_555
Cl4 C79 1_555 1_555
Cl5 C77 1_555 1_555
C77 C78 1_555 1_555
C78 C79A 1_555 1_555
C79 C77 1_555 1_555
C1A C1 1_555 1_555
C2A C1A 1_555 1_555
C3A C2A 1_555 1_555
C4A C3A 1_555 1_555
C5A C4A 1_555 1_555
C6A C1A 1_555 1_555
C7A C6A 1_555 1_555
C8A C7A 1_555 1_555
C9A C8A 1_555 1_555
C10A C5A 1_555 1_555
C11A C9A 1_555 1_555
C12A C11A 1_555 1_555
C13A C12A 1_555 1_555
C14A C8A 1_555 1_555
C15A C4A 1_555 1_555
C16A C15A 1_555 1_555
C17A C16A 1_555 1_555
C18A C17A 1_555 1_555
C19A C18A 1_555 1_555
C20A C19A 1_555 1_555
C21A C16A 1_555 1_555
C22A C15A 1_555 1_555
C23A C22A 1_555 1_555
C24A C23A 1_555 1_555
C25A C24A 1_555 1_555
C26A C25A 1_555 1_555
C27A C22A 1_555 1_555
C28A C3A 1_555 1_555
C29A C28A 1_555 1_555
C30A C29A 1_555 1_555
C31A C2A 1_555 1_555
C32A C30A 1_555 1_555
C33A C32A 1_555 1_555
C34A C33A 1_555 1_555
C35A C29A 1_555 1_555
C36A C36 1_555 1_555
C37A C36A 1_555 1_555
C38A C37A 1_555 1_555
C39A C38A 1_555 1_555
C40A C39A 1_555 1_555
C41A C36A 1_555 1_555
C42A C40A 1_555 1_555
C43A C42A 1_555 1_555
C44A C39A 1_555 1_555
C45A C37A 1_555 1_555
C46A C45A 1_555 1_555
C47A C46A 1_555 1_555
C48A C47A 1_555 1_555
C49A C38A 1_555 1_555
C50A C43A 1_555 1_555
C51A C44A 1_555 1_555
C52A C44A 1_555 1_555
C53A C64A 1_555 1_555
C54A C43A 1_555 1_555
C55A C62A 1_555 1_555
C56A C50A 1_555 1_555
C57A C58A 1_555 1_555
C58A C59A 1_555 1_555
C59A C52A 1_555 1_555
C60A C41A 1_555 1_555
C61A C54A 1_555 1_555
C62A C67A 1_555 1_555
C63A C51A 1_555 1_555
C64A C46A 1_555 1_555
C65A C52A 1_555 1_555
C66A C48A 1_555 1_555
C67A C51A 1_555 1_555
C68A C55A 1_555 1_555
C69A C57A 1_555 1_555
C70A C56A 1_555 1_555
Cl4A C79A 1_555 1_555
Cl5A C77A 1_555 1_555
C77A C78A 1_555 1_555
C78A C79 1_555 1_555
C79A C77A 1_555 1_555
C9 C10 1_555 1_555
C13 C14 1_555 1_555
C20 C21 1_555 1_555
C26 C27 1_555 1_555
C30 C31 1_555 1_555
C34 C35 1_555 1_555
C47 C49 1_555 1_555
C50 C60 1_555 1_555
C53 C66 1_555 1_555
C61 C70 1_555 1_555
C63 C68 1_555 1_555
C65 C69 1_555 1_555
C5A C6A 1_555 1_555
C9A C10A 1_555 1_555
C13A C14A 1_555 1_555
C20A C21A 1_555 1_555
C26A C27A 1_555 1_555
C30A C31A 1_555 1_555
C34A C35A 1_555 1_555
C40A C41A 1_555 1_555
C47A C49A 1_555 1_555
C50A C60A 1_555 1_555
C53A C66A 1_555 1_555
C61A C70A 1_555 1_555
C63A C68A 1_555 1_555
C65A C69A 1_555 1_555

#END
