
#######################################################################
#
#                 Cambridge Crystallographic Data Centre
#                                CCDC 
#
#######################################################################
#
# If this CIF has been generated from an entry in the Cambridge 
# Structural Database, then it will include bibliographic, chemical, 
# crystal, experimental, refinement or atomic coordinate data resulting 
# from the CCDC's data processing and validation procedures.
#
#######################################################################

data_DAVBAF
_chemical_formula_moiety         'C29 H34 N2 O3 S1'
_chemical_name_systematic        
"6'-Methoxycinchonan-9-yl 2,4,6-trimethylbenzenesulfinate"
_symmetry_cell_setting           monoclinic
_symmetry_space_group_name_H-M   'P 21'
_symmetry_Int_Tables_number      4
_space_group_name_Hall           'P 2yb'
loop_
_symmetry_equiv_pos_site_id
_symmetry_equiv_pos_as_xyz
1 x,y,z
2 -x,1/2+y,-z
_cell_length_a                   12.7315(16)
_cell_length_b                   7.0769(9)
_cell_length_c                   13.9820(18)
_cell_angle_alpha                90
_cell_angle_beta                 93.502(2)
_cell_angle_gamma                90
_cell_volume                     1257.42
_cell_formula_units_Z            2
loop_
_atom_site_label
_atom_site_type_symbol
_atom_site_fract_x
_atom_site_fract_y
_atom_site_fract_z
S1 S -0.50029(9) -0.24976(17) -0.77607(8)
O1 O -0.8143(2) -0.7683(5) -0.9094(2)
C1 C -0.6324(3) -0.2385(7) -0.8262(3)
C2 C -0.6367(3) -0.6661(6) -0.6950(3)
C3 C -0.6575(4) -0.2657(7) -0.9244(3)
C4 C -0.8136(4) -0.2181(7) -0.7952(4)
C5 C -0.7734(3) -0.7360(7) -0.8180(3)
N1 N -0.6887(3) -0.6441(5) -0.5298(3)
C6 C -0.7121(4) -0.6730(6) -0.6248(4)
C7 C -0.8177(4) -0.7147(7) -0.6545(4)
H1 H -0.8688 -0.7219 -0.6079
C8 C -0.7641(4) -0.2675(8) -0.9535(4)
C9 C -0.4460(4) -0.6040(7) -0.7347(3)
C10 C -0.5312(3) -0.6193(6) -0.6642(3)
C11 C -0.3361(4) -0.5580(7) -0.6946(3)
C12 C -0.6696(4) -0.7034(6) -0.7930(3)
C13 C -0.7101(4) -0.2123(6) -0.7610(3)
C14 C -0.5911(4) -0.6012(7) -0.5043(4)
O2 O -0.4769(2) -0.4676(4) -0.8110(2)
C15 C -0.1538(4) -0.6156(7) -0.7431(4)
C16 C -0.2630(4) -0.8758(7) -0.6821(4)
H2 H -0.3232 -0.9219 -0.7239
H3 H -0.2424 -0.9775 -0.6361
C17 C -0.2030(4) -0.6326(9) -0.5733(4)
C18 C -0.8476(3) -0.7444(8) -0.7471(4)
H4 H -0.9192 -0.7713 -0.7650
C19 C -0.5776(4) -0.2874(7) -0.9981(3)
H5 H -0.6137 -0.3046 -1.0615
H6 H -0.5334 -0.3979 -0.9825
H7 H -0.5335 -0.1740 -0.9986
N2 N -0.2956(3) -0.7073(5) -0.6290(3)
C20 C -0.5105(4) -0.5880(7) -0.5679(3)
H8 H -0.4411 -0.5572 -0.5443
C21 C -0.1166(4) -0.5613(8) -0.6391(4)
C22 C -0.1691(5) -0.8307(7) -0.7444(4)
C23 C -0.6861(5) -0.1761(7) -0.6559(4)
H9 H -0.7517 -0.1494 -0.6252
H10 H -0.6387 -0.0674 -0.6478
H11 H -0.6524 -0.2878 -0.6263
C24 C -0.7437(4) -0.7718(8) -0.9836(3)
H12 H -0.7828 -0.7959 -1.0450
H13 H -0.6916 -0.8721 -0.9710
H14 H -0.7077 -0.6497 -0.9864
C25 C -0.2575(4) -0.5215(7) -0.7731(3)
H15 H -0.2857 -0.5741 -0.8351
H16 H -0.2470 -0.3840 -0.7811
C26 C -0.0983(5) -0.3497(9) -0.6247(4)
C27 C -0.9582(4) -0.2541(12) -0.9267(5)
H17 H -0.9644 -0.2286 -0.9957
H18 H -0.9980 -0.1590 -0.8930
H19 H -0.9864 -0.3800 -0.9143
C28 C -0.8434(4) -0.2460(9) -0.8913(4)
C29 C -0.0094(6) -0.2746(12) -0.6006(4)
O3 O -0.4347(3) -0.1285(5) -0.8326(3)
H20 H -0.620(3) -0.693(5) -0.839(3)
H21 H -0.047(4) -0.631(6) -0.624(3)
H22 H -0.871(3) -0.180(6) -0.756(3)
H23 H -0.572(3) -0.577(7) -0.434(4)
H24 H -0.227(4) -0.540(7) -0.527(3)
H25 H -0.189(4) -0.873(7) -0.812(3)
H26 H -0.784(4) -0.282(8) -1.025(4)
H27 H -0.176(3) -0.743(7) -0.535(3)
H28 H -0.094(4) -0.890(7) -0.714(4)
H29 H -0.443(3) -0.722(6) -0.773(3)
H30 H -0.167(5) -0.278(10) -0.638(4)
H31 H 0.053(5) -0.378(10) -0.594(5)
H32 H -0.007(5) -0.141(9) -0.583(4)
H33 H -0.340(3) -0.443(6) -0.658(3)
H34 H -0.102(3) -0.577(6) -0.784(3)
loop_
_geom_bond_atom_site_label_1
_geom_bond_atom_site_label_2
_geom_bond_site_symmetry_1
_geom_bond_site_symmetry_2
S1 C1 1_555 1_555
O1 C5 1_555 1_555
C1 C3 1_555 1_555
C2 C6 1_555 1_555
C3 C8 1_555 1_555
C4 C13 1_555 1_555
C5 C12 1_555 1_555
N1 C6 1_555 1_555
C6 C7 1_555 1_555
C7 H1 1_555 1_555
C8 C28 1_555 1_555
C9 C10 1_555 1_555
C10 C2 1_555 1_555
C11 C9 1_555 1_555
C12 C2 1_555 1_555
C13 C1 1_555 1_555
C14 N1 1_555 1_555
O2 S1 1_555 1_555
C15 C21 1_555 1_555
C16 H2 1_555 1_555
H3 C16 1_555 1_555
C17 N2 1_555 1_555
C18 C5 1_555 1_555
H4 C18 1_555 1_555
C19 C3 1_555 1_555
H5 C19 1_555 1_555
H6 C19 1_555 1_555
H7 C19 1_555 1_555
N2 C11 1_555 1_555
C20 C10 1_555 1_555
H8 C20 1_555 1_555
C21 C17 1_555 1_555
C22 C15 1_555 1_555
C23 C13 1_555 1_555
H9 C23 1_555 1_555
H10 C23 1_555 1_555
H11 C23 1_555 1_555
C24 O1 1_555 1_555
H12 C24 1_555 1_555
H13 C24 1_555 1_555
H14 C24 1_555 1_555
C25 C11 1_555 1_555
H15 C25 1_555 1_555
H16 C25 1_555 1_555
C26 C21 1_555 1_555
C27 H17 1_555 1_555
H18 C27 1_555 1_555
H19 C27 1_555 1_555
C28 C4 1_555 1_555
C29 C26 1_555 1_555
O3 S1 1_555 1_555
H20 C12 1_555 1_555
H21 C21 1_555 1_555
H22 C4 1_555 1_555
H23 C14 1_555 1_555
H24 C17 1_555 1_555
H25 C22 1_555 1_555
H26 C8 1_555 1_555
H27 C17 1_555 1_555
H28 C22 1_555 1_555
H29 C9 1_555 1_555
H30 C26 1_555 1_555
H31 C29 1_555 1_555
H32 C29 1_555 1_555
H33 C11 1_555 1_555
H34 C15 1_555 1_555
C7 C18 1_555 1_555
C9 O2 1_555 1_555
C14 C20 1_555 1_555
C15 C25 1_555 1_555
C16 N2 1_555 1_555
C16 C22 1_555 1_555
C27 C28 1_555 1_555

#END
