
#######################################################################
#
#                 Cambridge Crystallographic Data Centre
#                                CCDC 
#
#######################################################################
#
# If this CIF has been generated from an entry in the Cambridge 
# Structural Database, then it will include bibliographic, chemical, 
# crystal, experimental, refinement or atomic coordinate data resulting 
# from the CCDC's data processing and validation procedures.
#
#######################################################################

data_GAJWAS
_chemical_formula_moiety         'C34 H33 N1 O4 S1'
_chemical_name_systematic        
3-(2,2-diphenylvinyl)-5,6-dimethoxy-1-((4-methylphenyl)sulfonyl)-2-propyl-1H-indole
_symmetry_cell_setting           monoclinic
_symmetry_space_group_name_H-M   'C 2/c'
_symmetry_Int_Tables_number      15
_space_group_name_Hall           '-C 2yn'
loop_
_symmetry_equiv_pos_site_id
_symmetry_equiv_pos_as_xyz
1 x,y,z
2 -x,y,1/2-z
3 1/2+x,1/2+y,z
4 1/2-x,1/2+y,1/2-z
5 -x,-y,-z
6 x,-y,1/2+z
7 1/2-x,1/2-y,-z
8 1/2+x,1/2-y,1/2+z
_cell_length_a                   23.7576(14)
_cell_length_b                   12.0212(7)
_cell_length_c                   21.1978(13)
_cell_angle_alpha                90
_cell_angle_beta                 107.9870(10)
_cell_angle_gamma                90
_cell_volume                     5758.1
_exptl_crystal_colour            colorless
_exptl_crystal_description       block
_cell_formula_units_Z            8
loop_
_atom_site_label
_atom_site_type_symbol
_atom_site_fract_x
_atom_site_fract_y
_atom_site_fract_z
C1 C 0.07822(7) 0.63722(13) 0.06966(8)
C2 C 0.13884(7) 0.64833(14) 0.09818(9)
H1 H 0.1581 0.6143 0.1385
C3 C 0.17015(8) 0.71046(15) 0.06599(9)
H2 H 0.2108 0.7182 0.0850
C4 C 0.14244(8) 0.76187(14) 0.00587(9)
C5 C 0.08217(8) 0.74888(16) -0.02179(9)
H3 H 0.0630 0.7825 -0.0622
C6 C 0.04978(8) 0.68681(15) 0.00957(9)
H4 H 0.0091 0.6785 -0.0097
C7 C 0.17689(10) 0.83075(17) -0.02873(11)
H5 H 0.2094 0.8660 0.0037
H6 H 0.1515 0.8865 -0.0554
H7 H 0.1917 0.7837 -0.0566
C8 C 0.09533(7) 0.64897(13) 0.23596(8)
C9 C 0.10748(7) 0.75497(13) 0.25780(7)
C10 C 0.06454(6) 0.82802(13) 0.21364(7)
C11 C 0.05629(7) 0.94282(13) 0.21220(8)
H8 H 0.0800 0.9875 0.2457
C12 C 0.01232(7) 0.98911(14) 0.16024(9)
C13 C -0.02473(7) 0.92053(15) 0.11067(9)
C14 C -0.01907(7) 0.80672(14) 0.11373(8)
H9 H -0.0447 0.7613 0.0822
C15 C 0.02631(6) 0.76178(13) 0.16556(8)
C16 C 0.04510(11) 1.17408(18) 0.18997(14)
H10 H 0.0496 1.1649 0.2363
H11 H 0.0337 1.2494 0.1770
H12 H 0.0820 1.1579 0.1822
C17 C -0.07910(12) 0.9290(2) -0.00341(11)
H13 H -0.0432 0.9034 -0.0104
H14 H -0.0971 0.9848 -0.0358
H15 H -0.1059 0.8676 -0.0077
C18 C 0.15563(7) 0.78497(13) 0.31795(8)
H16 H 0.1584 0.7418 0.3552
C19 C 0.19608(7) 0.86599(12) 0.32646(7)
C20 C 0.20100(7) 0.94263(13) 0.27346(8)
C21 C 0.21068(8) 1.05600(14) 0.28687(9)
H17 H 0.2148 1.0825 0.3293
C22 C 0.21417(9) 1.12924(15) 0.23799(10)
H18 H 0.2202 1.2046 0.2476
C23 C 0.20873(9) 1.09109(17) 0.17510(10)
H19 H 0.2108 1.1404 0.1421
C24 C 0.20015(8) 0.97959(17) 0.16153(9)
H20 H 0.1970 0.9534 0.1193
C25 C 0.19616(7) 0.90585(14) 0.20996(8)
H21 H 0.1902 0.8306 0.1999
C26 C 0.24094(7) 0.88045(13) 0.39302(8)
C27 C 0.22490(9) 0.88803(16) 0.45004(9)
H22 H 0.1851 0.8856 0.4475
C28 C 0.26789(10) 0.89926(19) 0.51136(9)
H23 H 0.2565 0.9053 0.5494
C29 C 0.32674(9) 0.90153(17) 0.51649(9)
H24 H 0.3552 0.9088 0.5578
C30 C 0.34327(8) 0.89301(16) 0.46048(9)
H25 H 0.3832 0.8935 0.4637
C31 C 0.30103(7) 0.88359(15) 0.39909(8)
H26 H 0.3129 0.8793 0.3612
C32 C 0.12646(7) 0.54512(13) 0.26763(9)
H27 H 0.1613 0.5661 0.3036
H28 H 0.1397 0.5050 0.2351
C33 C 0.08918(9) 0.46749(16) 0.29474(10)
H29 H 0.0741 0.5078 0.3257
H30 H 0.0556 0.4418 0.2586
C34 C 0.12446(13) 0.36833(19) 0.32939(13)
H31 H 0.1389 0.3275 0.2986
H32 H 0.0996 0.3210 0.3459
H33 H 0.1573 0.3934 0.3657
N1 N 0.04394(6) 0.64833(10) 0.17877(6)
O1 O 0.06474(6) 0.46268(9) 0.13717(6)
O2 O -0.02358(5) 0.56778(10) 0.07451(6)
O3 O -0.06616(6) 0.97435(12) 0.06023(7)
O4 O 0.00112(6) 1.10081(11) 0.15249(7)
S1 S 0.037255(18) 0.56612(3) 0.11293(2)
loop_
_geom_bond_atom_site_label_1
_geom_bond_atom_site_label_2
_geom_bond_site_symmetry_1
_geom_bond_site_symmetry_2
C1 C2 1_555 1_555
C2 H1 1_555 1_555
C3 C2 1_555 1_555
H2 C3 1_555 1_555
C4 C3 1_555 1_555
C5 C4 1_555 1_555
H3 C5 1_555 1_555
C6 C1 1_555 1_555
H4 C6 1_555 1_555
C7 C4 1_555 1_555
H5 C7 1_555 1_555
H6 C7 1_555 1_555
H7 C7 1_555 1_555
C8 C9 1_555 1_555
C9 C10 1_555 1_555
C10 C11 1_555 1_555
C11 H8 1_555 1_555
C12 C11 1_555 1_555
C13 C12 1_555 1_555
C14 C13 1_555 1_555
H9 C14 1_555 1_555
C15 C10 1_555 1_555
C16 H10 1_555 1_555
H11 C16 1_555 1_555
H12 C16 1_555 1_555
C17 H13 1_555 1_555
H14 C17 1_555 1_555
H15 C17 1_555 1_555
C18 C9 1_555 1_555
H16 C18 1_555 1_555
C19 C18 1_555 1_555
C20 C19 1_555 1_555
C21 C20 1_555 1_555
H17 C21 1_555 1_555
C22 C21 1_555 1_555
H18 C22 1_555 1_555
C23 C22 1_555 1_555
H19 C23 1_555 1_555
C24 C23 1_555 1_555
H20 C24 1_555 1_555
C25 C20 1_555 1_555
H21 C25 1_555 1_555
C26 C19 1_555 1_555
C27 C26 1_555 1_555
H22 C27 1_555 1_555
C28 C27 1_555 1_555
H23 C28 1_555 1_555
C29 C28 1_555 1_555
H24 C29 1_555 1_555
C30 C29 1_555 1_555
H25 C30 1_555 1_555
C31 C26 1_555 1_555
H26 C31 1_555 1_555
C32 C8 1_555 1_555
H27 C32 1_555 1_555
H28 C32 1_555 1_555
C33 C32 1_555 1_555
H29 C33 1_555 1_555
H30 C33 1_555 1_555
C34 C33 1_555 1_555
H31 C34 1_555 1_555
H32 C34 1_555 1_555
H33 C34 1_555 1_555
N1 C8 1_555 1_555
O1 S1 1_555 1_555
O2 S1 1_555 1_555
O3 C13 1_555 1_555
O4 C12 1_555 1_555
S1 C1 1_555 1_555
C5 C6 1_555 1_555
C14 C15 1_555 1_555
C15 N1 1_555 1_555
C16 O4 1_555 1_555
C17 O3 1_555 1_555
C24 C25 1_555 1_555
C30 C31 1_555 1_555
N1 S1 1_555 1_555

#END
