
#######################################################################
#
#                 Cambridge Crystallographic Data Centre
#                                CCDC 
#
#######################################################################
#
# If this CIF has been generated from an entry in the Cambridge 
# Structural Database, then it will include bibliographic, chemical, 
# crystal, experimental, refinement or atomic coordinate data resulting 
# from the CCDC's data processing and validation procedures.
#
#######################################################################

data_GIPZOV
_chemical_name_common            
"Aqua-(N-(3',5'-Difluoro-4'-hydroxybenzyl)-1-aza-15-crown-5)-lithium thiocyanate"
_chemical_formula_moiety         'C17 H27 F2 Li1 N1 O6 1+,C1 N1 S1 1-'
_chemical_name_systematic        
'Aqua-(N-(3,5-difluoro-4-hydroxybenzyl)-1,4,7,10-tetraoxa-13-azacyclopentadecane)-lithium thiocyanate'
_symmetry_cell_setting           monoclinic
_symmetry_space_group_name_H-M   'P 21/n'
_symmetry_Int_Tables_number      14
_space_group_name_Hall           '-P 2yn'
loop_
_symmetry_equiv_pos_site_id
_symmetry_equiv_pos_as_xyz
1 x,y,z
2 1/2-x,1/2+y,1/2-z
3 -x,-y,-z
4 1/2+x,1/2-y,1/2+z
_cell_length_a                   8.587(5)
_cell_length_b                   15.613(7)
_cell_length_c                   16.838(4)
_cell_angle_alpha                90
_cell_angle_beta                 99.42(3)
_cell_angle_gamma                90
_cell_volume                     2227.01
_exptl_crystal_colour            colorless
_exptl_crystal_description       prismatic
_cell_formula_units_Z            4
loop_
_atom_site_label
_atom_site_type_symbol
_atom_site_fract_x
_atom_site_fract_y
_atom_site_fract_z
S1 S 1.37988(13) 0.45848(8) 0.74478(6)
N2 N 1.1761(4) 0.5695(2) 0.80678(19)
C18 C 1.2613(4) 0.5239(2) 0.7814(2)
F1 F 0.8477(3) 0.45785(12) 1.01738(11)
F2 F 0.9353(2) 0.16345(12) 1.01577(11)
O1 O 0.8137(2) 0.43553(14) 0.56759(12)
O2 O 0.8544(3) 0.3352(2) 0.44710(16)
O3 O 0.9885(3) 0.1903(2) 0.5040(2)
O4 O 0.7999(3) 0.20202(16) 0.61559(17)
O5 O 0.8627(2) 0.30290(14) 1.09648(11)
O6 O 1.1397(2) 0.33278(15) 0.60984(14)
N1 N 0.8517(3) 0.34757(17) 0.71088(14)
C1 C 0.8110(4) 0.4385(2) 0.7080(2)
C2 C 0.7250(4) 0.4642(2) 0.6250(2)
C3 C 0.7506(4) 0.4606(2) 0.4874(2)
C4 C 0.8514(5) 0.4218(3) 0.4337(2)
C5 C 0.9592(9) 0.2896(6) 0.4033(3)
C6 C 0.9553(8) 0.2014(6) 0.4218(5)
C7 C 0.9157(13) 0.1198(4) 0.5286(7)
C8 C 0.8409(9) 0.1221(3) 0.5892(4)
C9 C 0.7477(5) 0.2017(2) 0.6910(2)
C10 C 0.7159(4) 0.2921(2) 0.71250(19)
C11 C 0.9867(3) 0.3271(2) 0.77461(17)
C12 C 0.9516(3) 0.3221(2) 0.85954(17)
C13 C 0.9159(4) 0.3941(2) 0.90087(19)
C14 C 0.8867(4) 0.3868(2) 0.97825(18)
C15 C 0.8916(3) 0.3108(2) 1.01958(17)
C16 C 0.9278(3) 0.2407(2) 0.97743(19)
C17 C 0.9573(3) 0.2446(2) 0.89970(18)
Li1 Li 0.9168(6) 0.3127(3) 0.5816(2)
H1 H 0.7480 0.4529 0.7490
H2 H 0.9065 0.4732 0.7202
H3 H 0.7083 0.5261 0.6219
H4 H 0.6204 0.4390 0.6167
H5 H 0.6435 0.4405 0.4715
H6 H 0.7470 0.5224 0.4811
H7 H 0.9566 0.4466 0.4456
H8 H 0.8125 0.4349 0.3778
H9 H 0.9333 0.3016 0.3465
H10 H 1.0680 0.3110 0.4195
H11 H 1.0202 0.1681 0.3938
H12 H 0.8449 0.1811 0.4030
H13 H 0.8326 0.1081 0.4779
H14 H 0.9910 0.0725 0.5236
H15 H 0.9403 0.0983 0.6285
H16 H 0.7735 0.0797 0.5806
H17 H 0.6570 0.1664 0.6912
H18 H 0.8300 0.1787 0.7337
H19 H 0.6839 0.2962 0.7653
H20 H 0.6268 0.3137 0.6745
H21 H 1.0301 0.2731 0.7615
H22 H 1.0669 0.3699 0.7735
H23 H 0.9112 0.4501 0.8750
H24 H 0.9836 0.1922 0.8729
H25 H 0.9410 0.2668 1.1256
H26 H 1.2313 0.2867 0.6140
H27 H 1.2037 0.3539 0.6594
loop_
_geom_bond_atom_site_label_1
_geom_bond_atom_site_label_2
_geom_bond_site_symmetry_1
_geom_bond_site_symmetry_2
S1 C18 1_555 1_555
F1 C14 1_555 1_555
F2 C16 1_555 1_555
O1 C2 1_555 1_555
O2 C4 1_555 1_555
O3 C6 1_555 1_555
O4 C8 1_555 1_555
O5 C15 1_555 1_555
O6 Li1 1_555 1_555
N1 C1 1_555 1_555
N2 C18 1_555 1_555
C1 C2 1_555 1_555
C2 H3 1_555 1_555
C3 O1 1_555 1_555
C4 C3 1_555 1_555
C5 O2 1_555 1_555
C6 C5 1_555 1_555
C7 O3 1_555 1_555
C8 C7 1_555 1_555
C9 O4 1_555 1_555
C10 N1 1_555 1_555
C11 N1 1_555 1_555
C12 C11 1_555 1_555
C13 C12 1_555 1_555
C14 C13 1_555 1_555
C15 C14 1_555 1_555
C16 C15 1_555 1_555
C17 C12 1_555 1_555
Li1 O1 1_555 1_555
H1 C1 1_555 1_555
H2 C1 1_555 1_555
H4 C2 1_555 1_555
H5 C3 1_555 1_555
H6 C3 1_555 1_555
H7 C4 1_555 1_555
H8 C4 1_555 1_555
H9 C5 1_555 1_555
H10 C5 1_555 1_555
H11 C6 1_555 1_555
H12 C6 1_555 1_555
H13 C7 1_555 1_555
H14 C7 1_555 1_555
H15 C8 1_555 1_555
H16 C8 1_555 1_555
H17 C9 1_555 1_555
H18 C9 1_555 1_555
H19 C10 1_555 1_555
H20 C10 1_555 1_555
H21 C11 1_555 1_555
H22 C11 1_555 1_555
H23 C13 1_555 1_555
H24 C17 1_555 1_555
H25 O5 1_555 1_555
H26 O6 1_555 1_555
H27 O6 1_555 1_555
O2 Li1 1_555 1_555
O3 Li1 1_555 1_555
O4 Li1 1_555 1_555
N1 Li1 1_555 1_555
C9 C10 1_555 1_555
C16 C17 1_555 1_555

#END
