
#######################################################################
#
#                 Cambridge Crystallographic Data Centre
#                                CCDC 
#
#######################################################################
#
# If this CIF has been generated from an entry in the Cambridge 
# Structural Database, then it will include bibliographic, chemical, 
# crystal, experimental, refinement or atomic coordinate data resulting 
# from the CCDC's data processing and validation procedures.
#
#######################################################################

data_HILSIH
_chemical_formula_moiety         'C33 H26 N2 O1'
_chemical_name_systematic        
'[4-(1H-indol-3-yl)-1-(4-methylphenyl)-5-phenyl-1H-pyrrol-3-yl](4-methylphenyl)methanone'
_symmetry_cell_setting           monoclinic
_symmetry_space_group_name_H-M   'P 21/c'
_symmetry_Int_Tables_number      14
_space_group_name_Hall           '-P 2ybc'
loop_
_symmetry_equiv_pos_site_id
_symmetry_equiv_pos_as_xyz
1 x,y,z
2 -x,1/2+y,1/2-z
3 -x,-y,-z
4 x,1/2-y,1/2+z
_cell_length_a                   12.458(6)
_cell_length_b                   19.227(9)
_cell_length_c                   10.971(5)
_cell_angle_alpha                90
_cell_angle_beta                 106.754(10)
_cell_angle_gamma                90
_cell_volume                     2516.33
_exptl_crystal_colour            colorless
_exptl_crystal_description       block
_cell_formula_units_Z            4
loop_
_atom_site_label
_atom_site_type_symbol
_atom_site_fract_x
_atom_site_fract_y
_atom_site_fract_z
O1 O 0.95804(14) 0.54765(11) 0.75780(19)
N1 N 0.59800(15) 0.60598(10) 0.57381(19)
N2 N 0.88110(17) 0.55496(11) 1.0971(2)
H1 H 0.9336 0.5332 1.1558
C1 C 0.9004(2) 0.59032(15) 0.6849(3)
C2 C 0.78091(19) 0.59868(12) 0.6728(2)
C3 C 0.70246(19) 0.60844(12) 0.5575(2)
H2 H 0.7183 0.6157 0.4788
C4 C 0.60874(19) 0.59547(12) 0.7027(2)
C5 C 0.72159(19) 0.59066(12) 0.7667(2)
C6 C 0.76968(19) 0.58555(12) 0.9048(2)
C7 C 0.8553(2) 0.54338(14) 0.9686(3)
H3 H 0.8919 0.5106 0.9296
C8 C 0.81202(19) 0.60590(14) 1.1196(3)
C9 C 0.74017(18) 0.62614(13) 1.0015(2)
C10 C 0.6622(2) 0.67866(13) 0.9985(3)
H4 H 0.6124 0.6936 0.9198
C11 C 0.6584(2) 0.70856(14) 1.1114(3)
H5 H 0.6049 0.7439 1.1104
C12 C 0.7315(2) 0.68776(15) 1.2264(3)
H6 H 0.7278 0.7097 1.3027
C13 C 0.8091(2) 0.63619(15) 1.2327(3)
H7 H 0.8589 0.6219 1.3118
C14 C 0.50979(19) 0.58835(13) 0.7500(2)
C15 C 0.4297(2) 0.64002(15) 0.7317(3)
H8 H 0.4388 0.6818 0.6897
C16 C 0.3360(2) 0.6313(2) 0.7743(3)
H9 H 0.2814 0.6672 0.7617
C17 C 0.3222(3) 0.5713(3) 0.8341(3)
H10 H 0.2575 0.5651 0.8621
C18 C 0.4009(3) 0.5201(2) 0.8539(3)
H11 H 0.3913 0.4787 0.8969
C19 C 0.4954(2) 0.52786(15) 0.8114(3)
H12 H 0.5496 0.4918 0.8246
C20 C 0.4975(2) 0.61121(13) 0.4708(2)
C21 C 0.4059(2) 0.56887(12) 0.4619(3)
H13 H 0.4083 0.5350 0.5258
C22 C 0.3113(2) 0.57581(14) 0.3604(3)
H14 H 0.2484 0.5470 0.3563
C23 C 0.3050(2) 0.62300(15) 0.2650(3)
C24 C 0.3980(3) 0.66360(15) 0.2739(3)
H15 H 0.3963 0.6961 0.2082
C25 C 0.4938(2) 0.65842(14) 0.3756(3)
H16 H 0.5566 0.6873 0.3797
C26 C 0.2005(2) 0.63093(17) 0.1541(3)
H17 H 0.2113 0.6074 0.0793
H18 H 0.1858 0.6804 0.1352
H19 H 0.1366 0.6101 0.1760
C27 C 0.95130(19) 0.63357(15) 0.6037(2)
C28 C 0.91410(19) 0.70025(15) 0.5657(2)
H20 H 0.8520 0.7188 0.5887
C29 C 0.9666(2) 0.74007(14) 0.4945(2)
H21 H 0.9400 0.7857 0.4695
C30 C 1.0564(2) 0.71477(17) 0.4595(2)
C31 C 1.0948(2) 0.64927(19) 0.4993(3)
H22 H 1.1574 0.6312 0.4766
C32 C 1.0445(2) 0.60890(16) 0.5717(3)
H23 H 1.0737 0.5641 0.5996
C33 C 1.1123(2) 0.75647(17) 0.3784(3)
H24 H 1.0836 0.7416 0.2895
H25 H 1.1935 0.7489 0.4081
H26 H 1.0962 0.8060 0.3850
loop_
_geom_bond_atom_site_label_1
_geom_bond_atom_site_label_2
_geom_bond_site_symmetry_1
_geom_bond_site_symmetry_2
O1 C1 1_555 1_555
N1 C3 1_555 1_555
N2 H1 1_555 1_555
C1 C2 1_555 1_555
C2 C3 1_555 1_555
C3 H2 1_555 1_555
C4 N1 1_555 1_555
C5 C2 1_555 1_555
C6 C5 1_555 1_555
C7 N2 1_555 1_555
H3 C7 1_555 1_555
C8 N2 1_555 1_555
C9 C6 1_555 1_555
C10 C9 1_555 1_555
H4 C10 1_555 1_555
C11 C10 1_555 1_555
H5 C11 1_555 1_555
C12 C11 1_555 1_555
H6 C12 1_555 1_555
C13 C8 1_555 1_555
H7 C13 1_555 1_555
C14 C4 1_555 1_555
C15 C14 1_555 1_555
H8 C15 1_555 1_555
C16 C15 1_555 1_555
H9 C16 1_555 1_555
C17 C16 1_555 1_555
H10 C17 1_555 1_555
C18 C17 1_555 1_555
H11 C18 1_555 1_555
C19 C14 1_555 1_555
H12 C19 1_555 1_555
C20 N1 1_555 1_555
C21 C20 1_555 1_555
H13 C21 1_555 1_555
C22 C21 1_555 1_555
H14 C22 1_555 1_555
C23 C22 1_555 1_555
C24 C23 1_555 1_555
H15 C24 1_555 1_555
C25 C20 1_555 1_555
H16 C25 1_555 1_555
C26 C23 1_555 1_555
H17 C26 1_555 1_555
H18 C26 1_555 1_555
H19 C26 1_555 1_555
C27 C1 1_555 1_555
C28 C27 1_555 1_555
H20 C28 1_555 1_555
C29 C28 1_555 1_555
H21 C29 1_555 1_555
C30 C29 1_555 1_555
C31 C30 1_555 1_555
H22 C31 1_555 1_555
C32 C27 1_555 1_555
H23 C32 1_555 1_555
C33 C30 1_555 1_555
H24 C33 1_555 1_555
H25 C33 1_555 1_555
H26 C33 1_555 1_555
C4 C5 1_555 1_555
C6 C7 1_555 1_555
C8 C9 1_555 1_555
C12 C13 1_555 1_555
C18 C19 1_555 1_555
C24 C25 1_555 1_555
C31 C32 1_555 1_555

#END
