
#######################################################################
#
#                 Cambridge Crystallographic Data Centre
#                                CCDC 
#
#######################################################################
#
# If this CIF has been generated from an entry in the Cambridge 
# Structural Database, then it will include bibliographic, chemical, 
# crystal, experimental, refinement or atomic coordinate data resulting 
# from the CCDC's data processing and validation procedures.
#
#######################################################################

data_HIMTED
_chemical_formula_moiety         'C22 H23 Br1 O2'
_chemical_name_systematic        
4-(1'-Bromohept-2'(Z)-en-2'-yl)-3-methyl-5-(1-naphthyl)furan-2(5H)-one
_symmetry_cell_setting           monoclinic
_symmetry_space_group_name_H-M   'P 21/c'
_symmetry_Int_Tables_number      14
_space_group_name_Hall           '-P 2ybc'
loop_
_symmetry_equiv_pos_site_id
_symmetry_equiv_pos_as_xyz
1 x,y,z
2 -x,1/2+y,1/2-z
3 -x,-y,-z
4 x,1/2-y,1/2+z
_cell_length_a                   12.3128(18)
_cell_length_b                   8.8210(13)
_cell_length_c                   18.775(3)
_cell_angle_alpha                90
_cell_angle_beta                 106.790(3)
_cell_angle_gamma                90
_cell_volume                     1952.25
_exptl_crystal_colour            colorless
_chemical_melting_point          89-90deg.C
_cell_formula_units_Z            4
_exptl_crystal_recrystallization_method 'ethyl acetate'
loop_
_atom_site_label
_atom_site_type_symbol
_atom_site_fract_x
_atom_site_fract_y
_atom_site_fract_z
Br1 Br 0.55781(6) -0.00793(11) 0.73484(5)
O1 O 1.0251(3) -0.1376(4) 0.93156(18)
O2 O 1.0316(2) -0.0215(3) 0.82844(16)
C1 C 0.9776(4) -0.0618(6) 0.8786(3)
C2 C 0.8621(4) -0.0002(5) 0.8564(3)
C3 C 0.8479(3) 0.0776(5) 0.7935(2)
C4 C 0.9553(3) 0.0655(5) 0.7701(2)
C5 C 0.9484(4) -0.0126(4) 0.6977(2)
C6 C 0.8575(4) -0.0972(5) 0.6612(2)
H1 H 0.7947 -0.1012 0.6792
C7 C 0.8561(4) -0.1790(6) 0.5967(3)
H2 H 0.7930 -0.2371 0.5729
C8 C 0.9456(5) -0.1735(6) 0.5694(3)
H3 H 0.9439 -0.2278 0.5266
C9 C 1.0411(4) -0.0870(6) 0.6046(3)
C10 C 1.0442(4) -0.0031(5) 0.6694(2)
C11 C 1.1428(4) 0.0800(5) 0.7032(3)
H4 H 1.1479 0.1323 0.7471
C12 C 1.2299(4) 0.0857(6) 0.6737(3)
H5 H 1.2928 0.1453 0.6962
C13 C 1.2272(6) 0.0042(7) 0.6104(4)
H6 H 1.2888 0.0073 0.5911
C14 C 1.1357(5) -0.0797(7) 0.5765(3)
H7 H 1.1347 -0.1339 0.5339
C15 C 0.7912(5) -0.0253(6) 0.9076(3)
H8 H 0.7143 -0.0447 0.8790
H9 H 0.7937 0.0633 0.9377
H10 H 0.8200 -0.1108 0.9391
C16 C 0.7540(3) 0.1702(5) 0.7501(3)
C17 C 0.6473(4) 0.1720(7) 0.7698(3)
H11 H 0.6038 0.2609 0.7483
H12 H 0.6637 0.1787 0.8235
C18 C 0.7642(4) 0.2522(6) 0.6930(3)
C19 C 0.6781(5) 0.3525(7) 0.6426(3)
H13 H 0.6059 0.3389 0.6528
H14 H 0.7009 0.4574 0.6532
C20 C 0.6636(10) 0.3226(16) 0.5643(6)
H15 H 0.6322 0.4111 0.5349
H16 H 0.7363 0.2995 0.5565
C21 C 0.5876(14) 0.195(2) 0.5420(8)
H17 H 0.5390 0.1842 0.5742
H18 H 0.6291 0.1019 0.5422
C22 C 0.5187(14) 0.240(2) 0.4625(9)
H19 H 0.5176 0.3484 0.4577
H20 H 0.4424 0.2032 0.4527
H21 H 0.5530 0.1963 0.4274
H22 H 0.993(3) 0.160(3) 0.7750(19)
H23 H 0.836(2) 0.253(6) 0.683(2)
loop_
_geom_bond_atom_site_label_1
_geom_bond_atom_site_label_2
_geom_bond_site_symmetry_1
_geom_bond_site_symmetry_2
Br1 C17 1_555 1_555
O1 C1 1_555 1_555
O2 C1 1_555 1_555
C1 C2 1_555 1_555
C2 C3 1_555 1_555
C3 C4 1_555 1_555
C4 O2 1_555 1_555
C5 C4 1_555 1_555
C6 C5 1_555 1_555
H1 C6 1_555 1_555
C7 C6 1_555 1_555
H2 C7 1_555 1_555
C8 C7 1_555 1_555
H3 C8 1_555 1_555
C9 C8 1_555 1_555
C10 C5 1_555 1_555
C11 C10 1_555 1_555
H4 C11 1_555 1_555
C12 C11 1_555 1_555
H5 C12 1_555 1_555
C13 C12 1_555 1_555
H6 C13 1_555 1_555
C14 C9 1_555 1_555
H7 C14 1_555 1_555
C15 C2 1_555 1_555
H8 C15 1_555 1_555
H9 C15 1_555 1_555
H10 C15 1_555 1_555
C16 C3 1_555 1_555
C17 C16 1_555 1_555
H11 C17 1_555 1_555
H12 C17 1_555 1_555
C18 C16 1_555 1_555
C19 C18 1_555 1_555
H13 C19 1_555 1_555
H14 C19 1_555 1_555
C20 C19 1_555 1_555
H15 C20 1_555 1_555
H16 C20 1_555 1_555
C21 C20 1_555 1_555
H17 C21 1_555 1_555
H18 C21 1_555 1_555
C22 C21 1_555 1_555
H19 C22 1_555 1_555
H20 C22 1_555 1_555
H21 C22 1_555 1_555
H22 C4 1_555 1_555
H23 C18 1_555 1_555
C9 C10 1_555 1_555
C13 C14 1_555 1_555

#END
