
#######################################################################
#
#                 Cambridge Crystallographic Data Centre
#                                CCDC 
#
#######################################################################
#
# If this CIF has been generated from an entry in the Cambridge 
# Structural Database, then it will include bibliographic, chemical, 
# crystal, experimental, refinement or atomic coordinate data resulting 
# from the CCDC's data processing and validation procedures.
#
#######################################################################

data_IPHTDS03
_chemical_formula_moiety         'C12 H28 O4 P2 S4'
_chemical_name_systematic        "bis(O,O'-Di-isopropyl dithiophosphate)"
_symmetry_cell_setting           triclinic
_symmetry_space_group_name_H-M   'P -1'
_symmetry_Int_Tables_number      2
_space_group_name_Hall           '-P 1'
loop_
_symmetry_equiv_pos_site_id
_symmetry_equiv_pos_as_xyz
1 x,y,z
2 -x,-y,-z
_cell_length_a                   8.2794(17)
_cell_length_b                   8.4764(17)
_cell_length_c                   8.5034(17)
_cell_angle_alpha                97.78(3)
_cell_angle_beta                 110.77(3)
_cell_angle_gamma                94.95(3)
_cell_volume                     547.006
_cell_formula_units_Z            1
loop_
_atom_site_label
_atom_site_type_symbol
_atom_site_fract_x
_atom_site_fract_y
_atom_site_fract_z
O1 O -0.2893(3) 0.4401(2) 0.1296(3)
O2 O -0.2873(3) 0.2271(2) -0.0763(3)
P1 P -0.16881(11) 0.31282(9) 0.10886(10)
S1 S 0.05548(10) 0.43364(10) 0.09739(11)
S2 S -0.08486(13) 0.18506(11) 0.28287(11)
C1 C -0.3586(6) -0.0597(4) -0.1708(6)
H1 H -0.3361 -0.0774 -0.0562
H2 H -0.3375 -0.1517 -0.2359
H3 H -0.4780 -0.0434 -0.2228
C2 C -0.2406(5) 0.0860(4) -0.1667(4)
H4 H -0.1190 0.0738 -0.1044
C3 C -0.2607(6) 0.1222(5) -0.3398(5)
H5 H -0.1784 0.2144 -0.3275
H6 H -0.3772 0.1442 -0.3963
H7 H -0.2395 0.0313 -0.4063
C4 C -0.3690(6) 0.5127(5) 0.3722(6)
H8 H -0.3541 0.4086 0.4031
H9 H -0.4862 0.5097 0.2934
H10 H -0.3475 0.5909 0.4728
C5 C -0.2438(5) 0.5573(4) 0.2903(4)
H11 H -0.1245 0.5521 0.3670
C6 C -0.2544(5) 0.7221(4) 0.2418(5)
H12 H -0.1688 0.7456 0.1929
H13 H -0.2324 0.8013 0.3418
H14 H -0.3688 0.7243 0.1598
S1A S -0.05548(10) 0.56636(10) -0.09739(11)
P1A P 0.16881(11) 0.68718(9) -0.10886(10)
O1A O 0.2893(3) 0.5599(2) -0.1296(3)
C5A C 0.2438(5) 0.4427(4) -0.2903(4)
C4A C 0.3690(6) 0.4873(5) -0.3722(6)
H8A H 0.3541 0.5914 -0.4031
H9A H 0.4862 0.4903 -0.2934
H10A H 0.3475 0.4091 -0.4728
H11A H 0.1245 0.4479 -0.3670
C6A C 0.2544(5) 0.2779(4) -0.2418(5)
H12A H 0.1688 0.2544 -0.1929
H13A H 0.2324 0.1987 -0.3418
H14A H 0.3688 0.2757 -0.1598
O2A O 0.2873(3) 0.7729(2) 0.0763(3)
C2A C 0.2406(5) 0.9140(4) 0.1667(4)
C1A C 0.3586(6) 1.0597(4) 0.1708(6)
H1A H 0.3361 1.0774 0.0562
H2A H 0.3375 1.1517 0.2359
H3A H 0.4780 1.0434 0.2228
H4A H 0.1190 0.9262 0.1044
C3A C 0.2607(6) 0.8778(5) 0.3398(5)
H5A H 0.1784 0.7856 0.3275
H6A H 0.3772 0.8558 0.3963
H7A H 0.2395 0.9687 0.4063
S2A S 0.08486(13) 0.81494(11) -0.28287(11)
loop_
_geom_bond_atom_site_label_1
_geom_bond_atom_site_label_2
_geom_bond_site_symmetry_1
_geom_bond_site_symmetry_2
O1 P1 1_555 1_555
O2 P1 1_555 1_555
P1 S1 1_555 1_555
S1 S1A 1_555 1_555
S2 P1 1_555 1_555
C1 H1 1_555 1_555
H2 C1 1_555 1_555
H3 C1 1_555 1_555
C2 O2 1_555 1_555
H4 C2 1_555 1_555
C3 C2 1_555 1_555
H5 C3 1_555 1_555
H6 C3 1_555 1_555
H7 C3 1_555 1_555
C4 H8 1_555 1_555
H9 C4 1_555 1_555
H10 C4 1_555 1_555
C5 O1 1_555 1_555
H11 C5 1_555 1_555
C6 C5 1_555 1_555
H12 C6 1_555 1_555
H13 C6 1_555 1_555
H14 C6 1_555 1_555
S1A P1A 1_555 1_555
P1A O1A 1_555 1_555
O1A C5A 1_555 1_555
C5A C4A 1_555 1_555
C4A H8A 1_555 1_555
H9A C4A 1_555 1_555
H10A C4A 1_555 1_555
H11A C5A 1_555 1_555
C6A C5A 1_555 1_555
H12A C6A 1_555 1_555
H13A C6A 1_555 1_555
H14A C6A 1_555 1_555
O2A P1A 1_555 1_555
C2A O2A 1_555 1_555
C1A C2A 1_555 1_555
H1A C1A 1_555 1_555
H2A C1A 1_555 1_555
H3A C1A 1_555 1_555
H4A C2A 1_555 1_555
C3A C2A 1_555 1_555
H5A C3A 1_555 1_555
H6A C3A 1_555 1_555
H7A C3A 1_555 1_555
S2A P1A 1_555 1_555
C1 C2 1_555 1_555
C4 C5 1_555 1_555

#END
