
#######################################################################
#
#                 Cambridge Crystallographic Data Centre
#                                CCDC 
#
#######################################################################
#
# If this CIF has been generated from an entry in the Cambridge 
# Structural Database, then it will include bibliographic, chemical, 
# crystal, experimental, refinement or atomic coordinate data resulting 
# from the CCDC's data processing and validation procedures.
#
#######################################################################

data_KIQDAR
_chemical_formula_moiety         'C16 H16 Cl1 N1 O4'
_chemical_name_systematic        
13-(4-Chlorophenyl)-2,9-dioxa-12-azadispiro[4.1.4.2]tridecane-1,8-dione
_symmetry_cell_setting           orthorhombic
_symmetry_space_group_name_H-M   'P 21 21 21'
_symmetry_Int_Tables_number      19
_space_group_name_Hall           'P 2ac 2ab'
loop_
_symmetry_equiv_pos_site_id
_symmetry_equiv_pos_as_xyz
1 x,y,z
2 1/2-x,-y,1/2+z
3 -x,1/2+y,1/2-z
4 1/2+x,1/2-y,-z
_cell_length_a                   6.4177(9)
_cell_length_b                   12.2541(18)
_cell_length_c                   19.540(3)
_cell_angle_alpha                90
_cell_angle_beta                 90
_cell_angle_gamma                90
_cell_volume                     1536.69
_exptl_crystal_description       block
_cell_formula_units_Z            4
loop_
_atom_site_label
_atom_site_type_symbol
_atom_site_fract_x
_atom_site_fract_y
_atom_site_fract_z
C1 C 0.3664(13) 0.3762(5) 0.0500(3)
C2 C 0.5404(14) 0.3137(6) 0.0623(3)
H1 H 0.6462 0.3081 0.0300
C3 C 0.5533(10) 0.2602(5) 0.1233(3)
H2 H 0.6731 0.2206 0.1333
C4 C 0.3939(7) 0.2630(3) 0.1706(2)
C5 C 0.2216(10) 0.3243(4) 0.1555(3)
H3 H 0.1131 0.3270 0.1870
C6 C 0.2032(12) 0.3816(5) 0.0958(3)
H4 H 0.0849 0.4228 0.0864
C7 C 0.4112(7) 0.1969(3) 0.2364(2)
H5 H 0.5572 0.1954 0.2510
C8 C 0.3198(8) 0.0510(3) 0.3093(3)
H6 H 0.4535 0.0242 0.3251
H7 H 0.2144 -0.0039 0.3183
C9 C 0.3281(6) 0.0791(3) 0.2330(2)
C10 C 0.1201(6) 0.0620(3) 0.1967(3)
H8 H 0.0040 0.0746 0.2275
H9 H 0.1069 0.1097 0.1574
C11 C 0.1307(7) -0.0550(4) 0.1754(3)
H10 H 0.0803 -0.1025 0.2115
H11 H 0.0486 -0.0675 0.1345
C12 C 0.4682(7) 0.0009(3) 0.1948(3)
C13 C 0.2635(7) 0.1601(4) 0.3449(2)
C14 C 0.0402(7) 0.1619(4) 0.3714(3)
C15 C 0.2395(17) 0.1340(11) 0.4636(6)
H12 H 0.2460 0.0550 0.4643
H13 H 0.2667 0.1623 0.5091
C16 C 0.3834(8) 0.1821(6) 0.4112(3)
H14 H 0.5177 0.1458 0.4112
H15 H 0.4037 0.2597 0.4185
Cl1 Cl 0.3378(5) 0.44647(15) -0.02760(8)
N1 N 0.2847(6) 0.2419(3) 0.29119(19)
H16 H 0.2311 0.3062 0.2919
O1 O 0.6533(6) -0.0024(3) 0.1918(2)
O2 O 0.3519(5) -0.0741(3) 0.1622(2)
O3 O 0.0402(9) 0.1740(9) 0.4359(3)
O4 O -0.1189(6) 0.1565(6) 0.3424(3)
loop_
_geom_bond_atom_site_label_1
_geom_bond_atom_site_label_2
_geom_bond_site_symmetry_1
_geom_bond_site_symmetry_2
C1 C2 1_555 1_555
C2 H1 1_555 1_555
C3 C2 1_555 1_555
H2 C3 1_555 1_555
C4 C3 1_555 1_555
C5 C4 1_555 1_555
H3 C5 1_555 1_555
C6 C1 1_555 1_555
H4 C6 1_555 1_555
C7 C4 1_555 1_555
H5 C7 1_555 1_555
C8 H6 1_555 1_555
H7 C8 1_555 1_555
C9 C7 1_555 1_555
C10 C9 1_555 1_555
H8 C10 1_555 1_555
H9 C10 1_555 1_555
C11 C10 1_555 1_555
H10 C11 1_555 1_555
H11 C11 1_555 1_555
C12 C9 1_555 1_555
C13 C8 1_555 1_555
C14 C13 1_555 1_555
C15 H12 1_555 1_555
H13 C15 1_555 1_555
C16 C13 1_555 1_555
H14 C16 1_555 1_555
H15 C16 1_555 1_555
Cl1 C1 1_555 1_555
N1 C7 1_555 1_555
H16 N1 1_555 1_555
O1 C12 1_555 1_555
O2 C11 1_555 1_555
O3 C14 1_555 1_555
O4 C14 1_555 1_555
C5 C6 1_555 1_555
C8 C9 1_555 1_555
C12 O2 1_555 1_555
C13 N1 1_555 1_555
C15 C16 1_555 1_555
C15 O3 1_555 1_555

#END
