
#######################################################################
#
#                 Cambridge Crystallographic Data Centre
#                                CCDC 
#
#######################################################################
#
# If this CIF has been generated from an entry in the Cambridge 
# Structural Database, then it will include bibliographic, chemical, 
# crystal, experimental, refinement or atomic coordinate data resulting 
# from the CCDC's data processing and validation procedures.
#
#######################################################################

data_KUKJUX
_chemical_compound_source        'Abies nukiangensis'
_chemical_formula_moiety         'C26 H38 O3'
_chemical_name_systematic        
'24,25,26,27-Tetranor-8(14-13R)-abeo-17,13-friedo-3-oxolanosta-8,14(30)-dien-23-oic acid'
_chemical_properties_biological  
'Tested for anti-hepatitis C virus (anti-HCV) on n4mBid cells and cytotoxicity against QGY-7703 and A549 tumor cell lines'
_symmetry_cell_setting           monoclinic
_symmetry_space_group_name_H-M   'P 21'
_symmetry_Int_Tables_number      4
_space_group_name_Hall           'P 2yb'
loop_
_symmetry_equiv_pos_site_id
_symmetry_equiv_pos_as_xyz
1 x,y,z
2 -x,1/2+y,-z
_cell_length_a                   7.46140(10)
_cell_length_b                   7.80380(10)
_cell_length_c                   18.7402(2)
_cell_angle_alpha                90
_cell_angle_beta                 99.6850(10)
_cell_angle_gamma                90
_cell_volume                     1075.64
_exptl_crystal_colour            colorless
_exptl_crystal_description       block
_cell_formula_units_Z            2
_exptl_crystal_recrystallization_method methanol
loop_
_atom_site_label
_atom_site_type_symbol
_atom_site_fract_x
_atom_site_fract_y
_atom_site_fract_z
O1 O 0.8114(2) -0.2650(2) 0.52133(7)
O2 O 0.48236(15) 0.03041(16) -0.00495(7)
O3 O 0.65640(14) -0.15967(15) 0.06440(6)
H1 H 0.5959 -0.2297 0.0360
C1 C 0.94325(19) -0.2827(2) 0.35142(8)
H2 H 0.9722 -0.3690 0.3164
H3 H 1.0594 -0.2386 0.3786
C2 C 0.8345(2) -0.3687(2) 0.40457(8)
H4 H 0.7256 -0.4250 0.3769
H5 H 0.9104 -0.4583 0.4323
C3 C 0.7760(2) -0.2408(2) 0.45661(8)
C4 C 0.67515(19) -0.0808(2) 0.42401(8)
C5 C 0.78616(17) -0.0068(2) 0.36732(7)
H6 H 0.9054 0.0281 0.3964
C6 C 0.70777(18) 0.1578(2) 0.33086(8)
H7 H 0.6616 0.2316 0.3667
H8 H 0.6048 0.1299 0.2920
C7 C 0.8548(2) 0.2535(2) 0.29883(8)
H9 H 0.7971 0.3433 0.2653
H10 H 0.9385 0.3105 0.3383
C8 C 0.96176(17) 0.1341(2) 0.25860(7)
C9 C 0.95521(17) -0.03609(19) 0.26530(7)
C10 C 0.83671(18) -0.13398(19) 0.31001(7)
C11 C 1.07125(19) -0.1258(2) 0.21801(8)
H11 H 0.9953 -0.1777 0.1750
H12 H 1.1469 -0.2163 0.2453
C12 C 1.18920(18) 0.0190(2) 0.19621(8)
H13 H 1.2030 0.0067 0.1448
H14 H 1.3115 0.0163 0.2265
C13 C 1.09045(18) 0.19171(19) 0.20793(8)
C14 C 1.23445(18) 0.3226(2) 0.23964(8)
C15 C 1.3108(2) 0.4041(2) 0.17768(9)
H15 H 1.4386 0.3686 0.1786
H16 H 1.3059 0.5306 0.1806
C16 C 1.18895(19) 0.3388(2) 0.10856(8)
H17 H 1.2466 0.2408 0.0876
H18 H 1.1656 0.4309 0.0719
C17 C 1.00970(18) 0.28254(19) 0.13354(7)
C18 C 0.90589(19) 0.44682(19) 0.14648(8)
H19 H 0.8880 0.5169 0.1025
H20 H 0.9761 0.5119 0.1864
H21 H 0.7874 0.4164 0.1588
C19 C 0.67538(19) -0.2073(2) 0.25571(8)
H22 H 0.5903 -0.1148 0.2384
H23 H 0.6126 -0.2948 0.2798
H24 H 0.7211 -0.2588 0.2146
C20 C 0.89329(18) 0.16902(19) 0.07563(7)
H25 H 0.9572 0.0568 0.0741
C21 C 0.8729(2) 0.2500(2) -0.00013(8)
H26 H 0.8285 0.3678 0.0018
H27 H 0.7860 0.1830 -0.0341
H28 H 0.9911 0.2507 -0.0163
C22 C 0.70205(18) 0.1325(2) 0.09475(7)
H29 H 0.7156 0.0938 0.1457
H30 H 0.6303 0.2399 0.0902
C23 C 0.60135(18) -0.0015(2) 0.04639(7)
C24 C 0.6697(2) 0.0518(2) 0.48416(8)
H31 H 0.6291 -0.0037 0.5256
H32 H 0.5851 0.1440 0.4659
H33 H 0.7916 0.0997 0.4994
C25 C 0.4759(2) -0.1280(2) 0.39302(8)
H34 H 0.4737 -0.2307 0.3628
H35 H 0.4183 -0.0327 0.3637
H36 H 0.4096 -0.1506 0.4329
C26 C 1.28811(19) 0.3598(2) 0.30917(8)
H37 H 1.3807 0.4427 0.3229
H38 H 1.2339 0.3034 0.3451
loop_
_geom_bond_atom_site_label_1
_geom_bond_atom_site_label_2
_geom_bond_site_symmetry_1
_geom_bond_site_symmetry_2
O1 C3 1_555 1_555
O2 C23 1_555 1_555
O3 H1 1_555 1_555
C1 H2 1_555 1_555
H3 C1 1_555 1_555
C2 C1 1_555 1_555
H4 C2 1_555 1_555
H5 C2 1_555 1_555
C3 C2 1_555 1_555
C4 C3 1_555 1_555
C5 C4 1_555 1_555
H6 C5 1_555 1_555
C6 C5 1_555 1_555
H7 C6 1_555 1_555
H8 C6 1_555 1_555
C7 C6 1_555 1_555
H9 C7 1_555 1_555
H10 C7 1_555 1_555
C8 C7 1_555 1_555
C9 C8 1_555 1_555
C10 C1 1_555 1_555
C11 C9 1_555 1_555
H11 C11 1_555 1_555
H12 C11 1_555 1_555
C12 C11 1_555 1_555
H13 C12 1_555 1_555
H14 C12 1_555 1_555
C13 C8 1_555 1_555
C14 C13 1_555 1_555
C15 C14 1_555 1_555
H15 C15 1_555 1_555
H16 C15 1_555 1_555
C16 C15 1_555 1_555
H17 C16 1_555 1_555
H18 C16 1_555 1_555
C17 C13 1_555 1_555
C18 C17 1_555 1_555
H19 C18 1_555 1_555
H20 C18 1_555 1_555
H21 C18 1_555 1_555
C19 C10 1_555 1_555
H22 C19 1_555 1_555
H23 C19 1_555 1_555
H24 C19 1_555 1_555
C20 C17 1_555 1_555
H25 C20 1_555 1_555
C21 C20 1_555 1_555
H26 C21 1_555 1_555
H27 C21 1_555 1_555
H28 C21 1_555 1_555
C22 C20 1_555 1_555
H29 C22 1_555 1_555
H30 C22 1_555 1_555
C23 O3 1_555 1_555
C24 C4 1_555 1_555
H31 C24 1_555 1_555
H32 C24 1_555 1_555
H33 C24 1_555 1_555
C25 C4 1_555 1_555
H34 C25 1_555 1_555
H35 C25 1_555 1_555
H36 C25 1_555 1_555
C26 C14 1_555 1_555
H37 C26 1_555 1_555
H38 C26 1_555 1_555
C5 C10 1_555 1_555
C9 C10 1_555 1_555
C12 C13 1_555 1_555
C16 C17 1_555 1_555
C22 C23 1_555 1_555

#END
