
#######################################################################
#
#                 Cambridge Crystallographic Data Centre
#                                CCDC 
#
#######################################################################
#
# If this CIF has been generated from an entry in the Cambridge 
# Structural Database, then it will include bibliographic, chemical, 
# crystal, experimental, refinement or atomic coordinate data resulting 
# from the CCDC's data processing and validation procedures.
#
#######################################################################

data_LAVPOQ
_chemical_formula_moiety         'C20 H10 N2'
_chemical_name_systematic        tetracene-5,11-dicarbonitrile
_symmetry_cell_setting           triclinic
_symmetry_space_group_name_H-M   'P -1'
_symmetry_Int_Tables_number      2
_space_group_name_Hall           '-P 1'
loop_
_symmetry_equiv_pos_site_id
_symmetry_equiv_pos_as_xyz
1 x,y,z
2 -x,-y,-z
_cell_length_a                   3.9936(2)
_cell_length_b                   9.1195(4)
_cell_length_c                   18.9835(9)
_cell_angle_alpha                95.941(4)
_cell_angle_beta                 95.993(3)
_cell_angle_gamma                101.081(3)
_cell_volume                     669.344
_cell_formula_units_Z            2
loop_
_atom_site_label
_atom_site_type_symbol
_atom_site_fract_x
_atom_site_fract_y
_atom_site_fract_z
C1 C 0.6095(5) 0.6724(2) 0.8557(1)
C2 C 0.7575(6) 0.6831(3) 0.7950(1)
C3 C 0.9041(6) 0.8251(3) 0.7758(1)
C4 C 0.8997(5) 0.9546(2) 0.8179(1)
C5 C 0.7422(5) 0.9494(2) 0.8822(1)
C6 C 0.5943(5) 0.8051(2) 0.9014(1)
C7 C 0.4408(5) 0.7975(2) 0.9636(1)
C8 C 0.4271(5) 0.9270(2) 1.0090(1)
C9 C 0.2711(5) 0.9208(2) 1.0729(1)
C10 C 0.1208(6) 0.7755(2) 1.0912(1)
N1 N -0.0013(6) 0.6602(2) 1.1061(1)
H1 H 0.5150 0.5760 0.8680
H2 H 0.7631 0.5940 0.7648
H3 H 1.0070 0.8300 0.7329
H4 H 1.0016 1.0489 0.8045
H5 H 0.3421 0.7015 0.9758
C1A C 0.3905(5) 1.3276(2) 1.1443(1)
C2A C 0.2425(6) 1.3169(3) 1.2050(1)
C3A C 0.0959(6) 1.1749(3) 1.2242(1)
C4A C 0.1003(5) 1.0454(2) 1.1821(1)
C5A C 0.2578(5) 1.0506(2) 1.1178(1)
C6A C 0.4057(5) 1.1949(2) 1.0986(1)
C7A C 0.5592(5) 1.2025(2) 1.0364(1)
C8A C 0.5729(5) 1.0730(2) 0.9910(1)
C9A C 0.7289(5) 1.0792(2) 0.9271(1)
C10A C 0.8792(6) 1.2245(2) 0.9088(1)
N1A N 1.0013(6) 1.3398(2) 0.8939(1)
H1A H 0.4850 1.4240 1.1320
H2A H 0.2369 1.4060 1.2352
H3A H -0.0070 1.1700 1.2671
H4A H -0.0016 0.9511 1.1955
H5A H 0.6579 1.2985 1.0242
C11 C 0.7881(5) 0.6446(2) 0.4046(1)
C12 C 0.7992(5) 0.6077(2) 0.3340(1)
C13 C 0.7014(5) 0.7005(2) 0.2833(1)
C14 C 0.5954(5) 0.8288(2) 0.3047(1)
C15 C 0.5788(5) 0.8729(2) 0.3786(1)
C16 C 0.6786(5) 0.7780(2) 0.4296(1)
C17 C 0.6623(5) 0.8213(2) 0.5018(1)
C18 C 0.7738(5) 0.7322(2) 0.5547(1)
C19 C 0.4700(5) 1.0025(2) 0.4016(1)
C20 C 0.4506(5) 1.0461(2) 0.4739(1)
N2 N 0.8695(5) 0.6650(2) 0.5973(1)
H6 H 0.8541 0.5808 0.4376
H7 H 0.8734 0.5183 0.3182
H8 H 0.7101 0.6726 0.2340
H9 H 0.5314 0.8901 0.2702
H10 H 0.4062 1.0643 0.3673
C11A C 0.2119(5) 1.3554(2) 0.5954(1)
C12A C 0.2008(5) 1.3923(2) 0.6660(1)
C13A C 0.2986(5) 1.2995(2) 0.7167(1)
C14A C 0.4046(5) 1.1712(2) 0.6953(1)
C15A C 0.4212(5) 1.1271(2) 0.6214(1)
C16A C 0.3214(5) 1.2220(2) 0.5704(1)
C17A C 0.3377(5) 1.1787(2) 0.4982(1)
C18A C 0.2262(5) 1.2678(2) 0.4453(1)
C19A C 0.5300(5) 0.9975(2) 0.5984(1)
C20A C 0.5494(5) 0.9539(2) 0.5261(1)
N2A N 0.1305(5) 1.3350(2) 0.4027(1)
H6A H 0.1459 1.4192 0.5624
H7A H 0.1266 1.4817 0.6818
H8A H 0.2899 1.3274 0.7660
H9A H 0.4686 1.1099 0.7298
H10A H 0.5938 0.9357 0.6327
loop_
_geom_bond_atom_site_label_1
_geom_bond_atom_site_label_2
_geom_bond_site_symmetry_1
_geom_bond_site_symmetry_2
C1 C2 1_555 1_555
C2 C3 1_555 1_555
C3 C4 1_555 1_555
C4 C5 1_555 1_555
C5 C6 1_555 1_555
C6 C1 1_555 1_555
C7 C6 1_555 1_555
C8 C7 1_555 1_555
C9 C8 1_555 1_555
C10 C9 1_555 1_555
N1 C10 1_555 1_555
H1 C1 1_555 1_555
H2 C2 1_555 1_555
H3 C3 1_555 1_555
H4 C4 1_555 1_555
H5 C7 1_555 1_555
C11 C12 1_555 1_555
C12 C13 1_555 1_555
C13 C14 1_555 1_555
C14 C15 1_555 1_555
C15 C16 1_555 1_555
C16 C11 1_555 1_555
C17 C16 1_555 1_555
C18 C17 1_555 1_555
C19 C15 1_555 1_555
C20 C19 1_555 1_555
N2 C18 1_555 1_555
H6 C11 1_555 1_555
H7 C12 1_555 1_555
H8 C13 1_555 1_555
H9 C14 1_555 1_555
H10 C19 1_555 1_555
C1A C2A 1_555 1_555
C2A C3A 1_555 1_555
C3A C4A 1_555 1_555
C4A C5A 1_555 1_555
C5A C9 1_555 1_555
C6A C1A 1_555 1_555
C7A C6A 1_555 1_555
C8A C8 1_555 1_555
C9A C5 1_555 1_555
C10A C9A 1_555 1_555
N1A C10A 1_555 1_555
H1A C1A 1_555 1_555
H2A C2A 1_555 1_555
H3A C3A 1_555 1_555
H4A C4A 1_555 1_555
H5A C7A 1_555 1_555
C11A C12A 1_555 1_555
C12A C13A 1_555 1_555
C13A C14A 1_555 1_555
C14A C15A 1_555 1_555
C15A C16A 1_555 1_555
C16A C11A 1_555 1_555
C17A C20 1_555 1_555
C18A C17A 1_555 1_555
C19A C15A 1_555 1_555
C20A C17 1_555 1_555
N2A C18A 1_555 1_555
H6A C11A 1_555 1_555
H7A C12A 1_555 1_555
H8A C13A 1_555 1_555
H9A C14A 1_555 1_555
H10A C19A 1_555 1_555
C20 C20A 1_555 1_555
C5A C6A 1_555 1_555
C7A C8A 1_555 1_555
C8A C9A 1_555 1_555
C16A C17A 1_555 1_555
C19A C20A 1_555 1_555

#END
