
#######################################################################
#
#                 Cambridge Crystallographic Data Centre
#                                CCDC 
#
#######################################################################
#
# If this CIF has been generated from an entry in the Cambridge 
# Structural Database, then it will include bibliographic, chemical, 
# crystal, experimental, refinement or atomic coordinate data resulting 
# from the CCDC's data processing and validation procedures.
#
#######################################################################

data_LAVQOR
_chemical_formula_moiety         'C23 H18 N2'
_chemical_name_systematic        4,5,6-triphenylpyridin-2-amine
_symmetry_cell_setting           triclinic
_symmetry_space_group_name_H-M   'P -1'
_symmetry_Int_Tables_number      2
_space_group_name_Hall           '-P 1'
loop_
_symmetry_equiv_pos_site_id
_symmetry_equiv_pos_as_xyz
1 x,y,z
2 -x,-y,-z
_cell_length_a                   7.6309(2)
_cell_length_b                   11.0830(3)
_cell_length_c                   11.7473(3)
_cell_angle_alpha                62.1970(10)
_cell_angle_beta                 77.9610(10)
_cell_angle_gamma                83.5980(10)
_cell_volume                     859.369
_exptl_crystal_colour            yellow
_exptl_crystal_description       block
_cell_formula_units_Z            2
loop_
_atom_site_label
_atom_site_type_symbol
_atom_site_fract_x
_atom_site_fract_y
_atom_site_fract_z
N1 N 0.93184(14) 0.53448(12) 0.65120(11)
H1 H 1.0088 0.5551 0.5779
H2 H 0.9443 0.5685 0.7034
C1 C 0.79350(15) 0.45013(12) 0.68389(11)
C2 C 0.52390(14) 0.33451(11) 0.82593(11)
N2 N 0.78346(12) 0.40251(10) 0.59945(9)
C3 C 0.66657(15) 0.41564(12) 0.79936(11)
H3 H 0.6789 0.4481 0.8591
C4 C 0.51254(14) 0.28177(11) 0.73864(11)
C5 C 0.65821(13) 0.26292(12) 0.53326(11)
C6 C 0.64891(14) 0.31792(11) 0.62871(11)
C7 C 0.68233(16) 0.16305(14) 0.35239(12)
H4 H 0.6895 0.1289 0.2909
C8 C 0.65687(16) 0.30116(13) 0.31403(12)
H5 H 0.6462 0.3620 0.2260
C9 C 0.64682(15) 0.35119(12) 0.40361(11)
H6 H 0.6320 0.4465 0.3762
C10 C 0.69732(17) 0.07467(13) 0.48084(13)
H7 H 0.7173 -0.0200 0.5070
C11 C 0.68330(16) 0.12387(12) 0.57144(12)
H8 H 0.6909 0.0625 0.6599
C12 C 0.36083(14) 0.19572(11) 0.75851(11)
C13 C 0.25285(15) 0.23772(12) 0.66392(12)
H9 H 0.2777 0.3207 0.5858
C14 C 0.10966(16) 0.15975(13) 0.68262(13)
H10 H 0.0377 0.1892 0.6171
C15 C 0.07119(16) 0.03914(13) 0.79635(14)
H11 H -0.0281 -0.0135 0.8096
C16 C 0.17798(16) -0.00429(13) 0.89044(13)
H12 H 0.1531 -0.0877 0.9681
C17 C 0.32117(16) 0.07338(12) 0.87182(12)
H13 H 0.3935 0.0428 0.9373
C18 C 0.38260(15) 0.31169(11) 0.94278(11)
C19 C 0.20162(15) 0.33714(12) 0.93237(12)
H14 H 0.1664 0.3660 0.8504
C20 C 0.07336(16) 0.32041(13) 1.04106(13)
H15 H -0.0492 0.3391 1.0329
C21 C 0.12234(17) 0.27671(13) 1.16151(13)
H16 H 0.0336 0.2637 1.2360
C22 C 0.30094(18) 0.25214(13) 1.17279(12)
H17 H 0.3352 0.2230 1.2551
C23 C 0.43060(16) 0.26994(12) 1.06395(11)
H18 H 0.5532 0.2534 1.0723
loop_
_geom_bond_atom_site_label_1
_geom_bond_atom_site_label_2
_geom_bond_site_symmetry_1
_geom_bond_site_symmetry_2
N1 H1 1_555 1_555
H2 N1 1_555 1_555
C1 N1 1_555 1_555
C2 C3 1_555 1_555
N2 C1 1_555 1_555
C3 C1 1_555 1_555
H3 C3 1_555 1_555
C4 C2 1_555 1_555
C5 C6 1_555 1_555
C6 N2 1_555 1_555
C7 H4 1_555 1_555
C8 C7 1_555 1_555
H5 C8 1_555 1_555
C9 C5 1_555 1_555
H6 C9 1_555 1_555
C10 C7 1_555 1_555
H7 C10 1_555 1_555
C11 C5 1_555 1_555
H8 C11 1_555 1_555
C12 C4 1_555 1_555
C13 C12 1_555 1_555
H9 C13 1_555 1_555
C14 C13 1_555 1_555
H10 C14 1_555 1_555
C15 C14 1_555 1_555
H11 C15 1_555 1_555
C16 C15 1_555 1_555
H12 C16 1_555 1_555
C17 C12 1_555 1_555
H13 C17 1_555 1_555
C18 C2 1_555 1_555
C19 C18 1_555 1_555
H14 C19 1_555 1_555
C20 C19 1_555 1_555
H15 C20 1_555 1_555
C21 C20 1_555 1_555
H16 C21 1_555 1_555
C22 C21 1_555 1_555
H17 C22 1_555 1_555
C23 C18 1_555 1_555
H18 C23 1_555 1_555
C4 C6 1_555 1_555
C8 C9 1_555 1_555
C10 C11 1_555 1_555
C16 C17 1_555 1_555
C22 C23 1_555 1_555

#END
