
#######################################################################
#
#                 Cambridge Crystallographic Data Centre
#                                CCDC 
#
#######################################################################
#
# If this CIF has been generated from an entry in the Cambridge 
# Structural Database, then it will include bibliographic, chemical, 
# crystal, experimental, refinement or atomic coordinate data resulting 
# from the CCDC's data processing and validation procedures.
#
#######################################################################

data_QEPQUA
_chemical_formula_moiety         'C9 H14 N3 O3 1+,C8 H7 O3 1-'
_chemical_name_systematic        
'2-[(2-methoxy-4-nitrophenyl)amino]ethan-1-aminium phenoxyacetate'
_symmetry_cell_setting           monoclinic
_symmetry_space_group_name_H-M   'P 21'
_symmetry_Int_Tables_number      4
_space_group_name_Hall           'P 2yb'
loop_
_symmetry_equiv_pos_site_id
_symmetry_equiv_pos_as_xyz
1 x,y,z
2 -x,1/2+y,-z
_cell_length_a                   5.1520(7)
_cell_length_b                   29.647(3)
_cell_length_c                   5.9127(6)
_cell_angle_alpha                90
_cell_angle_beta                 104.181(12)
_cell_angle_gamma                90
_cell_volume                     875.593
_exptl_crystal_colour            yellow
_exptl_crystal_description       plate
_cell_formula_units_Z            2
_exptl_crystal_recrystallization_method 'dry isopropanol/acetonitrile'
_exptl_crystal_preparation       'SHG active compound'
loop_
_atom_site_label
_atom_site_type_symbol
_atom_site_fract_x
_atom_site_fract_y
_atom_site_fract_z
N1 N 0.6339(9) 0.35032(15) 0.2514(7)
N2 N 0.0469(9) 0.42565(12) 0.8331(7)
N3 N -0.2393(8) 0.53259(13) 0.9981(7)
H1 H -0.066(10) 0.551(2) 1.057(12)
H2 H -0.388(9) 0.5393(19) 1.080(9)
H3 H -0.321(11) 0.541(2) 0.826(8)
O1 O 0.6657(9) 0.30907(13) 0.2544(8)
O2 O 0.7291(10) 0.37537(15) 0.1277(8)
O3 O 0.0974(8) 0.33879(10) 0.8247(6)
C1 C 0.4790(11) 0.36989(15) 0.3995(8)
C2 C 0.4492(11) 0.41550(16) 0.3999(8)
H4 H 0.5255 0.4335 0.3045
C3 C 0.3043(10) 0.43501(15) 0.5437(8)
H5 H 0.2846 0.4662 0.5449
C4 C 0.1889(10) 0.40860(14) 0.6852(8)
C5 C 0.2195(11) 0.36107(14) 0.6787(8)
C6 C 0.3629(11) 0.34179(16) 0.5369(8)
H6 H 0.3825 0.3106 0.5324
C7 C 0.1046(14) 0.29102(16) 0.8273(12)
H7 H 0.0291 0.2798 0.6729
H8 H 0.0028 0.2799 0.9315
H9 H 0.2867 0.2810 0.8793
C8 C -0.0123(10) 0.47322(14) 0.8336(8)
H10 H -0.1053 0.4826 0.6776
H11 H 0.1536 0.4901 0.8786
C9 C -0.1846(10) 0.48356(15) 1.0019(8)
H12 H -0.3518 0.4670 0.9567
H13 H -0.0925 0.4743 1.1583
H14 H -0.043(12) 0.405(2) 0.923(10)
O4 O 0.5866(8) 0.54568(11) 0.5279(6)
O5 O 0.3096(7) 0.55271(12) 0.1785(6)
O6 O 0.0004(7) 0.61054(11) 0.3281(6)
C10 C 0.3843(11) 0.56155(14) 0.3923(9)
C11 C 0.2189(10) 0.59411(16) 0.4990(8)
H15 H 0.1546 0.5788 0.6196
H16 H 0.3304 0.6191 0.5706
C12 C -0.1538(11) 0.64381(14) 0.3906(10)
C13 C -0.3665(12) 0.65828(18) 0.2181(11)
H17 H -0.3977 0.6455 0.0702
C14 C -0.5352(14) 0.6917(2) 0.2616(15)
H18 H -0.6808 0.7010 0.1443
C15 C -0.4867(15) 0.71098(19) 0.4774(15)
H19 H -0.5977 0.7338 0.5067
C16 C -0.2755(15) 0.6967(2) 0.6505(14)
H20 H -0.2447 0.7100 0.7972
C17 C -0.1054(12) 0.66273(19) 0.6111(11)
H21 H 0.0372 0.6530 0.7300
loop_
_geom_bond_atom_site_label_1
_geom_bond_atom_site_label_2
_geom_bond_site_symmetry_1
_geom_bond_site_symmetry_2
N1 O1 1_555 1_555
N2 C4 1_555 1_555
N3 H1 1_555 1_555
H2 N3 1_555 1_555
H3 N3 1_555 1_555
O2 N1 1_555 1_555
O3 C5 1_555 1_555
C1 N1 1_555 1_555
C2 C1 1_555 1_555
H4 C2 1_555 1_555
C3 C2 1_555 1_555
H5 C3 1_555 1_555
C4 C3 1_555 1_555
C5 C4 1_555 1_555
C6 C1 1_555 1_555
H6 C6 1_555 1_555
C7 O3 1_555 1_555
H7 C7 1_555 1_555
H8 C7 1_555 1_555
H9 C7 1_555 1_555
C8 N2 1_555 1_555
H10 C8 1_555 1_555
H11 C8 1_555 1_555
C9 N3 1_555 1_555
H12 C9 1_555 1_555
H13 C9 1_555 1_555
H14 N2 1_555 1_555
O4 C10 1_555 1_555
O5 C10 1_555 1_555
O6 C11 1_555 1_555
C10 C11 1_555 1_555
C11 H15 1_555 1_555
H16 C11 1_555 1_555
C12 O6 1_555 1_555
C13 C12 1_555 1_555
H17 C13 1_555 1_555
C14 C13 1_555 1_555
H18 C14 1_555 1_555
C15 C14 1_555 1_555
H19 C15 1_555 1_555
C16 C15 1_555 1_555
H20 C16 1_555 1_555
C17 C12 1_555 1_555
H21 C17 1_555 1_555
C5 C6 1_555 1_555
C8 C9 1_555 1_555
C16 C17 1_555 1_555

#END
