
#######################################################################
#
#                 Cambridge Crystallographic Data Centre
#                                CCDC 
#
#######################################################################
#
# If this CIF has been generated from an entry in the Cambridge 
# Structural Database, then it will include bibliographic, chemical, 
# crystal, experimental, refinement or atomic coordinate data resulting 
# from the CCDC's data processing and validation procedures.
#
#######################################################################

data_SAKJOG
_chemical_formula_moiety         'C19 H24 O3'
_chemical_name_systematic        15-hydroxyandrosta-1,4-diene-3,17-dione
_symmetry_cell_setting           orthorhombic
_symmetry_space_group_name_H-M   'P 21 21 21'
_symmetry_Int_Tables_number      19
_space_group_name_Hall           'P 2ac 2ab'
loop_
_symmetry_equiv_pos_site_id
_symmetry_equiv_pos_as_xyz
1 x,y,z
2 1/2-x,-y,1/2+z
3 -x,1/2+y,1/2-z
4 1/2+x,1/2-y,-z
_cell_length_a                   6.2420(7)
_cell_length_b                   12.3789(14)
_cell_length_c                   40.847(3)
_cell_angle_alpha                90
_cell_angle_beta                 90
_cell_angle_gamma                90
_cell_volume                     3156.21
_exptl_crystal_colour            colorless
_exptl_crystal_description       Prism
_cell_formula_units_Z            8
loop_
_atom_site_label
_atom_site_type_symbol
_atom_site_fract_x
_atom_site_fract_y
_atom_site_fract_z
O1 O 0.5990(2) 0.46166(11) 0.37113(3)
O2 O 0.2855(2) 0.31918(12) 0.57378(3)
H1 H 0.404(4) 0.3396(19) 0.5861(5)
O3 O 0.1879(3) 0.68482(13) 0.60002(4)
C1 C 0.2356(3) 0.59471(16) 0.42466(4)
H2 H 0.1794 0.6652 0.4280
C2 C 0.3786(3) 0.58228(17) 0.40092(4)
H3 H 0.4200 0.6428 0.3881
C3 C 0.4730(3) 0.47647(16) 0.39427(4)
C4 C 0.4143(3) 0.38882(16) 0.41619(4)
H4 H 0.4811 0.3205 0.4134
C5 C 0.2698(3) 0.40059(15) 0.44020(4)
C6 C 0.2153(3) 0.30933(15) 0.46289(4)
H5 H 0.3047 0.2457 0.4575
H6 H 0.0632 0.2889 0.4600
C7 C 0.2543(3) 0.34280(14) 0.49856(4)
H7 H 0.2080 0.2836 0.5132
H8 H 0.4096 0.3544 0.5020
C8 C 0.1340(3) 0.44524(15) 0.50741(4)
H9 H -0.0232 0.4307 0.5056
C9 C 0.1921(3) 0.53821(14) 0.48354(4)
H10 H 0.3495 0.5509 0.4861
C10 C 0.1554(3) 0.50655(16) 0.44670(4)
C11 C 0.0814(3) 0.64471(15) 0.49297(4)
H11 H 0.1319 0.7027 0.4782
H12 H -0.0750 0.6368 0.4898
C12 C 0.1249(3) 0.67827(16) 0.52852(5)
H13 H 0.2789 0.6952 0.5312
H14 H 0.0416 0.7441 0.5338
C13 C 0.0626(3) 0.58806(15) 0.55177(4)
C14 C 0.1826(3) 0.48334(14) 0.54224(4)
H15 H 0.3384 0.5022 0.5425
C15 C 0.1463(3) 0.40978(15) 0.57215(4)
H16 H -0.0047 0.3830 0.5716
C16 C 0.1688(4) 0.48918(16) 0.60107(5)
H17 H 0.0570 0.4752 0.6177
H18 H 0.3112 0.4817 0.6115
C17 C 0.1425(3) 0.60095(17) 0.58662(5)
C18 C -0.1832(3) 0.57372(17) 0.55392(5)
H19 H -0.2496 0.6428 0.5598
H20 H -0.2172 0.5196 0.5706
H21 H -0.2384 0.5497 0.5327
C19 C -0.0854(3) 0.49131(19) 0.43886(5)
H22 H -0.1587 0.5612 0.4403
H23 H -0.1488 0.4410 0.4547
H24 H -0.1011 0.4621 0.4167
O4 O 0.8605(2) 0.64046(12) 0.11371(3)
O5 O 0.7385(3) 0.57707(11) 0.31709(3)
H25 H 0.696(4) 0.5508(19) 0.3355(5)
O6 O 1.2853(3) 0.82100(15) 0.34915(4)
C20 C 0.9841(3) 0.83582(16) 0.17497(4)
H26 H 1.0863 0.8913 0.1787
C21 C 1.0003(3) 0.77992(17) 0.14726(5)
H27 H 1.1099 0.7977 0.1321
C22 C 0.8532(3) 0.69208(17) 0.13981(4)
C23 C 0.6962(3) 0.66598(17) 0.16491(4)
H28 H 0.6037 0.6062 0.1614
C24 C 0.6758(3) 0.72231(15) 0.19278(4)
C25 C 0.5152(3) 0.69093(17) 0.21834(4)
H29 H 0.4338 0.6268 0.2109
H30 H 0.4127 0.7509 0.2218
C26 C 0.6313(3) 0.66523(16) 0.25046(4)
H31 H 0.5246 0.6474 0.2676
H32 H 0.7245 0.6014 0.2473
C27 C 0.7666(3) 0.76070(15) 0.26174(4)
H33 H 0.6690 0.8225 0.2669
C28 C 0.9264(3) 0.79708(15) 0.23491(4)
H34 H 1.0285 0.7357 0.2316
C29 C 0.8163(3) 0.81786(15) 0.20081(4)
C30 C 1.0614(3) 0.89393(15) 0.24656(4)
H35 H 1.1680 0.9120 0.2295
H36 H 0.9665 0.9573 0.2494
C31 C 1.1793(3) 0.87180(16) 0.27896(4)
H37 H 1.2897 0.8156 0.2755
H38 H 1.2521 0.9385 0.2864
C32 C 1.0225(3) 0.83437(16) 0.30507(4)
C33 C 0.8991(3) 0.73511(14) 0.29219(4)
H39 H 1.0110 0.6825 0.2849
C34 C 0.7992(3) 0.68607(16) 0.32309(4)
H40 H 0.6727 0.7295 0.3303
C35 C 0.9834(3) 0.69593(17) 0.34797(4)
H41 H 0.9265 0.7113 0.3701
H42 H 1.0671 0.6281 0.3488
C36 C 1.1223(3) 0.78839(17) 0.33617(4)
C37 C 0.8752(3) 0.92741(16) 0.31661(5)
H43 H 0.9626 0.9851 0.3262
H44 H 0.7748 0.9002 0.3331
H45 H 0.7950 0.9559 0.2979
C38 C 0.6760(4) 0.92184(17) 0.20156(5)
H46 H 0.7688 0.9855 0.2029
H47 H 0.5812 0.9198 0.2207
H48 H 0.5895 0.9257 0.1816
loop_
_geom_bond_atom_site_label_1
_geom_bond_atom_site_label_2
_geom_bond_site_symmetry_1
_geom_bond_site_symmetry_2
O1 C3 1_555 1_555
O2 H1 1_555 1_555
O3 C17 1_555 1_555
C1 H2 1_555 1_555
C2 C1 1_555 1_555
H3 C2 1_555 1_555
C3 C2 1_555 1_555
C4 C3 1_555 1_555
H4 C4 1_555 1_555
C5 C4 1_555 1_555
C6 C5 1_555 1_555
H5 C6 1_555 1_555
H6 C6 1_555 1_555
C7 C6 1_555 1_555
H7 C7 1_555 1_555
H8 C7 1_555 1_555
C8 C7 1_555 1_555
H9 C8 1_555 1_555
C9 C8 1_555 1_555
H10 C9 1_555 1_555
C10 C1 1_555 1_555
C11 C9 1_555 1_555
H11 C11 1_555 1_555
H12 C11 1_555 1_555
C12 C11 1_555 1_555
H13 C12 1_555 1_555
H14 C12 1_555 1_555
C13 C12 1_555 1_555
C14 C8 1_555 1_555
H15 C14 1_555 1_555
C15 O2 1_555 1_555
H16 C15 1_555 1_555
C16 C15 1_555 1_555
H17 C16 1_555 1_555
H18 C16 1_555 1_555
C17 C13 1_555 1_555
C18 C13 1_555 1_555
H19 C18 1_555 1_555
H20 C18 1_555 1_555
H21 C18 1_555 1_555
C19 C10 1_555 1_555
H22 C19 1_555 1_555
H23 C19 1_555 1_555
H24 C19 1_555 1_555
O4 C22 1_555 1_555
O5 H25 1_555 1_555
O6 C36 1_555 1_555
C20 H26 1_555 1_555
C21 C20 1_555 1_555
H27 C21 1_555 1_555
C22 C21 1_555 1_555
C23 C22 1_555 1_555
H28 C23 1_555 1_555
C24 C23 1_555 1_555
C25 C24 1_555 1_555
H29 C25 1_555 1_555
H30 C25 1_555 1_555
C26 C25 1_555 1_555
H31 C26 1_555 1_555
H32 C26 1_555 1_555
C27 C26 1_555 1_555
H33 C27 1_555 1_555
C28 C27 1_555 1_555
H34 C28 1_555 1_555
C29 C20 1_555 1_555
C30 C28 1_555 1_555
H35 C30 1_555 1_555
H36 C30 1_555 1_555
C31 C30 1_555 1_555
H37 C31 1_555 1_555
H38 C31 1_555 1_555
C32 C31 1_555 1_555
C33 C27 1_555 1_555
H39 C33 1_555 1_555
C34 O5 1_555 1_555
H40 C34 1_555 1_555
C35 C34 1_555 1_555
H41 C35 1_555 1_555
H42 C35 1_555 1_555
C36 C32 1_555 1_555
C37 C32 1_555 1_555
H43 C37 1_555 1_555
H44 C37 1_555 1_555
H45 C37 1_555 1_555
C38 C29 1_555 1_555
H46 C38 1_555 1_555
H47 C38 1_555 1_555
H48 C38 1_555 1_555
C5 C10 1_555 1_555
C9 C10 1_555 1_555
C13 C14 1_555 1_555
C14 C15 1_555 1_555
C16 C17 1_555 1_555
C24 C29 1_555 1_555
C28 C29 1_555 1_555
C32 C33 1_555 1_555
C33 C34 1_555 1_555
C35 C36 1_555 1_555

#END
