
#######################################################################
#
#                 Cambridge Crystallographic Data Centre
#                                CCDC 
#
#######################################################################
#
# If this CIF has been generated from an entry in the Cambridge 
# Structural Database, then it will include bibliographic, chemical, 
# crystal, experimental, refinement or atomic coordinate data resulting 
# from the CCDC's data processing and validation procedures.
#
#######################################################################

data_SIBYOT
_chemical_formula_moiety         'C34 H32 N2'
_chemical_name_systematic        
N,N'-Tetracyclo[6.6.2.0^2,7^.0^9,14^]hexadeca-2,4,6,9,11,13-hexaene-15,16-diylidenebis(2,4,6-trimethylaniline)
_symmetry_cell_setting           orthorhombic
_symmetry_space_group_name_H-M   'P 21 21 21'
_symmetry_Int_Tables_number      19
_space_group_name_Hall           'P 2ac 2ab'
loop_
_symmetry_equiv_pos_site_id
_symmetry_equiv_pos_as_xyz
1 x,y,z
2 1/2-x,-y,1/2+z
3 -x,1/2+y,1/2-z
4 1/2+x,1/2-y,-z
_cell_length_a                   8.7514(15)
_cell_length_b                   13.562(2)
_cell_length_c                   22.650(4)
_cell_angle_alpha                90
_cell_angle_beta                 90
_cell_angle_gamma                90
_cell_volume                     2688.25
_exptl_crystal_colour            yellow
_exptl_crystal_description       block
_cell_formula_units_Z            4
loop_
_atom_site_label
_atom_site_type_symbol
_atom_site_fract_x
_atom_site_fract_y
_atom_site_fract_z
N1 N 0.92289(18) 0.02077(11) 0.17617(6)
N2 N 1.16128(18) 0.02422(11) 0.08173(7)
C1 C 0.8183(2) 0.32071(14) 0.10505(10)
H1 H 0.7308 0.3223 0.1283
C2 C 0.8255(3) 0.37467(16) 0.05289(11)
H2 H 0.7427 0.4132 0.0415
C3 C 0.9526(3) 0.37165(16) 0.01845(10)
H3 H 0.9563 0.4089 -0.0160
C4 C 1.0754(3) 0.31438(16) 0.03376(8)
H4 H 1.1607 0.3114 0.0093
C5 C 1.0715(2) 0.26108(13) 0.08585(8)
C6 C 0.9425(2) 0.26473(12) 0.12184(8)
C7 C 0.9577(2) 0.20458(13) 0.17762(8)
H5 H 0.8680 0.2105 0.2033
C8 C 1.1039(2) 0.23481(13) 0.20829(8)
C9 C 1.2310(2) 0.23003(14) 0.17202(10)
C10 C 1.1953(2) 0.19490(13) 0.11014(9)
H6 H 1.2862 0.1938 0.0849
C11 C 1.1172(4) 0.26474(16) 0.26651(10)
H7 H 1.0316 0.2671 0.2908
C12 C 1.2580(5) 0.2908(2) 0.28774(14)
H8 H 1.2681 0.3113 0.3267
C13 C 1.3837(5) 0.2870(2) 0.25209(18)
H9 H 1.4785 0.3047 0.2673
C14 C 1.3728(3) 0.25715(18) 0.19347(15)
H10 H 1.4587 0.2555 0.1693
C15 C 0.9870(2) 0.09773(12) 0.15792(7)
C16 C 1.1187(2) 0.09411(13) 0.11432(7)
C17 C 0.8051(2) 0.02938(13) 0.21979(7)
C18 C 0.8430(2) 0.01979(13) 0.27927(8)
C19 C 0.7264(3) 0.02494(16) 0.32048(8)
H11 H 0.7504 0.0188 0.3603
C20 C 0.5752(3) 0.03889(18) 0.30438(9)
C21 C 0.5415(2) 0.04547(16) 0.24516(9)
H12 H 0.4401 0.0533 0.2337
C22 C 0.6539(2) 0.04087(14) 0.20187(8)
C23 C 1.0817(2) -0.06701(13) 0.07608(7)
C24 C 1.1410(2) -0.15164(14) 0.10196(8)
C25 C 1.0723(3) -0.24147(15) 0.08973(9)
H13 H 1.1121 -0.2983 0.1069
C26 C 0.9470(3) -0.24956(17) 0.05299(9)
C27 C 0.8915(3) -0.16430(17) 0.02795(9)
H14 H 0.8073 -0.1684 0.0030
C28 C 0.9561(2) -0.07245(15) 0.03832(8)
C29 C 1.0056(3) 0.00397(17) 0.29788(10)
H15 H 1.0627 0.0636 0.2919
H16 H 1.0497 -0.0481 0.2748
H17 H 1.0085 -0.0137 0.3389
C30 C 0.4496(3) 0.0463(3) 0.35004(12)
H18 H 0.3556 0.0643 0.3310
H19 H 0.4761 0.0956 0.3787
H20 H 0.4374 -0.0162 0.3694
C31 C 0.6141(3) 0.04795(19) 0.13753(9)
H21 H 0.5050 0.0474 0.1330
H22 H 0.6573 -0.0071 0.1168
H23 H 0.6545 0.1082 0.1216
C32 C 1.2757(3) -0.1462(2) 0.14267(12)
H24 H 1.3598 -0.1156 0.1226
H25 H 1.3042 -0.2115 0.1547
H26 H 1.2492 -0.1079 0.1768
C33 C 0.8758(5) -0.3494(2) 0.04083(15)
H27 H 0.7668 -0.3426 0.0381
H28 H 0.9006 -0.3939 0.0724
H29 H 0.9149 -0.3750 0.0043
C34 C 0.8928(3) 0.01844(18) 0.00940(10)
H30 H 0.8088 0.0006 -0.0157
H31 H 0.9712 0.0493 -0.0138
H32 H 0.8581 0.0635 0.0392
loop_
_geom_bond_atom_site_label_1
_geom_bond_atom_site_label_2
_geom_bond_site_symmetry_1
_geom_bond_site_symmetry_2
N1 C15 1_555 1_555
N2 C16 1_555 1_555
C1 H1 1_555 1_555
C2 C1 1_555 1_555
H2 C2 1_555 1_555
C3 C2 1_555 1_555
H3 C3 1_555 1_555
C4 C3 1_555 1_555
H4 C4 1_555 1_555
C5 C4 1_555 1_555
C6 C1 1_555 1_555
C7 C6 1_555 1_555
H5 C7 1_555 1_555
C8 C7 1_555 1_555
C9 C8 1_555 1_555
C10 C5 1_555 1_555
H6 C10 1_555 1_555
C11 C8 1_555 1_555
H7 C11 1_555 1_555
C12 C11 1_555 1_555
H8 C12 1_555 1_555
C13 C12 1_555 1_555
H9 C13 1_555 1_555
C14 C9 1_555 1_555
H10 C14 1_555 1_555
C15 C7 1_555 1_555
C16 C10 1_555 1_555
C17 N1 1_555 1_555
C18 C17 1_555 1_555
C19 C18 1_555 1_555
H11 C19 1_555 1_555
C20 C19 1_555 1_555
C21 C20 1_555 1_555
H12 C21 1_555 1_555
C22 C17 1_555 1_555
C23 N2 1_555 1_555
C24 C23 1_555 1_555
C25 C24 1_555 1_555
H13 C25 1_555 1_555
C26 C25 1_555 1_555
C27 C26 1_555 1_555
H14 C27 1_555 1_555
C28 C23 1_555 1_555
C29 C18 1_555 1_555
H15 C29 1_555 1_555
H16 C29 1_555 1_555
H17 C29 1_555 1_555
C30 C20 1_555 1_555
H18 C30 1_555 1_555
H19 C30 1_555 1_555
H20 C30 1_555 1_555
C31 C22 1_555 1_555
H21 C31 1_555 1_555
H22 C31 1_555 1_555
H23 C31 1_555 1_555
C32 C24 1_555 1_555
H24 C32 1_555 1_555
H25 C32 1_555 1_555
H26 C32 1_555 1_555
C33 C26 1_555 1_555
H27 C33 1_555 1_555
H28 C33 1_555 1_555
H29 C33 1_555 1_555
C34 C28 1_555 1_555
H30 C34 1_555 1_555
H31 C34 1_555 1_555
H32 C34 1_555 1_555
C5 C6 1_555 1_555
C9 C10 1_555 1_555
C13 C14 1_555 1_555
C15 C16 1_555 1_555
C21 C22 1_555 1_555
C27 C28 1_555 1_555

#END
