
#######################################################################
#
#                 Cambridge Crystallographic Data Centre
#                                CCDC 
#
#######################################################################
#
# If this CIF has been generated from an entry in the Cambridge 
# Structural Database, then it will include bibliographic, chemical, 
# crystal, experimental, refinement or atomic coordinate data resulting 
# from the CCDC's data processing and validation procedures.
#
#######################################################################

data_SOHPUB
_chemical_formula_moiety         'C17 H18 O3'
_chemical_name_systematic        
3-(1-Phenylethoxy)-4-oxatricyclo(4.3.1.0^3,7^)dec-8-en-2-one
_symmetry_cell_setting           orthorhombic
_symmetry_space_group_name_H-M   'P 21 21 21'
_symmetry_Int_Tables_number      19
_space_group_name_Hall           'P 2ac 2ab'
loop_
_symmetry_equiv_pos_site_id
_symmetry_equiv_pos_as_xyz
1 x,y,z
2 1/2-x,-y,1/2+z
3 -x,1/2+y,1/2-z
4 1/2+x,1/2-y,-z
_cell_length_a                   8.4560(10)
_cell_length_b                   11.260(2)
_cell_length_c                   14.800(2)
_cell_angle_alpha                90
_cell_angle_beta                 90
_cell_angle_gamma                90
_cell_volume                     1409.18
_exptl_crystal_colour            white
_exptl_crystal_description       Chunk
_cell_formula_units_Z            4
loop_
_atom_site_label
_atom_site_type_symbol
_atom_site_fract_x
_atom_site_fract_y
_atom_site_fract_z
O1 O 0.7578(7) 0.7606(2) 0.10231(16)
O2 O 0.5890(7) 0.7434(2) 0.22559(17)
O3 O 0.9357(10) 0.7951(3) 0.2538(2)
C1 C 0.6995(10) 0.5846(3) 0.0189(2)
C2 C 0.7901(12) 0.5224(3) 0.0792(3)
C3 C 0.8356(13) 0.4056(4) 0.0636(3)
C4 C 0.7846(12) 0.3494(4) -0.0128(4)
C5 C 0.6944(15) 0.4091(5) -0.0728(4)
C6 C 0.6515(12) 0.5257(4) -0.0581(3)
C7 C 0.6494(11) 0.7125(4) 0.0357(2)
C8 C 0.6594(13) 0.7893(4) -0.0483(3)
C9 C 0.6882(10) 0.8211(3) 0.1743(2)
C10 C 0.5858(11) 0.9309(3) 0.1544(3)
C11 C 0.6893(14) 1.0344(4) 0.1350(4)
C12 C 0.7928(14) 1.0601(4) 0.1959(5)
C13 C 0.7942(16) 0.9804(5) 0.2776(4)
C14 C 0.8244(14) 0.8567(4) 0.2376(3)
C15 C 0.5018(13) 0.9403(3) 0.2482(3)
C16 C 0.4574(13) 0.8113(4) 0.2615(3)
C17 C 0.6243(16) 0.9815(5) 0.3176(4)
H1 H 0.8266 0.5704 0.1330
H2 H 0.8977 0.3615 0.1099
H3 H 0.8054 0.2654 -0.0266
H4 H 0.6558 0.3675 -0.1228
H5 H 0.5737 0.5541 -0.0940
H6 H 0.5476 0.7096 0.0607
H7 H 0.7563 0.7870 -0.0740
H8 H 0.6385 0.8658 -0.0330
H9 H 0.5809 0.7564 -0.0988
H10 H 0.5085 0.9068 0.1061
H11 H 0.6830 1.0854 0.0779
H12 H 0.8638 1.1260 0.1927
H13 H 0.8638 0.9973 0.3196
H14 H 0.4154 0.9945 0.2481
H15 H 0.3588 0.7880 0.2221
H16 H 0.4337 0.7883 0.3244
H17 H 0.6223 0.9343 0.3771
H18 H 0.5983 1.0609 0.3353
loop_
_geom_bond_atom_site_label_1
_geom_bond_atom_site_label_2
_geom_bond_site_symmetry_1
_geom_bond_site_symmetry_2
O1 C7 1_555 1_555
O2 C9 1_555 1_555
O3 C14 1_555 1_555
C1 C2 1_555 1_555
C2 C3 1_555 1_555
C3 C4 1_555 1_555
C4 C5 1_555 1_555
C5 C6 1_555 1_555
C6 C1 1_555 1_555
C7 C1 1_555 1_555
C8 C7 1_555 1_555
C9 O1 1_555 1_555
C10 C9 1_555 1_555
C11 C10 1_555 1_555
C12 C11 1_555 1_555
C13 C12 1_555 1_555
C14 C9 1_555 1_555
C15 C10 1_555 1_555
C16 O2 1_555 1_555
C17 C13 1_555 1_555
H1 C2 1_555 1_555
H2 C3 1_555 1_555
H3 C4 1_555 1_555
H4 C5 1_555 1_555
H5 C6 1_555 1_555
H6 C7 1_555 1_555
H7 C8 1_555 1_555
H8 C8 1_555 1_555
H9 C8 1_555 1_555
H10 C10 1_555 1_555
H11 C11 1_555 1_555
H12 C12 1_555 1_555
H13 C13 1_555 1_555
H14 C15 1_555 1_555
H15 C16 1_555 1_555
H16 C16 1_555 1_555
H17 C17 1_555 1_555
H18 C17 1_555 1_555
C13 C14 1_555 1_555
C15 C16 1_555 1_555
C15 C17 1_555 1_555

#END
