
#######################################################################
#
#                 Cambridge Crystallographic Data Centre
#                                CCDC 
#
#######################################################################
#
# If this CIF has been generated from an entry in the Cambridge 
# Structural Database, then it will include bibliographic, chemical, 
# crystal, experimental, refinement or atomic coordinate data resulting 
# from the CCDC's data processing and validation procedures.
#
#######################################################################

data_UBECAH
_chemical_formula_moiety         'C26 H27 N1 O4 S1'
_chemical_name_systematic        
8-((4-Methylphenyl)sulfonyl)-4,4-diphenyl-1,3-dioxa-8-azaspiro[4.5]decane
_symmetry_cell_setting           monoclinic
_symmetry_space_group_name_H-M   'P 21/c'
_symmetry_Int_Tables_number      14
_space_group_name_Hall           '-P 2ybc'
loop_
_symmetry_equiv_pos_site_id
_symmetry_equiv_pos_as_xyz
1 x,y,z
2 -x,1/2+y,1/2-z
3 -x,-y,-z
4 x,1/2-y,1/2+z
_cell_length_a                   12.6798(4)
_cell_length_b                   9.8360(3)
_cell_length_c                   18.6018(6)
_cell_angle_alpha                90
_cell_angle_beta                 104.554(2)
_cell_angle_gamma                90
_cell_volume                     2245.54
_exptl_crystal_colour            colorless
_exptl_crystal_description       lamellar
_cell_formula_units_Z            4
loop_
_atom_site_label
_atom_site_type_symbol
_atom_site_fract_x
_atom_site_fract_y
_atom_site_fract_z
S1 S 0.38127(4) 0.57751(5) 0.18787(3)
O1 O 0.46845(13) 0.56817(16) 0.25383(8)
O2 O 0.31401(14) 0.46183(14) 0.16250(10)
O3 O 0.20958(10) 1.01758(12) 0.13993(6)
O4 O 0.14685(11) 1.18214(12) 0.20385(7)
N1 N 0.30049(11) 0.69880(15) 0.20229(7)
C1 C 0.43552(15) 0.6336(2) 0.11504(10)
C2 C 0.52457(15) 0.7182(2) 0.12933(10)
H1 H 0.5597 0.7407 0.1780
C3 C 0.56170(16) 0.7696(2) 0.07144(10)
H2 H 0.6222 0.8265 0.0819
C4 C 0.51208(17) 0.7392(2) -0.00145(10)
C5 C 0.42312(18) 0.6539(2) -0.01487(11)
H3 H 0.3885 0.6314 -0.0637
C6 C 0.38413(16) 0.6010(2) 0.04178(11)
H4 H 0.3238 0.5438 0.0313
C7 C 0.5538(2) 0.7975(3) -0.06463(12)
H5 H 0.6277 0.8275 -0.0459
H6 H 0.5091 0.8732 -0.0863
H7 H 0.5510 0.7288 -0.1017
C8 C 0.35536(14) 0.82730(19) 0.23204(10)
H8 H 0.3788 0.8752 0.1932
H9 H 0.4192 0.8076 0.2719
C9 C 0.27726(14) 0.91512(18) 0.26094(9)
H10 H 0.3132 0.9991 0.2807
H11 H 0.2558 0.8681 0.3008
C10 C 0.17588(14) 0.94757(17) 0.19865(8)
C11 C 0.12358(14) 0.81518(18) 0.16702(9)
H12 H 0.0625 0.8345 0.1251
H13 H 0.0955 0.7691 0.2044
C12 C 0.20262(14) 0.72176(19) 0.14196(9)
H14 H 0.1674 0.6354 0.1262
H15 H 0.2232 0.7620 0.0998
C13 C 0.22299(17) 1.1559(2) 0.16094(10)
H16 H 0.2086 1.2139 0.1174
H17 H 0.2967 1.1727 0.1901
C14 C 0.09863(15) 1.05655(16) 0.22065(9)
C15 C 0.10357(14) 1.05629(18) 0.30337(9)
C16 C 0.06823(18) 0.9442(2) 0.33680(11)
H18 H 0.0408 0.8684 0.3083
C17 C 0.0737(2) 0.9450(2) 0.41185(12)
H19 H 0.0507 0.8691 0.4336
C18 C 0.11254(18) 1.0560(3) 0.45471(12)
H20 H 0.1152 1.0563 0.5051
C19 C 0.14727(16) 1.1659(2) 0.42259(11)
H21 H 0.1743 1.2414 0.4514
C20 C 0.14278(14) 1.1665(2) 0.34745(10)
H22 H 0.1667 1.2427 0.3265
C21 C -0.01849(15) 1.05305(17) 0.17094(10)
C22 C -0.03594(18) 1.0691(2) 0.09442(11)
H23 H 0.0237 1.0787 0.0743
C23 C -0.1396(2) 1.0711(2) 0.04774(13)
H24 H -0.1487 1.0792 -0.0033
C24 C -0.2295(2) 1.0612(2) 0.07622(14)
H25 H -0.2993 1.0647 0.0450
C25 C -0.21464(18) 1.0464(2) 0.15083(13)
H26 H -0.2749 1.0399 0.1706
C26 C -0.11046(17) 1.0407(2) 0.19772(11)
H27 H -0.1023 1.0283 0.2484
loop_
_geom_bond_atom_site_label_1
_geom_bond_atom_site_label_2
_geom_bond_site_symmetry_1
_geom_bond_site_symmetry_2
S1 O1 1_555 1_555
O2 S1 1_555 1_555
O3 C10 1_555 1_555
O4 C13 1_555 1_555
N1 S1 1_555 1_555
C1 S1 1_555 1_555
C2 C1 1_555 1_555
H1 C2 1_555 1_555
C3 C2 1_555 1_555
H2 C3 1_555 1_555
C4 C3 1_555 1_555
C5 C4 1_555 1_555
H3 C5 1_555 1_555
C6 C1 1_555 1_555
H4 C6 1_555 1_555
C7 C4 1_555 1_555
H5 C7 1_555 1_555
H6 C7 1_555 1_555
H7 C7 1_555 1_555
C8 N1 1_555 1_555
H8 C8 1_555 1_555
H9 C8 1_555 1_555
C9 C8 1_555 1_555
H10 C9 1_555 1_555
H11 C9 1_555 1_555
C10 C9 1_555 1_555
C11 C10 1_555 1_555
H12 C11 1_555 1_555
H13 C11 1_555 1_555
C12 N1 1_555 1_555
H14 C12 1_555 1_555
H15 C12 1_555 1_555
C13 O3 1_555 1_555
H16 C13 1_555 1_555
H17 C13 1_555 1_555
C14 O4 1_555 1_555
C15 C14 1_555 1_555
C16 C15 1_555 1_555
H18 C16 1_555 1_555
C17 C16 1_555 1_555
H19 C17 1_555 1_555
C18 C17 1_555 1_555
H20 C18 1_555 1_555
C19 C18 1_555 1_555
H21 C19 1_555 1_555
C20 C15 1_555 1_555
H22 C20 1_555 1_555
C21 C14 1_555 1_555
C22 C21 1_555 1_555
H23 C22 1_555 1_555
C23 C22 1_555 1_555
H24 C23 1_555 1_555
C24 C23 1_555 1_555
H25 C24 1_555 1_555
C25 C24 1_555 1_555
H26 C25 1_555 1_555
C26 C21 1_555 1_555
H27 C26 1_555 1_555
C5 C6 1_555 1_555
C10 C14 1_555 1_555
C11 C12 1_555 1_555
C19 C20 1_555 1_555
C25 C26 1_555 1_555

#END
