
#######################################################################
#
#                 Cambridge Crystallographic Data Centre
#                                CCDC 
#
#######################################################################
#
# If this CIF has been generated from an entry in the Cambridge 
# Structural Database, then it will include bibliographic, chemical, 
# crystal, experimental, refinement or atomic coordinate data resulting 
# from the CCDC's data processing and validation procedures.
#
#######################################################################

data_UDEYOU
_chemical_name_common            
(7R)-3,6-anhydro-7-C-azido-2-deoxy-5,7-O-methylidene-L-ido-heptono-1,4-lactone
_chemical_formula_moiety         'C8 H9 N3 O5'
_chemical_name_systematic        
4-azidohexahydro-2H,7H-furo[2',3':4,5]furo[3,2-d][1,3]dioxin-7-one
_symmetry_cell_setting           monoclinic
_symmetry_space_group_name_H-M   'P 21'
_symmetry_Int_Tables_number      4
_space_group_name_Hall           'P 2yb'
loop_
_symmetry_equiv_pos_site_id
_symmetry_equiv_pos_as_xyz
1 x,y,z
2 -x,1/2+y,-z
_cell_length_a                   8.8391(5)
_cell_length_b                   6.2502(3)
_cell_length_c                   9.4203(5)
_cell_angle_alpha                90
_cell_angle_beta                 110.584(6)
_cell_angle_gamma                90
_cell_volume                     487.209
_exptl_crystal_colour            colorless
_exptl_crystal_description       irregular
_cell_formula_units_Z            2
loop_
_atom_site_label
_atom_site_type_symbol
_atom_site_fract_x
_atom_site_fract_y
_atom_site_fract_z
O1 O 0.2389(3) 0.9099(4) 0.7845(3)
O2 O 0.5921(2) 0.5944(3) 0.6799(2)
O3 O 0.3186(2) 0.5711(4) 0.8098(2)
O4 O 0.8367(3) 0.2518(4) 0.7957(2)
O5 O 0.5747(3) 0.1470(3) 0.7653(3)
N1 N 0.9305(3) 0.6040(5) 0.8408(3)
N2 N 0.9171(3) 0.6188(5) 0.7065(3)
N3 N 0.9213(5) 0.6501(9) 0.5912(4)
C1 C 0.2862(3) 0.7610(5) 0.7343(3)
C2 C 0.3181(3) 0.7401(5) 0.5880(3)
H1 H 0.3745 0.8649 0.5705
H2 H 0.2180 0.7222 0.5027
C3 C 0.4227(3) 0.5418(5) 0.6114(3)
H3 H 0.4001 0.4608 0.5172
C4 C 0.3794(3) 0.4149(5) 0.7301(3)
H4 H 0.3019 0.2997 0.6856
C5 C 0.5401(4) 0.3328(4) 0.8358(3)
H5 H 0.5400 0.3042 0.9381
C6 C 0.6534(3) 0.5170(4) 0.8323(3)
H6 H 0.6472 0.6303 0.9019
C7 C 0.8281(3) 0.4433(4) 0.8738(3)
H7 H 0.8713 0.4137 0.9829
C8 C 0.7392(4) 0.0926(5) 0.8263(4)
H8 H 0.7564 -0.0423 0.7833
H9 H 0.7706 0.0741 0.9351
loop_
_geom_bond_atom_site_label_1
_geom_bond_atom_site_label_2
_geom_bond_site_symmetry_1
_geom_bond_site_symmetry_2
O1 C1 1_555 1_555
O2 C3 1_555 1_555
O3 C1 1_555 1_555
O4 C7 1_555 1_555
O5 C5 1_555 1_555
N1 N2 1_555 1_555
N2 N3 1_555 1_555
C1 C2 1_555 1_555
C2 H1 1_555 1_555
H2 C2 1_555 1_555
C3 C2 1_555 1_555
H3 C3 1_555 1_555
C4 O3 1_555 1_555
H4 C4 1_555 1_555
C5 C4 1_555 1_555
H5 C5 1_555 1_555
C6 O2 1_555 1_555
H6 C6 1_555 1_555
C7 N1 1_555 1_555
H7 C7 1_555 1_555
C8 O4 1_555 1_555
H8 C8 1_555 1_555
H9 C8 1_555 1_555
O5 C8 1_555 1_555
C3 C4 1_555 1_555
C5 C6 1_555 1_555
C6 C7 1_555 1_555

#END
