
#######################################################################
#
#                 Cambridge Crystallographic Data Centre
#                                CCDC 
#
#######################################################################
#
# If this CIF has been generated from an entry in the Cambridge 
# Structural Database, then it will include bibliographic, chemical, 
# crystal, experimental, refinement or atomic coordinate data resulting 
# from the CCDC's data processing and validation procedures.
#
#######################################################################

data_VORHAN
_chemical_formula_moiety         'C27 H22 Br1 N1 O4'
_chemical_name_systematic        
'Ethyl 3-benzoyl-2-(4-bromophenyl)-2-cyano-5-oxo-5-phenylpentanoate'
_symmetry_cell_setting           monoclinic
_symmetry_space_group_name_H-M   'P 21'
_symmetry_Int_Tables_number      4
_space_group_name_Hall           'P 2yb'
loop_
_symmetry_equiv_pos_site_id
_symmetry_equiv_pos_as_xyz
1 x,y,z
2 -x,1/2+y,-z
_cell_length_a                   9.525(5)
_cell_length_b                   18.952(5)
_cell_length_c                   13.807(5)
_cell_angle_alpha                90
_cell_angle_beta                 98.439(5)
_cell_angle_gamma                90
_cell_volume                     2465.42
_cell_formula_units_Z            4
loop_
_atom_site_label
_atom_site_type_symbol
_atom_site_fract_x
_atom_site_fract_y
_atom_site_fract_z
Br1 Br 0.73347(12) 0.81136(11) 0.85878(7)
O1 O 0.1848(7) 0.8352(3) 0.4025(4)
O2 O 0.1867(8) 0.6275(4) 0.6357(4)
C1 C 0.0011(13) 0.5758(5) 0.3300(5)
C2 C 0.5155(11) 0.6498(5) 0.5430(7)
H1 H 0.4791 0.6576 0.4776
C3 C 0.1858(8) 0.7811(4) 0.5622(5)
C4 C 0.2120(8) 0.7093(4) 0.5113(5)
H2 H 0.2855 0.7169 0.4696
C5 C 0.0539(12) 0.7770(5) 0.6085(6)
C6 C 0.0773(9) 0.6812(4) 0.4461(5)
H3 H 0.0068 0.6679 0.4868
H4 H 0.0372 0.7179 0.4015
C7 C -0.1360(12) 0.5983(6) 0.3123(6)
H5 H -0.1600 0.6422 0.3352
C8 C 0.3110(9) 0.7948(4) 0.7380(5)
H6 H 0.2252 0.7878 0.7611
C9 C 0.4428(9) 0.8150(5) 0.6077(5)
H7 H 0.4451 0.8211 0.5411
C10 C 0.4369(11) 0.8003(5) 0.8039(5)
H8 H 0.4347 0.7973 0.8709
C11 C 0.6611(12) 0.6437(6) 0.5702(8)
H9 H 0.7215 0.6469 0.5232
C12 C 0.3144(8) 0.7999(4) 0.6395(4)
C13 C 0.0364(13) 0.5107(6) 0.2943(6)
H10 H 0.1304 0.4956 0.3052
C14 C 0.6273(15) 0.6257(6) 0.7352(8)
H11 H 0.6649 0.6175 0.8003
C15 C -0.066(2) 0.4680(8) 0.2430(8)
H12 H -0.0410 0.4242 0.2202
C16 C 0.5615(10) 0.8099(5) 0.7703(5)
C17 C 0.5656(9) 0.8209(5) 0.6717(5)
H13 H 0.6504 0.8321 0.6495
C18 C 0.4228(11) 0.6445(4) 0.6123(6)
C19 C -0.2404(14) 0.5563(8) 0.2602(8)
H14 H -0.3341 0.5717 0.2482
C20 C 0.1635(10) 0.8398(4) 0.4833(6)
C21 C 0.7163(15) 0.6327(7) 0.6673(11)
H15 H 0.8140 0.6301 0.6861
O3 O 0.1340(11) 0.9014(3) 0.5242(5)
C22 C 0.2686(10) 0.6570(4) 0.5904(5)
N1 N -0.0472(11) 0.7738(6) 0.6417(7)
C23 C 0.4825(12) 0.6304(5) 0.7093(6)
H16 H 0.4235 0.6243 0.7566
C24 C -0.203(2) 0.4904(8) 0.2260(9)
H17 H -0.2720 0.4618 0.1914
O4 O 0.2383(10) 0.6003(4) 0.3914(6)
C25 C 0.1152(13) 0.6184(5) 0.3890(6)
C26 C 0.1551(13) 0.9667(4) 0.4732(8)
H18 H 0.2133 0.9600 0.4219
H19 H 0.1961 1.0034 0.5177
C27 C 0.0080(15) 0.9815(10) 0.4338(10)
H20 H 0.0028 1.0246 0.3970
H21 H -0.0466 0.9861 0.4867
H22 H -0.0294 0.9434 0.3919
Br2 Br -0.09581(14) 0.47218(10) -0.17403(7)
O5 O 0.0146(7) 0.7335(4) 0.2213(4)
O6 O 0.5009(8) 0.7106(4) 0.2759(4)
C28 C 0.4532(9) 0.7702(5) 0.2694(5)
O7 O 0.4314(7) 0.7396(3) 0.0328(4)
C29 C 0.1186(8) 0.7347(4) 0.0721(5)
C30 C 0.2646(9) 0.7203(4) 0.1399(5)
H23 H 0.2505 0.6824 0.1858
C31 C 0.0410(10) 0.6044(6) -0.1410(6)
H24 H 0.0555 0.6007 -0.2060
C32 C 0.4666(9) 0.8961(5) 0.3276(6)
H25 H 0.3854 0.9063 0.2837
C33 C 0.3747(9) 0.6959(5) 0.0766(5)
C34 C 0.0672(9) 0.6699(5) 0.0098(5)
C35 C 0.0871(10) 0.6631(5) -0.0867(6)
H26 H 0.1327 0.6990 -0.1158
C36 C 0.3178(9) 0.7853(4) 0.1984(5)
H27 H 0.2447 0.8018 0.2350
H28 H 0.3363 0.8225 0.1538
C37 C 0.7062(10) 0.8682(6) 0.4535(7)
H29 H 0.7892 0.8588 0.4961
C38 C 0.5203(8) 0.8287(4) 0.3308(5)
C39 C 0.1347(9) 0.7964(5) 0.0081(5)
C40 C 0.6516(12) 0.9334(7) 0.4498(8)
H30 H 0.6969 0.9686 0.4897
C41 C 0.0056(9) 0.7530(5) 0.1383(6)
O8 O -0.0990(7) 0.7892(5) 0.0910(5)
C42 C 0.4094(10) 0.6193(5) 0.0679(7)
C43 C 0.0005(11) 0.6148(5) 0.0506(6)
H31 H -0.0150 0.6179 0.1154
C44 C -0.0258(10) 0.5522(5) -0.0987(6)
C45 C 0.5284(11) 0.9490(5) 0.3870(8)
H32 H 0.4889 0.9940 0.3851
C46 C 0.6417(8) 0.8147(5) 0.3956(5)
H33 H 0.6798 0.7694 0.4001
C47 C 0.5267(19) 0.5297(9) -0.0138(11)
H34 H 0.5815 0.5164 -0.0613
C48 C -0.0430(12) 0.5559(6) -0.0023(7)
H35 H -0.0841 0.5186 0.0270
C49 C 0.4915(15) 0.6005(7) -0.0020(8)
H36 H 0.5236 0.6349 -0.0415
C50 C 0.3652(13) 0.5679(6) 0.1267(9)
H37 H 0.3102 0.5801 0.1746
C51 C 0.4012(18) 0.4988(9) 0.1156(14)
H38 H 0.3717 0.4645 0.1564
C52 C 0.479(2) 0.4801(9) 0.0462(14)
H39 H 0.5007 0.4328 0.0385
C53 C -0.265(2) 0.8715(8) 0.1377(13)
H40 H -0.3460 0.8772 0.1707
H41 H -0.2883 0.8861 0.0707
H42 H -0.1880 0.9000 0.1695
C54 C -0.2219(12) 0.7979(8) 0.1412(10)
H43 H -0.2995 0.7689 0.1100
H44 H -0.1985 0.7829 0.2088
N2 N 0.1488(9) 0.8424(4) -0.0414(6)
loop_
_geom_bond_atom_site_label_1
_geom_bond_atom_site_label_2
_geom_bond_site_symmetry_1
_geom_bond_site_symmetry_2
Br1 C16 1_555 1_555
O1 C20 1_555 1_555
O2 C22 1_555 1_555
C1 C7 1_555 1_555
C2 H1 1_555 1_555
C3 C4 1_555 1_555
C4 H2 1_555 1_555
C5 C3 1_555 1_555
C6 C4 1_555 1_555
H3 C6 1_555 1_555
H4 C6 1_555 1_555
C7 H5 1_555 1_555
C8 H6 1_555 1_555
C9 H7 1_555 1_555
C10 C8 1_555 1_555
H8 C10 1_555 1_555
C11 C2 1_555 1_555
H9 C11 1_555 1_555
C12 C3 1_555 1_555
C13 C1 1_555 1_555
H10 C13 1_555 1_555
C14 H11 1_555 1_555
C15 C13 1_555 1_555
H12 C15 1_555 1_555
C16 C10 1_555 1_555
C17 C9 1_555 1_555
H13 C17 1_555 1_555
C18 C2 1_555 1_555
C19 C7 1_555 1_555
H14 C19 1_555 1_555
C20 C3 1_555 1_555
C21 C11 1_555 1_555
H15 C21 1_555 1_555
O3 C20 1_555 1_555
C22 C4 1_555 1_555
N1 C5 1_555 1_555
C23 C14 1_555 1_555
H16 C23 1_555 1_555
C24 C15 1_555 1_555
H17 C24 1_555 1_555
O4 C25 1_555 1_555
C25 C1 1_555 1_555
C26 O3 1_555 1_555
H18 C26 1_555 1_555
H19 C26 1_555 1_555
C27 C26 1_555 1_555
H20 C27 1_555 1_555
H21 C27 1_555 1_555
H22 C27 1_555 1_555
Br2 C44 1_555 1_555
O5 C41 1_555 1_555
O6 C28 1_555 1_555
C28 C36 1_555 1_555
O7 C33 1_555 1_555
C29 C30 1_555 1_555
C30 H23 1_555 1_555
C31 H24 1_555 1_555
C32 H25 1_555 1_555
C33 C30 1_555 1_555
C34 C29 1_555 1_555
C35 C31 1_555 1_555
H26 C35 1_555 1_555
C36 C30 1_555 1_555
H27 C36 1_555 1_555
H28 C36 1_555 1_555
C37 H29 1_555 1_555
C38 C28 1_555 1_555
C39 C29 1_555 1_555
C40 C37 1_555 1_555
H30 C40 1_555 1_555
C41 C29 1_555 1_555
O8 C41 1_555 1_555
C42 C33 1_555 1_555
C43 C34 1_555 1_555
H31 C43 1_555 1_555
C44 C31 1_555 1_555
C45 C32 1_555 1_555
H32 C45 1_555 1_555
C46 C37 1_555 1_555
H33 C46 1_555 1_555
C47 H34 1_555 1_555
C48 C43 1_555 1_555
H35 C48 1_555 1_555
C49 C42 1_555 1_555
H36 C49 1_555 1_555
C50 C42 1_555 1_555
H37 C50 1_555 1_555
C51 C50 1_555 1_555
H38 C51 1_555 1_555
C52 C47 1_555 1_555
H39 C52 1_555 1_555
C53 H40 1_555 1_555
H41 C53 1_555 1_555
H42 C53 1_555 1_555
C54 O8 1_555 1_555
H43 C54 1_555 1_555
H44 C54 1_555 1_555
N2 C39 1_555 1_555
C6 C25 1_555 1_555
C8 C12 1_555 1_555
C9 C12 1_555 1_555
C14 C21 1_555 1_555
C16 C17 1_555 1_555
C18 C22 1_555 1_555
C18 C23 1_555 1_555
C19 C24 1_555 1_555
C32 C38 1_555 1_555
C34 C35 1_555 1_555
C38 C46 1_555 1_555
C40 C45 1_555 1_555
C44 C48 1_555 1_555
C47 C49 1_555 1_555
C51 C52 1_555 1_555
C53 C54 1_555 1_555

#END
