
#######################################################################
#
#                 Cambridge Crystallographic Data Centre
#                                CCDC 
#
#######################################################################
#
# If this CIF has been generated from an entry in the Cambridge 
# Structural Database, then it will include bibliographic, chemical, 
# crystal, experimental, refinement or atomic coordinate data resulting 
# from the CCDC's data processing and validation procedures.
#
#######################################################################

data_VUWPEJ
_chemical_compound_source        'Dicranostigma leptopodum (Maxim) Fedde'
_chemical_name_common            Dicranostigmone
_chemical_formula_moiety         'C30 H46 O2'
_chemical_name_systematic        17,30-Epoxyhop-2-en-1-one
_symmetry_cell_setting           orthorhombic
_symmetry_space_group_name_H-M   'P 21 21 21'
_symmetry_Int_Tables_number      19
_space_group_name_Hall           'P 2ac 2ab'
loop_
_symmetry_equiv_pos_site_id
_symmetry_equiv_pos_as_xyz
1 x,y,z
2 1/2-x,-y,1/2+z
3 -x,1/2+y,1/2-z
4 1/2+x,1/2-y,-z
_cell_length_a                   7.5526(8)
_cell_length_b                   11.8145(12)
_cell_length_c                   56.275(6)
_cell_angle_alpha                90
_cell_angle_beta                 90
_cell_angle_gamma                90
_cell_volume                     5021.43
_exptl_crystal_colour            colorless
_exptl_crystal_description       block
_chemical_melting_point          '499-501 K'
_cell_formula_units_Z            8
loop_
_atom_site_label
_atom_site_type_symbol
_atom_site_fract_x
_atom_site_fract_y
_atom_site_fract_z
C1 C -0.0481(6) 0.0777(3) 0.05684(7)
C2 C -0.0054(7) 0.0762(4) 0.03153(7)
H1 H -0.0802 0.0375 0.0212
C3 C 0.1348(8) 0.1274(4) 0.02279(7)
H2 H 0.1507 0.1245 0.0064
C4 C 0.2712(6) 0.1902(4) 0.03703(7)
C5 C 0.2302(5) 0.1773(3) 0.06400(6)
H3 H 0.2744 0.1020 0.0682
C6 C 0.3352(5) 0.2590(3) 0.07962(6)
H4 H 0.4573 0.2613 0.0743
H5 H 0.2862 0.3346 0.0782
C7 C 0.3285(5) 0.2220(3) 0.10542(6)
H6 H 0.3979 0.2743 0.1149
H7 H 0.3825 0.1478 0.1068
C8 C 0.1398(4) 0.2167(3) 0.11554(5)
C9 C 0.0170(4) 0.1491(3) 0.09831(5)
H8 H 0.0556 0.0702 0.0998
C10 C 0.0324(5) 0.1762(3) 0.07125(6)
C11 C -0.1732(4) 0.1500(3) 0.10775(6)
H9 H -0.2153 0.2274 0.1088
H10 H -0.2497 0.1093 0.0969
C12 C -0.1809(5) 0.0947(3) 0.13220(6)
H11 H -0.1500 0.0154 0.1307
H12 H -0.3011 0.0990 0.1382
C13 C -0.0557(4) 0.1508(3) 0.15011(5)
H13 H -0.0921 0.2304 0.1505
C14 C 0.1379(4) 0.1529(3) 0.14056(5)
C15 C 0.2539(4) 0.2160(3) 0.15868(5)
H14 H 0.3767 0.2106 0.1538
H15 H 0.2214 0.2954 0.1586
C16 C 0.2366(4) 0.1700(3) 0.18404(6)
H16 H 0.2831 0.0935 0.1845
H17 H 0.3075 0.2162 0.1946
C17 C 0.0469(4) 0.1690(3) 0.19279(5)
C18 C -0.0825(4) 0.1078(3) 0.17623(6)
C19 C -0.2607(5) 0.1495(3) 0.18577(6)
H18 H -0.3517 0.1426 0.1737
H19 H -0.2961 0.1055 0.1995
C20 C -0.2339(5) 0.2728(3) 0.19253(6)
H20 H -0.3044 0.2918 0.2064
H21 H -0.2683 0.3220 0.1795
C21 C -0.0350(5) 0.2862(3) 0.19800(6)
H22 H 0.0181 0.3444 0.1879
C22 C 0.0143(6) 0.3053(3) 0.22412(6)
H23 H 0.1411 0.3226 0.2247
C23 C 0.4497(7) 0.1350(5) 0.03168(8)
H24 H 0.4782 0.1455 0.0152
H25 H 0.4432 0.0555 0.0351
H26 H 0.5397 0.1692 0.0414
C24 C 0.2807(7) 0.3142(4) 0.02839(7)
H27 H 0.1705 0.3515 0.0317
H28 H 0.3026 0.3156 0.0116
H29 H 0.3749 0.3527 0.0365
C25 C -0.0688(6) 0.2830(3) 0.06363(6)
H30 H -0.1842 0.2828 0.0708
H31 H -0.0804 0.2840 0.0466
H32 H -0.0049 0.3489 0.0687
C26 C 0.0775(5) 0.3415(3) 0.11831(6)
H33 H 0.0820 0.3786 0.1031
H34 H 0.1537 0.3801 0.1293
H35 H -0.0418 0.3428 0.1242
C27 C 0.2143(5) 0.0322(3) 0.13766(6)
H36 H 0.2450 0.0024 0.1530
H37 H 0.3182 0.0351 0.1278
H38 H 0.1273 -0.0157 0.1304
C28 C -0.0722(6) -0.0219(3) 0.17869(7)
H39 H -0.1013 -0.0432 0.1947
H40 H 0.0456 -0.0469 0.1750
H41 H -0.1545 -0.0564 0.1679
C29 C -0.0110(5) 0.1868(3) 0.23402(6)
H42 H 0.0587 0.1765 0.2483
H43 H -0.1346 0.1732 0.2377
C30 C -0.0825(7) 0.3994(4) 0.23703(8)
H44 H -0.0478 0.3997 0.2534
H45 H -0.2078 0.3871 0.2359
H46 H -0.0530 0.4708 0.2299
O1 O -0.1400(5) 0.0043(3) 0.06536(5)
O2 O 0.0474(3) 0.1128(2) 0.21588(4)
C31 C 0.3353(5) 0.6173(3) 0.06152(6)
C32 C 0.3604(5) 0.6186(4) 0.03559(6)
H47 H 0.2628 0.6069 0.0258
C33 C 0.5162(6) 0.6358(3) 0.02576(6)
H48 H 0.5218 0.6375 0.0093
C34 C 0.6849(5) 0.6529(3) 0.03921(6)
C35 C 0.6510(4) 0.6409(3) 0.06641(5)
H49 H 0.6463 0.5591 0.0692
C36 C 0.8042(5) 0.6812(4) 0.08144(6)
H50 H 0.8089 0.7632 0.0812
H51 H 0.9143 0.6527 0.0749
C37 C 0.7833(4) 0.6401(4) 0.10693(6)
H52 H 0.8851 0.6646 0.1161
H53 H 0.7818 0.5580 0.1070
C38 C 0.6150(4) 0.6836(3) 0.11887(5)
C39 C 0.4525(4) 0.6575(3) 0.10278(5)
H54 H 0.4387 0.5751 0.1035
C40 C 0.4719(4) 0.6854(3) 0.07580(5)
C41 C 0.2850(4) 0.7046(3) 0.11426(6)
H55 H 0.2946 0.7863 0.1154
H56 H 0.1839 0.6873 0.1043
C42 C 0.2544(4) 0.6556(3) 0.13898(6)
H57 H 0.1511 0.6913 0.1460
H58 H 0.2302 0.5752 0.1376
C43 C 0.4125(4) 0.6727(3) 0.15542(5)
H59 H 0.4315 0.7548 0.1555
C44 C 0.5850(4) 0.6234(3) 0.14406(5)
C45 C 0.7409(4) 0.6459(3) 0.16093(5)
H60 H 0.8438 0.6053 0.1552
H61 H 0.7686 0.7261 0.1606
C46 C 0.7062(5) 0.6111(3) 0.18649(6)
H62 H 0.6953 0.5294 0.1872
H63 H 0.8073 0.6326 0.1961
C47 C 0.5413(4) 0.6637(3) 0.19696(5)
C48 C 0.3743(4) 0.6421(3) 0.18206(5)
C49 C 0.2476(5) 0.7304(3) 0.19274(6)
H64 H 0.1528 0.7476 0.1817
H65 H 0.1959 0.7024 0.2074
C50 C 0.3589(5) 0.8352(3) 0.19750(6)
H66 H 0.3166 0.8745 0.2115
H67 H 0.3538 0.8867 0.1841
C51 C 0.5492(5) 0.7924(3) 0.20132(5)
H68 H 0.6302 0.8284 0.1900
C52 C 0.6221(5) 0.8011(3) 0.22647(6)
H69 H 0.7494 0.7853 0.2258
C53 C 0.8122(6) 0.5588(4) 0.03128(7)
H70 H 0.8390 0.5680 0.0147
H71 H 0.7576 0.4864 0.0338
H72 H 0.9195 0.5633 0.0404
C54 C 0.7684(7) 0.7663(4) 0.03194(7)
H73 H 0.6919 0.8272 0.0367
H74 H 0.7841 0.7680 0.0150
H75 H 0.8812 0.7746 0.0396
C55 C 0.4377(6) 0.8117(3) 0.07003(6)
H76 H 0.4234 0.8208 0.0532
H77 H 0.5364 0.8562 0.0753
H78 H 0.3322 0.8364 0.0780
C56 C 0.6403(6) 0.8124(3) 0.12252(6)
H79 H 0.6594 0.8482 0.1074
H80 H 0.7410 0.8254 0.1326
H81 H 0.5364 0.8436 0.1298
C57 C 0.5705(6) 0.4932(3) 0.14074(6)
H82 H 0.5669 0.4572 0.1560
H83 H 0.6714 0.4663 0.1320
H84 H 0.4644 0.4757 0.1321
C58 C 0.2967(6) 0.5228(3) 0.18573(7)
H85 H 0.1925 0.5142 0.1761
H86 H 0.2662 0.5128 0.2022
H87 H 0.3829 0.4671 0.1812
C59 C 0.5323(6) 0.7004(3) 0.23822(6)
H88 H 0.6024 0.6732 0.2515
H89 H 0.4159 0.7214 0.2440
C60 C 0.5968(7) 0.9139(3) 0.23931(7)
H90 H 0.4746 0.9360 0.2384
H91 H 0.6690 0.9707 0.2319
H92 H 0.6308 0.9059 0.2557
O3 O 0.2160(3) 0.5621(2) 0.07022(4)
O4 O 0.5185(4) 0.6161(2) 0.22053(4)
loop_
_geom_bond_atom_site_label_1
_geom_bond_atom_site_label_2
_geom_bond_site_symmetry_1
_geom_bond_site_symmetry_2
C1 C2 1_555 1_555
C2 H1 1_555 1_555
C3 C2 1_555 1_555
H2 C3 1_555 1_555
C4 C3 1_555 1_555
C5 C4 1_555 1_555
H3 C5 1_555 1_555
C6 C5 1_555 1_555
H4 C6 1_555 1_555
H5 C6 1_555 1_555
C7 C6 1_555 1_555
H6 C7 1_555 1_555
H7 C7 1_555 1_555
C8 C7 1_555 1_555
C9 C8 1_555 1_555
H8 C9 1_555 1_555
C10 C1 1_555 1_555
C11 C9 1_555 1_555
H9 C11 1_555 1_555
H10 C11 1_555 1_555
C12 C11 1_555 1_555
H11 C12 1_555 1_555
H12 C12 1_555 1_555
C13 C12 1_555 1_555
H13 C13 1_555 1_555
C14 C8 1_555 1_555
C15 C14 1_555 1_555
H14 C15 1_555 1_555
H15 C15 1_555 1_555
C16 C15 1_555 1_555
H16 C16 1_555 1_555
H17 C16 1_555 1_555
C17 C16 1_555 1_555
C18 C13 1_555 1_555
C19 C18 1_555 1_555
H18 C19 1_555 1_555
H19 C19 1_555 1_555
C20 C19 1_555 1_555
H20 C20 1_555 1_555
H21 C20 1_555 1_555
C21 C17 1_555 1_555
H22 C21 1_555 1_555
C22 C21 1_555 1_555
H23 C22 1_555 1_555
C23 C4 1_555 1_555
H24 C23 1_555 1_555
H25 C23 1_555 1_555
H26 C23 1_555 1_555
C24 C4 1_555 1_555
H27 C24 1_555 1_555
H28 C24 1_555 1_555
H29 C24 1_555 1_555
C25 C10 1_555 1_555
H30 C25 1_555 1_555
H31 C25 1_555 1_555
H32 C25 1_555 1_555
C26 C8 1_555 1_555
H33 C26 1_555 1_555
H34 C26 1_555 1_555
H35 C26 1_555 1_555
C27 C14 1_555 1_555
H36 C27 1_555 1_555
H37 C27 1_555 1_555
H38 C27 1_555 1_555
C28 C18 1_555 1_555
H39 C28 1_555 1_555
H40 C28 1_555 1_555
H41 C28 1_555 1_555
C29 C22 1_555 1_555
H42 C29 1_555 1_555
H43 C29 1_555 1_555
C30 C22 1_555 1_555
H44 C30 1_555 1_555
H45 C30 1_555 1_555
H46 C30 1_555 1_555
C31 C32 1_555 1_555
C32 H47 1_555 1_555
C33 C32 1_555 1_555
H48 C33 1_555 1_555
C34 C33 1_555 1_555
C35 C34 1_555 1_555
H49 C35 1_555 1_555
C36 C35 1_555 1_555
H50 C36 1_555 1_555
H51 C36 1_555 1_555
C37 C36 1_555 1_555
H52 C37 1_555 1_555
H53 C37 1_555 1_555
C38 C37 1_555 1_555
C39 C38 1_555 1_555
H54 C39 1_555 1_555
C40 C31 1_555 1_555
C41 C39 1_555 1_555
H55 C41 1_555 1_555
H56 C41 1_555 1_555
C42 C41 1_555 1_555
H57 C42 1_555 1_555
H58 C42 1_555 1_555
C43 C42 1_555 1_555
H59 C43 1_555 1_555
C44 C38 1_555 1_555
C45 C44 1_555 1_555
H60 C45 1_555 1_555
H61 C45 1_555 1_555
C46 C45 1_555 1_555
H62 C46 1_555 1_555
H63 C46 1_555 1_555
C47 C46 1_555 1_555
C48 C43 1_555 1_555
C49 C48 1_555 1_555
H64 C49 1_555 1_555
H65 C49 1_555 1_555
C50 C49 1_555 1_555
H66 C50 1_555 1_555
H67 C50 1_555 1_555
C51 C47 1_555 1_555
H68 C51 1_555 1_555
C52 C51 1_555 1_555
H69 C52 1_555 1_555
C53 C34 1_555 1_555
H70 C53 1_555 1_555
H71 C53 1_555 1_555
H72 C53 1_555 1_555
C54 C34 1_555 1_555
H73 C54 1_555 1_555
H74 C54 1_555 1_555
H75 C54 1_555 1_555
C55 C40 1_555 1_555
H76 C55 1_555 1_555
H77 C55 1_555 1_555
H78 C55 1_555 1_555
C56 C38 1_555 1_555
H79 C56 1_555 1_555
H80 C56 1_555 1_555
H81 C56 1_555 1_555
C57 C44 1_555 1_555
H82 C57 1_555 1_555
H83 C57 1_555 1_555
H84 C57 1_555 1_555
C58 C48 1_555 1_555
H85 C58 1_555 1_555
H86 C58 1_555 1_555
H87 C58 1_555 1_555
C59 C52 1_555 1_555
H88 C59 1_555 1_555
H89 C59 1_555 1_555
C60 C52 1_555 1_555
H90 C60 1_555 1_555
H91 C60 1_555 1_555
H92 C60 1_555 1_555
O1 C1 1_555 1_555
O2 C17 1_555 1_555
O3 C31 1_555 1_555
O4 C47 1_555 1_555
C5 C10 1_555 1_555
C9 C10 1_555 1_555
C13 C14 1_555 1_555
C17 C18 1_555 1_555
C20 C21 1_555 1_555
C29 O2 1_555 1_555
C35 C40 1_555 1_555
C39 C40 1_555 1_555
C43 C44 1_555 1_555
C47 C48 1_555 1_555
C50 C51 1_555 1_555
C59 O4 1_555 1_555

#END
