
#######################################################################
#
#                 Cambridge Crystallographic Data Centre
#                                CCDC 
#
#######################################################################
#
# If this CIF has been generated from an entry in the Cambridge 
# Structural Database, then it will include bibliographic, chemical, 
# crystal, experimental, refinement or atomic coordinate data resulting 
# from the CCDC's data processing and validation procedures.
#
#######################################################################

data_WOHJEK
_chemical_name_common            
'2-((6-bromo-2-naphthyl)methyl)-3-(difluoro(phenylsulfonyl)methyl)-3-phenyl-2,3-dihydro-1,2-benzothiazole 1-oxide'
_chemical_formula_moiety         'C31 H22 Br1 F2 N1 O3 S2'
_chemical_name_systematic        
'(1S,3R)-2-[(6-Bromonaphthalen-2-yl)methyl]-3-[difluoro(phenylsulfonyl)methyl]-3-phenyl-2,3-dihydrobenzo[d]isothiazole 1-oxide'
_symmetry_cell_setting           orthorhombic
_symmetry_space_group_name_H-M   'P 21 21 21'
_symmetry_Int_Tables_number      19
_space_group_name_Hall           'P 2ac 2ab'
loop_
_symmetry_equiv_pos_site_id
_symmetry_equiv_pos_as_xyz
1 x,y,z
2 1/2-x,-y,1/2+z
3 -x,1/2+y,1/2-z
4 1/2+x,1/2-y,-z
_cell_length_a                   8.5124(11)
_cell_length_b                   14.4301(19)
_cell_length_c                   22.503(3)
_cell_angle_alpha                90
_cell_angle_beta                 90
_cell_angle_gamma                90
_cell_volume                     2764.15
_exptl_crystal_colour            colorless
_exptl_crystal_description       prismatic
_cell_formula_units_Z            4
loop_
_atom_site_label
_atom_site_type_symbol
_atom_site_fract_x
_atom_site_fract_y
_atom_site_fract_z
Br1 Br 0.82211(9) 0.98640(4) 0.06296(3)
S1 S 0.0587(2) 0.60291(10) 0.19735(7)
S2 S 0.3535(2) 0.38599(11) 0.19433(8)
F1 F 0.2658(4) 0.3770(2) 0.08544(15)
F2 F 0.1434(4) 0.2800(2) 0.14264(16)
O1 O -0.0776(5) 0.6607(2) 0.17906(17)
O2 O 0.4567(5) 0.4544(2) 0.1709(2)
O3 O 0.2803(5) 0.3991(3) 0.25121(19)
N1 N 0.1155(5) 0.5303(3) 0.14198(19)
C1 C 0.1913(7) 0.3713(4) 0.1389(3)
C2 C 0.0489(7) 0.4358(4) 0.1424(3)
C3 C -0.0297(7) 0.4276(4) 0.2030(3)
C4 C -0.0223(6) 0.5087(4) 0.2350(3)
C5 C -0.0899(7) 0.5139(5) 0.2913(3)
H1 H -0.0856 0.5690 0.3128
C6 C -0.1624(10) 0.4381(5) 0.3148(3)
H2 H -0.2046 0.4411 0.3529
C7 C -0.1738(9) 0.3558(5) 0.2824(3)
H3 H -0.2283 0.3054 0.2979
C8 C -0.1024(7) 0.3497(4) 0.2261(3)
H4 H -0.1040 0.2945 0.2049
C9 C -0.0710(7) 0.4171(4) 0.0913(3)
C10 C -0.2063(7) 0.4705(4) 0.0913(3)
H5 H -0.2215 0.5138 0.1213
C11 C -0.3182(8) 0.4607(4) 0.0479(3)
H6 H -0.4073 0.4979 0.0483
C12 C -0.2982(9) 0.3957(5) 0.0041(3)
H7 H -0.3753 0.3877 -0.0247
C13 C -0.1658(10) 0.3429(5) 0.0029(3)
H8 H -0.1507 0.3005 -0.0278
C14 C -0.0530(8) 0.3521(4) 0.0472(3)
H9 H 0.0351 0.3139 0.0471
C15 C 0.1238(7) 0.5788(4) 0.0841(2)
H10 H 0.0188 0.5983 0.0730
H11 H 0.1603 0.5355 0.0542
C16 C 0.2305(8) 0.6627(4) 0.0838(3)
C17 C 0.3798(8) 0.6578(4) 0.1031(3)
H12 H 0.4180 0.6041 0.1208
C18 C 0.4815(8) 0.7400(4) 0.0955(3)
C19 C 0.6331(9) 0.7342(5) 0.1137(3)
H13 H 0.6702 0.6810 0.1323
C20 C 0.7336(9) 0.8105(5) 0.1038(3)
H14 H 0.8387 0.8070 0.1148
C21 C 0.6759(8) 0.8901(4) 0.0779(2)
C22 C 0.5221(8) 0.8991(4) 0.0614(3)
H15 H 0.4843 0.9543 0.0454
C23 C 0.4187(8) 0.8187(4) 0.0697(3)
C24 C 0.2645(8) 0.8220(5) 0.0501(3)
H16 H 0.2240 0.8754 0.0327
C25 C 0.1731(9) 0.7444(4) 0.0571(3)
H17 H 0.0697 0.7457 0.0438
C26 C 0.4436(7) 0.2783(4) 0.1918(3)
C27 C 0.5579(8) 0.2629(4) 0.1509(3)
H18 H 0.5875 0.3096 0.1247
C28 C 0.6309(8) 0.1758(5) 0.1485(3)
H19 H 0.7089 0.1642 0.1206
C29 C 0.5863(9) 0.1075(5) 0.1880(4)
H20 H 0.6350 0.0499 0.1869
C30 C 0.4711(9) 0.1247(5) 0.2284(4)
H21 H 0.4415 0.0785 0.2549
C31 C 0.3988(8) 0.2085(5) 0.2304(3)
H22 H 0.3189 0.2190 0.2577
loop_
_geom_bond_atom_site_label_1
_geom_bond_atom_site_label_2
_geom_bond_site_symmetry_1
_geom_bond_site_symmetry_2
Br1 C21 1_555 1_555
S1 O1 1_555 1_555
S2 O2 1_555 1_555
F1 C1 1_555 1_555
F2 C1 1_555 1_555
O3 S2 1_555 1_555
N1 S1 1_555 1_555
C1 S2 1_555 1_555
C2 N1 1_555 1_555
C3 C2 1_555 1_555
C4 S1 1_555 1_555
C5 C4 1_555 1_555
H1 C5 1_555 1_555
C6 C5 1_555 1_555
H2 C6 1_555 1_555
C7 C6 1_555 1_555
H3 C7 1_555 1_555
C8 C3 1_555 1_555
H4 C8 1_555 1_555
C9 C2 1_555 1_555
C10 C9 1_555 1_555
H5 C10 1_555 1_555
C11 C10 1_555 1_555
H6 C11 1_555 1_555
C12 C11 1_555 1_555
H7 C12 1_555 1_555
C13 C12 1_555 1_555
H8 C13 1_555 1_555
C14 C9 1_555 1_555
H9 C14 1_555 1_555
C15 N1 1_555 1_555
H10 C15 1_555 1_555
H11 C15 1_555 1_555
C16 C15 1_555 1_555
C17 C16 1_555 1_555
H12 C17 1_555 1_555
C18 C17 1_555 1_555
C19 C18 1_555 1_555
H13 C19 1_555 1_555
C20 C19 1_555 1_555
H14 C20 1_555 1_555
C21 C20 1_555 1_555
C22 C21 1_555 1_555
H15 C22 1_555 1_555
C23 C18 1_555 1_555
C24 C23 1_555 1_555
H16 C24 1_555 1_555
C25 C16 1_555 1_555
H17 C25 1_555 1_555
C26 S2 1_555 1_555
C27 C26 1_555 1_555
H18 C27 1_555 1_555
C28 C27 1_555 1_555
H19 C28 1_555 1_555
C29 C28 1_555 1_555
H20 C29 1_555 1_555
C30 C29 1_555 1_555
H21 C30 1_555 1_555
C31 C26 1_555 1_555
H22 C31 1_555 1_555
C1 C2 1_555 1_555
C3 C4 1_555 1_555
C7 C8 1_555 1_555
C13 C14 1_555 1_555
C22 C23 1_555 1_555
C24 C25 1_555 1_555
C30 C31 1_555 1_555

#END
