
#######################################################################
#
#                 Cambridge Crystallographic Data Centre
#                                CCDC 
#
#######################################################################
#
# If this CIF has been generated from an entry in the Cambridge 
# Structural Database, then it will include bibliographic, chemical, 
# crystal, experimental, refinement or atomic coordinate data resulting 
# from the CCDC's data processing and validation procedures.
#
#######################################################################

data_XERTEW
_chemical_formula_moiety         'C22 H21 N1 O2'
_chemical_name_systematic        
N-methoxy-N-methyl-1-phenyl-2,3-dihydro-1H-phenalene-2-carboxamide
_symmetry_cell_setting           triclinic
_symmetry_space_group_name_H-M   'P -1'
_symmetry_Int_Tables_number      2
_space_group_name_Hall           '-P 1'
loop_
_symmetry_equiv_pos_site_id
_symmetry_equiv_pos_as_xyz
1 x,y,z
2 -x,-y,-z
_cell_length_a                   8.732(2)
_cell_length_b                   9.030(2)
_cell_length_c                   12.650(3)
_cell_angle_alpha                92.176(4)
_cell_angle_beta                 92.276(4)
_cell_angle_gamma                116.306(4)
_cell_volume                     891.73
_exptl_crystal_colour            yellow
_exptl_crystal_description       block
_cell_formula_units_Z            2
loop_
_atom_site_label
_atom_site_type_symbol
_atom_site_fract_x
_atom_site_fract_y
_atom_site_fract_z
O1 O 0.7707(2) 0.6399(2) 0.48455(12)
O2 O 0.7274(2) 0.29564(18) 0.32971(14)
N1 N 0.7763(2) 0.4111(2) 0.41722(14)
C1 C 0.7139(3) 0.7906(2) 0.17078(15)
C2 C 0.8119(3) 0.9207(3) 0.11227(17)
H1 H 0.9238 0.9913 0.1366
C3 C 0.7453(4) 0.9490(3) 0.01569(19)
H2 H 0.8141 1.0377 -0.0227
C4 C 0.5829(4) 0.8491(3) -0.02195(19)
H3 H 0.5411 0.8709 -0.0852
C5 C 0.4769(3) 0.7124(3) 0.03364(17)
C6 C 0.5430(3) 0.6809(3) 0.13127(16)
C7 C 0.4367(3) 0.5406(3) 0.18608(18)
C8 C 0.2745(3) 0.4384(3) 0.1446(2)
H4 H 0.2067 0.3450 0.1796
C9 C 0.2086(4) 0.4715(4) 0.0506(2)
H5 H 0.0971 0.4021 0.0250
C10 C 0.3069(4) 0.6044(4) -0.0032(2)
H6 H 0.2616 0.6250 -0.0656
C11 C 0.7823(2) 0.7636(2) 0.27775(15)
H7 H 0.7457 0.8184 0.3326
C12 C 0.6988(2) 0.5777(2) 0.29695(15)
H8 H 0.7338 0.5192 0.2436
C13 C 0.5041(3) 0.5069(3) 0.28926(19)
H9 H 0.4545 0.3883 0.2961
H10 H 0.4687 0.5550 0.3475
C14 C 0.9754(2) 0.8399(2) 0.28916(15)
C15 C 1.0666(2) 0.7771(2) 0.22905(15)
H11 H 1.0073 0.6869 0.1810
C16 C 1.2426(3) 0.8457(3) 0.23944(18)
H12 H 1.3008 0.8010 0.1994
C17 C 1.3325(3) 0.9810(3) 0.3093(2)
H13 H 1.4514 1.0282 0.3159
C18 C 1.2464(3) 1.0457(3) 0.36904(19)
H14 H 1.3070 1.1368 0.4162
C19 C 1.0693(3) 0.9754(2) 0.35923(16)
H15 H 1.0122 1.0200 0.4004
C20 C 0.7512(3) 0.5473(3) 0.40622(17)
C21 C 0.7738(3) 0.3390(3) 0.5185(2)
H16 H 0.8050 0.4234 0.5748
H17 H 0.8538 0.2927 0.5201
H18 H 0.6608 0.2535 0.5273
C22 C 0.8775(4) 0.2915(4) 0.2904(2)
H19 H 0.9512 0.3978 0.2661
H20 H 0.8446 0.2091 0.2327
H21 H 0.9371 0.2647 0.3461
loop_
_geom_bond_atom_site_label_1
_geom_bond_atom_site_label_2
_geom_bond_site_symmetry_1
_geom_bond_site_symmetry_2
O1 C20 1_555 1_555
O2 N1 1_555 1_555
N1 C20 1_555 1_555
C1 C2 1_555 1_555
C2 H1 1_555 1_555
C3 C2 1_555 1_555
H2 C3 1_555 1_555
C4 C3 1_555 1_555
H3 C4 1_555 1_555
C5 C4 1_555 1_555
C6 C1 1_555 1_555
C7 C6 1_555 1_555
C8 C7 1_555 1_555
H4 C8 1_555 1_555
C9 C8 1_555 1_555
H5 C9 1_555 1_555
C10 C5 1_555 1_555
H6 C10 1_555 1_555
C11 C1 1_555 1_555
H7 C11 1_555 1_555
C12 C11 1_555 1_555
H8 C12 1_555 1_555
C13 C7 1_555 1_555
H9 C13 1_555 1_555
H10 C13 1_555 1_555
C14 C11 1_555 1_555
C15 C14 1_555 1_555
H11 C15 1_555 1_555
C16 C15 1_555 1_555
H12 C16 1_555 1_555
C17 C16 1_555 1_555
H13 C17 1_555 1_555
C18 C17 1_555 1_555
H14 C18 1_555 1_555
C19 C14 1_555 1_555
H15 C19 1_555 1_555
C20 C12 1_555 1_555
C21 N1 1_555 1_555
H16 C21 1_555 1_555
H17 C21 1_555 1_555
H18 C21 1_555 1_555
C22 O2 1_555 1_555
H19 C22 1_555 1_555
H20 C22 1_555 1_555
H21 C22 1_555 1_555
C5 C6 1_555 1_555
C9 C10 1_555 1_555
C12 C13 1_555 1_555
C18 C19 1_555 1_555

#END
