
#######################################################################
#
#                 Cambridge Crystallographic Data Centre
#                                CCDC 
#
#######################################################################
#
# If this CIF has been generated from an entry in the Cambridge 
# Structural Database, then it will include bibliographic, chemical, 
# crystal, experimental, refinement or atomic coordinate data resulting 
# from the CCDC's data processing and validation procedures.
#
#######################################################################

data_XURHAU
_chemical_formula_moiety         'C25 H20 O3'
_chemical_name_systematic        
2-Methoxy-9-(4-methoxynaphthalen-1-yl)-9H-xanthene
_symmetry_cell_setting           monoclinic
_symmetry_space_group_name_H-M   'P 21/n'
_symmetry_Int_Tables_number      14
_space_group_name_Hall           '-P 2yn'
loop_
_symmetry_equiv_pos_site_id
_symmetry_equiv_pos_as_xyz
1 x,y,z
2 1/2-x,1/2+y,1/2-z
3 -x,-y,-z
4 1/2+x,1/2-y,1/2+z
_cell_length_a                   11.6750(19)
_cell_length_b                   7.9242(13)
_cell_length_c                   20.616(4)
_cell_angle_alpha                90
_cell_angle_beta                 98.181(4)
_cell_angle_gamma                90
_cell_volume                     1887.88
_exptl_crystal_colour            colorless
_exptl_crystal_description       prismatic
_cell_formula_units_Z            4
loop_
_atom_site_label
_atom_site_type_symbol
_atom_site_fract_x
_atom_site_fract_y
_atom_site_fract_z
O1 O 0.58776(12) 0.20574(18) 1.05114(6)
O2 O 0.33182(12) 0.3167(2) 0.80976(7)
O3 O 0.94921(11) 0.26251(19) 0.73985(6)
C1 C 0.69316(16) 0.1248(2) 1.05694(10)
C2 C 0.75040(19) 0.1126(3) 1.12038(11)
H1 H 0.7174 0.1569 1.1552
C3 C 0.8558(2) 0.0350(3) 1.13133(12)
H2 H 0.8948 0.0270 1.1738
C4 C 0.90419(17) -0.0309(3) 1.08041(12)
H3 H 0.9754 -0.0854 1.0881
C5 C 0.84682(16) -0.0163(2) 1.01755(11)
H4 H 0.8810 -0.0596 0.9830
C6 C 0.73908(15) 0.0614(2) 1.00427(9)
C7 C 0.67504(14) 0.0702(2) 0.93522(9)
H5 H 0.6506 -0.0455 0.9236
C8 C 0.56441(14) 0.1724(2) 0.93267(9)
C9 C 0.52675(15) 0.2305(2) 0.98922(9)
C10 C 0.42437(16) 0.3185(2) 0.98699(10)
H6 H 0.4010 0.3571 1.0256
C11 C 0.35673(15) 0.3496(2) 0.92809(10)
H7 H 0.2877 0.4089 0.9267
C12 C 0.39178(16) 0.2926(2) 0.87139(10)
C13 C 0.49512(15) 0.2048(2) 0.87369(9)
H8 H 0.5183 0.1669 0.8349
C14 C 0.74942(14) 0.1253(2) 0.88418(9)
C15 C 0.83085(16) 0.0566(3) 0.78502(10)
H9 H 0.8390 -0.0211 0.7522
C16 C 0.76502(16) 0.0168(2) 0.83411(10)
H10 H 0.7298 -0.0887 0.8330
C17 C 0.88329(15) 0.2105(3) 0.78542(9)
C18 C 0.87324(14) 0.3285(2) 0.83603(9)
C19 C 0.80452(14) 0.2844(2) 0.88600(8)
C20 C 0.79836(16) 0.4032(2) 0.93618(10)
H11 H 0.7543 0.3786 0.9692
C21 C 0.85549(19) 0.5536(3) 0.93747(12)
H12 H 0.8508 0.6288 0.9716
C22 C 0.92038(19) 0.5958(3) 0.88862(13)
H13 H 0.9587 0.6989 0.8901
C23 C 0.92809(16) 0.4862(3) 0.83829(11)
H14 H 0.9703 0.5165 0.8051
C24 C 0.22381(19) 0.4021(4) 0.80552(12)
H15 H 0.1725 0.3392 0.8289
H16 H 0.1904 0.4122 0.7604
H17 H 0.2357 0.5125 0.8245
C25 C 0.9618(2) 0.1502(3) 0.68767(11)
H18 H 1.0009 0.0498 0.7050
H19 H 1.0063 0.2038 0.6577
H20 H 0.8868 0.1211 0.6650
loop_
_geom_bond_atom_site_label_1
_geom_bond_atom_site_label_2
_geom_bond_site_symmetry_1
_geom_bond_site_symmetry_2
O1 C1 1_555 1_555
O2 C12 1_555 1_555
O3 C17 1_555 1_555
C1 C2 1_555 1_555
C2 H1 1_555 1_555
C3 C2 1_555 1_555
H2 C3 1_555 1_555
C4 C3 1_555 1_555
H3 C4 1_555 1_555
C5 C4 1_555 1_555
H4 C5 1_555 1_555
C6 C1 1_555 1_555
C7 C6 1_555 1_555
H5 C7 1_555 1_555
C8 C7 1_555 1_555
C9 O1 1_555 1_555
C10 C9 1_555 1_555
H6 C10 1_555 1_555
C11 C10 1_555 1_555
H7 C11 1_555 1_555
C12 C11 1_555 1_555
C13 C8 1_555 1_555
H8 C13 1_555 1_555
C14 C7 1_555 1_555
C15 H9 1_555 1_555
C16 C14 1_555 1_555
H10 C16 1_555 1_555
C17 C15 1_555 1_555
C18 C17 1_555 1_555
C19 C14 1_555 1_555
C20 C19 1_555 1_555
H11 C20 1_555 1_555
C21 C20 1_555 1_555
H12 C21 1_555 1_555
C22 C21 1_555 1_555
H13 C22 1_555 1_555
C23 C18 1_555 1_555
H14 C23 1_555 1_555
C24 O2 1_555 1_555
H15 C24 1_555 1_555
H16 C24 1_555 1_555
H17 C24 1_555 1_555
C25 O3 1_555 1_555
H18 C25 1_555 1_555
H19 C25 1_555 1_555
H20 C25 1_555 1_555
C5 C6 1_555 1_555
C8 C9 1_555 1_555
C12 C13 1_555 1_555
C15 C16 1_555 1_555
C18 C19 1_555 1_555
C22 C23 1_555 1_555

#END
