
#######################################################################
#
#                 Cambridge Crystallographic Data Centre
#                                CCDC 
#
#######################################################################
#
# If this CIF has been generated from an entry in the Cambridge 
# Structural Database, then it will include bibliographic, chemical, 
# crystal, experimental, refinement or atomic coordinate data resulting 
# from the CCDC's data processing and validation procedures.
#
#######################################################################

data_ZULNAV
_chemical_compound_source        
'Cunninghamella elegans and Streptomyces lavendulae'
_chemical_formula_moiety         'C17 H28 O6'
_chemical_name_systematic        1-\a-Hydroxyarteether
_symmetry_cell_setting           triclinic
_symmetry_space_group_name_H-M   'P 1'
_symmetry_Int_Tables_number      1
_space_group_name_Hall           'P 1'
loop_
_symmetry_equiv_pos_site_id
_symmetry_equiv_pos_as_xyz
1 x,y,z
_cell_length_a                   10.734(2)
_cell_length_b                   11.602(2)
_cell_length_c                   15.142(3)
_cell_angle_alpha                90.27(3)
_cell_angle_beta                 109.41(3)
_cell_angle_gamma                98.25(3)
_cell_volume                     1757.37
_chemical_melting_point          '128 deg.C'
_cell_formula_units_Z            4
loop_
_atom_site_label
_atom_site_type_symbol
_atom_site_fract_x
_atom_site_fract_y
_atom_site_fract_z
C1 C 0.3450(5) 0.7545(4) 0.1823(3)
C2 C 0.2800(6) 0.6599(4) 0.1021(3)
C3 C 0.3705(6) 0.6398(4) 0.0487(3)
C4 C 0.5015(6) 0.6075(4) 0.1126(3)
C5 C 0.5873(8) 0.5775(5) 0.0578(4)
C6 C 0.5750(6) 0.7056(3) 0.1896(3)
O1 O 0.5965(4) 0.8063(2) 0.1395(2)
C7 C 0.7074(6) 0.6765(4) 0.2521(3)
C8 C 0.7741(6) 0.7505(4) 0.3442(3)
C9 C 0.6888(5) 0.7430(4) 0.4066(3)
C10 C 0.7671(6) 0.7478(5) 0.5111(3)
O2 O 0.6146(3) 0.8363(2) 0.3962(2)
O3 O 0.5455(3) 0.8476(2) 0.2957(2)
C11 C 0.4831(5) 0.7333(3) 0.2455(3)
C12 C 0.4728(5) 0.6436(4) 0.3181(3)
O4 O 0.5961(3) 0.6344(2) 0.3863(2)
O5 O 0.3884(3) 0.6677(2) 0.3674(2)
C13 C 0.2553(6) 0.6790(4) 0.3080(3)
O6 O 0.1882(4) 0.5738(3) 0.2578(2)
C14 C 0.1654(8) 0.4779(6) 0.3108(4)
C15 C 0.1121(8) 0.3721(5) 0.2492(5)
C16 C 0.2594(5) 0.7745(4) 0.2409(3)
C17 C 0.1181(6) 0.7953(5) 0.1852(4)
C18 C 0.6750(6) 0.2480(4) 0.7626(3)
C19 C 0.7404(6) 0.3438(5) 0.7156(3)
C20 C 0.6507(7) 0.3651(4) 0.6193(3)
C21 C 0.5213(6) 0.3995(4) 0.6214(3)
C22 C 0.4329(8) 0.4287(5) 0.5243(3)
C23 C 0.4461(6) 0.3018(3) 0.6632(3)
O7 O 0.4224(4) 0.2016(2) 0.6014(2)
C24 C 0.3152(6) 0.3340(4) 0.6646(3)
C25 C 0.2486(6) 0.2619(4) 0.7248(3)
C26 C 0.3359(5) 0.2680(4) 0.8288(3)
C27 C 0.2591(6) 0.2658(5) 0.8952(4)
O8 O 0.4061(4) 0.1722(3) 0.8505(2)
O9 O 0.4734(3) 0.1592(2) 0.7811(2)
C28 C 0.5381(5) 0.2716(3) 0.7622(3)
C29 C 0.5522(5) 0.3623(4) 0.8395(3)
O10 O 0.4302(3) 0.3738(3) 0.8516(2)
O11 O 0.6367(3) 0.3356(3) 0.9291(2)
C30 C 0.7696(5) 0.3202(4) 0.9334(3)
O12 O 0.8391(4) 0.4225(3) 0.9161(2)
C31 C 0.8758(8) 0.5137(6) 0.9872(4)
C32 C 0.8915(9) 0.6273(6) 0.9427(5)
C33 C 0.7613(6) 0.2243(4) 0.8621(3)
C34 C 0.9006(7) 0.1998(6) 0.8707(5)
H1 H 0.8930(7) 0.1342(20) 0.8294(19)
H2 H 0.9468(14) 0.1828(30) 0.9341(7)
H3 H 0.9495(14) 0.2670(13) 0.8540(24)
C35 C 0.2725(6) 0.6858(4) 0.6873(3)
C36 C 0.3669(6) 0.6929(5) 0.7883(4)
C37 C 0.5134(6) 0.7138(5) 0.7946(4)
C38 C 0.5449(6) 0.8236(5) 0.7462(3)
C39 C 0.6938(6) 0.8492(6) 0.7598(4)
C40 C 0.4570(5) 0.8131(4) 0.6422(3)
O13 O 0.4875(4) 0.7115(3) 0.6027(2)
C41 C 0.4899(5) 0.9204(4) 0.5921(3)
C42 C 0.3890(6) 0.9368(4) 0.4966(3)
C43 C 0.2480(6) 0.9411(4) 0.4958(3)
C44 C 0.1742(7) 1.0199(5) 0.4241(3)
O14 O 0.1661(4) 0.8326(3) 0.4752(2)
O15 O 0.2362(4) 0.7441(2) 0.5329(2)
C45 C 0.3047(5) 0.7874(3) 0.6303(3)
C46 C 0.2486(5) 0.8958(4) 0.6501(3)
O16 O 0.2549(3) 0.9838(2) 0.5882(2)
O17 O 0.1123(3) 0.8712(3) 0.6441(2)
C47 C 0.0809(6) 0.7822(4) 0.6993(3)
O18 O 0.1401(4) 0.8140(3) 0.7960(2)
C48 C 0.0888(7) 0.9082(5) 0.8253(3)
C49 C 0.1457(9) 0.9255(6) 0.9283(4)
C50 C 0.1224(6) 0.6689(4) 0.6762(3)
C51 C 0.0804(8) 0.5684(5) 0.7312(5)
H4 H 0.2860(6) 0.6157(4) 0.6575(3)
H5 H 0.3492(6) 0.6207(5) 0.8171(4)
H6 H 0.3499(6) 0.7558(5) 0.8230(4)
H7 H 0.5699(6) 0.7216(5) 0.8600(4)
H8 H 0.5329(6) 0.6472(5) 0.7654(4)
H9 H 0.5225(6) 0.8891(5) 0.7761(3)
H10 H 0.7133(8) 0.9234(14) 0.7357(21)
H11 H 0.7170(9) 0.7894(16) 0.7268(19)
H12 H 0.7447(6) 0.8507(28) 0.8254(5)
H13 H 0.4416(53) 0.7011(38) 0.5471(13)
H14 H 0.5754(5) 0.9176(4) 0.5842(3)
H15 H 0.5005(5) 0.9888(4) 0.6325(3)
H16 H 0.4206(6) 1.0087(4) 0.4730(3)
H17 H 0.3860(6) 0.8733(4) 0.4536(3)
H18 H 0.2172(29) 1.0992(7) 0.4406(19)
H19 H 0.0834(14) 1.0133(31) 0.4229(24)
H20 H 0.1750(42) 0.9971(27) 0.3633(6)
H21 H 0.3014(5) 0.9274(4) 0.7138(3)
H22 H -0.0164(6) 0.7689(4) 0.6843(3)
H23 H -0.0079(7) 0.8909(5) 0.8059(3)
H24 H 0.1125(7) 0.9788(5) 0.7966(3)
H25 H 0.1110(35) 0.9885(26) 0.9487(5)
H26 H 0.2413(10) 0.9438(38) 0.9470(4)
H27 H 0.1219(38) 0.8554(15) 0.9563(4)
H28 H 0.0728(6) 0.6482(4) 0.6097(3)
H29 H 0.1093(37) 0.4987(10) 0.7159(23)
H30 H -0.0151(8) 0.5556(24) 0.7148(22)
H31 H 0.1208(34) 0.5881(16) 0.7973(5)
C52 C 0.7067(5) 0.3156(4) 0.3060(3)
C53 C 0.6090(6) 0.2947(5) 0.3595(3)
C54 C 0.4648(6) 0.2712(5) 0.2933(4)
C55 C 0.4434(6) 0.1658(4) 0.2261(3)
C56 C 0.2959(7) 0.1347(6) 0.1654(4)
C57 C 0.5367(5) 0.1864(4) 0.1683(3)
O19 O 0.5049(4) 0.2870(3) 0.1152(2)
C58 C 0.5146(5) 0.0799(4) 0.1005(3)
C59 C 0.6201(6) 0.0713(4) 0.0568(3)
C60 C 0.7596(5) 0.0721(4) 0.1272(3)
C61 C 0.8450(7) 0.0002(5) 0.0958(4)
O20 O 0.8359(4) 0.1839(3) 0.1483(2)
O21 O 0.7578(3) 0.2660(2) 0.1710(2)
C62 C 0.6857(5) 0.2170(3) 0.2324(3)
C63 C 0.7483(5) 0.1120(4) 0.2793(3)
O22 O 0.7497(3) 0.0259(2) 0.2138(2)
O23 O 0.8834(3) 0.1423(3) 0.3376(2)
C64 C 0.9080(6) 0.2308(4) 0.4094(3)
O24 O 0.8526(4) 0.1921(3) 0.4776(2)
C65 C 0.9104(7) 0.0979(5) 0.5284(3)
C66 C 0.8604(8) 0.0781(6) 0.6063(4)
C67 C 0.8545(6) 0.3410(4) 0.3684(3)
C68 C 0.8873(7) 0.4377(4) 0.4456(4)
H32 H 0.6873(5) 0.3857(4) 0.2714(3)
H33 H 0.6208(6) 0.3625(5) 0.4008(3)
H34 H 0.6280(6) 0.2284(5) 0.3979(3)
H35 H 0.4052(6) 0.2568(5) 0.3295(4)
H36 H 0.4437(6) 0.3393(5) 0.2576(4)
H37 H 0.4679(6) 0.0993(4) 0.2643(3)
H38 H 0.2833(9) 0.0636(16) 0.1287(18)
H39 H 0.2700(11) 0.1964(14) 0.1245(16)
H40 H 0.2420(7) 0.1245(28) 0.2051(4)
H41 H 0.5476(80) 0.2957(54) 0.0792(53)
H42 H 0.5058(5) 0.0100(4) 0.1343(3)
H43 H 0.4302(5) 0.0797(4) 0.0503(3)
H44 H 0.6225(6) 0.1361(4) 0.0169(3)
H45 H 0.5950(6) -0.0001(4) 0.0173(3)
H46 H 0.8053(2) -0.0804(7) 0.0882(27)
H47 H 0.9328(13) 0.0091(28) 0.1421(14)
H48 H 0.8515(34) 0.0261(24) 0.0372(15)
H49 H 0.6964(5) 0.0770(4) 0.3175(3)
H50 H 1.0050(6) 0.2507(4) 0.4399(3)
H51 H 1.0071(7) 0.1173(5) 0.5519(3)
H52 H 0.8862(7) 0.0278(5) 0.4874(3)
H53 H 0.8929(46) 0.0115(30) 0.6382(24)
H54 H 0.7645(8) 0.0642(47) 0.5829(6)
H55 H 0.8909(46) 0.1455(20) 0.6492(20)
H56 H 0.9045(6) 0.3689(4) 0.3270(3)
H57 H 0.8550(32) 0.5068(11) 0.4184(5)
H58 H 0.9824(7) 0.4543(21) 0.4763(16)
H59 H 0.8452(28) 0.4124(13) 0.4906(14)
loop_
_geom_bond_atom_site_label_1
_geom_bond_atom_site_label_2
_geom_bond_site_symmetry_1
_geom_bond_site_symmetry_2
C1 C2 1_555 1_555
C2 C3 1_555 1_555
C3 C4 1_555 1_555
C4 C5 1_555 1_555
C6 C4 1_555 1_555
O1 C6 1_555 1_555
C7 C6 1_555 1_555
C8 C7 1_555 1_555
C9 C8 1_555 1_555
C10 C9 1_555 1_555
O2 C9 1_555 1_555
O3 O2 1_555 1_555
C11 C1 1_555 1_555
C12 C11 1_555 1_555
O4 C9 1_555 1_555
O5 C12 1_555 1_555
C13 O5 1_555 1_555
O6 C13 1_555 1_555
C14 O6 1_555 1_555
C15 C14 1_555 1_555
C16 C1 1_555 1_555
C17 C16 1_555 1_555
C18 C19 1_555 1_555
C19 C20 1_555 1_555
C20 C21 1_555 1_555
C21 C22 1_555 1_555
C23 C21 1_555 1_555
O7 C23 1_555 1_555
C24 C23 1_555 1_555
C25 C24 1_555 1_555
C26 C25 1_555 1_555
C27 C26 1_555 1_555
O8 C26 1_555 1_555
O9 O8 1_555 1_555
C28 C18 1_555 1_555
C29 C28 1_555 1_555
O10 C26 1_555 1_555
O11 C29 1_555 1_555
C30 O11 1_555 1_555
O12 C30 1_555 1_555
C31 O12 1_555 1_555
C32 C31 1_555 1_555
C33 C18 1_555 1_555
C34 C33 1_555 1_555
C35 C36 1_555 1_555
C36 C37 1_555 1_555
C37 C38 1_555 1_555
C38 C39 1_555 1_555
C39 H10 1_555 1_555
C40 C38 1_555 1_555
O13 C40 1_555 1_555
C41 C40 1_555 1_555
C42 C41 1_555 1_555
C43 C42 1_555 1_555
C44 C43 1_555 1_555
O14 C43 1_555 1_555
O15 O14 1_555 1_555
C45 C35 1_555 1_555
C46 C45 1_555 1_555
O16 C43 1_555 1_555
O17 C46 1_555 1_555
C47 O17 1_555 1_555
O18 C47 1_555 1_555
C48 O18 1_555 1_555
C49 C48 1_555 1_555
C50 C35 1_555 1_555
C51 C50 1_555 1_555
C52 C53 1_555 1_555
C53 C54 1_555 1_555
C54 C55 1_555 1_555
C55 C56 1_555 1_555
C56 H38 1_555 1_555
C57 C55 1_555 1_555
O19 C57 1_555 1_555
C58 C57 1_555 1_555
C59 C58 1_555 1_555
C60 C59 1_555 1_555
C61 C60 1_555 1_555
O20 C60 1_555 1_555
O21 O20 1_555 1_555
C62 C52 1_555 1_555
C63 C62 1_555 1_555
O22 C60 1_555 1_555
O23 C63 1_555 1_555
C64 O23 1_555 1_555
O24 C64 1_555 1_555
C65 O24 1_555 1_555
C66 C65 1_555 1_555
C67 C52 1_555 1_555
C68 C67 1_555 1_555
H1 C34 1_555 1_555
H2 C34 1_555 1_555
H3 C34 1_555 1_555
H4 C35 1_555 1_555
H5 C36 1_555 1_555
H6 C36 1_555 1_555
H7 C37 1_555 1_555
H8 C37 1_555 1_555
H9 C38 1_555 1_555
H11 C39 1_555 1_555
H12 C39 1_555 1_555
H13 O13 1_555 1_555
H14 C41 1_555 1_555
H15 C41 1_555 1_555
H16 C42 1_555 1_555
H17 C42 1_555 1_555
H18 C44 1_555 1_555
H19 C44 1_555 1_555
H20 C44 1_555 1_555
H21 C46 1_555 1_555
H22 C47 1_555 1_555
H23 C48 1_555 1_555
H24 C48 1_555 1_555
H25 C49 1_555 1_555
H26 C49 1_555 1_555
H27 C49 1_555 1_555
H28 C50 1_555 1_555
H29 C51 1_555 1_555
H30 C51 1_555 1_555
H31 C51 1_555 1_555
H32 C52 1_555 1_555
H33 C53 1_555 1_555
H34 C53 1_555 1_555
H35 C54 1_555 1_555
H36 C54 1_555 1_555
H37 C55 1_555 1_555
H39 C56 1_555 1_555
H40 C56 1_555 1_555
H41 O19 1_555 1_555
H42 C58 1_555 1_555
H43 C58 1_555 1_555
H44 C59 1_555 1_555
H45 C59 1_555 1_555
H46 C61 1_555 1_555
H47 C61 1_555 1_555
H48 C61 1_555 1_555
H49 C63 1_555 1_555
H50 C64 1_555 1_555
H51 C65 1_555 1_555
H52 C65 1_555 1_555
H53 C66 1_555 1_555
H54 C66 1_555 1_555
H55 C66 1_555 1_555
H56 C67 1_555 1_555
H57 C68 1_555 1_555
H58 C68 1_555 1_555
H59 C68 1_555 1_555
C6 C11 1_555 1_555
O3 C11 1_555 1_555
C12 O4 1_555 1_555
C13 C16 1_555 1_555
C23 C28 1_555 1_555
O9 C28 1_555 1_555
C29 O10 1_555 1_555
C30 C33 1_555 1_555
C40 C45 1_555 1_555
O15 C45 1_555 1_555
C46 O16 1_555 1_555
C47 C50 1_555 1_555
C57 C62 1_555 1_555
O21 C62 1_555 1_555
C63 O22 1_555 1_555
C64 C67 1_555 1_555

#END
