data_image0
_cell_length_a       17.157
_cell_length_b       17.157
_cell_length_c       121.803
_cell_angle_alpha    90
_cell_angle_beta     90
_cell_angle_gamma    120

_symmetry_space_group_name_H-M    "P 1"
_symmetry_int_tables_number       1

loop_
  _symmetry_equiv_pos_as_xyz
  'x, y, z'

loop_
  _atom_site_label
  _atom_site_occupancy
  _atom_site_fract_x
  _atom_site_fract_y
  _atom_site_fract_z
  _atom_site_thermal_displace_type
  _atom_site_B_iso_or_equiv
  _atom_site_type_symbol
  C1       1.0000 0.68336  0.21173  0.35408  Biso   1.000  C
  C2       1.0000 0.72924  0.21537  0.36467  Biso   1.000  C
  C3       1.0000 0.74587  0.23266  0.34442  Biso   1.000  C
  H1       1.0000 0.66187  0.25548  0.35430  Biso   1.000  H
  H2       1.0000 0.63026  0.15089  0.35310  Biso   1.000  H
  C4       1.0000 0.74590  0.23273  0.34442  Biso   1.000  C
  C5       1.0000 0.76100  0.14753  0.36467  Biso   1.000  C
  H3       1.0000 0.68706  0.20258  0.37080  Biso   1.000  H
  H4       1.0000 0.78148  0.27661  0.36570  Biso   1.000  H
  C6       1.0000 0.68341  0.21173  0.35408  Biso   1.000  C
  C7       1.0000 0.78392  0.16947  0.34422  Biso   1.000  C
  H5       1.0000 0.71268  0.22620  0.33750  Biso   1.000  H
  H6       1.0000 0.79582  0.29573  0.34490  Biso   1.000  H
  H7       1.0000 0.79576  0.29573  0.34490  Biso   1.000  H
  H8       1.0000 0.70882  0.08500  0.36390  Biso   1.000  H
  C8       1.0000 0.82708  0.16987  0.35508  Biso   1.000  C
  H9       1.0000 0.70876  0.08500  0.36390  Biso   1.000  H
  N1       1.0000 0.80884  0.15728  0.37513  Biso   1.000  N
  C9       1.0000 0.82702  0.16987  0.35508  Biso   1.000  C
  H10      1.0000 0.73499  0.10762  0.34260  Biso   1.000  H
  H11      1.0000 0.82944  0.18811  0.33830  Biso   1.000  H
  H12      1.0000 0.82938  0.18811  0.33830  Biso   1.000  H
  C10      1.0000 0.76877  0.09160  0.38206  Biso   1.000  C
  N2       1.0000 0.85079  0.09698  0.35468  Biso   1.000  N
  N3       1.0000 0.85073  0.09698  0.35468  Biso   1.000  N
  H13      1.0000 0.88223  0.22957  0.35630  Biso   1.000  H
  C11      1.0000 0.80399  0.09712  0.39308  Biso   1.000  C
  H14      1.0000 0.71528  0.03883  0.37990  Biso   1.000  H
  H15      1.0000 0.71525  0.03877  0.37990  Biso   1.000  H
  C12      1.0000 0.93477  0.12471  0.35361  Biso   1.000  C
  C13      1.0000 0.75598  0.02382  0.40055  Biso   1.000  C
  C14      1.0000 0.88096  0.17330  0.39707  Biso   1.000  C
  C15      1.0000 0.96782  0.05862  0.35314  Biso   1.000  C
  H16      1.0000 0.97636  0.18737  0.35310  Biso   1.000  H
  C16      1.0000 0.96776  0.05862  0.35314  Biso   1.000  C
  C17      1.0000 0.79019  0.02860  0.41135  Biso   1.000  C
  H17      1.0000 0.70155  0.97220  0.39830  Biso   1.000  H
  H18      1.0000 0.70167  0.97220  0.39830  Biso   1.000  H
  H19      1.0000 0.91451  0.22290  0.39230  Biso   1.000  H
  C18      1.0000 0.90906  0.17808  0.40765  Biso   1.000  C
  H20      1.0000 0.91445  0.22290  0.39230  Biso   1.000  H
  C19      1.0000 0.90610  0.96433  0.35324  Biso   1.000  C
  C20      1.0000 0.05819  0.09389  0.35324  Biso   1.000  C
  C21      1.0000 0.74082  0.95329  0.41900  Biso   1.000  C
  C22      1.0000 0.86480  0.10600  0.41453  Biso   1.000  C
  C23      1.0000 0.86474  0.10600  0.41453  Biso   1.000  C
  C24      1.0000 0.99102  0.26308  0.41144  Biso   1.000  C
  C25      1.0000 0.99096  0.26308  0.41144  Biso   1.000  C
  H21      1.0000 0.84284  0.94098  0.35340  Biso   1.000  H
  C26      1.0000 0.94137  0.90921  0.35314  Biso   1.000  C
  H22      1.0000 0.84296  0.94098  0.35340  Biso   1.000  H
  C27      1.0000 0.09081  0.03217  0.35314  Biso   1.000  C
  C28      1.0000 0.09075  0.03217  0.35314  Biso   1.000  C
  H23      1.0000 0.09813  0.15708  0.35340  Biso   1.000  H
  N4       1.0000 0.67357  0.87812  0.41653  Biso   1.000  N
  H24      1.0000 0.76093  0.96191  0.42640  Biso   1.000  H
  H25      1.0000 0.88666  0.10997  0.42180  Biso   1.000  H
  H26      1.0000 0.02249  0.30878  0.40610  Biso   1.000  H
  N5       1.0000 0.02094  0.27829  0.42112  Biso   1.000  N
  C29      1.0000 0.87529  0.81014  0.35361  Biso   1.000  C
  C30      1.0000 0.03576  0.94178  0.35324  Biso   1.000  C
  C31      1.0000 0.03565  0.94178  0.35324  Biso   1.000  C
  C32      1.0000 0.18992  0.06522  0.35361  Biso   1.000  C
  C33      1.0000 0.18986  0.06522  0.35361  Biso   1.000  C
  C34      1.0000 0.63345  0.81478  0.42550  Biso   1.000  C
  C35      1.0000 0.63357  0.81478  0.42550  Biso   1.000  C
  C36      1.0000 0.09666  0.36922  0.42291  Biso   1.000  C
  H27      1.0000 0.81261  0.78901  0.35310  Biso   1.000  H
  N6       1.0000 0.90302  0.75381  0.35468  Biso   1.000  N
  H28      1.0000 0.05906  0.90187  0.35340  Biso   1.000  H
  H29      1.0000 0.05900  0.90187  0.35340  Biso   1.000  H
  N7       1.0000 0.24620  0.14921  0.35468  Biso   1.000  N
  H30      1.0000 0.21097  0.02362  0.35310  Biso   1.000  H
  C37      1.0000 0.53952  0.79991  0.42773  Biso   1.000  C
  C38      1.0000 0.63081  0.72743  0.42291  Biso   1.000  C
  H31      1.0000 0.67108  0.84144  0.43220  Biso   1.000  H
  C39      1.0000 0.63086  0.72743  0.42291  Biso   1.000  C
  H32      1.0000 0.10668  0.40536  0.41610  Biso   1.000  H
  C40      1.0000 0.07366  0.41357  0.43231  Biso   1.000  C
  H33      1.0000 0.10672  0.40543  0.41610  Biso   1.000  H
  C41      1.0000 0.18125  0.36646  0.42550  Biso   1.000  C
  C42      1.0000 0.07372  0.41357  0.43231  Biso   1.000  C
  C43      1.0000 0.18134  0.36653  0.42550  Biso   1.000  C
  C44      1.0000 0.83013  0.65723  0.35508  Biso   1.000  C
  C45      1.0000 0.34279  0.17290  0.35508  Biso   1.000  C
  C46      1.0000 0.49370  0.73113  0.43681  Biso   1.000  C
  H34      1.0000 0.50292  0.77858  0.42100  Biso   1.000  H
  H35      1.0000 0.54405  0.85759  0.42990  Biso   1.000  H
  H36      1.0000 0.50303  0.77858  0.42100  Biso   1.000  H
  H37      1.0000 0.59461  0.70131  0.41610  Biso   1.000  H
  N8       1.0000 0.72164  0.74264  0.42112  Biso   1.000  N
  C47      1.0000 0.58637  0.66012  0.43231  Biso   1.000  C
  N9       1.0000 0.72176  0.74264  0.42112  Biso   1.000  N
  H38      1.0000 0.05998  0.37642  0.43900  Biso   1.000  H
  C48      1.0000 0.15273  0.50806  0.43453  Biso   1.000  C
  H39      1.0000 0.01974  0.41741  0.43040  Biso   1.000  H
  N10      1.0000 0.20453  0.32641  0.41653  Biso   1.000  N
  C49      1.0000 0.26037  0.46048  0.42773  Biso   1.000  C
  N11      1.0000 0.20447  0.32641  0.41653  Biso   1.000  N
  C50      1.0000 0.26043  0.46048  0.42773  Biso   1.000  C
  H40      1.0000 0.17034  0.32890  0.43220  Biso   1.000  H
  C51      1.0000 0.85250  0.61348  0.36467  Biso   1.000  C
  C52      1.0000 0.83044  0.61449  0.34422  Biso   1.000  C
  H41      1.0000 0.77041  0.65272  0.35630  Biso   1.000  H
  C53      1.0000 0.83050  0.61449  0.34422  Biso   1.000  C
  H42      1.0000 0.77047  0.65272  0.35630  Biso   1.000  H
  C54      1.0000 0.38650  0.23899  0.36467  Biso   1.000  C
  C55      1.0000 0.38548  0.21597  0.34422  Biso   1.000  C
  H43      1.0000 0.34731  0.11771  0.35630  Biso   1.000  H
  C56      1.0000 0.38644  0.23899  0.36467  Biso   1.000  C
  H44      1.0000 0.34725  0.11771  0.35630  Biso   1.000  H
  H45      1.0000 0.52582  0.75643  0.44380  Biso   1.000  H
  C57      1.0000 0.49194  0.64471  0.43453  Biso   1.000  C
  H46      1.0000 0.43116  0.71888  0.43770  Biso   1.000  H
  C58      1.0000 0.73689  0.72790  0.41144  Biso   1.000  C
  H47      1.0000 0.62353  0.68361  0.43900  Biso   1.000  H
  H48      1.0000 0.58253  0.60231  0.43040  Biso   1.000  H
  H49      1.0000 0.62364  0.68361  0.43900  Biso   1.000  H
  H50      1.0000 0.58264  0.60231  0.43040  Biso   1.000  H
  H51      1.0000 0.16200  0.54676  0.42810  Biso   1.000  H
  C59      1.0000 0.23742  0.50631  0.43681  Biso   1.000  C
  H52      1.0000 0.16194  0.54676  0.42810  Biso   1.000  H
  C60      1.0000 0.23736  0.50631  0.43681  Biso   1.000  C
  H53      1.0000 0.13845  0.53451  0.44090  Biso   1.000  H
  C61      1.0000 0.21253  0.25918  0.41900  Biso   1.000  C
  H54      1.0000 0.31361  0.45597  0.42990  Biso   1.000  H
  H55      1.0000 0.31355  0.45597  0.42990  Biso   1.000  H
  H56      1.0000 0.27562  0.49703  0.42100  Biso   1.000  H
  C62      1.0000 0.78460  0.51394  0.36467  Biso   1.000  C
  H57      1.0000 0.91494  0.62378  0.36390  Biso   1.000  H
  H58      1.0000 0.91506  0.62378  0.36390  Biso   1.000  H
  N12      1.0000 0.84275  0.65158  0.37513  Biso   1.000  N
  N13      1.0000 0.84273  0.65164  0.37513  Biso   1.000  N
  C63      1.0000 0.76727  0.51320  0.34442  Biso   1.000  C
  H59      1.0000 0.89233  0.62742  0.34260  Biso   1.000  H
  H60      1.0000 0.81184  0.64128  0.33830  Biso   1.000  H
  H61      1.0000 0.89245  0.62742  0.34260  Biso   1.000  H
  H62      1.0000 0.81196  0.64128  0.33830  Biso   1.000  H
  N14      1.0000 0.34838  0.19107  0.37513  Biso   1.000  N
  H63      1.0000 0.37618  0.29122  0.36390  Biso   1.000  H
  C64      1.0000 0.48610  0.27069  0.36467  Biso   1.000  C
  C65      1.0000 0.48605  0.27069  0.36467  Biso   1.000  C
  H64      1.0000 0.37624  0.29122  0.36390  Biso   1.000  H
  C66      1.0000 0.48677  0.25407  0.34442  Biso   1.000  C
  H65      1.0000 0.37256  0.26497  0.34260  Biso   1.000  H
  H66      1.0000 0.35866  0.17061  0.33830  Biso   1.000  H
  H67      1.0000 0.37262  0.26497  0.34260  Biso   1.000  H
  H68      1.0000 0.45318  0.61523  0.42810  Biso   1.000  H
  H69      1.0000 0.46548  0.60393  0.44090  Biso   1.000  H
  C67      1.0000 0.82190  0.73099  0.40765  Biso   1.000  C
  H70      1.0000 0.69120  0.71370  0.40610  Biso   1.000  H
  C68      1.0000 0.82196  0.73099  0.40765  Biso   1.000  C
  H71      1.0000 0.69126  0.71370  0.40610  Biso   1.000  H
  H72      1.0000 0.28765  0.56877  0.43770  Biso   1.000  H
  H73      1.0000 0.23064  0.47421  0.44380  Biso   1.000  H
  H74      1.0000 0.20099  0.23912  0.42640  Biso   1.000  H
  C69      1.0000 0.23836  0.20978  0.41135  Biso   1.000  C
  H75      1.0000 0.20104  0.23912  0.42640  Biso   1.000  H
  C70      1.0000 0.23842  0.20978  0.41135  Biso   1.000  C
  H76      1.0000 0.79735  0.48453  0.37080  Biso   1.000  H
  H77      1.0000 0.72344  0.50493  0.36570  Biso   1.000  H
  H78      1.0000 0.79746  0.48453  0.37080  Biso   1.000  H
  C71      1.0000 0.78839  0.47175  0.35408  Biso   1.000  C
  C72      1.0000 0.78827  0.47175  0.35408  Biso   1.000  C
  C73      1.0000 0.90844  0.67722  0.38206  Biso   1.000  C
  H79      1.0000 0.70429  0.50008  0.34490  Biso   1.000  H
  H80      1.0000 0.70432  0.50015  0.34490  Biso   1.000  H
  H81      1.0000 0.77373  0.48649  0.33750  Biso   1.000  H
  H82      1.0000 0.77378  0.48649  0.33750  Biso   1.000  H
  C74      1.0000 0.32280  0.23118  0.38206  Biso   1.000  C
  C75      1.0000 0.32274  0.23118  0.38206  Biso   1.000  C
  H83      1.0000 0.51548  0.31289  0.37080  Biso   1.000  H
  C76      1.0000 0.52829  0.31659  0.35408  Biso   1.000  C
  H84      1.0000 0.49511  0.21853  0.36570  Biso   1.000  H
  H85      1.0000 0.49502  0.21846  0.36570  Biso   1.000  H
  H86      1.0000 0.51348  0.28731  0.33750  Biso   1.000  H
  H87      1.0000 0.49984  0.20419  0.34490  Biso   1.000  H
  H88      1.0000 0.51353  0.28731  0.33750  Biso   1.000  H
  C77      1.0000 0.89397  0.75879  0.41453  Biso   1.000  C
  C78      1.0000 0.82669  0.70771  0.39707  Biso   1.000  C
  C79      1.0000 0.82675  0.70771  0.39707  Biso   1.000  C
  C80      1.0000 0.24124  0.13521  0.41453  Biso   1.000  C
  C81      1.0000 0.26781  0.24397  0.40055  Biso   1.000  C
  H89      1.0000 0.74452  0.40640  0.35430  Biso   1.000  H
  H90      1.0000 0.84911  0.47942  0.35310  Biso   1.000  H
  H91      1.0000 0.84917  0.47942  0.35310  Biso   1.000  H
  C82      1.0000 0.90288  0.70690  0.39308  Biso   1.000  C
  H92      1.0000 0.96110  0.67648  0.37990  Biso   1.000  H
  C83      1.0000 0.90293  0.70690  0.39308  Biso   1.000  C
  H93      1.0000 0.96122  0.67648  0.37990  Biso   1.000  H
  H94      1.0000 0.32349  0.28469  0.37990  Biso   1.000  H
  C84      1.0000 0.29313  0.19598  0.39308  Biso   1.000  C
  H95      1.0000 0.59355  0.33813  0.35430  Biso   1.000  H
  H96      1.0000 0.52063  0.36969  0.35310  Biso   1.000  H
  H97      1.0000 0.88992  0.77669  0.42180  Biso   1.000  H
  C85      1.0000 0.97133  0.76162  0.41135  Biso   1.000  C
  H98      1.0000 0.89004  0.77669  0.42180  Biso   1.000  H
  C86      1.0000 0.97144  0.76162  0.41135  Biso   1.000  C
  H99      1.0000 0.77703  0.69162  0.39230  Biso   1.000  H
  H100     1.0000 0.77715  0.69162  0.39230  Biso   1.000  H
  H101     1.0000 0.22327  0.11327  0.42180  Biso   1.000  H
  C87      1.0000 0.26904  0.09093  0.40765  Biso   1.000  C
  H102     1.0000 0.27056  0.29842  0.39830  Biso   1.000  H
  C88      1.0000 0.97620  0.73221  0.40055  Biso   1.000  C
  C89      1.0000 0.97626  0.73221  0.40055  Biso   1.000  C
  C90      1.0000 0.29229  0.11899  0.39707  Biso   1.000  C
  C91      1.0000 0.04676  0.78753  0.41900  Biso   1.000  C
  C92      1.0000 0.04665  0.78753  0.41900  Biso   1.000  C
  C93      1.0000 0.27210  0.00902  0.41144  Biso   1.000  C
  H103     1.0000 0.02783  0.72938  0.39830  Biso   1.000  H
  H104     1.0000 0.30840  0.08547  0.39230  Biso   1.000  H
  H105     1.0000 0.30834  0.08547  0.39230  Biso   1.000  H
  N15      1.0000 0.12193  0.79554  0.41653  Biso   1.000  N
  H106     1.0000 0.03812  0.79904  0.42640  Biso   1.000  H
  H107     1.0000 0.28631  0.97752  0.40610  Biso   1.000  H
  N16      1.0000 0.25741  0.97907  0.42112  Biso   1.000  N
  N17      1.0000 0.25745  0.97914  0.42112  Biso   1.000  N
  C94      1.0000 0.18521  0.81869  0.42550  Biso   1.000  C
  C95      1.0000 0.27263  0.90342  0.42291  Biso   1.000  C
  C96      1.0000 0.20017  0.73961  0.42773  Biso   1.000  C
  H108     1.0000 0.15867  0.82973  0.43220  Biso   1.000  H
  C97      1.0000 0.20005  0.73961  0.42773  Biso   1.000  C
  H109     1.0000 0.15855  0.82973  0.43220  Biso   1.000  H
  H110     1.0000 0.29876  0.89333  0.41610  Biso   1.000  H
  C98      1.0000 0.33997  0.92630  0.43231  Biso   1.000  C
  C99      1.0000 0.33985  0.92630  0.43231  Biso   1.000  C
  H111     1.0000 0.29871  0.89333  0.41610  Biso   1.000  H
  H112     1.0000 0.22141  0.72440  0.42100  Biso   1.000  H
  C100     1.0000 0.26897  0.76263  0.43681  Biso   1.000  C
  H113     1.0000 0.14246  0.68644  0.42990  Biso   1.000  H
  C101     1.0000 0.26885  0.76263  0.43681  Biso   1.000  C
  C102     1.0000 0.35533  0.84722  0.43453  Biso   1.000  C
  H114     1.0000 0.31646  0.94003  0.43900  Biso   1.000  H
  H115     1.0000 0.39767  0.98028  0.43040  Biso   1.000  H
  H116     1.0000 0.31635  0.94003  0.43900  Biso   1.000  H
  H117     1.0000 0.39761  0.98028  0.43040  Biso   1.000  H
  H118     1.0000 0.28110  0.71228  0.43770  Biso   1.000  H
  H119     1.0000 0.24369  0.76942  0.44380  Biso   1.000  H
  H120     1.0000 0.24357  0.76942  0.44380  Biso   1.000  H
  H121     1.0000 0.39610  0.86163  0.44090  Biso   1.000  H
  H122     1.0000 0.38482  0.83800  0.42810  Biso   1.000  H
  H123     1.0000 0.38476  0.83800  0.42810  Biso   1.000  H
  C103     1.0000 0.42899  0.47259  0.35019  Biso   1.000  C
  C104     1.0000 0.43090  0.50207  0.33913  Biso   1.000  C
  C105     1.0000 0.49571  0.52630  0.35727  Biso   1.000  C
  H124     1.0000 0.38141  0.41579  0.35260  Biso   1.000  H
  C106     1.0000 0.36147  0.44480  0.33094  Biso   1.000  C
  C107     1.0000 0.49836  0.58418  0.33621  Biso   1.000  C
  C108     1.0000 0.49418  0.49178  0.36862  Biso   1.000  C
  C109     1.0000 0.56450  0.61258  0.35384  Biso   1.000  C
  N18      1.0000 0.29617  0.36888  0.33369  Biso   1.000  N
  H125     1.0000 0.36619  0.46519  0.32360  Biso   1.000  H
  H126     1.0000 0.49888  0.60410  0.32890  Biso   1.000  H
  C110     1.0000 0.56717  0.64159  0.34323  Biso   1.000  C
  N19      1.0000 0.55261  0.52738  0.37589  Biso   1.000  N
  H127     1.0000 0.44249  0.43618  0.37050  Biso   1.000  H
  H128     1.0000 0.60930  0.65101  0.35890  Biso   1.000  H
  C111     1.0000 0.23302  0.31659  0.32484  Biso   1.000  C
  C112     1.0000 0.63839  0.73426  0.34021  Biso   1.000  C
  C113     1.0000 0.54207  0.47798  0.38607  Biso   1.000  C
  C114     1.0000 0.24930  0.23912  0.32194  Biso   1.000  C
  C115     1.0000 0.13434  0.27742  0.32871  Biso   1.000  C
  H129     1.0000 0.24450  0.35576  0.31830  Biso   1.000  H
  N20      1.0000 0.64426  0.76536  0.33029  Biso   1.000  N
  H130     1.0000 0.68035  0.77155  0.34560  Biso   1.000  H
  C116     1.0000 0.54140  0.53620  0.39534  Biso   1.000  C
  C117     1.0000 0.61415  0.45846  0.38776  Biso   1.000  C
  H131     1.0000 0.48322  0.42030  0.38590  Biso   1.000  H
  C118     1.0000 0.18342  0.17882  0.31301  Biso   1.000  C
  H132     1.0000 0.24157  0.20278  0.32860  Biso   1.000  H
  H133     1.0000 0.31190  0.26382  0.31930  Biso   1.000  H
  C119     1.0000 0.07348  0.21900  0.32024  Biso   1.000  C
  N21      1.0000 0.12108  0.35569  0.33029  Biso   1.000  N
  H134     1.0000 0.12388  0.24357  0.33580  Biso   1.000  H
  C120     1.0000 0.72261  0.85689  0.32871  Biso   1.000  C
  N22      1.0000 0.46128  0.54521  0.39458  Biso   1.000  N
  H135     1.0000 0.59718  0.59670  0.39520  Biso   1.000  H
  C121     1.0000 0.53237  0.48760  0.40670  Biso   1.000  C
  C122     1.0000 0.61028  0.41297  0.39940  Biso   1.000  C
  H136     1.0000 0.67247  0.51520  0.38710  Biso   1.000  H
  H137     1.0000 0.61176  0.41768  0.38190  Biso   1.000  H
  C123     1.0000 0.08648  0.14382  0.31758  Biso   1.000  C
  H138     1.0000 0.19300  0.12767  0.31140  Biso   1.000  H
  H139     1.0000 0.19260  0.21362  0.30620  Biso   1.000  H
  H140     1.0000 0.01067  0.19538  0.32270  Biso   1.000  H
  H141     1.0000 0.08239  0.25501  0.31350  Biso   1.000  H
  C124     1.0000 0.09589  0.36161  0.34021  Biso   1.000  C
  H142     1.0000 0.75641  0.88031  0.33580  Biso   1.000  H
  C125     1.0000 0.78097  0.85447  0.32024  Biso   1.000  C
  C126     1.0000 0.68341  0.91638  0.32484  Biso   1.000  C
  C127     1.0000 0.47507  0.62409  0.39552  Biso   1.000  C
  H143     1.0000 0.53018  0.52496  0.41280  Biso   1.000  H
  H144     1.0000 0.47561  0.42898  0.40680  Biso   1.000  H
  C128     1.0000 0.60989  0.47280  0.40835  Biso   1.000  C
  H145     1.0000 0.55527  0.35307  0.39990  Biso   1.000  H
  H146     1.0000 0.66319  0.40489  0.40020  Biso   1.000  H
  H147     1.0000 0.04172  0.10513  0.31200  Biso   1.000  H
  H148     1.0000 0.07739  0.10721  0.32420  Biso   1.000  H
  C129     1.0000 0.07443  0.43282  0.34323  Biso   1.000  C
  H149     1.0000 0.09121  0.31962  0.34560  Biso   1.000  H
  H150     1.0000 0.80457  0.81530  0.32270  Biso   1.000  H
  H151     1.0000 0.74500  0.82741  0.31350  Biso   1.000  H
  C130     1.0000 0.85621  0.94270  0.31758  Biso   1.000  C
  N23      1.0000 0.63110  0.92729  0.33369  Biso   1.000  N
  H152     1.0000 0.64419  0.88866  0.31830  Biso   1.000  H
  C131     1.0000 0.76086  0.01020  0.32194  Biso   1.000  C
  C132     1.0000 0.40330  0.64771  0.39564  Biso   1.000  C
  H153     1.0000 0.53561  0.67161  0.39620  Biso   1.000  H
  H154     1.0000 0.60478  0.44440  0.41560  Biso   1.000  H
  H155     1.0000 0.66678  0.53121  0.40820  Biso   1.000  H
  C133     1.0000 0.08580  0.50160  0.33621  Biso   1.000  C
  C134     1.0000 0.04809  0.43551  0.35384  Biso   1.000  C
  H156     1.0000 0.89488  0.93657  0.31200  Biso   1.000  H
  H157     1.0000 0.89278  0.97016  0.32420  Biso   1.000  H
  C135     1.0000 0.82115  0.00455  0.31301  Biso   1.000  C
  C136     1.0000 0.55520  0.91665  0.33094  Biso   1.000  C
  H158     1.0000 0.79719  0.03881  0.32860  Biso   1.000  H
  H159     1.0000 0.73615  0.04809  0.31930  Biso   1.000  H
  C137     1.0000 0.42070  0.73696  0.39574  Biso   1.000  C
  C138     1.0000 0.31627  0.57927  0.39574  Biso   1.000  C
  C139     1.0000 0.07123  0.56911  0.33913  Biso   1.000  C
  H160     1.0000 0.10517  0.50106  0.32890  Biso   1.000  H
  C140     1.0000 0.03060  0.50429  0.35727  Biso   1.000  C
  H161     1.0000 0.04170  0.39069  0.35890  Biso   1.000  H
  H162     1.0000 0.78639  0.97897  0.30620  Biso   1.000  H
  H163     1.0000 0.87226  0.06526  0.31140  Biso   1.000  H
  C141     1.0000 0.49790  0.92877  0.33913  Biso   1.000  C
  H164     1.0000 0.53477  0.90097  0.32360  Biso   1.000  H
  H165     1.0000 0.48119  0.78508  0.39590  Biso   1.000  H
  C142     1.0000 0.35233  0.75560  0.39564  Biso   1.000  C
  C143     1.0000 0.24438  0.59670  0.39564  Biso   1.000  C
  H166     1.0000 0.30385  0.51876  0.39590  Biso   1.000  H
  C144     1.0000 0.04361  0.57099  0.35019  Biso   1.000  C
  C145     1.0000 0.08331  0.63849  0.33094  Biso   1.000  C
  C146     1.0000 0.99760  0.50577  0.36862  Biso   1.000  C
  C147     1.0000 0.52737  0.95636  0.35019  Biso   1.000  C
  C148     1.0000 0.41576  0.91416  0.33621  Biso   1.000  C
  C149     1.0000 0.26297  0.68365  0.39574  Biso   1.000  C
  C150     1.0000 0.37588  0.85097  0.39552  Biso   1.000  C
  C151     1.0000 0.14902  0.52489  0.39552  Biso   1.000  C
  H167     1.0000 0.03441  0.61857  0.35260  Biso   1.000  H
  N24      1.0000 0.07270  0.70378  0.33369  Biso   1.000  N
  H168     1.0000 0.09902  0.63378  0.32360  Biso   1.000  H
  N25      1.0000 0.97480  0.44736  0.37589  Biso   1.000  N
  H169     1.0000 0.99372  0.55746  0.37050  Biso   1.000  H
  C152     1.0000 0.47366  0.96935  0.35727  Biso   1.000  C
  H170     1.0000 0.58421  0.96558  0.35260  Biso   1.000  H
  C153     1.0000 0.35841  0.92560  0.34323  Biso   1.000  C
  H171     1.0000 0.39587  0.89478  0.32890  Biso   1.000  H
  H172     1.0000 0.21493  0.69610  0.39590  Biso   1.000  H
  N26      1.0000 0.45476  0.91605  0.39458  Biso   1.000  N
  H173     1.0000 0.32841  0.86396  0.39620  Biso   1.000  H
  N27      1.0000 0.08388  0.53869  0.39458  Biso   1.000  N
  H174     1.0000 0.13602  0.46438  0.39620  Biso   1.000  H
  C154     1.0000 0.08361  0.76697  0.32484  Biso   1.000  C
  C155     1.0000 0.93590  0.45792  0.38607  Biso   1.000  C
  C156     1.0000 0.38739  0.95185  0.35384  Biso   1.000  C
  C157     1.0000 0.50813  0.00240  0.36862  Biso   1.000  C
  C158     1.0000 0.26570  0.90407  0.34021  Biso   1.000  C
  C159     1.0000 0.46376  0.00516  0.39534  Biso   1.000  C
  C160     1.0000 0.99482  0.45860  0.39534  Biso   1.000  C
  C161     1.0000 0.14312  0.86571  0.32871  Biso   1.000  C
  H175     1.0000 0.11131  0.75547  0.31830  Biso   1.000  H
  C162     1.0000 0.98979  0.75069  0.32194  Biso   1.000  C
  C163     1.0000 0.84428  0.38578  0.38776  Biso   1.000  C
  H176     1.0000 0.93714  0.51681  0.38590  Biso   1.000  H
  H177     1.0000 0.34897  0.95825  0.35890  Biso   1.000  H
  N28      1.0000 0.47259  0.02514  0.37589  Biso   1.000  N
  H178     1.0000 0.56377  0.00630  0.37050  Biso   1.000  H
  N29      1.0000 0.23458  0.87890  0.33029  Biso   1.000  N
  H179     1.0000 0.22842  0.90878  0.34560  Biso   1.000  H
  C164     1.0000 0.52200  0.06404  0.38607  Biso   1.000  C
  H180     1.0000 0.40329  0.00044  0.39520  Biso   1.000  H
  C165     1.0000 0.51237  0.04480  0.40670  Biso   1.000  C
  H181     1.0000 0.99950  0.40280  0.39520  Biso   1.000  H
  C166     1.0000 0.95520  0.46761  0.40670  Biso   1.000  C
  H182     1.0000 0.11968  0.87607  0.33580  Biso   1.000  H
  C167     1.0000 0.14547  0.92648  0.32024  Biso   1.000  C
  C168     1.0000 0.99539  0.81658  0.31301  Biso   1.000  C
  H183     1.0000 0.96122  0.75836  0.32860  Biso   1.000  H
  H184     1.0000 0.95190  0.68810  0.31930  Biso   1.000  H
  C169     1.0000 0.80270  0.38968  0.39940  Biso   1.000  C
  H185     1.0000 0.84271  0.32749  0.38710  Biso   1.000  H
  H186     1.0000 0.80592  0.38820  0.38190  Biso   1.000  H
  C170     1.0000 0.54139  0.15564  0.38776  Biso   1.000  C
  H187     1.0000 0.57971  0.06290  0.38590  Biso   1.000  H
  H188     1.0000 0.47495  0.00516  0.41280  Biso   1.000  H
  H189     1.0000 0.57095  0.04655  0.40680  Biso   1.000  H
  C171     1.0000 0.52715  0.13707  0.40835  Biso   1.000  C
  H190     1.0000 0.99481  0.46977  0.41280  Biso   1.000  H
  H191     1.0000 0.95341  0.52442  0.40680  Biso   1.000  H
  C172     1.0000 0.86287  0.39008  0.40835  Biso   1.000  C
  H192     1.0000 0.18468  0.98927  0.32270  Biso   1.000  H
  H193     1.0000 0.17262  0.91760  0.31350  Biso   1.000  H
  C173     1.0000 0.05732  0.91349  0.31758  Biso   1.000  C
  H194     1.0000 0.02098  0.80735  0.30620  Biso   1.000  H
  H195     1.0000 0.93469  0.80695  0.31140  Biso   1.000  H
  H196     1.0000 0.79778  0.44466  0.39990  Biso   1.000  H
  H197     1.0000 0.74168  0.33678  0.40020  Biso   1.000  H
  C174     1.0000 0.58694  0.19730  0.39940  Biso   1.000  C
  H198     1.0000 0.48473  0.15726  0.38710  Biso   1.000  H
  H199     1.0000 0.58223  0.19407  0.38190  Biso   1.000  H
  H200     1.0000 0.55558  0.16035  0.41560  Biso   1.000  H
  H201     1.0000 0.46871  0.13559  0.40820  Biso   1.000  H
  H202     1.0000 0.83961  0.39520  0.41560  Biso   1.000  H
  H203     1.0000 0.86440  0.33321  0.40820  Biso   1.000  H
  H204     1.0000 0.06337  0.95825  0.31200  Biso   1.000  H
  H205     1.0000 0.02980  0.92258  0.32420  Biso   1.000  H
  H206     1.0000 0.64683  0.20215  0.39990  Biso   1.000  H
  H207     1.0000 0.59504  0.25828  0.40020  Biso   1.000  H
  C175     1.0000 0.53546  0.42326  0.31217  Biso   1.000  C
  C176     1.0000 0.53908  0.48680  0.30308  Biso   1.000  C
  C177     1.0000 0.63111  0.44110  0.31475  Biso   1.000  C
  H208     1.0000 0.49719  0.36000  0.30980  Biso   1.000  H
  H209     1.0000 0.50861  0.43262  0.31890  Biso   1.000  H
  N30      1.0000 0.44516  0.46519  0.30118  Biso   1.000  N
  C178     1.0000 0.59847  0.58250  0.30614  Biso   1.000  C
  H210     1.0000 0.56269  0.47387  0.29620  Biso   1.000  H
  C179     1.0000 0.69484  0.54245  0.31813  Biso   1.000  C
  H211     1.0000 0.65598  0.42696  0.30820  Biso   1.000  H
  H212     1.0000 0.62818  0.40132  0.32080  Biso   1.000  H
  C180     1.0000 0.41371  0.43551  0.29163  Biso   1.000  C
  N31      1.0000 0.60249  0.64206  0.29722  Biso   1.000  N
  H213     1.0000 0.57386  0.59576  0.31290  Biso   1.000  H
  C181     1.0000 0.69366  0.60128  0.30851  Biso   1.000  C
  H214     1.0000 0.67296  0.55639  0.32500  Biso   1.000  H
  H215     1.0000 0.75689  0.55416  0.31940  Biso   1.000  H
  C182     1.0000 0.32239  0.41700  0.28838  Biso   1.000  C
  H216     1.0000 0.44929  0.42508  0.28650  Biso   1.000  H
  C183     1.0000 0.58978  0.70721  0.30006  Biso   1.000  C
  H217     1.0000 0.73241  0.66562  0.31040  Biso   1.000  H
  H218     1.0000 0.71858  0.58876  0.30180  Biso   1.000  H
  C184     1.0000 0.29656  0.38948  0.27761  Biso   1.000  C
  C185     1.0000 0.26331  0.42427  0.29554  Biso   1.000  C
  C186     1.0000 0.59581  0.77417  0.29191  Biso   1.000  C
  H219     1.0000 0.57627  0.71226  0.30750  Biso   1.000  H
  C187     1.0000 0.21179  0.36949  0.27398  Biso   1.000  C
  H220     1.0000 0.33709  0.38450  0.27270  Biso   1.000  H
  C188     1.0000 0.17839  0.40422  0.29191  Biso   1.000  C
  H221     1.0000 0.28089  0.44312  0.30290  Biso   1.000  H
  C189     1.0000 0.62317  0.77586  0.28113  Biso   1.000  C
  C190     1.0000 0.57570  0.83899  0.29554  Biso   1.000  C
  C191     1.0000 0.20021  0.36942  0.26092  Biso   1.000  C
  C192     1.0000 0.15274  0.37682  0.28113  Biso   1.000  C
  C193     1.0000 0.11738  0.41021  0.30006  Biso   1.000  C
  C194     1.0000 0.63050  0.84228  0.27398  Biso   1.000  C
  H222     1.0000 0.63687  0.73157  0.27870  Biso   1.000  H
  C195     1.0000 0.58300  0.90535  0.28838  Biso   1.000  C
  H223     1.0000 0.55691  0.83778  0.30290  Biso   1.000  H
  C196     1.0000 0.22392  0.31962  0.25420  Biso   1.000  C
  C197     1.0000 0.27690  0.42091  0.25440  Biso   1.000  C
  C198     1.0000 0.26360  0.36949  0.25380  Biso   1.000  C
  C199     1.0000 0.12267  0.36949  0.25740  Biso   1.000  C
  C200     1.0000 0.11349  0.32069  0.25700  Biso   1.000  C
  C201     1.0000 0.16139  0.41848  0.25670  Biso   1.000  C
  H224     1.0000 0.09470  0.36309  0.27870  Biso   1.000  H
  N32      1.0000 0.03962  0.39749  0.29722  Biso   1.000  N
  H225     1.0000 0.13600  0.42367  0.30750  Biso   1.000  H
  C202     1.0000 0.61051  0.90710  0.27761  Biso   1.000  C
  C203     1.0000 0.63058  0.83078  0.26092  Biso   1.000  C
  C204     1.0000 0.56450  0.97817  0.29163  Biso   1.000  C
  C205     1.0000 0.24682  0.36949  0.24260  Biso   1.000  C
  H226     1.0000 0.25021  0.28650  0.25710  Biso   1.000  H
  C206     1.0000 0.20721  0.32069  0.24300  Biso   1.000  C
  H227     1.0000 0.33611  0.45388  0.25730  Biso   1.000  H
  C207     1.0000 0.25709  0.41848  0.24330  Biso   1.000  C
  H228     1.0000 0.31571  0.36949  0.25640  Biso   1.000  H
  H229     1.0000 0.08158  0.36949  0.26270  Biso   1.000  H
  C208     1.0000 0.10588  0.36949  0.24620  Biso   1.000  C
  C209     1.0000 0.09569  0.31962  0.24580  Biso   1.000  C
  C210     1.0000 0.14401  0.42091  0.24560  Biso   1.000  C
  H230     1.0000 0.06531  0.28751  0.26200  Biso   1.000  H
  H231     1.0000 0.14629  0.45146  0.26170  Biso   1.000  H
  C211     1.0000 0.98400  0.40152  0.30614  Biso   1.000  C
  H232     1.0000 0.61548  0.95259  0.27270  Biso   1.000  H
  C212     1.0000 0.63048  0.89411  0.25380  Biso   1.000  C
  C213     1.0000 0.63048  0.75318  0.25740  Biso   1.000  C
  C214     1.0000 0.57905  0.85595  0.25440  Biso   1.000  C
  C215     1.0000 0.67929  0.79275  0.25700  Biso   1.000  C
  C216     1.0000 0.68038  0.90427  0.25420  Biso   1.000  C
  C217     1.0000 0.58150  0.74288  0.25670  Biso   1.000  C
  N33      1.0000 0.53481  0.97998  0.30118  Biso   1.000  N
  H233     1.0000 0.57487  0.02420  0.28650  Biso   1.000  H
  C218     1.0000 0.16921  0.36942  0.23908  Biso   1.000  C
  H234     1.0000 0.28791  0.36949  0.23730  Biso   1.000  H
  H235     1.0000 0.22221  0.28751  0.23800  Biso   1.000  H
  H236     1.0000 0.30517  0.45146  0.23830  Biso   1.000  H
  H237     1.0000 0.05378  0.36949  0.24360  Biso   1.000  H
  H238     1.0000 0.03630  0.28650  0.24290  Biso   1.000  H
  H239     1.0000 0.11777  0.45388  0.24270  Biso   1.000  H
  H240     1.0000 0.02193  0.42609  0.31290  Biso   1.000  H
  C219     1.0000 0.90759  0.30629  0.30851  Biso   1.000  C
  C220     1.0000 0.94770  0.46088  0.30308  Biso   1.000  C
  H241     1.0000 0.63047  0.94620  0.25640  Biso   1.000  H
  C221     1.0000 0.63046  0.87728  0.24260  Biso   1.000  C
  C222     1.0000 0.58150  0.83858  0.24330  Biso   1.000  C
  C223     1.0000 0.67931  0.88650  0.24300  Biso   1.000  C
  H242     1.0000 0.63049  0.71206  0.26270  Biso   1.000  H
  C224     1.0000 0.63046  0.73635  0.24620  Biso   1.000  C
  C225     1.0000 0.68039  0.77606  0.24580  Biso   1.000  C
  C226     1.0000 0.57907  0.72309  0.24560  Biso   1.000  C
  H243     1.0000 0.54607  0.88219  0.25730  Biso   1.000  H
  H244     1.0000 0.71250  0.77781  0.26200  Biso   1.000  H
  H245     1.0000 0.71347  0.96370  0.25710  Biso   1.000  H
  H246     1.0000 0.54846  0.69476  0.26170  Biso   1.000  H
  C227     1.0000 0.51314  0.05227  0.30308  Biso   1.000  C
  C228     1.0000 0.15770  0.36949  0.22602  Biso   1.000  C
  H247     1.0000 0.93318  0.26759  0.31040  Biso   1.000  H
  H248     1.0000 0.87019  0.28139  0.30180  Biso   1.000  H
  C229     1.0000 0.84759  0.30508  0.31813  Biso   1.000  C
  N34      1.0000 0.02000  0.55477  0.30118  Biso   1.000  N
  C230     1.0000 0.88779  0.46452  0.31217  Biso   1.000  C
  H249     1.0000 0.91118  0.43726  0.29620  Biso   1.000  H
  C231     1.0000 0.63057  0.79975  0.23908  Biso   1.000  C
  H250     1.0000 0.63050  0.91840  0.23730  Biso   1.000  H
  H251     1.0000 0.54847  0.85366  0.23830  Biso   1.000  H
  H252     1.0000 0.71249  0.93469  0.23800  Biso   1.000  H
  H253     1.0000 0.63047  0.68426  0.24360  Biso   1.000  H
  H254     1.0000 0.71348  0.74981  0.24290  Biso   1.000  H
  H255     1.0000 0.54607  0.66387  0.24270  Biso   1.000  H
  C232     1.0000 0.41742  0.01599  0.30614  Biso   1.000  C
  C233     1.0000 0.57660  0.11217  0.31217  Biso   1.000  C
  H256     1.0000 0.52601  0.08874  0.29620  Biso   1.000  H
  C234     1.0000 0.09291  0.38948  0.22239  Biso   1.000  C
  C235     1.0000 0.22408  0.37682  0.21887  Biso   1.000  C
  H257     1.0000 0.88339  0.32702  0.32500  Biso   1.000  H
  H258     1.0000 0.79731  0.24309  0.31940  Biso   1.000  H
  C236     1.0000 0.81002  0.36888  0.31475  Biso   1.000  C
  C237     1.0000 0.02182  0.58627  0.29163  Biso   1.000  C
  H259     1.0000 0.86282  0.50281  0.30980  Biso   1.000  H
  H260     1.0000 0.92401  0.49137  0.31890  Biso   1.000  H
  C238     1.0000 0.63049  0.78817  0.22602  Biso   1.000  C
  N35      1.0000 0.35792  0.96040  0.29722  Biso   1.000  N
  H261     1.0000 0.40419  0.97810  0.31290  Biso   1.000  H
  C239     1.0000 0.39867  0.09238  0.30851  Biso   1.000  C
  C240     1.0000 0.55885  0.18997  0.31475  Biso   1.000  C
  H262     1.0000 0.63994  0.13720  0.30980  Biso   1.000  H
  H263     1.0000 0.56730  0.07596  0.31890  Biso   1.000  H
  C241     1.0000 0.09461  0.41700  0.21162  Biso   1.000  C
  H264     1.0000 0.04741  0.38450  0.22730  Biso   1.000  H
  H265     1.0000 0.26839  0.36309  0.22130  Biso   1.000  H
  C242     1.0000 0.22583  0.40422  0.20809  Biso   1.000  C
  H266     1.0000 0.77099  0.34398  0.30820  Biso   1.000  H
  H267     1.0000 0.77311  0.37178  0.32080  Biso   1.000  H
  C243     1.0000 0.09458  0.67760  0.28838  Biso   1.000  C
  H268     1.0000 0.97580  0.55067  0.28650  Biso   1.000  H
  C244     1.0000 0.61047  0.70337  0.22239  Biso   1.000  C
  C245     1.0000 0.62320  0.84726  0.21887  Biso   1.000  C
  C246     1.0000 0.29279  0.88260  0.30006  Biso   1.000  C
  H269     1.0000 0.33442  0.06680  0.31040  Biso   1.000  H
  H270     1.0000 0.41114  0.12980  0.30180  Biso   1.000  H
  C247     1.0000 0.45745  0.15234  0.31813  Biso   1.000  C
  H271     1.0000 0.57294  0.22900  0.30820  Biso   1.000  H
  H272     1.0000 0.59862  0.22685  0.32080  Biso   1.000  H
  C248     1.0000 0.02180  0.43551  0.20837  Biso   1.000  C
  C249     1.0000 0.16096  0.42427  0.20446  Biso   1.000  C
  C250     1.0000 0.29282  0.41021  0.19994  Biso   1.000  C
  C251     1.0000 0.09290  0.70337  0.27761  Biso   1.000  C
  C252     1.0000 0.16102  0.73669  0.29554  Biso   1.000  C
  C253     1.0000 0.58301  0.67760  0.21162  Biso   1.000  C
  H273     1.0000 0.61545  0.66286  0.22730  Biso   1.000  H
  C254     1.0000 0.59578  0.82156  0.20809  Biso   1.000  C
  H274     1.0000 0.63688  0.90528  0.22130  Biso   1.000  H
  C255     1.0000 0.22578  0.82156  0.29191  Biso   1.000  C
  H275     1.0000 0.28766  0.86396  0.30750  Biso   1.000  H
  H276     1.0000 0.44360  0.11661  0.32500  Biso   1.000  H
  H277     1.0000 0.44572  0.20269  0.31940  Biso   1.000  H
  N36      1.0000 0.02003  0.46519  0.19882  Biso   1.000  N
  H278     1.0000 0.97579  0.42508  0.21350  Biso   1.000  H
  H279     1.0000 0.16222  0.44312  0.19710  Biso   1.000  H
  N37      1.0000 0.35786  0.39749  0.20278  Biso   1.000  N
  H280     1.0000 0.28766  0.42367  0.19250  Biso   1.000  H
  H281     1.0000 0.04740  0.66286  0.27270  Biso   1.000  H
  C256     1.0000 0.15768  0.78817  0.27398  Biso   1.000  C
  H282     1.0000 0.16217  0.71905  0.30290  Biso   1.000  H
  C257     1.0000 0.56445  0.58627  0.20837  Biso   1.000  C
  C258     1.0000 0.57566  0.73669  0.20446  Biso   1.000  C
  C259     1.0000 0.58981  0.88260  0.19994  Biso   1.000  C
  C260     1.0000 0.22406  0.84726  0.28113  Biso   1.000  C
  C261     1.0000 0.94772  0.48680  0.19692  Biso   1.000  C
  C262     1.0000 0.41752  0.40152  0.19386  Biso   1.000  C
  C263     1.0000 0.16918  0.79975  0.26092  Biso   1.000  C
  N38      1.0000 0.53477  0.55477  0.19882  Biso   1.000  N
  H283     1.0000 0.57486  0.55067  0.21350  Biso   1.000  H
  H284     1.0000 0.55688  0.71905  0.19710  Biso   1.000  H
  N39      1.0000 0.60248  0.96040  0.20278  Biso   1.000  N
  H285     1.0000 0.57629  0.86396  0.19250  Biso   1.000  H
  H286     1.0000 0.26840  0.90528  0.27870  Biso   1.000  H
  C264     1.0000 0.98403  0.58250  0.19386  Biso   1.000  C
  C265     1.0000 0.88780  0.42326  0.18783  Biso   1.000  C
  H287     1.0000 0.91118  0.47387  0.20380  Biso   1.000  H
  H288     1.0000 0.40416  0.42609  0.18710  Biso   1.000  H
  C266     1.0000 0.39870  0.30629  0.19149  Biso   1.000  C
  C267     1.0000 0.51318  0.46088  0.19692  Biso   1.000  C
  C268     1.0000 0.10589  0.73635  0.25380  Biso   1.000  C
  C269     1.0000 0.24682  0.87728  0.25740  Biso   1.000  C
  C270     1.0000 0.14403  0.72309  0.25440  Biso   1.000  C
  C271     1.0000 0.20720  0.88650  0.25700  Biso   1.000  C
  C272     1.0000 0.09567  0.77606  0.25420  Biso   1.000  C
  C273     1.0000 0.25708  0.83858  0.25670  Biso   1.000  C
  C274     1.0000 0.59845  0.01599  0.19386  Biso   1.000  C
  N40      1.0000 0.03957  0.64206  0.20278  Biso   1.000  N
  H289     1.0000 0.02190  0.59576  0.18710  Biso   1.000  H
  C275     1.0000 0.90762  0.60128  0.19149  Biso   1.000  C
  C276     1.0000 0.80999  0.44110  0.18525  Biso   1.000  C
  H290     1.0000 0.86281  0.36000  0.19020  Biso   1.000  H
  H291     1.0000 0.92401  0.43262  0.18110  Biso   1.000  H
  H292     1.0000 0.33441  0.26759  0.18960  Biso   1.000  H
  H293     1.0000 0.41120  0.28139  0.19820  Biso   1.000  H
  C277     1.0000 0.45749  0.30508  0.18187  Biso   1.000  C
  C278     1.0000 0.57673  0.46452  0.18783  Biso   1.000  C
  H294     1.0000 0.52609  0.43726  0.20380  Biso   1.000  H
  H295     1.0000 0.05379  0.68426  0.25640  Biso   1.000  H
  C279     1.0000 0.12270  0.75318  0.24260  Biso   1.000  C
  C280     1.0000 0.16138  0.74288  0.24330  Biso   1.000  C
  C281     1.0000 0.11346  0.79275  0.24300  Biso   1.000  C
  H296     1.0000 0.28790  0.91840  0.26270  Biso   1.000  H
  C282     1.0000 0.26363  0.89411  0.24620  Biso   1.000  C
  C283     1.0000 0.22389  0.90427  0.24580  Biso   1.000  C
  C284     1.0000 0.27690  0.85595  0.24560  Biso   1.000  C
  H297     1.0000 0.11779  0.66387  0.25730  Biso   1.000  H
  H298     1.0000 0.22220  0.93469  0.26200  Biso   1.000  H
  H299     1.0000 0.03633  0.74981  0.25710  Biso   1.000  H
  H300     1.0000 0.30519  0.85366  0.26170  Biso   1.000  H
  C285     1.0000 0.53907  0.05227  0.19692  Biso   1.000  C
  H301     1.0000 0.57391  0.97810  0.18710  Biso   1.000  H
  C286     1.0000 0.69365  0.09238  0.19149  Biso   1.000  C
  C287     1.0000 0.11743  0.70721  0.19994  Biso   1.000  C
  H302     1.0000 0.93320  0.66562  0.18960  Biso   1.000  H
  H303     1.0000 0.87018  0.58876  0.19820  Biso   1.000  H
  C288     1.0000 0.84761  0.54245  0.18187  Biso   1.000  C
  H304     1.0000 0.77098  0.42696  0.19180  Biso   1.000  H
  H305     1.0000 0.77314  0.40132  0.17920  Biso   1.000  H
  H306     1.0000 0.44363  0.32702  0.17500  Biso   1.000  H
  H307     1.0000 0.44579  0.24309  0.18060  Biso   1.000  H
  C289     1.0000 0.55887  0.36888  0.18525  Biso   1.000  C
  H308     1.0000 0.63999  0.50281  0.19020  Biso   1.000  H
  H309     1.0000 0.56736  0.49137  0.18110  Biso   1.000  H
  C290     1.0000 0.20020  0.83078  0.23908  Biso   1.000  C
  H310     1.0000 0.08156  0.71206  0.23730  Biso   1.000  H
  H311     1.0000 0.14630  0.69476  0.23830  Biso   1.000  H
  H312     1.0000 0.06530  0.77781  0.23800  Biso   1.000  H
  H313     1.0000 0.31573  0.94620  0.24360  Biso   1.000  H
  H314     1.0000 0.25022  0.96370  0.24290  Biso   1.000  H
  H315     1.0000 0.33613  0.88219  0.24270  Biso   1.000  H
  N41      1.0000 0.44517  0.97998  0.19882  Biso   1.000  N
  C291     1.0000 0.53551  0.11217  0.18783  Biso   1.000  C
  H316     1.0000 0.56267  0.08874  0.20380  Biso   1.000  H
  H317     1.0000 0.73233  0.06680  0.18960  Biso   1.000  H
  H318     1.0000 0.71854  0.12980  0.19820  Biso   1.000  H
  C292     1.0000 0.69478  0.15234  0.18187  Biso   1.000  C
  C293     1.0000 0.17837  0.77417  0.20809  Biso   1.000  C
  H319     1.0000 0.13599  0.71226  0.19250  Biso   1.000  H
  H320     1.0000 0.88343  0.55639  0.17500  Biso   1.000  H
  H321     1.0000 0.79728  0.55416  0.18060  Biso   1.000  H
  H322     1.0000 0.57299  0.34398  0.19180  Biso   1.000  H
  H323     1.0000 0.59866  0.37178  0.17920  Biso   1.000  H
  C294     1.0000 0.21178  0.84228  0.22602  Biso   1.000  C
  C295     1.0000 0.41366  0.97817  0.20837  Biso   1.000  C
  C296     1.0000 0.63106  0.18997  0.18525  Biso   1.000  C
  H324     1.0000 0.49714  0.13720  0.19020  Biso   1.000  H
  H325     1.0000 0.50860  0.07596  0.18110  Biso   1.000  H
  H326     1.0000 0.67301  0.11661  0.17500  Biso   1.000  H
  H327     1.0000 0.75685  0.20269  0.18060  Biso   1.000  H
  C297     1.0000 0.15269  0.77586  0.21887  Biso   1.000  C
  C298     1.0000 0.26329  0.83899  0.20446  Biso   1.000  C
  C299     1.0000 0.29659  0.90710  0.22239  Biso   1.000  C
  C300     1.0000 0.32235  0.90535  0.21162  Biso   1.000  C
  H328     1.0000 0.44933  0.02420  0.21350  Biso   1.000  H
  H329     1.0000 0.65600  0.22900  0.19180  Biso   1.000  H
  H330     1.0000 0.62817  0.22685  0.17920  Biso   1.000  H
  H331     1.0000 0.09470  0.73157  0.22130  Biso   1.000  H
  H332     1.0000 0.28087  0.83778  0.19710  Biso   1.000  H
  H333     1.0000 0.33711  0.95259  0.22730  Biso   1.000  H
  C301     1.0000 0.79053  0.49218  0.43331  Biso   1.000  C
  C302     1.0000 0.76349  0.54360  0.44226  Biso   1.000  C
  H334     1.0000 0.73905  0.43107  0.43200  Biso   1.000  H
  H335     1.0000 0.73911  0.43107  0.43200  Biso   1.000  H
  H336     1.0000 0.80700  0.52570  0.42630  Biso   1.000  H
  C303     1.0000 0.87150  0.48579  0.43777  Biso   1.000  C
  H337     1.0000 0.74658  0.50988  0.44930  Biso   1.000  H
  C304     1.0000 0.84706  0.63997  0.44402  Biso   1.000  C
  H338     1.0000 0.71144  0.54838  0.43960  Biso   1.000  H
  C305     1.0000 0.84712  0.63997  0.44402  Biso   1.000  C
  H339     1.0000 0.71150  0.54838  0.43960  Biso   1.000  H
  C306     1.0000 0.79059  0.49218  0.43331  Biso   1.000  C
  C307     1.0000 0.95354  0.58250  0.43944  Biso   1.000  C
  C308     1.0000 0.95360  0.58250  0.43944  Biso   1.000  C
  H340     1.0000 0.88760  0.45200  0.43250  Biso   1.000  H
  H341     1.0000 0.85520  0.45308  0.44490  Biso   1.000  H
  H342     1.0000 0.86279  0.67551  0.43710  Biso   1.000  H
  N42      1.0000 0.82284  0.68305  0.45244  Biso   1.000  N
  C309     1.0000 0.92787  0.63129  0.44812  Biso   1.000  C
  N43      1.0000 0.82294  0.68312  0.45244  Biso   1.000  N
  C310     1.0000 0.92793  0.63129  0.44812  Biso   1.000  C
  N44      1.0000 0.82290  0.68305  0.45244  Biso   1.000  N
  N45      1.0000 0.82288  0.68312  0.45244  Biso   1.000  N
  H343     1.0000 0.96905  0.61608  0.43240  Biso   1.000  H
  H344     1.0000 0.96911  0.61608  0.43240  Biso   1.000  H
  H345     1.0000 0.00657  0.57886  0.44200  Biso   1.000  H
  C311     1.0000 0.80530  0.74389  0.44995  Biso   1.000  C
  H346     1.0000 0.91359  0.59865  0.45530  Biso   1.000  H
  H347     1.0000 0.91357  0.59872  0.45530  Biso   1.000  H
  N46      1.0000 0.00157  0.72437  0.44939  Biso   1.000  N
  C312     1.0000 0.79179  0.79638  0.45781  Biso   1.000  C
  H348     1.0000 0.80076  0.75486  0.44240  Biso   1.000  H
  H349     1.0000 0.80081  0.75486  0.44240  Biso   1.000  H
  C313     1.0000 0.02121  0.74860  0.45923  Biso   1.000  C
  C314     1.0000 0.76388  0.85689  0.45490  Biso   1.000  C
  C315     1.0000 0.80895  0.79107  0.46901  Biso   1.000  C
  C316     1.0000 0.76393  0.85689  0.45490  Biso   1.000  C
  C317     1.0000 0.80901  0.79107  0.46901  Biso   1.000  C
  H350     1.0000 0.99106  0.70485  0.46480  Biso   1.000  H
  C318     1.0000 0.08943  0.84249  0.46268  Biso   1.000  C
  C319     1.0000 0.08937  0.84249  0.46268  Biso   1.000  C
  C320     1.0000 0.75308  0.91060  0.46268  Biso   1.000  C
  H351     1.0000 0.75174  0.86187  0.44740  Biso   1.000  H
  C321     1.0000 0.75314  0.91060  0.46268  Biso   1.000  C
  H352     1.0000 0.75180  0.86187  0.44740  Biso   1.000  H
  H353     1.0000 0.83170  0.75311  0.47120  Biso   1.000  H
  C322     1.0000 0.79337  0.84080  0.47694  Biso   1.000  C
  C323     1.0000 0.79343  0.84080  0.47694  Biso   1.000  C
  C324     1.0000 0.14311  0.90696  0.45490  Biso   1.000  C
  C325     1.0000 0.10088  0.86389  0.47345  Biso   1.000  C
  C326     1.0000 0.14305  0.90696  0.45490  Biso   1.000  C
  C327     1.0000 0.76294  0.89909  0.47345  Biso   1.000  C
  C328     1.0000 0.76300  0.89909  0.47345  Biso   1.000  C
  C329     1.0000 0.72742  0.97877  0.45923  Biso   1.000  C
  C330     1.0000 0.80698  0.83165  0.48890  Biso   1.000  C
  C331     1.0000 0.15922  0.95259  0.47694  Biso   1.000  C
  H354     1.0000 0.06909  0.81826  0.47880  Biso   1.000  H
  C332     1.0000 0.15917  0.95259  0.47694  Biso   1.000  C
  H355     1.0000 0.06903  0.81826  0.47880  Biso   1.000  H
  H356     1.0000 0.13812  0.88987  0.44740  Biso   1.000  H
  H357     1.0000 0.13806  0.88987  0.44740  Biso   1.000  H
  C333     1.0000 0.20359  0.99540  0.45781  Biso   1.000  C
  H358     1.0000 0.74922  0.93085  0.47880  Biso   1.000  H
  N47      1.0000 0.72276  0.99836  0.44939  Biso   1.000  N
  N48      1.0000 0.72282  0.99836  0.44939  Biso   1.000  N
  H359     1.0000 0.71373  0.00886  0.46480  Biso   1.000  H
  C334     1.0000 0.79528  0.74927  0.49280  Biso   1.000  C
  C335     1.0000 0.73580  0.80668  0.49632  Biso   1.000  C
  C336     1.0000 0.89049  0.84679  0.49288  Biso   1.000  C
  C337     1.0000 0.83910  0.90696  0.49617  Biso   1.000  C
  C338     1.0000 0.16829  0.97527  0.48890  Biso   1.000  C
  C339     1.0000 0.20883  0.01788  0.46901  Biso   1.000  C
  C340     1.0000 0.20889  0.01788  0.46901  Biso   1.000  C
  C341     1.0000 0.25604  0.06135  0.44995  Biso   1.000  C
  C342     1.0000 0.70342  0.07205  0.44812  Biso   1.000  C
  C343     1.0000 0.70331  0.07205  0.44812  Biso   1.000  C
  H360     1.0000 0.77896  0.70135  0.48770  Biso   1.000  H
  C344     1.0000 0.80668  0.73581  0.50368  Biso   1.000  C
  H361     1.0000 0.77902  0.70135  0.48770  Biso   1.000  H
  C345     1.0000 0.80674  0.73581  0.50368  Biso   1.000  C
  H362     1.0000 0.67925  0.79780  0.49390  Biso   1.000  H
  C346     1.0000 0.74935  0.79531  0.50720  Biso   1.000  C
  H363     1.0000 0.67931  0.79780  0.49390  Biso   1.000  H
  H364     1.0000 0.93796  0.86315  0.48780  Biso   1.000  H
  C347     1.0000 0.90697  0.83905  0.50383  Biso   1.000  C
  C348     1.0000 0.84676  0.89047  0.50712  Biso   1.000  C
  H365     1.0000 0.85439  0.96518  0.49360  Biso   1.000  H
  C349     1.0000 0.19329  0.92910  0.49632  Biso   1.000  C
  C350     1.0000 0.09301  0.93207  0.49617  Biso   1.000  C
  C351     1.0000 0.25066  0.04594  0.49280  Biso   1.000  C
  C352     1.0000 0.25075  0.04601  0.49280  Biso   1.000  C
  C353     1.0000 0.15317  0.04365  0.49288  Biso   1.000  C
  H366     1.0000 0.24687  0.07858  0.47120  Biso   1.000  H
  H367     1.0000 0.24682  0.07858  0.47120  Biso   1.000  H
  N49      1.0000 0.31686  0.13976  0.45244  Biso   1.000  N
  H368     1.0000 0.24503  0.04587  0.44240  Biso   1.000  H
  H369     1.0000 0.24509  0.04587  0.44240  Biso   1.000  H
  C354     1.0000 0.79285  0.15288  0.44402  Biso   1.000  C
  H370     1.0000 0.68506  0.08639  0.45530  Biso   1.000  H
  C355     1.0000 0.62879  0.04634  0.43944  Biso   1.000  C
  C356     1.0000 0.83164  0.80695  0.51110  Biso   1.000  C
  H371     1.0000 0.79782  0.67928  0.50610  Biso   1.000  H
  C357     1.0000 0.83170  0.80695  0.51110  Biso   1.000  C
  H372     1.0000 0.70136  0.77895  0.51230  Biso   1.000  H
  H373     1.0000 0.70142  0.77895  0.51230  Biso   1.000  H
  H374     1.0000 0.96517  0.85440  0.50640  Biso   1.000  H
  H375     1.0000 0.86318  0.93799  0.51220  Biso   1.000  H
  C358     1.0000 0.20475  0.95401  0.50720  Biso   1.000  C
  C359     1.0000 0.20469  0.95401  0.50720  Biso   1.000  C
  H376     1.0000 0.20217  0.88145  0.49390  Biso   1.000  H
  C360     1.0000 0.10955  0.95629  0.50712  Biso   1.000  C
  H377     1.0000 0.03485  0.88919  0.49360  Biso   1.000  H
  H378     1.0000 0.29859  0.07757  0.48770  Biso   1.000  H
  C361     1.0000 0.26422  0.07084  0.50368  Biso   1.000  C
  C362     1.0000 0.26410  0.07084  0.50368  Biso   1.000  C
  H379     1.0000 0.29865  0.07757  0.48770  Biso   1.000  H
  H380     1.0000 0.13678  0.07475  0.48780  Biso   1.000  H
  C363     1.0000 0.16091  0.06788  0.50383  Biso   1.000  C
  C364     1.0000 0.36001  0.20706  0.44402  Biso   1.000  C
  C365     1.0000 0.35990  0.20706  0.44402  Biso   1.000  C
  N50      1.0000 0.86013  0.17704  0.45244  Biso   1.000  N
  H381     1.0000 0.81276  0.13720  0.43710  Biso   1.000  H
  C366     1.0000 0.78004  0.23647  0.44226  Biso   1.000  C
  H382     1.0000 0.81270  0.13720  0.43710  Biso   1.000  H
  H383     1.0000 0.57228  0.99338  0.44200  Biso   1.000  H
  C367     1.0000 0.61429  0.12845  0.43777  Biso   1.000  C
  H384     1.0000 0.64698  0.03086  0.43240  Biso   1.000  H
  H385     1.0000 0.64692  0.03086  0.43240  Biso   1.000  H
  C368     1.0000 0.84075  0.79336  0.52306  Biso   1.000  C
  C369     1.0000 0.84081  0.79336  0.52306  Biso   1.000  C
  C370     1.0000 0.19299  0.02467  0.51110  Biso   1.000  C
  H386     1.0000 0.22099  0.92237  0.51230  Biso   1.000  H
  H387     1.0000 0.06201  0.92520  0.51220  Biso   1.000  H
  H388     1.0000 0.32074  0.11849  0.50610  Biso   1.000  H
  H389     1.0000 0.32063  0.11849  0.50610  Biso   1.000  H
  H390     1.0000 0.14557  0.11075  0.50640  Biso   1.000  H
  C371     1.0000 0.45640  0.21985  0.44226  Biso   1.000  C
  C372     1.0000 0.36869  0.29657  0.44812  Biso   1.000  C
  H391     1.0000 0.32448  0.18727  0.43710  Biso   1.000  H
  C373     1.0000 0.36875  0.29657  0.44812  Biso   1.000  C
  C374     1.0000 0.93854  0.19468  0.44995  Biso   1.000  C
  H392     1.0000 0.83688  0.28850  0.43960  Biso   1.000  H
  H393     1.0000 0.76330  0.25337  0.44930  Biso   1.000  H
  C375     1.0000 0.70160  0.20935  0.43331  Biso   1.000  C
  H394     1.0000 0.83682  0.28850  0.43960  Biso   1.000  H
  C376     1.0000 0.70149  0.20935  0.43331  Biso   1.000  C
  H395     1.0000 0.56440  0.11237  0.43250  Biso   1.000  H
  H396     1.0000 0.59790  0.14474  0.44490  Biso   1.000  H
  H397     1.0000 0.59778  0.14474  0.44490  Biso   1.000  H
  C377     1.0000 0.79103  0.80897  0.53099  Biso   1.000  C
  C378     1.0000 0.89913  0.76300  0.52655  Biso   1.000  C
  C379     1.0000 0.79109  0.80897  0.53099  Biso   1.000  C
  C380     1.0000 0.20655  0.04735  0.52306  Biso   1.000  C
  H398     1.0000 0.45161  0.16305  0.43960  Biso   1.000  H
  H399     1.0000 0.49011  0.23667  0.44930  Biso   1.000  H
  C381     1.0000 0.50774  0.29839  0.43331  Biso   1.000  C
  H400     1.0000 0.45155  0.16305  0.43960  Biso   1.000  H
  C382     1.0000 0.50785  0.29839  0.43331  Biso   1.000  C
  N51      1.0000 0.27554  0.27719  0.44939  Biso   1.000  N
  C383     1.0000 0.41743  0.37108  0.43944  Biso   1.000  C
  H401     1.0000 0.40128  0.31488  0.45530  Biso   1.000  H
  H402     1.0000 0.40122  0.31488  0.45530  Biso   1.000  H
  N52      1.0000 0.27565  0.27719  0.44939  Biso   1.000  N
  C384     1.0000 0.41754  0.37108  0.43944  Biso   1.000  C
  H403     1.0000 0.95408  0.19919  0.44240  Biso   1.000  H
  C385     1.0000 0.00461  0.20814  0.45781  Biso   1.000  C
  H404     1.0000 0.71866  0.19300  0.42630  Biso   1.000  H
  H405     1.0000 0.69200  0.26090  0.43200  Biso   1.000  H
  H406     1.0000 0.93094  0.74921  0.52120  Biso   1.000  H
  C386     1.0000 0.91062  0.75311  0.53732  Biso   1.000  C
  H407     1.0000 0.75306  0.83165  0.52880  Biso   1.000  H
  C387     1.0000 0.79644  0.79181  0.54219  Biso   1.000  C
  C388     1.0000 0.19098  0.98207  0.53099  Biso   1.000  C
  C389     1.0000 0.23691  0.13606  0.52655  Biso   1.000  C
  H408     1.0000 0.56888  0.30795  0.43200  Biso   1.000  H
  H409     1.0000 0.47430  0.28130  0.42630  Biso   1.000  H
  C390     1.0000 0.51414  0.38568  0.43777  Biso   1.000  C
  C391     1.0000 0.51420  0.38568  0.43777  Biso   1.000  C
  C392     1.0000 0.25136  0.27255  0.45923  Biso   1.000  C
  H410     1.0000 0.42107  0.42768  0.44200  Biso   1.000  H
  H411     1.0000 0.38384  0.35297  0.43240  Biso   1.000  H
  H412     1.0000 0.42101  0.42768  0.44200  Biso   1.000  H
  H413     1.0000 0.38389  0.35297  0.43240  Biso   1.000  H
  C393     1.0000 0.09300  0.23607  0.45490  Biso   1.000  C
  C394     1.0000 0.98209  0.19098  0.46901  Biso   1.000  C
  C395     1.0000 0.97878  0.72740  0.54077  Biso   1.000  C
  C396     1.0000 0.85691  0.76388  0.54510  Biso   1.000  C
  C397     1.0000 0.74384  0.80527  0.55005  Biso   1.000  C
  C398     1.0000 0.74389  0.80527  0.55005  Biso   1.000  C
  C399     1.0000 0.20817  0.00455  0.54219  Biso   1.000  C
  H414     1.0000 0.16827  0.92136  0.52880  Biso   1.000  H
  C400     1.0000 0.24685  0.15746  0.53732  Biso   1.000  C
  H415     1.0000 0.25075  0.18169  0.52120  Biso   1.000  H
  H416     1.0000 0.54793  0.43555  0.43250  Biso   1.000  H
  H417     1.0000 0.54685  0.40204  0.44490  Biso   1.000  H
  H418     1.0000 0.54679  0.40204  0.44490  Biso   1.000  H
  H419     1.0000 0.29511  0.28614  0.46480  Biso   1.000  H
  C401     1.0000 0.15743  0.24684  0.46268  Biso   1.000  C
  C402     1.0000 0.15746  0.24690  0.46268  Biso   1.000  C
  H420     1.0000 0.29499  0.28614  0.46480  Biso   1.000  H
  H421     1.0000 0.11007  0.24818  0.44740  Biso   1.000  H
  H422     1.0000 0.92144  0.16830  0.47120  Biso   1.000  H
  H423     1.0000 0.92133  0.16830  0.47120  Biso   1.000  H
  C403     1.0000 0.04743  0.20659  0.47694  Biso   1.000  C
  N53      1.0000 0.99838  0.72276  0.55061  Biso   1.000  N
  H424     1.0000 0.00888  0.71381  0.53520  Biso   1.000  H
  H425     1.0000 0.86186  0.75176  0.55260  Biso   1.000  H
  H426     1.0000 0.86192  0.75176  0.55260  Biso   1.000  H
  H427     1.0000 0.75487  0.80076  0.55760  Biso   1.000  H
  N54      1.0000 0.68312  0.82290  0.54756  Biso   1.000  N
  C404     1.0000 0.19466  0.93859  0.55005  Biso   1.000  C
  C405     1.0000 0.23612  0.09298  0.54510  Biso   1.000  C
  C406     1.0000 0.23607  0.09298  0.54510  Biso   1.000  C
  C407     1.0000 0.27252  0.25135  0.54077  Biso   1.000  C
  C408     1.0000 0.27264  0.25135  0.54077  Biso   1.000  C
  C409     1.0000 0.13604  0.23694  0.47345  Biso   1.000  C
  C410     1.0000 0.02466  0.19300  0.48890  Biso   1.000  C
  C411     1.0000 0.07209  0.70337  0.55188  Biso   1.000  C
  C412     1.0000 0.64000  0.84706  0.55598  Biso   1.000  C
  H428     1.0000 0.19919  0.95407  0.55760  Biso   1.000  H
  N55      1.0000 0.17708  0.86019  0.54756  Biso   1.000  N
  H429     1.0000 0.24823  0.11008  0.55260  Biso   1.000  H
  H430     1.0000 0.24817  0.11008  0.55260  Biso   1.000  H
  N56      1.0000 0.27718  0.27557  0.55061  Biso   1.000  N
  H431     1.0000 0.28618  0.29509  0.53520  Biso   1.000  H
  H432     1.0000 0.18164  0.25074  0.47880  Biso   1.000  H
  C413     1.0000 0.95401  0.20464  0.49280  Biso   1.000  C
  C414     1.0000 0.95390  0.20464  0.49280  Biso   1.000  C
  C415     1.0000 0.95626  0.10947  0.49288  Biso   1.000  C
  C416     1.0000 0.07093  0.26420  0.49632  Biso   1.000  C
  C417     1.0000 0.06789  0.16089  0.49617  Biso   1.000  C
  C418     1.0000 0.04638  0.62887  0.56056  Biso   1.000  C
  H433     1.0000 0.08637  0.68507  0.54470  Biso   1.000  H
  C419     1.0000 0.15287  0.79288  0.55598  Biso   1.000  C
  C420     1.0000 0.54354  0.76347  0.55774  Biso   1.000  C
  H434     1.0000 0.67550  0.86281  0.56290  Biso   1.000  H
  C421     1.0000 0.54360  0.76347  0.55774  Biso   1.000  C
  C422     1.0000 0.63134  0.92789  0.55188  Biso   1.000  C
  C423     1.0000 0.29661  0.36865  0.55188  Biso   1.000  C
  C424     1.0000 0.29656  0.36865  0.55188  Biso   1.000  C
  H435     1.0000 0.92238  0.22099  0.48770  Biso   1.000  H
  C425     1.0000 0.92909  0.19326  0.50368  Biso   1.000  C
  H436     1.0000 0.92516  0.06196  0.48780  Biso   1.000  H
  C426     1.0000 0.93205  0.09298  0.50383  Biso   1.000  C
  C427     1.0000 0.04604  0.25067  0.50720  Biso   1.000  C
  H437     1.0000 0.11851  0.32067  0.49390  Biso   1.000  H
  C428     1.0000 0.04592  0.25067  0.50720  Biso   1.000  C
  C429     1.0000 0.04367  0.15315  0.50712  Biso   1.000  C
  H438     1.0000 0.11075  0.14555  0.49360  Biso   1.000  H
  H439     1.0000 0.13717  0.81267  0.56290  Biso   1.000  H
  C430     1.0000 0.23647  0.78010  0.55774  Biso   1.000  C
  H440     1.0000 0.99337  0.57227  0.55800  Biso   1.000  H
  C431     1.0000 0.12849  0.61427  0.56223  Biso   1.000  C
  H441     1.0000 0.03090  0.64697  0.56760  Biso   1.000  H
  C432     1.0000 0.49217  0.79060  0.56669  Biso   1.000  C
  H442     1.0000 0.50991  0.74658  0.55070  Biso   1.000  H
  C433     1.0000 0.49223  0.79060  0.56669  Biso   1.000  C
  H443     1.0000 0.54842  0.71145  0.56040  Biso   1.000  H
  H444     1.0000 0.54839  0.71152  0.56040  Biso   1.000  H
  C434     1.0000 0.58247  0.95360  0.56056  Biso   1.000  C
  C435     1.0000 0.58253  0.95360  0.56056  Biso   1.000  C
  H445     1.0000 0.59870  0.91356  0.54470  Biso   1.000  H
  N57      1.0000 0.72443  0.00159  0.55061  Biso   1.000  N
  N58      1.0000 0.72438  0.00159  0.55061  Biso   1.000  N
  C436     1.0000 0.37108  0.41745  0.56056  Biso   1.000  C
  C437     1.0000 0.20706  0.35997  0.55598  Biso   1.000  C
  H446     1.0000 0.31492  0.40130  0.54470  Biso   1.000  H
  H447     1.0000 0.88148  0.20215  0.50610  Biso   1.000  H
  C438     1.0000 0.97536  0.16830  0.51110  Biso   1.000  C
  C439     1.0000 0.97524  0.16830  0.51110  Biso   1.000  C
  H448     1.0000 0.88924  0.03477  0.50640  Biso   1.000  H
  H449     1.0000 0.07758  0.29859  0.51230  Biso   1.000  H
  H450     1.0000 0.07478  0.13680  0.51220  Biso   1.000  H
  H451     1.0000 0.28853  0.83690  0.56040  Biso   1.000  H
  H452     1.0000 0.25341  0.76327  0.55070  Biso   1.000  H
  C440     1.0000 0.20938  0.70156  0.56669  Biso   1.000  C
  H453     1.0000 0.28847  0.83690  0.56040  Biso   1.000  H
  H454     1.0000 0.25335  0.76327  0.55070  Biso   1.000  H
  H455     1.0000 0.14479  0.59791  0.55510  Biso   1.000  H
  H456     1.0000 0.11235  0.56439  0.56750  Biso   1.000  H
  H457     1.0000 0.43110  0.73911  0.56800  Biso   1.000  H
  C441     1.0000 0.48576  0.87149  0.56223  Biso   1.000  C
  H458     1.0000 0.52570  0.80695  0.57370  Biso   1.000  H
  C442     1.0000 0.48581  0.87149  0.56223  Biso   1.000  C
  H459     1.0000 0.61609  0.96908  0.56760  Biso   1.000  H
  H460     1.0000 0.57894  0.00657  0.55800  Biso   1.000  H
  H461     1.0000 0.57882  0.00657  0.55800  Biso   1.000  H
  C443     1.0000 0.74857  0.02117  0.54077  Biso   1.000  C
  C444     1.0000 0.74851  0.02117  0.54077  Biso   1.000  C
  C445     1.0000 0.38563  0.51416  0.56223  Biso   1.000  C
  H462     1.0000 0.42774  0.42108  0.55800  Biso   1.000  H
  H463     1.0000 0.35294  0.38386  0.56760  Biso   1.000  H
  H464     1.0000 0.42762  0.42108  0.55800  Biso   1.000  H
  C446     1.0000 0.38574  0.51416  0.56223  Biso   1.000  C
  H465     1.0000 0.18725  0.32444  0.56290  Biso   1.000  H
  N59      1.0000 0.13977  0.31690  0.54756  Biso   1.000  N
  C447     1.0000 0.21993  0.45635  0.55774  Biso   1.000  C
  C448     1.0000 0.21981  0.45635  0.55774  Biso   1.000  C
  C449     1.0000 0.95254  0.15914  0.52306  Biso   1.000  C
  H466     1.0000 0.26090  0.69200  0.56800  Biso   1.000  H
  H467     1.0000 0.19298  0.71865  0.57370  Biso   1.000  H
  H468     1.0000 0.45307  0.85521  0.55510  Biso   1.000  H
  H469     1.0000 0.45201  0.88758  0.56750  Biso   1.000  H
  H470     1.0000 0.45313  0.85521  0.55510  Biso   1.000  H
  C450     1.0000 0.84245  0.08935  0.53732  Biso   1.000  C
  H471     1.0000 0.70491  0.99109  0.53520  Biso   1.000  H
  H472     1.0000 0.43557  0.54795  0.56750  Biso   1.000  H
  C451     1.0000 0.29833  0.50777  0.56669  Biso   1.000  C
  C452     1.0000 0.29838  0.50777  0.56669  Biso   1.000  C
  H473     1.0000 0.40210  0.54687  0.55510  Biso   1.000  H
  C453     1.0000 0.06144  0.25606  0.55005  Biso   1.000  C
  C454     1.0000 0.06132  0.25606  0.55005  Biso   1.000  C
  H474     1.0000 0.16310  0.45157  0.56040  Biso   1.000  H
  H475     1.0000 0.23667  0.49007  0.55070  Biso   1.000  H
  H476     1.0000 0.23661  0.49007  0.55070  Biso   1.000  H
  C455     1.0000 0.86389  0.10086  0.52655  Biso   1.000  C
  C456     1.0000 0.01786  0.20888  0.53099  Biso   1.000  C
  C457     1.0000 0.90696  0.14306  0.54510  Biso   1.000  C
  H477     1.0000 0.30796  0.56888  0.56800  Biso   1.000  H
  H478     1.0000 0.28128  0.47425  0.57370  Biso   1.000  H
  C458     1.0000 0.99538  0.20356  0.54219  Biso   1.000  C
  H479     1.0000 0.04587  0.24509  0.55760  Biso   1.000  H
  H480     1.0000 0.81834  0.06909  0.52120  Biso   1.000  H
  H481     1.0000 0.81822  0.06909  0.52120  Biso   1.000  H
  H482     1.0000 0.07857  0.24684  0.52880  Biso   1.000  H
  H483     1.0000 0.07860  0.24690  0.52880  Biso   1.000  H
  H484     1.0000 0.88990  0.13808  0.55260  Biso   1.000  H
  C459     1.0000 0.99540  0.17882  0.18699  Biso   1.000  C
  C460     1.0000 0.05734  0.14382  0.18242  Biso   1.000  C
  C461     1.0000 0.98982  0.23912  0.17806  Biso   1.000  C
  H485     1.0000 0.02101  0.21362  0.19380  Biso   1.000  H
  H486     1.0000 0.93468  0.12767  0.18860  Biso   1.000  H
  C462     1.0000 0.14552  0.21900  0.17976  Biso   1.000  C
  H487     1.0000 0.06340  0.10513  0.18800  Biso   1.000  H
  H488     1.0000 0.02983  0.10721  0.17580  Biso   1.000  H
  C463     1.0000 0.08357  0.31659  0.17516  Biso   1.000  C
  H489     1.0000 0.96121  0.20278  0.17140  Biso   1.000  H
  H490     1.0000 0.95193  0.26382  0.18070  Biso   1.000  H
  C464     1.0000 0.14308  0.27742  0.17129  Biso   1.000  C
  H491     1.0000 0.18471  0.19538  0.17730  Biso   1.000  H
  H492     1.0000 0.17262  0.25501  0.18650  Biso   1.000  H
  N60      1.0000 0.07271  0.36888  0.16631  Biso   1.000  N
  H493     1.0000 0.11126  0.35576  0.18170  Biso   1.000  H
  N61      1.0000 0.23462  0.35569  0.16971  Biso   1.000  N
  H494     1.0000 0.11968  0.24357  0.16420  Biso   1.000  H
  C465     1.0000 0.08333  0.44480  0.16906  Biso   1.000  C
  C466     1.0000 0.26573  0.36161  0.15979  Biso   1.000  C
  C467     1.0000 0.07117  0.50207  0.16087  Biso   1.000  C
  H495     1.0000 0.09901  0.46519  0.17640  Biso   1.000  H
  C468     1.0000 0.35839  0.43282  0.15677  Biso   1.000  C
  H496     1.0000 0.22841  0.31962  0.15440  Biso   1.000  H
  C469     1.0000 0.04361  0.47259  0.14981  Biso   1.000  C
  C470     1.0000 0.08582  0.58418  0.16379  Biso   1.000  C
  C471     1.0000 0.41581  0.50160  0.16379  Biso   1.000  C
  C472     1.0000 0.38742  0.43551  0.14616  Biso   1.000  C
  C473     1.0000 0.03059  0.52630  0.14273  Biso   1.000  C
  H497     1.0000 0.03438  0.41579  0.14740  Biso   1.000  H
  H498     1.0000 0.10522  0.60410  0.17110  Biso   1.000  H
  C474     1.0000 0.07442  0.64159  0.15677  Biso   1.000  C
  C475     1.0000 0.49788  0.56911  0.16087  Biso   1.000  C
  H499     1.0000 0.39590  0.50106  0.17110  Biso   1.000  H
  C476     1.0000 0.47369  0.50429  0.14273  Biso   1.000  C
  H500     1.0000 0.34898  0.39069  0.14110  Biso   1.000  H
  C477     1.0000 0.04809  0.61258  0.14616  Biso   1.000  C
  C478     1.0000 0.99759  0.49178  0.13138  Biso   1.000  C
  C479     1.0000 0.09587  0.73426  0.15979  Biso   1.000  C
  C480     1.0000 0.52738  0.57099  0.14981  Biso   1.000  C
  C481     1.0000 0.55519  0.63849  0.16906  Biso   1.000  C
  C482     1.0000 0.50818  0.50577  0.13138  Biso   1.000  C
  H501     1.0000 0.04172  0.65101  0.14110  Biso   1.000  H
  N62      1.0000 0.97477  0.52738  0.12411  Biso   1.000  N
  H502     1.0000 0.99369  0.43618  0.12950  Biso   1.000  H
  N63      1.0000 0.12110  0.76536  0.16971  Biso   1.000  N
  H503     1.0000 0.09120  0.77155  0.15440  Biso   1.000  H
  H504     1.0000 0.58416  0.61857  0.14740  Biso   1.000  H
  H505     1.0000 0.53476  0.63378  0.17640  Biso   1.000  H
  N64      1.0000 0.63107  0.70378  0.16631  Biso   1.000  N
  N65      1.0000 0.47256  0.44736  0.12411  Biso   1.000  N
  H506     1.0000 0.56375  0.55746  0.12950  Biso   1.000  H
  C483     1.0000 0.93591  0.47798  0.11393  Biso   1.000  C
  C484     1.0000 0.13428  0.85689  0.17129  Biso   1.000  C
  C485     1.0000 0.68336  0.76697  0.17516  Biso   1.000  C
  C486     1.0000 0.52202  0.45792  0.11393  Biso   1.000  C
  C487     1.0000 0.99480  0.53620  0.10466  Biso   1.000  C
  C488     1.0000 0.84431  0.45846  0.11224  Biso   1.000  C
  H507     1.0000 0.93708  0.42030  0.11410  Biso   1.000  H
  H508     1.0000 0.12390  0.88031  0.16420  Biso   1.000  H
  C489     1.0000 0.07350  0.85447  0.17976  Biso   1.000  C
  C490     1.0000 0.23298  0.91638  0.17516  Biso   1.000  C
  C491     1.0000 0.72259  0.86571  0.17129  Biso   1.000  C
  C492     1.0000 0.76090  0.75069  0.17806  Biso   1.000  C
  H509     1.0000 0.64415  0.75547  0.18170  Biso   1.000  H
  C493     1.0000 0.46378  0.45860  0.10466  Biso   1.000  C
  C494     1.0000 0.54149  0.38578  0.11224  Biso   1.000  C
  H510     1.0000 0.57967  0.51681  0.11410  Biso   1.000  H
  N66      1.0000 0.08394  0.54521  0.10542  Biso   1.000  N
  H511     1.0000 0.99952  0.59670  0.10480  Biso   1.000  H
  C495     1.0000 0.95523  0.48760  0.09330  Biso   1.000  C
  C496     1.0000 0.80268  0.41297  0.10060  Biso   1.000  C
  H512     1.0000 0.84272  0.51520  0.11290  Biso   1.000  H
  H513     1.0000 0.80591  0.41768  0.11810  Biso   1.000  H
  H514     1.0000 0.01073  0.81530  0.17730  Biso   1.000  H
  H515     1.0000 0.08241  0.82741  0.18650  Biso   1.000  H
  C497     1.0000 0.08649  0.94270  0.18242  Biso   1.000  C
  N67      1.0000 0.29619  0.92729  0.16631  Biso   1.000  N
  H516     1.0000 0.24447  0.88866  0.18170  Biso   1.000  H
  C498     1.0000 0.24929  0.01020  0.17806  Biso   1.000  C
  N68      1.0000 0.64432  0.87890  0.16971  Biso   1.000  N
  H517     1.0000 0.75639  0.87607  0.16420  Biso   1.000  H
  C499     1.0000 0.78101  0.92648  0.17976  Biso   1.000  C
  C500     1.0000 0.82118  0.81658  0.18699  Biso   1.000  C
  H518     1.0000 0.79714  0.75836  0.17140  Biso   1.000  H
  H519     1.0000 0.73619  0.68810  0.18070  Biso   1.000  H
  N69      1.0000 0.45481  0.53869  0.10542  Biso   1.000  N
  H520     1.0000 0.40330  0.40280  0.10480  Biso   1.000  H
  C501     1.0000 0.51241  0.46761  0.09330  Biso   1.000  C
  C502     1.0000 0.58698  0.38968  0.10060  Biso   1.000  C
  H521     1.0000 0.48478  0.32749  0.11290  Biso   1.000  H
  H522     1.0000 0.58228  0.38820  0.11810  Biso   1.000  H
  C503     1.0000 0.14902  0.62409  0.10448  Biso   1.000  C
  H523     1.0000 0.99477  0.52496  0.08720  Biso   1.000  H
  H524     1.0000 0.95337  0.42898  0.09320  Biso   1.000  H
  C504     1.0000 0.86291  0.47280  0.09165  Biso   1.000  C
  H525     1.0000 0.79780  0.35307  0.10010  Biso   1.000  H
  H526     1.0000 0.74170  0.40489  0.09980  Biso   1.000  H
  H527     1.0000 0.04170  0.93657  0.18800  Biso   1.000  H
  H528     1.0000 0.07737  0.97016  0.17580  Biso   1.000  H
  C505     1.0000 0.18340  0.00455  0.18699  Biso   1.000  C
  C506     1.0000 0.36146  0.91665  0.16906  Biso   1.000  C
  H529     1.0000 0.24162  0.03881  0.17140  Biso   1.000  H
  H530     1.0000 0.31189  0.04809  0.18070  Biso   1.000  H
  C507     1.0000 0.63837  0.90407  0.15979  Biso   1.000  C
  H531     1.0000 0.80460  0.98927  0.17730  Biso   1.000  H
  H532     1.0000 0.74498  0.91760  0.18650  Biso   1.000  H
  C508     1.0000 0.85617  0.91349  0.18242  Biso   1.000  C
  H533     1.0000 0.87226  0.80695  0.18860  Biso   1.000  H
  H534     1.0000 0.78638  0.80735  0.19380  Biso   1.000  H
  C509     1.0000 0.37587  0.52489  0.10448  Biso   1.000  C
  H535     1.0000 0.47496  0.46977  0.08720  Biso   1.000  H
  H536     1.0000 0.57100  0.52442  0.09320  Biso   1.000  H
  C510     1.0000 0.52721  0.39008  0.09165  Biso   1.000  C
  H537     1.0000 0.64688  0.44466  0.10010  Biso   1.000  H
  H538     1.0000 0.59510  0.33678  0.09980  Biso   1.000  H
  C511     1.0000 0.24441  0.64771  0.10436  Biso   1.000  C
  H539     1.0000 0.13600  0.67161  0.10380  Biso   1.000  H
  H540     1.0000 0.83961  0.44440  0.08440  Biso   1.000  H
  H541     1.0000 0.86443  0.53121  0.09180  Biso   1.000  H
  H542     1.0000 0.19258  0.97897  0.19380  Biso   1.000  H
  H543     1.0000 0.19300  0.06526  0.18860  Biso   1.000  H
  C512     1.0000 0.43087  0.92877  0.16087  Biso   1.000  C
  H544     1.0000 0.36621  0.90097  0.17640  Biso   1.000  H
  C513     1.0000 0.56719  0.92560  0.15677  Biso   1.000  C
  H545     1.0000 0.68036  0.90878  0.15440  Biso   1.000  H
  H546     1.0000 0.89487  0.95825  0.18800  Biso   1.000  H
  H547     1.0000 0.89277  0.92258  0.17580  Biso   1.000  H
  C514     1.0000 0.35232  0.59670  0.10436  Biso   1.000  C
  H548     1.0000 0.32836  0.46438  0.10380  Biso   1.000  H
  H549     1.0000 0.55559  0.39520  0.08440  Biso   1.000  H
  H550     1.0000 0.46882  0.33321  0.09180  Biso   1.000  H
  C515     1.0000 0.26300  0.57927  0.10426  Biso   1.000  C
  C516     1.0000 0.31625  0.73696  0.10426  Biso   1.000  C
  C517     1.0000 0.49841  0.91416  0.16379  Biso   1.000  C
  C518     1.0000 0.42899  0.95636  0.14981  Biso   1.000  C
  C519     1.0000 0.56446  0.95185  0.14616  Biso   1.000  C
  C520     1.0000 0.42069  0.68365  0.10426  Biso   1.000  C
  H551     1.0000 0.21491  0.51876  0.10410  Biso   1.000  H
  C521     1.0000 0.40327  0.75560  0.10436  Biso   1.000  C
  H552     1.0000 0.30389  0.78508  0.10410  Biso   1.000  H
  H553     1.0000 0.49891  0.89478  0.17110  Biso   1.000  H
  C522     1.0000 0.49569  0.96935  0.14273  Biso   1.000  C
  H554     1.0000 0.38137  0.96558  0.14740  Biso   1.000  H
  H555     1.0000 0.60927  0.95825  0.14110  Biso   1.000  H
  H556     1.0000 0.48118  0.69610  0.10410  Biso   1.000  H
  C523     1.0000 0.47508  0.85097  0.10448  Biso   1.000  C
  C524     1.0000 0.49420  0.00240  0.13138  Biso   1.000  C
  N70      1.0000 0.46129  0.91605  0.10542  Biso   1.000  N
  H557     1.0000 0.53555  0.86396  0.10380  Biso   1.000  H
  N71      1.0000 0.55250  0.02514  0.12411  Biso   1.000  N
  H558     1.0000 0.44242  0.00630  0.12950  Biso   1.000  H
  C525     1.0000 0.54134  0.00516  0.10466  Biso   1.000  C
  C526     1.0000 0.54205  0.06404  0.11393  Biso   1.000  C
  H559     1.0000 0.59715  0.00044  0.10480  Biso   1.000  H
  C527     1.0000 0.53242  0.04480  0.09330  Biso   1.000  C
  C528     1.0000 0.61419  0.15564  0.11224  Biso   1.000  C
  H560     1.0000 0.48313  0.06290  0.11410  Biso   1.000  H
  H561     1.0000 0.53015  0.00516  0.08720  Biso   1.000  H
  H562     1.0000 0.47554  0.04655  0.09320  Biso   1.000  H
  C529     1.0000 0.60986  0.13707  0.09165  Biso   1.000  C
  C530     1.0000 0.61031  0.19730  0.10060  Biso   1.000  C
  H563     1.0000 0.67241  0.15726  0.11290  Biso   1.000  H
  H564     1.0000 0.61178  0.19407  0.11810  Biso   1.000  H
  H565     1.0000 0.60472  0.16035  0.08440  Biso   1.000  H
  H566     1.0000 0.66676  0.13559  0.09180  Biso   1.000  H
  H567     1.0000 0.55526  0.20215  0.10010  Biso   1.000  H
  H568     1.0000 0.66318  0.25828  0.09980  Biso   1.000  H
  C531     1.0000 0.78824  0.31659  0.14592  Biso   1.000  C
  C532     1.0000 0.83049  0.21597  0.15578  Biso   1.000  C
  C533     1.0000 0.83043  0.21597  0.15578  Biso   1.000  C
  H569     1.0000 0.70430  0.20419  0.15510  Biso   1.000  H
  H570     1.0000 0.77378  0.28731  0.16250  Biso   1.000  H
  H571     1.0000 0.70424  0.20419  0.15510  Biso   1.000  H
  C534     1.0000 0.78458  0.27069  0.13533  Biso   1.000  C
  C535     1.0000 0.76730  0.25407  0.15558  Biso   1.000  C
  H572     1.0000 0.84906  0.36969  0.14690  Biso   1.000  H
  H573     1.0000 0.74445  0.33813  0.14570  Biso   1.000  H
  C536     1.0000 0.83011  0.17290  0.14492  Biso   1.000  C
  C537     1.0000 0.83005  0.17290  0.14492  Biso   1.000  C
  H574     1.0000 0.81189  0.17061  0.16170  Biso   1.000  H
  H575     1.0000 0.89235  0.26497  0.15740  Biso   1.000  H
  C538     1.0000 0.85249  0.23899  0.13533  Biso   1.000  C
  H576     1.0000 0.72342  0.21853  0.13430  Biso   1.000  H
  C539     1.0000 0.85243  0.23899  0.13533  Biso   1.000  C
  H577     1.0000 0.79735  0.31289  0.12920  Biso   1.000  H
  H578     1.0000 0.72336  0.21853  0.13430  Biso   1.000  H
  N72      1.0000 0.90295  0.14921  0.14532  Biso   1.000  N
  H579     1.0000 0.77034  0.11771  0.14370  Biso   1.000  H
  N73      1.0000 0.84269  0.19107  0.12487  Biso   1.000  N
  H580     1.0000 0.91503  0.29122  0.13610  Biso   1.000  H
  H581     1.0000 0.91497  0.29122  0.13610  Biso   1.000  H
  N74      1.0000 0.84264  0.19107  0.12487  Biso   1.000  N
  C540     1.0000 0.87530  0.06522  0.14639  Biso   1.000  C
  C541     1.0000 0.90833  0.23118  0.11794  Biso   1.000  C
  H582     1.0000 0.81259  0.02362  0.14690  Biso   1.000  H
  C542     1.0000 0.94136  0.03217  0.14686  Biso   1.000  C
  C543     1.0000 0.90291  0.19598  0.10692  Biso   1.000  C
  C544     1.0000 0.90285  0.19598  0.10692  Biso   1.000  C
  H583     1.0000 0.96113  0.28469  0.12010  Biso   1.000  H
  C545     1.0000 0.90602  0.94178  0.14676  Biso   1.000  C
  C546     1.0000 0.90614  0.94178  0.14676  Biso   1.000  C
  C547     1.0000 0.03569  0.09389  0.14676  Biso   1.000  C
  C548     1.0000 0.97621  0.24397  0.09945  Biso   1.000  C
  C549     1.0000 0.97616  0.24397  0.09945  Biso   1.000  C
  C550     1.0000 0.82665  0.11899  0.10293  Biso   1.000  C
  H584     1.0000 0.84288  0.90187  0.14660  Biso   1.000  H
  C551     1.0000 0.96778  0.90921  0.14686  Biso   1.000  C
  C552     1.0000 0.96784  0.90921  0.14686  Biso   1.000  C
  C553     1.0000 0.09080  0.05862  0.14686  Biso   1.000  C
  H585     1.0000 0.05896  0.15708  0.14660  Biso   1.000  H
  C554     1.0000 0.97142  0.20978  0.08865  Biso   1.000  C
  C555     1.0000 0.97136  0.20978  0.08865  Biso   1.000  C
  H586     1.0000 0.02780  0.29842  0.10170  Biso   1.000  H
  H587     1.0000 0.77707  0.08547  0.10770  Biso   1.000  H
  C556     1.0000 0.82188  0.09093  0.09235  Biso   1.000  C
  C557     1.0000 0.05823  0.96433  0.14676  Biso   1.000  C
  C558     1.0000 0.93470  0.81007  0.14639  Biso   1.000  C
  C559     1.0000 0.93482  0.81007  0.14639  Biso   1.000  C
  C560     1.0000 0.18988  0.12471  0.14639  Biso   1.000  C
  C561     1.0000 0.18994  0.12471  0.14639  Biso   1.000  C
  C562     1.0000 0.89397  0.13521  0.08547  Biso   1.000  C
  C563     1.0000 0.04665  0.25918  0.08100  Biso   1.000  C
  C564     1.0000 0.73692  0.00902  0.08856  Biso   1.000  C
  C565     1.0000 0.73686  0.00902  0.08856  Biso   1.000  C
  H588     1.0000 0.09807  0.94098  0.14660  Biso   1.000  H
  N75      1.0000 0.85079  0.75381  0.14532  Biso   1.000  N
  H589     1.0000 0.97634  0.78901  0.14690  Biso   1.000  H
  H590     1.0000 0.97639  0.78901  0.14690  Biso   1.000  H
  N76      1.0000 0.24619  0.09698  0.14532  Biso   1.000  N
  H591     1.0000 0.21095  0.18737  0.14690  Biso   1.000  H
  N77      1.0000 0.24614  0.09698  0.14532  Biso   1.000  N
  H592     1.0000 0.21101  0.18737  0.14690  Biso   1.000  H
  H593     1.0000 0.88994  0.11327  0.07820  Biso   1.000  H
  N78      1.0000 0.12188  0.32641  0.08347  Biso   1.000  N
  H594     1.0000 0.03808  0.23912  0.07360  Biso   1.000  H
  N79      1.0000 0.12194  0.32641  0.08347  Biso   1.000  N
  N80      1.0000 0.72171  0.97907  0.07888  Biso   1.000  N
  H595     1.0000 0.69121  0.97752  0.09390  Biso   1.000  H
  N81      1.0000 0.72175  0.97914  0.07888  Biso   1.000  N
  H596     1.0000 0.69127  0.97752  0.09390  Biso   1.000  H
  C566     1.0000 0.82710  0.65723  0.14492  Biso   1.000  C
  C567     1.0000 0.34279  0.16987  0.14492  Biso   1.000  C
  C568     1.0000 0.34273  0.16987  0.14492  Biso   1.000  C
  C569     1.0000 0.18525  0.36653  0.07450  Biso   1.000  C
  C570     1.0000 0.63073  0.90342  0.07709  Biso   1.000  C
  C571     1.0000 0.63085  0.90342  0.07709  Biso   1.000  C
  C572     1.0000 0.76099  0.61348  0.13533  Biso   1.000  C
  C573     1.0000 0.78399  0.61449  0.15578  Biso   1.000  C
  H597     1.0000 0.88226  0.65272  0.14370  Biso   1.000  H
  C574     1.0000 0.78405  0.61449  0.15578  Biso   1.000  C
  H598     1.0000 0.88231  0.65272  0.14370  Biso   1.000  H
  C575     1.0000 0.38652  0.14753  0.13533  Biso   1.000  C
  C576     1.0000 0.38549  0.16947  0.15578  Biso   1.000  C
  H599     1.0000 0.34728  0.22957  0.14370  Biso   1.000  H
  C577     1.0000 0.38646  0.14753  0.13533  Biso   1.000  C
  C578     1.0000 0.38543  0.16947  0.15578  Biso   1.000  C
  C579     1.0000 0.27262  0.36922  0.07709  Biso   1.000  C
  C580     1.0000 0.20011  0.46048  0.07227  Biso   1.000  C
  C581     1.0000 0.27256  0.36922  0.07709  Biso   1.000  C
  C582     1.0000 0.20005  0.46048  0.07227  Biso   1.000  C
  H600     1.0000 0.15857  0.32890  0.06780  Biso   1.000  H
  H601     1.0000 0.59462  0.89333  0.08390  Biso   1.000  H
  C583     1.0000 0.58640  0.92630  0.06769  Biso   1.000  C
  C584     1.0000 0.63348  0.81869  0.07450  Biso   1.000  C
  C585     1.0000 0.58645  0.92630  0.06769  Biso   1.000  C
  C586     1.0000 0.63354  0.81869  0.07450  Biso   1.000  C
  H602     1.0000 0.70873  0.62378  0.13610  Biso   1.000  H
  C587     1.0000 0.72935  0.51394  0.13533  Biso   1.000  C
  H603     1.0000 0.70884  0.62378  0.13610  Biso   1.000  H
  N82      1.0000 0.80889  0.65158  0.12487  Biso   1.000  N
  N83      1.0000 0.80886  0.65164  0.12487  Biso   1.000  N
  C588     1.0000 0.74588  0.51320  0.15558  Biso   1.000  C
  H604     1.0000 0.73496  0.62742  0.15740  Biso   1.000  H
  H605     1.0000 0.82932  0.64128  0.16170  Biso   1.000  H
  C589     1.0000 0.74594  0.51320  0.15558  Biso   1.000  C
  H606     1.0000 0.82944  0.64128  0.16170  Biso   1.000  H
  N84      1.0000 0.34839  0.15728  0.12487  Biso   1.000  N
  H607     1.0000 0.37618  0.08500  0.13610  Biso   1.000  H
  C590     1.0000 0.48607  0.21537  0.13533  Biso   1.000  C
  C591     1.0000 0.48679  0.23266  0.15558  Biso   1.000  C
  H608     1.0000 0.35867  0.18811  0.16170  Biso   1.000  H
  C592     1.0000 0.48677  0.23273  0.15558  Biso   1.000  C
  H609     1.0000 0.37257  0.10762  0.15740  Biso   1.000  H
  C593     1.0000 0.48673  0.23266  0.15558  Biso   1.000  C
  C594     1.0000 0.48683  0.23273  0.15558  Biso   1.000  C
  H610     1.0000 0.35873  0.18811  0.16170  Biso   1.000  H
  N85      1.0000 0.25741  0.27829  0.07888  Biso   1.000  N
  H611     1.0000 0.29868  0.40536  0.08390  Biso   1.000  H
  N86      1.0000 0.25735  0.27829  0.07888  Biso   1.000  N
  H612     1.0000 0.29871  0.40543  0.08390  Biso   1.000  H
  C595     1.0000 0.33985  0.41357  0.06769  Biso   1.000  C
  C596     1.0000 0.26889  0.50631  0.06319  Biso   1.000  C
  H613     1.0000 0.22141  0.49703  0.07900  Biso   1.000  H
  C597     1.0000 0.26895  0.50631  0.06319  Biso   1.000  C
  H614     1.0000 0.14242  0.45597  0.07010  Biso   1.000  H
  H615     1.0000 0.58261  0.98028  0.06960  Biso   1.000  H
  H616     1.0000 0.62357  0.94003  0.06100  Biso   1.000  H
  C598     1.0000 0.49184  0.84722  0.06547  Biso   1.000  C
  H617     1.0000 0.62363  0.94003  0.06100  Biso   1.000  H
  C599     1.0000 0.49195  0.84722  0.06547  Biso   1.000  C
  N87      1.0000 0.67354  0.79554  0.08347  Biso   1.000  N
  C600     1.0000 0.53944  0.73961  0.07227  Biso   1.000  C
  H618     1.0000 0.67111  0.82973  0.06780  Biso   1.000  H
  N88      1.0000 0.67366  0.79554  0.08347  Biso   1.000  N
  C601     1.0000 0.53956  0.73961  0.07227  Biso   1.000  C
  H619     1.0000 0.67117  0.82973  0.06780  Biso   1.000  H
  C602     1.0000 0.76878  0.67722  0.11794  Biso   1.000  C
  C603     1.0000 0.76884  0.67722  0.11794  Biso   1.000  C
  H620     1.0000 0.68707  0.48453  0.12920  Biso   1.000  H
  H621     1.0000 0.78143  0.50493  0.13430  Biso   1.000  H
  H622     1.0000 0.68719  0.48453  0.12920  Biso   1.000  H
  H623     1.0000 0.78149  0.50493  0.13430  Biso   1.000  H
  C604     1.0000 0.68344  0.47168  0.14592  Biso   1.000  C
  C605     1.0000 0.68336  0.47175  0.14592  Biso   1.000  C
  H624     1.0000 0.79579  0.50008  0.15510  Biso   1.000  H
  H625     1.0000 0.79583  0.50015  0.15510  Biso   1.000  H
  H626     1.0000 0.71270  0.48649  0.16250  Biso   1.000  H
  H627     1.0000 0.71276  0.48649  0.16250  Biso   1.000  H
  C606     1.0000 0.32277  0.09160  0.11794  Biso   1.000  C
  C607     1.0000 0.32283  0.09160  0.11794  Biso   1.000  C
  H628     1.0000 0.49507  0.27661  0.13430  Biso   1.000  H
  C608     1.0000 0.52832  0.21173  0.14592  Biso   1.000  C
  C609     1.0000 0.52823  0.21166  0.14592  Biso   1.000  C
  H629     1.0000 0.51552  0.20258  0.12920  Biso   1.000  H
  H630     1.0000 0.49513  0.27661  0.13430  Biso   1.000  H
  H631     1.0000 0.49991  0.29573  0.15510  Biso   1.000  H
  H632     1.0000 0.51352  0.22620  0.16250  Biso   1.000  H
  H633     1.0000 0.51346  0.22620  0.16250  Biso   1.000  H
  C610     1.0000 0.27213  0.26308  0.08856  Biso   1.000  C
  C611     1.0000 0.35527  0.50806  0.06547  Biso   1.000  C
  H634     1.0000 0.39766  0.41741  0.06960  Biso   1.000  H
  H635     1.0000 0.31644  0.37642  0.06100  Biso   1.000  H
  H636     1.0000 0.24357  0.47421  0.05620  Biso   1.000  H
  H637     1.0000 0.28112  0.56877  0.06230  Biso   1.000  H
  H638     1.0000 0.45319  0.83800  0.07190  Biso   1.000  H
  H639     1.0000 0.46552  0.86163  0.05910  Biso   1.000  H
  H640     1.0000 0.46558  0.86163  0.05910  Biso   1.000  H
  C612     1.0000 0.49377  0.76263  0.06319  Biso   1.000  C
  C613     1.0000 0.74082  0.78753  0.08100  Biso   1.000  C
  C614     1.0000 0.74088  0.78753  0.08100  Biso   1.000  C
  H641     1.0000 0.54404  0.68644  0.07010  Biso   1.000  H
  H642     1.0000 0.50293  0.72440  0.07900  Biso   1.000  H
  H643     1.0000 0.50305  0.72440  0.07900  Biso   1.000  H
  C615     1.0000 0.80397  0.70690  0.10692  Biso   1.000  C
  H644     1.0000 0.71526  0.67648  0.12010  Biso   1.000  H
  H645     1.0000 0.66187  0.40640  0.14570  Biso   1.000  H
  H646     1.0000 0.63031  0.47942  0.14690  Biso   1.000  H
  C616     1.0000 0.29312  0.09712  0.10692  Biso   1.000  C
  H647     1.0000 0.32346  0.03877  0.12010  Biso   1.000  H
  C617     1.0000 0.29307  0.09712  0.10692  Biso   1.000  C
  H648     1.0000 0.32349  0.03883  0.12010  Biso   1.000  H
  H649     1.0000 0.32355  0.03883  0.12010  Biso   1.000  H
  H650     1.0000 0.52057  0.15089  0.14690  Biso   1.000  H
  H651     1.0000 0.59361  0.25548  0.14570  Biso   1.000  H
  H652     1.0000 0.52063  0.15089  0.14690  Biso   1.000  H
  C618     1.0000 0.26897  0.17808  0.09235  Biso   1.000  C
  H653     1.0000 0.28629  0.30878  0.09390  Biso   1.000  H
  C619     1.0000 0.26903  0.17808  0.09235  Biso   1.000  C
  H654     1.0000 0.39607  0.53451  0.05910  Biso   1.000  H
  H655     1.0000 0.38482  0.54676  0.07190  Biso   1.000  H
  H656     1.0000 0.52573  0.76942  0.05620  Biso   1.000  H
  H657     1.0000 0.43118  0.71228  0.06230  Biso   1.000  H
  H658     1.0000 0.52579  0.76942  0.05620  Biso   1.000  H
  H659     1.0000 0.43124  0.71228  0.06230  Biso   1.000  H
  H660     1.0000 0.76086  0.79904  0.07360  Biso   1.000  H
  C620     1.0000 0.79017  0.76162  0.08865  Biso   1.000  C
  H661     1.0000 0.76097  0.79904  0.07360  Biso   1.000  H
  C621     1.0000 0.75600  0.73221  0.09945  Biso   1.000  C
  C622     1.0000 0.88096  0.70771  0.10293  Biso   1.000  C
  C623     1.0000 0.88101  0.70771  0.10293  Biso   1.000  C
  C624     1.0000 0.29228  0.17330  0.10293  Biso   1.000  C
  C625     1.0000 0.29234  0.17330  0.10293  Biso   1.000  C
  C626     1.0000 0.26784  0.02382  0.09945  Biso   1.000  C
  C627     1.0000 0.24115  0.10600  0.08547  Biso   1.000  C
  C628     1.0000 0.86482  0.75879  0.08547  Biso   1.000  C
  H662     1.0000 0.70155  0.72938  0.10170  Biso   1.000  H
  C629     1.0000 0.90904  0.73099  0.09235  Biso   1.000  C
  C630     1.0000 0.90909  0.73099  0.09235  Biso   1.000  C
  H663     1.0000 0.91447  0.69162  0.10770  Biso   1.000  H
  H664     1.0000 0.30840  0.22290  0.10770  Biso   1.000  H
  H665     1.0000 0.27059  0.97220  0.10170  Biso   1.000  H
  C631     1.0000 0.23835  0.02860  0.08865  Biso   1.000  C
  H666     1.0000 0.22326  0.10997  0.07820  Biso   1.000  H
  H667     1.0000 0.22331  0.10997  0.07820  Biso   1.000  H
  H668     1.0000 0.88666  0.77669  0.07820  Biso   1.000  H
  C632     1.0000 0.99101  0.72790  0.08856  Biso   1.000  C
  C633     1.0000 0.21247  0.95329  0.08100  Biso   1.000  C
  N89      1.0000 0.02094  0.74264  0.07888  Biso   1.000  N
  H669     1.0000 0.02255  0.71370  0.09390  Biso   1.000  H
  H670     1.0000 0.02244  0.71370  0.09390  Biso   1.000  H
  N90      1.0000 0.20455  0.87812  0.08347  Biso   1.000  N
  H671     1.0000 0.20104  0.96191  0.07360  Biso   1.000  H
  C634     1.0000 0.09668  0.72743  0.07709  Biso   1.000  C
  C635     1.0000 0.09656  0.72743  0.07709  Biso   1.000  C
  C636     1.0000 0.18133  0.81478  0.07450  Biso   1.000  C
  C637     1.0000 0.18122  0.81478  0.07450  Biso   1.000  C
  H672     1.0000 0.10670  0.70131  0.08390  Biso   1.000  H
  C638     1.0000 0.07369  0.66012  0.06769  Biso   1.000  C
  H673     1.0000 0.10665  0.70131  0.08390  Biso   1.000  H
  C639     1.0000 0.26039  0.79991  0.07227  Biso   1.000  C
  H674     1.0000 0.17030  0.84144  0.06780  Biso   1.000  H
  C640     1.0000 0.26033  0.79991  0.07227  Biso   1.000  C
  H675     1.0000 0.06003  0.68361  0.06100  Biso   1.000  H
  H676     1.0000 0.01973  0.60231  0.06960  Biso   1.000  H
  C641     1.0000 0.15278  0.64471  0.06547  Biso   1.000  C
  H677     1.0000 0.27560  0.77858  0.07900  Biso   1.000  H
  H678     1.0000 0.31359  0.85759  0.07010  Biso   1.000  H
  C642     1.0000 0.23748  0.73113  0.06319  Biso   1.000  C
  C643     1.0000 0.23742  0.73113  0.06319  Biso   1.000  C
  H679     1.0000 0.16205  0.61523  0.07190  Biso   1.000  H
  H680     1.0000 0.13844  0.60393  0.05910  Biso   1.000  H
  H681     1.0000 0.23061  0.75643  0.05620  Biso   1.000  H
  H682     1.0000 0.28772  0.71888  0.06230  Biso   1.000  H
  C644     1.0000 0.50623  0.23737  0.56319  Biso   1.000  C
  C645     1.0000 0.46044  0.26039  0.57227  Biso   1.000  C
  C646     1.0000 0.50811  0.15278  0.56547  Biso   1.000  C
  C647     1.0000 0.50805  0.15278  0.56547  Biso   1.000  C
  H683     1.0000 0.47421  0.23058  0.55620  Biso   1.000  H
  H684     1.0000 0.56882  0.28772  0.56230  Biso   1.000  H
  H685     1.0000 0.47415  0.23058  0.55620  Biso   1.000  H
  H686     1.0000 0.56876  0.28772  0.56230  Biso   1.000  H
  C648     1.0000 0.36646  0.18131  0.57450  Biso   1.000  C
  C649     1.0000 0.50628  0.23737  0.56319  Biso   1.000  C
  H687     1.0000 0.45596  0.31356  0.57010  Biso   1.000  H
  H688     1.0000 0.49701  0.27560  0.57900  Biso   1.000  H
  H689     1.0000 0.45599  0.31363  0.57010  Biso   1.000  H
  H690     1.0000 0.49695  0.27560  0.57900  Biso   1.000  H
  H691     1.0000 0.45605  0.31363  0.57010  Biso   1.000  H
  C650     1.0000 0.41360  0.07370  0.56769  Biso   1.000  C
  C651     1.0000 0.41355  0.07370  0.56769  Biso   1.000  C
  H692     1.0000 0.53448  0.13837  0.55910  Biso   1.000  H
  H693     1.0000 0.54681  0.16200  0.57190  Biso   1.000  H
  H694     1.0000 0.54676  0.16200  0.57190  Biso   1.000  H
  N91      1.0000 0.32634  0.20446  0.58347  Biso   1.000  N
  N92      1.0000 0.32643  0.20453  0.58347  Biso   1.000  N
  H695     1.0000 0.32889  0.17027  0.56780  Biso   1.000  H
  C652     1.0000 0.36921  0.09658  0.57709  Biso   1.000  C
  C653     1.0000 0.36915  0.09658  0.57709  Biso   1.000  C
  H696     1.0000 0.41739  0.01972  0.56960  Biso   1.000  H
  H697     1.0000 0.37637  0.05997  0.56100  Biso   1.000  H
  H698     1.0000 0.37641  0.06003  0.56100  Biso   1.000  H
  C654     1.0000 0.25918  0.21247  0.58100  Biso   1.000  C
  H699     1.0000 0.40538  0.10667  0.58390  Biso   1.000  H
  N93      1.0000 0.27829  0.02093  0.57888  Biso   1.000  N
  N94      1.0000 0.27834  0.02093  0.57888  Biso   1.000  N
  H700     1.0000 0.23912  0.20103  0.57360  Biso   1.000  H
  C655     1.0000 0.20983  0.23838  0.58865  Biso   1.000  C
  C656     1.0000 0.26308  0.99098  0.58856  Biso   1.000  C
  C657     1.0000 0.26302  0.99098  0.58856  Biso   1.000  C
  C658     1.0000 0.24400  0.26779  0.59945  Biso   1.000  C
  C659     1.0000 0.13518  0.24121  0.58547  Biso   1.000  C
  C660     1.0000 0.13523  0.24121  0.58547  Biso   1.000  C
  H701     1.0000 0.30879  0.02248  0.59390  Biso   1.000  H
  C661     1.0000 0.17812  0.90907  0.59235  Biso   1.000  C
  C662     1.0000 0.19598  0.29310  0.60692  Biso   1.000  C
  H702     1.0000 0.29845  0.27062  0.60170  Biso   1.000  H
  C663     1.0000 0.19603  0.29310  0.60692  Biso   1.000  C
  C664     1.0000 0.09091  0.26901  0.59235  Biso   1.000  C
  H703     1.0000 0.11329  0.22331  0.57820  Biso   1.000  H
  H704     1.0000 0.11334  0.22331  0.57820  Biso   1.000  H
  C665     1.0000 0.17330  0.88101  0.60293  Biso   1.000  C
  C666     1.0000 0.10597  0.86479  0.58547  Biso   1.000  C
  C667     1.0000 0.11899  0.29229  0.60293  Biso   1.000  C
  C668     1.0000 0.23116  0.32278  0.61794  Biso   1.000  C
  C669     1.0000 0.00899  0.27210  0.58856  Biso   1.000  C
  C670     1.0000 0.00905  0.27210  0.58856  Biso   1.000  C
  H705     1.0000 0.22299  0.91453  0.60770  Biso   1.000  H
  C671     1.0000 0.09715  0.80402  0.60692  Biso   1.000  C
  H706     1.0000 0.22293  0.91453  0.60770  Biso   1.000  H
  H707     1.0000 0.11006  0.88673  0.57820  Biso   1.000  H
  C672     1.0000 0.02864  0.79022  0.58865  Biso   1.000  C
  H708     1.0000 0.10994  0.88673  0.57820  Biso   1.000  H
  H709     1.0000 0.08547  0.30838  0.60770  Biso   1.000  H
  H710     1.0000 0.08553  0.30838  0.60770  Biso   1.000  H
  N95      1.0000 0.19111  0.34842  0.62487  Biso   1.000  N
  H711     1.0000 0.28474  0.32352  0.62010  Biso   1.000  H
  N96      1.0000 0.97906  0.25736  0.57888  Biso   1.000  N
  N97      1.0000 0.97910  0.25743  0.57888  Biso   1.000  N
  H712     1.0000 0.97745  0.28630  0.59390  Biso   1.000  H
  C673     1.0000 0.02384  0.75603  0.59945  Biso   1.000  C
  C674     1.0000 0.09161  0.76882  0.61794  Biso   1.000  C
  C675     1.0000 0.09155  0.76882  0.61794  Biso   1.000  C
  C676     1.0000 0.95323  0.74082  0.58100  Biso   1.000  C
  C677     1.0000 0.95335  0.74082  0.58100  Biso   1.000  C
  C678     1.0000 0.23901  0.38652  0.63533  Biso   1.000  C
  C679     1.0000 0.90338  0.27257  0.57709  Biso   1.000  C
  H713     1.0000 0.97220  0.70158  0.60170  Biso   1.000  H
  N98      1.0000 0.15731  0.80893  0.62487  Biso   1.000  N
  H714     1.0000 0.03875  0.71531  0.62010  Biso   1.000  H
  H715     1.0000 0.96186  0.76088  0.57360  Biso   1.000  H
  N99      1.0000 0.87812  0.67359  0.58347  Biso   1.000  N
  C680     1.0000 0.27069  0.48612  0.63533  Biso   1.000  C
  C681     1.0000 0.17284  0.34277  0.64492  Biso   1.000  C
  H716     1.0000 0.29116  0.37622  0.63610  Biso   1.000  H
  C682     1.0000 0.27075  0.48612  0.63533  Biso   1.000  C
  H717     1.0000 0.89330  0.29869  0.58390  Biso   1.000  H
  C683     1.0000 0.92631  0.33988  0.56769  Biso   1.000  C
  C684     1.0000 0.81873  0.18522  0.57450  Biso   1.000  C
  C685     1.0000 0.92625  0.33988  0.56769  Biso   1.000  C
  C686     1.0000 0.81867  0.18522  0.57450  Biso   1.000  C
  H718     1.0000 0.89324  0.29869  0.58390  Biso   1.000  H
  C687     1.0000 0.14757  0.76101  0.63533  Biso   1.000  C
  C688     1.0000 0.14745  0.76101  0.63533  Biso   1.000  C
  C689     1.0000 0.81479  0.63354  0.57450  Biso   1.000  C
  H719     1.0000 0.31287  0.51547  0.62920  Biso   1.000  H
  H720     1.0000 0.21851  0.49507  0.63430  Biso   1.000  H
  C690     1.0000 0.31662  0.52832  0.64592  Biso   1.000  C
  H721     1.0000 0.21845  0.49507  0.63430  Biso   1.000  H
  C691     1.0000 0.31656  0.52832  0.64592  Biso   1.000  C
  H722     1.0000 0.11769  0.34728  0.64370  Biso   1.000  H
  N100     1.0000 0.14921  0.24619  0.64532  Biso   1.000  N
  C692     1.0000 0.21601  0.38551  0.65578  Biso   1.000  C
  N101     1.0000 0.14915  0.24619  0.64532  Biso   1.000  N
  C693     1.0000 0.21595  0.38551  0.65578  Biso   1.000  C
  H723     1.0000 0.93997  0.31639  0.56100  Biso   1.000  H
  H724     1.0000 0.98027  0.39769  0.56960  Biso   1.000  H
  C694     1.0000 0.84722  0.35529  0.56547  Biso   1.000  C
  C695     1.0000 0.84717  0.35529  0.56547  Biso   1.000  C
  H725     1.0000 0.82970  0.15856  0.56780  Biso   1.000  H
  N102     1.0000 0.79545  0.12188  0.58347  Biso   1.000  N
  H726     1.0000 0.82968  0.15863  0.56780  Biso   1.000  H
  H727     1.0000 0.82965  0.15856  0.56780  Biso   1.000  H
  C696     1.0000 0.73955  0.20009  0.57227  Biso   1.000  C
  H728     1.0000 0.08503  0.70878  0.63610  Biso   1.000  H
  C697     1.0000 0.21547  0.72931  0.63533  Biso   1.000  C
  C698     1.0000 0.16995  0.82710  0.64492  Biso   1.000  C
  C699     1.0000 0.21542  0.72931  0.63533  Biso   1.000  C
  C700     1.0000 0.16983  0.82710  0.64492  Biso   1.000  C
  C701     1.0000 0.72738  0.63078  0.57709  Biso   1.000  C
  C702     1.0000 0.79984  0.53952  0.57227  Biso   1.000  C
  H729     1.0000 0.84138  0.67110  0.56780  Biso   1.000  H
  C703     1.0000 0.79989  0.53952  0.57227  Biso   1.000  C
  H730     1.0000 0.84143  0.67110  0.56780  Biso   1.000  H
  H731     1.0000 0.36969  0.52058  0.64690  Biso   1.000  H
  H732     1.0000 0.33813  0.59360  0.64570  Biso   1.000  H
  C704     1.0000 0.25412  0.48680  0.65558  Biso   1.000  C
  H733     1.0000 0.33807  0.59360  0.64570  Biso   1.000  H
  C705     1.0000 0.25406  0.48680  0.65558  Biso   1.000  C
  C706     1.0000 0.06524  0.18993  0.64639  Biso   1.000  C
  C707     1.0000 0.06518  0.18993  0.64639  Biso   1.000  C
  H734     1.0000 0.17062  0.35872  0.66170  Biso   1.000  H
  H735     1.0000 0.17056  0.35872  0.66170  Biso   1.000  H
  H736     1.0000 0.26504  0.37258  0.65740  Biso   1.000  H
  H737     1.0000 0.83801  0.38477  0.57190  Biso   1.000  H
  C708     1.0000 0.76258  0.26887  0.56319  Biso   1.000  C
  H738     1.0000 0.83795  0.38477  0.57190  Biso   1.000  H
  H739     1.0000 0.86156  0.39607  0.55910  Biso   1.000  H
  C709     1.0000 0.78747  0.04671  0.58100  Biso   1.000  C
  H740     1.0000 0.72440  0.22142  0.57900  Biso   1.000  H
  H741     1.0000 0.68635  0.14241  0.57010  Biso   1.000  H
  H742     1.0000 0.27662  0.78154  0.63430  Biso   1.000  H
  H743     1.0000 0.20259  0.68711  0.62920  Biso   1.000  H
  C710     1.0000 0.21170  0.68341  0.64592  Biso   1.000  C
  H744     1.0000 0.22960  0.88229  0.64370  Biso   1.000  H
  C711     1.0000 0.16951  0.78403  0.65578  Biso   1.000  C
  N103     1.0000 0.09705  0.85079  0.64532  Biso   1.000  N
  N104     1.0000 0.09693  0.85079  0.64532  Biso   1.000  N
  H745     1.0000 0.70132  0.59464  0.58390  Biso   1.000  H
  C712     1.0000 0.66009  0.58643  0.56769  Biso   1.000  C
  N105     1.0000 0.74259  0.72171  0.57888  Biso   1.000  N
  C713     1.0000 0.73105  0.49369  0.56319  Biso   1.000  C
  H746     1.0000 0.85758  0.54403  0.57010  Biso   1.000  H
  H747     1.0000 0.77862  0.50304  0.57900  Biso   1.000  H
  H748     1.0000 0.77868  0.50304  0.57900  Biso   1.000  H
  H749     1.0000 0.20421  0.49992  0.65510  Biso   1.000  H
  H750     1.0000 0.28730  0.51351  0.66250  Biso   1.000  H
  C714     1.0000 0.03222  0.09079  0.64686  Biso   1.000  C
  C715     1.0000 0.03216  0.09079  0.64686  Biso   1.000  C
  H751     1.0000 0.02355  0.21099  0.64690  Biso   1.000  H
  H752     1.0000 0.71228  0.28112  0.56230  Biso   1.000  H
  H753     1.0000 0.76933  0.24357  0.55620  Biso   1.000  H
  C716     1.0000 0.76159  0.97140  0.58865  Biso   1.000  C
  H754     1.0000 0.79896  0.03809  0.57360  Biso   1.000  H
  H755     1.0000 0.25555  0.66187  0.64570  Biso   1.000  H
  H756     1.0000 0.15094  0.63031  0.64690  Biso   1.000  H
  C717     1.0000 0.23276  0.74593  0.65558  Biso   1.000  C
  H757     1.0000 0.25558  0.66194  0.64570  Biso   1.000  H
  H758     1.0000 0.25549  0.66187  0.64570  Biso   1.000  H
  H759     1.0000 0.25552  0.66194  0.64570  Biso   1.000  H
  C718     1.0000 0.23265  0.74593  0.65558  Biso   1.000  C
  H760     1.0000 0.18811  0.82939  0.66170  Biso   1.000  H
  H761     1.0000 0.10765  0.73503  0.65740  Biso   1.000  H
  C719     1.0000 0.12476  0.93478  0.64639  Biso   1.000  C
  C720     1.0000 0.12470  0.93478  0.64639  Biso   1.000  C
  H762     1.0000 0.68356  0.62358  0.56100  Biso   1.000  H
  H763     1.0000 0.60222  0.58259  0.56960  Biso   1.000  H
  C721     1.0000 0.64467  0.49194  0.56547  Biso   1.000  C
  H764     1.0000 0.60228  0.58259  0.56960  Biso   1.000  H
  C722     1.0000 0.64479  0.49194  0.56547  Biso   1.000  C
  C723     1.0000 0.72787  0.73692  0.58856  Biso   1.000  C
  H765     1.0000 0.75631  0.52579  0.55620  Biso   1.000  H
  H766     1.0000 0.71894  0.43123  0.56230  Biso   1.000  H
  H767     1.0000 0.75637  0.52579  0.55620  Biso   1.000  H
  C724     1.0000 0.94177  0.03567  0.64676  Biso   1.000  C
  C725     1.0000 0.09392  0.05822  0.64676  Biso   1.000  C
  C726     1.0000 0.09386  0.05822  0.64676  Biso   1.000  C
  C727     1.0000 0.73216  0.97618  0.59945  Biso   1.000  C
  C728     1.0000 0.75885  0.89400  0.58547  Biso   1.000  C
  H768     1.0000 0.29570  0.79581  0.65510  Biso   1.000  H
  H769     1.0000 0.22622  0.71269  0.66250  Biso   1.000  H
  H770     1.0000 0.29564  0.79581  0.65510  Biso   1.000  H
  C729     1.0000 0.05864  0.96783  0.64686  Biso   1.000  C
  H771     1.0000 0.18741  0.97638  0.64690  Biso   1.000  H
  H772     1.0000 0.18735  0.97638  0.64690  Biso   1.000  H
  H773     1.0000 0.61524  0.45324  0.57190  Biso   1.000  H
  H774     1.0000 0.60382  0.46549  0.55910  Biso   1.000  H
  H775     1.0000 0.60388  0.46549  0.55910  Biso   1.000  H
  C730     1.0000 0.73103  0.82192  0.59235  Biso   1.000  C
  H776     1.0000 0.71371  0.69122  0.59390  Biso   1.000  H
  C731     1.0000 0.90914  0.94138  0.64686  Biso   1.000  C
  C732     1.0000 0.90926  0.94138  0.64686  Biso   1.000  C
  H777     1.0000 0.90187  0.05902  0.64660  Biso   1.000  H
  H778     1.0000 0.15712  0.09813  0.64660  Biso   1.000  H
  H779     1.0000 0.15707  0.09813  0.64660  Biso   1.000  H
  C733     1.0000 0.70682  0.90288  0.60692  Biso   1.000  C
  C734     1.0000 0.70688  0.90288  0.60692  Biso   1.000  C
  H780     1.0000 0.72935  0.02780  0.60170  Biso   1.000  H
  H781     1.0000 0.77669  0.89003  0.57820  Biso   1.000  H
  C735     1.0000 0.96431  0.90611  0.64676  Biso   1.000  C
  C736     1.0000 0.96436  0.90611  0.64676  Biso   1.000  C
  C737     1.0000 0.70766  0.82670  0.60293  Biso   1.000  C
  C738     1.0000 0.81012  0.87529  0.64639  Biso   1.000  C
  C739     1.0000 0.67717  0.90840  0.61794  Biso   1.000  C
  H782     1.0000 0.94098  0.84292  0.64660  Biso   1.000  H
  H783     1.0000 0.94104  0.84292  0.64660  Biso   1.000  H
  H784     1.0000 0.69154  0.77710  0.60770  Biso   1.000  H
  H785     1.0000 0.69166  0.77710  0.60770  Biso   1.000  H
  H786     1.0000 0.78899  0.81263  0.64690  Biso   1.000  H
  N106     1.0000 0.75381  0.90302  0.64532  Biso   1.000  N
  N107     1.0000 0.65161  0.84272  0.62487  Biso   1.000  N
  H787     1.0000 0.67648  0.96123  0.62010  Biso   1.000  H
  C740     1.0000 0.65715  0.83013  0.64492  Biso   1.000  C
  C741     1.0000 0.65727  0.83013  0.64492  Biso   1.000  C
  C742     1.0000 0.61342  0.85247  0.63533  Biso   1.000  C
  C743     1.0000 0.61354  0.85247  0.63533  Biso   1.000  C
  C744     1.0000 0.61451  0.83053  0.65578  Biso   1.000  C
  H788     1.0000 0.65266  0.77043  0.64370  Biso   1.000  H
  H789     1.0000 0.65272  0.77043  0.64370  Biso   1.000  H
  C745     1.0000 0.51393  0.78463  0.63533  Biso   1.000  C
  H790     1.0000 0.62376  0.91500  0.63610  Biso   1.000  H
  H791     1.0000 0.62387  0.91500  0.63610  Biso   1.000  H
  C746     1.0000 0.51321  0.76734  0.65558  Biso   1.000  C
  H792     1.0000 0.62731  0.89238  0.65740  Biso   1.000  H
  H793     1.0000 0.64133  0.81189  0.66170  Biso   1.000  H
  H794     1.0000 0.62737  0.89238  0.65740  Biso   1.000  H
  H795     1.0000 0.48454  0.79742  0.62920  Biso   1.000  H
  H796     1.0000 0.50487  0.72339  0.63430  Biso   1.000  H
  C747     1.0000 0.47172  0.78834  0.64592  Biso   1.000  C
  C748     1.0000 0.47177  0.78834  0.64592  Biso   1.000  C
  H797     1.0000 0.48648  0.77380  0.66250  Biso   1.000  H
  H798     1.0000 0.50009  0.70427  0.65510  Biso   1.000  H
  H799     1.0000 0.50013  0.70434  0.65510  Biso   1.000  H
  H800     1.0000 0.40645  0.74452  0.64570  Biso   1.000  H
  H801     1.0000 0.47937  0.84911  0.64690  Biso   1.000  H
  C749     1.0000 0.39016  0.86291  0.59165  Biso   1.000  C
  C750     1.0000 0.46765  0.95518  0.59330  Biso   1.000  C
  H802     1.0000 0.39518  0.83962  0.58440  Biso   1.000  H
  H803     1.0000 0.33320  0.86439  0.59180  Biso   1.000  H
  C751     1.0000 0.38974  0.80274  0.60060  Biso   1.000  C
  C752     1.0000 0.45862  0.99482  0.60466  Biso   1.000  C
  H804     1.0000 0.46981  0.99482  0.58720  Biso   1.000  H
  H805     1.0000 0.52448  0.95343  0.59320  Biso   1.000  H
  C753     1.0000 0.38582  0.84433  0.61224  Biso   1.000  C
  H806     1.0000 0.44470  0.79782  0.60010  Biso   1.000  H
  H807     1.0000 0.33684  0.74169  0.59980  Biso   1.000  H
  N108     1.0000 0.53873  0.08393  0.60542  Biso   1.000  N
  H808     1.0000 0.40281  0.99953  0.60480  Biso   1.000  H
  C754     1.0000 0.45791  0.93593  0.61393  Biso   1.000  C
  H809     1.0000 0.32749  0.84272  0.61290  Biso   1.000  H
  H810     1.0000 0.38818  0.80590  0.61810  Biso   1.000  H
  C755     1.0000 0.52487  0.14901  0.60448  Biso   1.000  C
  N109     1.0000 0.44746  0.97483  0.62411  Biso   1.000  N
  H811     1.0000 0.51677  0.93707  0.61410  Biso   1.000  H
  C756     1.0000 0.59669  0.24437  0.60436  Biso   1.000  C
  H812     1.0000 0.46441  0.13602  0.60380  Biso   1.000  H
  C757     1.0000 0.50575  0.99758  0.63138  Biso   1.000  C
  C758     1.0000 0.57933  0.31632  0.60426  Biso   1.000  C
  C759     1.0000 0.68370  0.26302  0.60426  Biso   1.000  C
  C760     1.0000 0.50432  0.03062  0.64273  Biso   1.000  C
  H813     1.0000 0.55754  0.99367  0.62950  Biso   1.000  H
  C761     1.0000 0.64769  0.40327  0.60436  Biso   1.000  C
  H814     1.0000 0.51878  0.30387  0.60410  Biso   1.000  H
  C762     1.0000 0.75554  0.35226  0.60436  Biso   1.000  C
  H815     1.0000 0.69607  0.21490  0.60410  Biso   1.000  H
  C763     1.0000 0.57097  0.04361  0.64981  Biso   1.000  C
  C764     1.0000 0.43550  0.04812  0.64616  Biso   1.000  C
  C765     1.0000 0.62409  0.47508  0.60448  Biso   1.000  C
  C766     1.0000 0.73702  0.42070  0.60426  Biso   1.000  C
  C767     1.0000 0.85099  0.37588  0.60448  Biso   1.000  C
  H816     1.0000 0.61858  0.03439  0.64740  Biso   1.000  H
  C768     1.0000 0.56909  0.07121  0.66087  Biso   1.000  C
  C769     1.0000 0.43277  0.07437  0.65677  Biso   1.000  C
  H817     1.0000 0.39068  0.04173  0.64110  Biso   1.000  H
  N110     1.0000 0.54521  0.46129  0.60542  Biso   1.000  N
  H818     1.0000 0.67159  0.53559  0.60380  Biso   1.000  H
  H819     1.0000 0.78511  0.48121  0.60410  Biso   1.000  H
  N111     1.0000 0.91608  0.45476  0.60542  Biso   1.000  N
  H820     1.0000 0.86396  0.32837  0.60380  Biso   1.000  H
  C770     1.0000 0.50161  0.08581  0.66379  Biso   1.000  C
  C771     1.0000 0.63850  0.08332  0.66906  Biso   1.000  C
  C772     1.0000 0.36159  0.09591  0.65979  Biso   1.000  C
  C773     1.0000 0.53618  0.54138  0.60466  Biso   1.000  C
  C774     1.0000 0.00516  0.46378  0.60466  Biso   1.000  C
  H821     1.0000 0.50110  0.10519  0.67110  Biso   1.000  H
  N112     1.0000 0.70377  0.07269  0.66631  Biso   1.000  N
  H822     1.0000 0.63381  0.09900  0.67640  Biso   1.000  H
  N113     1.0000 0.35569  0.12108  0.66971  Biso   1.000  N
  H823     1.0000 0.31960  0.09119  0.65440  Biso   1.000  H
  C775     1.0000 0.48755  0.53236  0.59330  Biso   1.000  C
  H824     1.0000 0.59666  0.59717  0.60480  Biso   1.000  H
  C776     1.0000 0.47803  0.54212  0.61393  Biso   1.000  C
  H825     1.0000 0.00049  0.40327  0.60480  Biso   1.000  H
  C777     1.0000 0.04478  0.51237  0.59330  Biso   1.000  C
  C778     1.0000 0.06405  0.52199  0.61393  Biso   1.000  C
  C779     1.0000 0.76698  0.08359  0.67516  Biso   1.000  C
  C780     1.0000 0.27737  0.13427  0.67129  Biso   1.000  C
  C781     1.0000 0.47281  0.60989  0.59165  Biso   1.000  C
  H826     1.0000 0.52500  0.53021  0.58720  Biso   1.000  H
  H827     1.0000 0.42895  0.47556  0.59320  Biso   1.000  H
  C782     1.0000 0.45852  0.61420  0.61224  Biso   1.000  C
  N114     1.0000 0.52740  0.55262  0.62411  Biso   1.000  N
  H828     1.0000 0.42028  0.48316  0.61410  Biso   1.000  H
  H829     1.0000 0.00518  0.47502  0.58720  Biso   1.000  H
  H830     1.0000 0.04658  0.57099  0.59320  Biso   1.000  H
  C783     1.0000 0.13705  0.52718  0.59165  Biso   1.000  C
  N115     1.0000 0.02519  0.47259  0.62411  Biso   1.000  N
  C784     1.0000 0.15570  0.54151  0.61224  Biso   1.000  C
  H831     1.0000 0.06287  0.57967  0.61410  Biso   1.000  H
  C785     1.0000 0.86568  0.14308  0.67129  Biso   1.000  C
  H832     1.0000 0.75549  0.11132  0.68170  Biso   1.000  H
  C786     1.0000 0.75067  0.98977  0.67806  Biso   1.000  C
  C787     1.0000 0.31659  0.23300  0.67516  Biso   1.000  C
  H833     1.0000 0.24357  0.12390  0.66420  Biso   1.000  H
  C788     1.0000 0.21900  0.07349  0.67976  Biso   1.000  C
  H834     1.0000 0.44437  0.60478  0.58440  Biso   1.000  H
  H835     1.0000 0.53120  0.66676  0.59180  Biso   1.000  H
  C789     1.0000 0.41298  0.61029  0.60060  Biso   1.000  C
  H836     1.0000 0.51518  0.67248  0.61290  Biso   1.000  H
  H837     1.0000 0.41768  0.61178  0.61810  Biso   1.000  H
  C790     1.0000 0.49178  0.49420  0.63138  Biso   1.000  C
  H838     1.0000 0.16034  0.55558  0.58440  Biso   1.000  H
  H839     1.0000 0.13559  0.46876  0.59180  Biso   1.000  H
  C791     1.0000 0.19728  0.58701  0.60060  Biso   1.000  C
  C792     1.0000 0.00236  0.50820  0.63138  Biso   1.000  C
  H840     1.0000 0.15729  0.48478  0.61290  Biso   1.000  H
  H841     1.0000 0.19410  0.58230  0.61810  Biso   1.000  H
  N116     1.0000 0.87886  0.23461  0.66971  Biso   1.000  N
  H842     1.0000 0.87609  0.11973  0.66420  Biso   1.000  H
  C793     1.0000 0.92646  0.14551  0.67976  Biso   1.000  C
  C794     1.0000 0.81662  0.99542  0.68699  Biso   1.000  C
  H843     1.0000 0.75843  0.96123  0.67140  Biso   1.000  H
  H844     1.0000 0.68813  0.95188  0.68070  Biso   1.000  H
  N117     1.0000 0.36888  0.29620  0.66631  Biso   1.000  N
  C795     1.0000 0.23912  0.24929  0.67806  Biso   1.000  C
  H845     1.0000 0.35580  0.24451  0.68170  Biso   1.000  H
  H846     1.0000 0.19542  0.01070  0.67730  Biso   1.000  H
  H847     1.0000 0.25498  0.08238  0.68650  Biso   1.000  H
  C796     1.0000 0.14378  0.08648  0.68242  Biso   1.000  C
  H848     1.0000 0.35308  0.55531  0.60010  Biso   1.000  H
  H849     1.0000 0.40492  0.66319  0.59980  Biso   1.000  H
  H850     1.0000 0.43621  0.44251  0.62950  Biso   1.000  H
  C797     1.0000 0.52627  0.49568  0.64273  Biso   1.000  C
  H851     1.0000 0.20216  0.64691  0.60010  Biso   1.000  H
  H852     1.0000 0.25826  0.59508  0.59980  Biso   1.000  H
  C798     1.0000 0.96936  0.47367  0.64273  Biso   1.000  C
  H853     1.0000 0.00626  0.56379  0.62950  Biso   1.000  H
  C799     1.0000 0.90408  0.26571  0.65979  Biso   1.000  C
  H854     1.0000 0.98929  0.18468  0.67730  Biso   1.000  H
  H855     1.0000 0.91755  0.17256  0.68650  Biso   1.000  H
  C800     1.0000 0.91347  0.05727  0.68242  Biso   1.000  C
  H856     1.0000 0.80738  0.02100  0.69380  Biso   1.000  H
  H857     1.0000 0.80702  0.93472  0.68860  Biso   1.000  H
  C801     1.0000 0.44477  0.36148  0.66906  Biso   1.000  C
  C802     1.0000 0.17878  0.18340  0.68699  Biso   1.000  C
  H858     1.0000 0.20281  0.24161  0.67140  Biso   1.000  H
  H859     1.0000 0.26377  0.31188  0.68070  Biso   1.000  H
  H860     1.0000 0.10509  0.04173  0.68800  Biso   1.000  H
  H861     1.0000 0.10718  0.07740  0.67580  Biso   1.000  H
  C803     1.0000 0.47258  0.42898  0.64981  Biso   1.000  C
  C804     1.0000 0.61259  0.56446  0.64616  Biso   1.000  C
  C805     1.0000 0.95635  0.52738  0.64981  Biso   1.000  C
  C806     1.0000 0.95187  0.38739  0.64616  Biso   1.000  C
  C807     1.0000 0.92559  0.35838  0.65677  Biso   1.000  C
  H862     1.0000 0.90881  0.22842  0.65440  Biso   1.000  H
  H863     1.0000 0.95826  0.06340  0.68800  Biso   1.000  H
  H864     1.0000 0.92258  0.02981  0.67580  Biso   1.000  H
  C808     1.0000 0.50208  0.43087  0.66087  Biso   1.000  C
  H865     1.0000 0.46520  0.36619  0.67640  Biso   1.000  H
  H866     1.0000 0.12769  0.19302  0.68860  Biso   1.000  H
  H867     1.0000 0.21358  0.19262  0.69380  Biso   1.000  H
  H868     1.0000 0.41580  0.38140  0.64740  Biso   1.000  H
  C809     1.0000 0.64157  0.56715  0.65677  Biso   1.000  C
  H869     1.0000 0.65097  0.60929  0.64110  Biso   1.000  H
  C810     1.0000 0.92879  0.49790  0.66087  Biso   1.000  C
  H870     1.0000 0.96558  0.58418  0.64740  Biso   1.000  H
  H871     1.0000 0.95824  0.34896  0.64110  Biso   1.000  H
  C811     1.0000 0.91420  0.41579  0.66379  Biso   1.000  C
  C812     1.0000 0.58415  0.49837  0.66379  Biso   1.000  C
  C813     1.0000 0.73429  0.63836  0.65979  Biso   1.000  C
  C814     1.0000 0.91668  0.55517  0.66906  Biso   1.000  C
  H872     1.0000 0.89479  0.39587  0.67110  Biso   1.000  H
  H873     1.0000 0.60412  0.49891  0.67110  Biso   1.000  H
  N118     1.0000 0.76540  0.64428  0.66971  Biso   1.000  N
  H874     1.0000 0.77155  0.68036  0.65440  Biso   1.000  H
  N119     1.0000 0.92731  0.63109  0.66631  Biso   1.000  N
  H875     1.0000 0.90095  0.53478  0.67640  Biso   1.000  H
  C815     1.0000 0.85688  0.72255  0.67129  Biso   1.000  C
  C816     1.0000 0.91638  0.68338  0.67516  Biso   1.000  C
  H876     1.0000 0.88027  0.75641  0.66420  Biso   1.000  H
  C817     1.0000 0.85450  0.78097  0.67976  Biso   1.000  C
  H877     1.0000 0.88870  0.64421  0.68170  Biso   1.000  H
  C818     1.0000 0.01014  0.76085  0.67806  Biso   1.000  C
  H878     1.0000 0.81531  0.80460  0.67730  Biso   1.000  H
  H879     1.0000 0.82740  0.74497  0.68650  Biso   1.000  H
  C819     1.0000 0.94267  0.85615  0.68242  Biso   1.000  C
  C820     1.0000 0.00456  0.82115  0.68699  Biso   1.000  C
  H880     1.0000 0.03880  0.79719  0.67140  Biso   1.000  H
  H881     1.0000 0.04803  0.73615  0.68070  Biso   1.000  H
  H882     1.0000 0.93655  0.89485  0.68800  Biso   1.000  H
  H883     1.0000 0.97019  0.89276  0.67580  Biso   1.000  H
  H884     1.0000 0.97895  0.78636  0.69380  Biso   1.000  H
  H885     1.0000 0.06528  0.87230  0.68860  Biso   1.000  H
  C821     1.0000 0.50773  0.20938  0.06669  Biso   1.000  C
  C822     1.0000 0.45636  0.23650  0.05774  Biso   1.000  C
  C823     1.0000 0.51414  0.12848  0.06223  Biso   1.000  C
  H886     1.0000 0.47432  0.19302  0.07370  Biso   1.000  H
  H887     1.0000 0.47426  0.19302  0.07370  Biso   1.000  H
  H888     1.0000 0.56894  0.26093  0.06800  Biso   1.000  H
  C824     1.0000 0.36001  0.15291  0.05598  Biso   1.000  C
  C825     1.0000 0.35995  0.15291  0.05598  Biso   1.000  C
  H889     1.0000 0.45160  0.28852  0.06040  Biso   1.000  H
  H890     1.0000 0.49010  0.25339  0.05070  Biso   1.000  H
  C826     1.0000 0.50779  0.20938  0.06669  Biso   1.000  C
  H891     1.0000 0.49005  0.25339  0.05070  Biso   1.000  H
  C827     1.0000 0.41743  0.04637  0.06056  Biso   1.000  C
  H892     1.0000 0.54801  0.11239  0.06750  Biso   1.000  H
  H893     1.0000 0.54795  0.11239  0.06750  Biso   1.000  H
  H894     1.0000 0.54683  0.14477  0.05510  Biso   1.000  H
  C828     1.0000 0.36867  0.07208  0.05188  Biso   1.000  C
  N120     1.0000 0.31690  0.17707  0.04756  Biso   1.000  N
  H895     1.0000 0.32449  0.13723  0.06290  Biso   1.000  H
  N121     1.0000 0.31684  0.17707  0.04756  Biso   1.000  N
  H896     1.0000 0.32454  0.13723  0.06290  Biso   1.000  H
  H897     1.0000 0.42114  0.99340  0.05800  Biso   1.000  H
  H898     1.0000 0.38387  0.03089  0.06760  Biso   1.000  H
  H899     1.0000 0.38393  0.03089  0.06760  Biso   1.000  H
  N122     1.0000 0.27558  0.99838  0.05061  Biso   1.000  N
  H900     1.0000 0.40131  0.08642  0.04470  Biso   1.000  H
  H901     1.0000 0.40125  0.08642  0.04470  Biso   1.000  H
  C829     1.0000 0.25612  0.19470  0.05005  Biso   1.000  C
  C830     1.0000 0.25606  0.19470  0.05005  Biso   1.000  C
  C831     1.0000 0.25139  0.97880  0.04077  Biso   1.000  C
  C832     1.0000 0.20358  0.20817  0.04219  Biso   1.000  C
  H902     1.0000 0.24515  0.19921  0.05760  Biso   1.000  H
  C833     1.0000 0.15756  0.91062  0.03732  Biso   1.000  C
  C834     1.0000 0.15750  0.91062  0.03732  Biso   1.000  C
  H903     1.0000 0.29511  0.00888  0.03520  Biso   1.000  H
  H904     1.0000 0.29505  0.00888  0.03520  Biso   1.000  H
  C835     1.0000 0.14311  0.23610  0.04510  Biso   1.000  C
  C836     1.0000 0.14305  0.23610  0.04510  Biso   1.000  C
  C837     1.0000 0.20887  0.19100  0.03099  Biso   1.000  C
  C838     1.0000 0.09306  0.85692  0.04510  Biso   1.000  C
  C839     1.0000 0.13607  0.89911  0.02655  Biso   1.000  C
  C840     1.0000 0.09294  0.85692  0.04510  Biso   1.000  C
  H905     1.0000 0.13809  0.24821  0.05260  Biso   1.000  H
  C841     1.0000 0.08943  0.24693  0.03732  Biso   1.000  C
  C842     1.0000 0.08934  0.24686  0.03732  Biso   1.000  C
  C843     1.0000 0.15920  0.20662  0.02306  Biso   1.000  C
  H906     1.0000 0.24689  0.16832  0.02880  Biso   1.000  H
  H907     1.0000 0.24695  0.16832  0.02880  Biso   1.000  H
  C844     1.0000 0.04742  0.84083  0.02306  Biso   1.000  C
  H908     1.0000 0.18174  0.93088  0.02120  Biso   1.000  H
  H909     1.0000 0.18162  0.93088  0.02120  Biso   1.000  H
  H910     1.0000 0.11018  0.86190  0.05260  Biso   1.000  H
  C845     1.0000 0.00458  0.79641  0.04219  Biso   1.000  C
  H911     1.0000 0.11012  0.86190  0.05260  Biso   1.000  H
  C846     1.0000 0.10088  0.23697  0.02655  Biso   1.000  C
  C847     1.0000 0.02117  0.27257  0.04077  Biso   1.000  C
  C848     1.0000 0.02123  0.27257  0.04077  Biso   1.000  C
  C849     1.0000 0.16826  0.19302  0.01110  Biso   1.000  C
  C850     1.0000 0.98204  0.79109  0.03099  Biso   1.000  C
  C851     1.0000 0.98216  0.79109  0.03099  Biso   1.000  C
  C852     1.0000 0.02466  0.83168  0.01110  Biso   1.000  C
  C853     1.0000 0.93858  0.74392  0.05005  Biso   1.000  C
  H912     1.0000 0.06908  0.25077  0.02120  Biso   1.000  H
  H913     1.0000 0.99102  0.28617  0.03520  Biso   1.000  H
  N123     1.0000 0.00158  0.27722  0.05061  Biso   1.000  N
  C854     1.0000 0.25067  0.20467  0.00720  Biso   1.000  C
  C855     1.0000 0.19328  0.26416  0.00368  Biso   1.000  C
  C856     1.0000 0.19331  0.26423  0.00368  Biso   1.000  C
  C857     1.0000 0.09299  0.16092  0.00383  Biso   1.000  C
  C858     1.0000 0.15319  0.10950  0.00712  Biso   1.000  C
  H914     1.0000 0.92133  0.75314  0.02880  Biso   1.000  H
  H915     1.0000 0.92139  0.75314  0.02880  Biso   1.000  H
  C859     1.0000 0.95398  0.74930  0.00720  Biso   1.000  C
  C860     1.0000 0.95634  0.84682  0.00712  Biso   1.000  C
  C861     1.0000 0.07098  0.80671  0.00368  Biso   1.000  C
  C862     1.0000 0.07087  0.80671  0.00368  Biso   1.000  C
  C863     1.0000 0.06785  0.90699  0.00383  Biso   1.000  C
  H916     1.0000 0.95409  0.75489  0.05760  Biso   1.000  H
  N124     1.0000 0.86025  0.68307  0.04756  Biso   1.000  N
  N125     1.0000 0.86022  0.68314  0.04756  Biso   1.000  N
  C864     1.0000 0.92787  0.29660  0.05188  Biso   1.000  C
  H917     1.0000 0.29860  0.22102  0.01230  Biso   1.000  H
  C865     1.0000 0.26416  0.19329  0.99632  Biso   1.000  C
  H918     1.0000 0.20220  0.32069  0.00610  Biso   1.000  H
  C866     1.0000 0.20468  0.25070  0.99280  Biso   1.000  C
  C867     1.0000 0.20473  0.25070  0.99280  Biso   1.000  C
  C868     1.0000 0.10946  0.15318  0.99288  Biso   1.000  C
  H919     1.0000 0.03479  0.14557  0.00640  Biso   1.000  H
  C869     1.0000 0.16092  0.09301  0.99617  Biso   1.000  C
  H920     1.0000 0.13678  0.06199  0.01220  Biso   1.000  H
  C870     1.0000 0.92912  0.73584  0.99632  Biso   1.000  C
  H921     1.0000 0.92238  0.70138  0.01230  Biso   1.000  H
  C871     1.0000 0.93207  0.83908  0.99617  Biso   1.000  C
  H922     1.0000 0.92518  0.86318  0.01220  Biso   1.000  H
  H923     1.0000 0.11853  0.79782  0.00610  Biso   1.000  H
  C872     1.0000 0.04600  0.79533  0.99280  Biso   1.000  C
  C873     1.0000 0.04364  0.89050  0.99288  Biso   1.000  C
  H924     1.0000 0.11083  0.96520  0.00640  Biso   1.000  H
  C874     1.0000 0.79284  0.64000  0.05598  Biso   1.000  C
  C875     1.0000 0.79290  0.64000  0.05598  Biso   1.000  C
  H925     1.0000 0.91359  0.31491  0.04470  Biso   1.000  H
  C876     1.0000 0.95358  0.37110  0.06056  Biso   1.000  C
  C877     1.0000 0.84703  0.20709  0.05598  Biso   1.000  C
  C878     1.0000 0.19298  0.16832  0.98890  Biso   1.000  C
  H926     1.0000 0.32065  0.20218  0.99390  Biso   1.000  H
  C879     1.0000 0.19304  0.16832  0.98890  Biso   1.000  C
  H927     1.0000 0.22100  0.29862  0.98770  Biso   1.000  H
  H928     1.0000 0.06200  0.13682  0.98780  Biso   1.000  H
  H929     1.0000 0.14557  0.03480  0.99360  Biso   1.000  H
  C880     1.0000 0.97530  0.80698  0.98890  Biso   1.000  C
  H930     1.0000 0.88150  0.67931  0.99390  Biso   1.000  H
  H931     1.0000 0.88156  0.67931  0.99390  Biso   1.000  H
  H932     1.0000 0.88927  0.85443  0.99360  Biso   1.000  H
  H933     1.0000 0.07763  0.77898  0.98770  Biso   1.000  H
  H934     1.0000 0.07758  0.77898  0.98770  Biso   1.000  H
  H935     1.0000 0.07480  0.93801  0.98780  Biso   1.000  H
  H936     1.0000 0.81271  0.67554  0.06290  Biso   1.000  H
  C881     1.0000 0.78003  0.54363  0.05774  Biso   1.000  C
  C882     1.0000 0.70334  0.63132  0.05188  Biso   1.000  C
  H937     1.0000 0.81276  0.67554  0.06290  Biso   1.000  H
  C883     1.0000 0.78009  0.54363  0.05774  Biso   1.000  C
  C884     1.0000 0.70346  0.63132  0.05188  Biso   1.000  C
  N126     1.0000 0.82288  0.13979  0.04756  Biso   1.000  N
  H938     1.0000 0.86278  0.18730  0.06290  Biso   1.000  H
  C885     1.0000 0.76349  0.21988  0.05774  Biso   1.000  C
  C886     1.0000 0.76343  0.21988  0.05774  Biso   1.000  C
  C887     1.0000 0.87153  0.38571  0.06223  Biso   1.000  C
  H939     1.0000 0.96912  0.35300  0.06760  Biso   1.000  H
  C888     1.0000 0.87147  0.38571  0.06223  Biso   1.000  C
  H940     1.0000 0.96906  0.35300  0.06760  Biso   1.000  H
  H941     1.0000 0.00665  0.42770  0.05800  Biso   1.000  H
  C889     1.0000 0.20653  0.15917  0.97694  Biso   1.000  C
  C890     1.0000 0.95259  0.79338  0.97694  Biso   1.000  C
  C891     1.0000 0.95265  0.79338  0.97694  Biso   1.000  C
  H942     1.0000 0.83686  0.54840  0.06040  Biso   1.000  H
  H943     1.0000 0.76323  0.50991  0.05070  Biso   1.000  H
  C892     1.0000 0.70163  0.49221  0.06669  Biso   1.000  C
  H944     1.0000 0.76329  0.50991  0.05070  Biso   1.000  H
  H945     1.0000 0.68513  0.59875  0.04470  Biso   1.000  H
  C893     1.0000 0.62894  0.58253  0.06056  Biso   1.000  C
  H946     1.0000 0.68510  0.59868  0.04470  Biso   1.000  H
  N127     1.0000 0.72278  0.72440  0.05061  Biso   1.000  N
  C894     1.0000 0.80524  0.06138  0.05005  Biso   1.000  C
  H947     1.0000 0.71148  0.16307  0.06040  Biso   1.000  H
  C895     1.0000 0.79058  0.29842  0.06669  Biso   1.000  C
  H948     1.0000 0.74655  0.23670  0.05070  Biso   1.000  H
  H949     1.0000 0.88760  0.43558  0.06750  Biso   1.000  H
  H950     1.0000 0.85517  0.40206  0.05510  Biso   1.000  H
  H951     1.0000 0.88755  0.43558  0.06750  Biso   1.000  H
  C896     1.0000 0.19101  0.20891  0.96901  Biso   1.000  C
  C897     1.0000 0.23696  0.10089  0.97345  Biso   1.000  C
  C898     1.0000 0.01792  0.80900  0.96901  Biso   1.000  C
  C899     1.0000 0.86391  0.76303  0.97345  Biso   1.000  C
  C900     1.0000 0.86397  0.76303  0.97345  Biso   1.000  C
  H952     1.0000 0.69194  0.43110  0.06800  Biso   1.000  H
  H953     1.0000 0.71874  0.52572  0.07370  Biso   1.000  H
  C901     1.0000 0.61427  0.48581  0.06223  Biso   1.000  C
  H954     1.0000 0.69200  0.43110  0.06800  Biso   1.000  H
  C902     1.0000 0.72738  0.74863  0.04077  Biso   1.000  C
  H955     1.0000 0.57222  0.57889  0.05800  Biso   1.000  H
  H956     1.0000 0.57233  0.57889  0.05800  Biso   1.000  H
  H957     1.0000 0.64701  0.61611  0.06760  Biso   1.000  H
  C903     1.0000 0.79179  0.99542  0.04219  Biso   1.000  C
  H958     1.0000 0.80077  0.04590  0.05760  Biso   1.000  H
  H959     1.0000 0.73905  0.30797  0.06800  Biso   1.000  H
  H960     1.0000 0.80698  0.28132  0.07370  Biso   1.000  H
  H961     1.0000 0.25080  0.06912  0.97880  Biso   1.000  H
  C904     1.0000 0.24688  0.08938  0.96268  Biso   1.000  C
  C905     1.0000 0.20816  0.20359  0.95781  Biso   1.000  C
  H962     1.0000 0.16829  0.24693  0.97120  Biso   1.000  H
  C906     1.0000 0.20822  0.20359  0.95781  Biso   1.000  C
  H963     1.0000 0.16835  0.24693  0.97120  Biso   1.000  H
  C907     1.0000 0.99535  0.79183  0.95781  Biso   1.000  C
  C908     1.0000 0.99547  0.79183  0.95781  Biso   1.000  C
  H964     1.0000 0.07857  0.83168  0.97120  Biso   1.000  H
  H965     1.0000 0.81825  0.74923  0.97880  Biso   1.000  H
  C909     1.0000 0.84247  0.75314  0.96268  Biso   1.000  C
  H966     1.0000 0.81831  0.74923  0.97880  Biso   1.000  H
  C910     1.0000 0.84253  0.75314  0.96268  Biso   1.000  C
  H967     1.0000 0.56439  0.45203  0.06750  Biso   1.000  H
  H968     1.0000 0.59786  0.45310  0.05510  Biso   1.000  H
  H969     1.0000 0.56445  0.45203  0.06750  Biso   1.000  H
  H970     1.0000 0.59792  0.45310  0.05510  Biso   1.000  H
  C911     1.0000 0.75310  0.84251  0.03732  Biso   1.000  C
  H971     1.0000 0.71372  0.70488  0.03520  Biso   1.000  H
  H972     1.0000 0.71384  0.70488  0.03520  Biso   1.000  H
  C912     1.0000 0.76389  0.90699  0.04510  Biso   1.000  C
  C913     1.0000 0.76395  0.90699  0.04510  Biso   1.000  C
  C914     1.0000 0.80897  0.01790  0.03099  Biso   1.000  C
  C915     1.0000 0.27259  0.02120  0.95923  Biso   1.000  C
  C916     1.0000 0.23608  0.14308  0.95490  Biso   1.000  C
  C917     1.0000 0.19472  0.25608  0.94995  Biso   1.000  C
  C918     1.0000 0.06142  0.80530  0.94995  Biso   1.000  C
  C919     1.0000 0.90696  0.76390  0.95490  Biso   1.000  C
  C920     1.0000 0.74854  0.72743  0.95923  Biso   1.000  C
  C921     1.0000 0.74866  0.72743  0.95923  Biso   1.000  C
  C922     1.0000 0.76293  0.86392  0.02655  Biso   1.000  C
  C923     1.0000 0.76305  0.86392  0.02655  Biso   1.000  C
  H973     1.0000 0.75185  0.88989  0.05260  Biso   1.000  H
  C924     1.0000 0.79341  0.95262  0.02306  Biso   1.000  C
  H974     1.0000 0.83169  0.07861  0.02880  Biso   1.000  H
  H975     1.0000 0.28623  0.99112  0.96480  Biso   1.000  H
  N128     1.0000 0.27720  0.00162  0.94939  Biso   1.000  N
  H976     1.0000 0.24816  0.13810  0.94740  Biso   1.000  H
  N129     1.0000 0.17711  0.31693  0.95244  Biso   1.000  N
  H977     1.0000 0.19920  0.24511  0.94240  Biso   1.000  H
  N130     1.0000 0.13983  0.82293  0.95244  Biso   1.000  N
  H978     1.0000 0.04593  0.80079  0.94240  Biso   1.000  H
  N131     1.0000 0.13977  0.82293  0.95244  Biso   1.000  N
  H979     1.0000 0.88983  0.75179  0.94740  Biso   1.000  H
  H980     1.0000 0.88988  0.75179  0.94740  Biso   1.000  H
  N132     1.0000 0.72442  0.72278  0.94939  Biso   1.000  N
  H981     1.0000 0.70497  0.71383  0.96480  Biso   1.000  H
  H982     1.0000 0.74921  0.81828  0.02120  Biso   1.000  H
  C925     1.0000 0.80702  0.97530  0.01110  Biso   1.000  C
  C926     1.0000 0.29659  0.92792  0.94812  Biso   1.000  C
  C927     1.0000 0.15290  0.36000  0.94402  Biso   1.000  C
  C928     1.0000 0.20710  0.84709  0.94402  Biso   1.000  C
  C929     1.0000 0.20704  0.84709  0.94402  Biso   1.000  C
  C930     1.0000 0.63132  0.70340  0.94812  Biso   1.000  C
  C931     1.0000 0.73580  0.92913  0.00368  Biso   1.000  C
  C932     1.0000 0.83910  0.93209  0.00383  Biso   1.000  C
  C933     1.0000 0.79526  0.04597  0.00720  Biso   1.000  C
  C934     1.0000 0.79530  0.04603  0.00720  Biso   1.000  C
  C935     1.0000 0.89046  0.04368  0.00712  Biso   1.000  C
  H983     1.0000 0.31490  0.91358  0.95530  Biso   1.000  H
  C936     1.0000 0.37117  0.95363  0.93944  Biso   1.000  C
  C937     1.0000 0.37106  0.95363  0.93944  Biso   1.000  C
  H984     1.0000 0.13717  0.32446  0.93710  Biso   1.000  H
  C938     1.0000 0.23646  0.45637  0.94226  Biso   1.000  C
  C939     1.0000 0.07208  0.36868  0.94812  Biso   1.000  C
  H985     1.0000 0.13723  0.32446  0.93710  Biso   1.000  H
  C940     1.0000 0.23652  0.45637  0.94226  Biso   1.000  C
  H986     1.0000 0.18732  0.86277  0.93710  Biso   1.000  H
  C941     1.0000 0.21998  0.76350  0.94226  Biso   1.000  C
  H987     1.0000 0.18735  0.86284  0.93710  Biso   1.000  H
  C942     1.0000 0.21986  0.76350  0.94226  Biso   1.000  C
  H988     1.0000 0.59868  0.68509  0.95530  Biso   1.000  H
  C943     1.0000 0.63994  0.79291  0.94402  Biso   1.000  C
  C944     1.0000 0.58253  0.62890  0.93944  Biso   1.000  C
  C945     1.0000 0.64006  0.79291  0.94402  Biso   1.000  C
  C946     1.0000 0.74924  0.95403  0.99280  Biso   1.000  C
  C947     1.0000 0.74935  0.95403  0.99280  Biso   1.000  C
  H989     1.0000 0.67921  0.88148  0.00610  Biso   1.000  H
  H990     1.0000 0.67927  0.88148  0.00610  Biso   1.000  H
  C948     1.0000 0.84684  0.95632  0.99288  Biso   1.000  C
  H991     1.0000 0.85438  0.88922  0.00640  Biso   1.000  H
  C949     1.0000 0.80666  0.07087  0.99632  Biso   1.000  C
  H992     1.0000 0.77902  0.07760  0.01230  Biso   1.000  H
  H993     1.0000 0.77896  0.07760  0.01230  Biso   1.000  H
  C950     1.0000 0.90695  0.06791  0.99617  Biso   1.000  C
  H994     1.0000 0.93795  0.07477  0.01220  Biso   1.000  H
  C951     1.0000 0.38578  0.87152  0.93777  Biso   1.000  C
  C952     1.0000 0.38572  0.87152  0.93777  Biso   1.000  C
  H995     1.0000 0.35303  0.96911  0.93240  Biso   1.000  H
  H996     1.0000 0.42767  0.00660  0.94200  Biso   1.000  H
  H997     1.0000 0.42773  0.00660  0.94200  Biso   1.000  H
  H998     1.0000 0.28851  0.45160  0.93960  Biso   1.000  H
  H999     1.0000 0.25338  0.49009  0.94930  Biso   1.000  H
  C953     1.0000 0.20943  0.50779  0.93331  Biso   1.000  C
  H1000    1.0000 0.28845  0.45160  0.93960  Biso   1.000  H
  C954     1.0000 0.20937  0.50779  0.93331  Biso   1.000  C
  H1001    1.0000 0.25344  0.49009  0.94930  Biso   1.000  H
  N133     1.0000 0.99838  0.27560  0.94939  Biso   1.000  N
  H1002    1.0000 0.08642  0.40132  0.95530  Biso   1.000  H
  C955     1.0000 0.04635  0.41747  0.93944  Biso   1.000  C
  H1003    1.0000 0.08636  0.40132  0.95530  Biso   1.000  H
  H1004    1.0000 0.16313  0.71148  0.93960  Biso   1.000  H
  H1005    1.0000 0.23677  0.74661  0.94930  Biso   1.000  H
  C956     1.0000 0.29847  0.79062  0.93331  Biso   1.000  C
  H1006    1.0000 0.16317  0.71154  0.93960  Biso   1.000  H
  H1007    1.0000 0.23665  0.74661  0.94930  Biso   1.000  H
  C957     1.0000 0.29835  0.79062  0.93331  Biso   1.000  C
  H1008    1.0000 0.16305  0.71154  0.93960  Biso   1.000  H
  C958     1.0000 0.54361  0.78012  0.94226  Biso   1.000  C
  N134     1.0000 0.68304  0.86021  0.95244  Biso   1.000  N
  H1009    1.0000 0.67542  0.81270  0.93710  Biso   1.000  H
  N135     1.0000 0.68315  0.86021  0.95244  Biso   1.000  N
  H1010    1.0000 0.67548  0.81270  0.93710  Biso   1.000  H
  C959     1.0000 0.48582  0.61429  0.93777  Biso   1.000  C
  H1011    1.0000 0.57883  0.57230  0.94200  Biso   1.000  H
  H1012    1.0000 0.61612  0.64700  0.93240  Biso   1.000  H
  H1013    1.0000 0.57894  0.57230  0.94200  Biso   1.000  H
  H1014    1.0000 0.70142  0.92240  0.98770  Biso   1.000  H
  C960     1.0000 0.83167  0.02470  0.98890  Biso   1.000  C
  H1015    1.0000 0.86318  0.92523  0.98780  Biso   1.000  H
  H1016    1.0000 0.79779  0.11852  0.99390  Biso   1.000  H
  H1017    1.0000 0.96516  0.11078  0.99360  Biso   1.000  H
  H1018    1.0000 0.43561  0.88761  0.93250  Biso   1.000  H
  H1019    1.0000 0.40218  0.85523  0.94490  Biso   1.000  H
  H1020    1.0000 0.40206  0.85523  0.94490  Biso   1.000  H
  H1021    1.0000 0.26090  0.56890  0.93200  Biso   1.000  H
  H1022    1.0000 0.19302  0.47428  0.92630  Biso   1.000  H
  H1023    1.0000 0.19296  0.47428  0.92630  Biso   1.000  H
  C961     1.0000 0.12846  0.51419  0.93777  Biso   1.000  C
  C962     1.0000 0.97875  0.25137  0.95923  Biso   1.000  C
  H1024    1.0000 0.99338  0.42111  0.94200  Biso   1.000  H
  H1025    1.0000 0.03090  0.38389  0.93240  Biso   1.000  H
  H1026    1.0000 0.30799  0.73914  0.93200  Biso   1.000  H
  H1027    1.0000 0.28129  0.80698  0.92630  Biso   1.000  H
  H1028    1.0000 0.28124  0.80698  0.92630  Biso   1.000  H
  H1029    1.0000 0.50991  0.76330  0.94930  Biso   1.000  H
  H1030    1.0000 0.54841  0.83693  0.93960  Biso   1.000  H
  C963     1.0000 0.49222  0.70158  0.93331  Biso   1.000  C
  H1031    1.0000 0.54847  0.83693  0.93960  Biso   1.000  H
  C964     1.0000 0.74386  0.93862  0.94995  Biso   1.000  C
  C965     1.0000 0.74398  0.93862  0.94995  Biso   1.000  C
  H1032    1.0000 0.45202  0.56442  0.93250  Biso   1.000  H
  H1033    1.0000 0.45310  0.59794  0.94490  Biso   1.000  H
  C966     1.0000 0.84073  0.04738  0.97694  Biso   1.000  C
  H1034    1.0000 0.11236  0.54797  0.93250  Biso   1.000  H
  H1035    1.0000 0.14481  0.54690  0.94490  Biso   1.000  H
  H1036    1.0000 0.14475  0.54690  0.94490  Biso   1.000  H
  H1037    1.0000 0.11242  0.54797  0.93250  Biso   1.000  H
  C967     1.0000 0.91059  0.15749  0.96268  Biso   1.000  C
  C968     1.0000 0.91053  0.15749  0.96268  Biso   1.000  C
  H1038    1.0000 0.00896  0.29512  0.96480  Biso   1.000  H
  H1039    1.0000 0.43108  0.69203  0.93200  Biso   1.000  H
  H1040    1.0000 0.52571  0.71868  0.92630  Biso   1.000  H
  H1041    1.0000 0.75487  0.95410  0.94240  Biso   1.000  H
  C969     1.0000 0.79637  0.00458  0.95781  Biso   1.000  C
  C970     1.0000 0.79113  0.98210  0.96901  Biso   1.000  C
  C971     1.0000 0.89907  0.13608  0.97345  Biso   1.000  C
  C972     1.0000 0.85685  0.09301  0.95490  Biso   1.000  C
  H1042    1.0000 0.75308  0.92139  0.97120  Biso   1.000  H
  H1043    1.0000 0.93086  0.18172  0.97880  Biso   1.000  H
  H1044    1.0000 0.86190  0.11011  0.94740  Biso   1.000  H
  C973     1.0000 0.30517  0.84763  0.68187  Biso   1.000  C
  C974     1.0000 0.30631  0.90759  0.69149  Biso   1.000  C
  H1045    1.0000 0.32704  0.88343  0.67500  Biso   1.000  H
  H1046    1.0000 0.24311  0.79729  0.68060  Biso   1.000  H
  C975     1.0000 0.36895  0.81001  0.68525  Biso   1.000  C
  C976     1.0000 0.40156  0.98398  0.69386  Biso   1.000  C
  H1047    1.0000 0.26763  0.93317  0.68960  Biso   1.000  H
  H1048    1.0000 0.28136  0.87017  0.69820  Biso   1.000  H
  C977     1.0000 0.46451  0.88781  0.68783  Biso   1.000  C
  H1049    1.0000 0.34405  0.77104  0.69180  Biso   1.000  H
  H1050    1.0000 0.37179  0.77312  0.67920  Biso   1.000  H
  N136     1.0000 0.39748  0.03957  0.70278  Biso   1.000  N
  H1051    1.0000 0.42610  0.02187  0.68710  Biso   1.000  H
  C978     1.0000 0.46094  0.94771  0.69692  Biso   1.000  C
  H1052    1.0000 0.50276  0.86277  0.69020  Biso   1.000  H
  H1053    1.0000 0.49147  0.92402  0.68110  Biso   1.000  H
  C979     1.0000 0.41021  0.11737  0.69994  Biso   1.000  C
  N137     1.0000 0.55479  0.01999  0.69882  Biso   1.000  N
  H1054    1.0000 0.43728  0.91123  0.70380  Biso   1.000  H
  C980     1.0000 0.40418  0.17842  0.70809  Biso   1.000  C
  H1055    1.0000 0.42372  0.13602  0.69250  Biso   1.000  H
  C981     1.0000 0.58629  0.02181  0.70837  Biso   1.000  C
  C982     1.0000 0.42429  0.26329  0.70446  Biso   1.000  C
  C983     1.0000 0.37681  0.15271  0.71887  Biso   1.000  C
  C984     1.0000 0.67761  0.09463  0.71162  Biso   1.000  C
  H1056    1.0000 0.55069  0.97577  0.71350  Biso   1.000  H
  C985     1.0000 0.41700  0.32238  0.71162  Biso   1.000  C
  H1057    1.0000 0.44308  0.28092  0.69710  Biso   1.000  H
  C986     1.0000 0.36947  0.21180  0.72602  Biso   1.000  C
  H1058    1.0000 0.36308  0.09469  0.72130  Biso   1.000  H
  C987     1.0000 0.73667  0.16099  0.70446  Biso   1.000  C
  C988     1.0000 0.70337  0.09288  0.72239  Biso   1.000  C
  C989     1.0000 0.43551  0.41371  0.70837  Biso   1.000  C
  C990     1.0000 0.38948  0.29660  0.72239  Biso   1.000  C
  C991     1.0000 0.36939  0.20022  0.73908  Biso   1.000  C
  C992     1.0000 0.82159  0.22580  0.70809  Biso   1.000  C
  H1059    1.0000 0.71909  0.16220  0.69710  Biso   1.000  H
  C993     1.0000 0.78818  0.15769  0.72602  Biso   1.000  C
  H1060    1.0000 0.66285  0.04738  0.72730  Biso   1.000  H
  N138     1.0000 0.46518  0.44520  0.69882  Biso   1.000  N
  H1061    1.0000 0.42510  0.44931  0.71350  Biso   1.000  H
  H1062    1.0000 0.38450  0.33712  0.72730  Biso   1.000  H
  C994     1.0000 0.36950  0.26362  0.74620  Biso   1.000  C
  C995     1.0000 0.36950  0.12269  0.74260  Biso   1.000  C
  C996     1.0000 0.31963  0.22391  0.74580  Biso   1.000  C
  C997     1.0000 0.41846  0.16139  0.74330  Biso   1.000  C
  C998     1.0000 0.42089  0.27688  0.74560  Biso   1.000  C
  C999     1.0000 0.32065  0.11347  0.74300  Biso   1.000  C
  C1000    1.0000 0.88258  0.29276  0.69994  Biso   1.000  C
  C1001    1.0000 0.84727  0.22412  0.71887  Biso   1.000  C
  C1002    1.0000 0.79976  0.16920  0.73908  Biso   1.000  C
  C1003    1.0000 0.48677  0.53909  0.69692  Biso   1.000  C
  C1004    1.0000 0.36948  0.24680  0.75740  Biso   1.000  C
  H1063    1.0000 0.36949  0.31571  0.74360  Biso   1.000  H
  C1005    1.0000 0.32072  0.20722  0.75700  Biso   1.000  C
  C1006    1.0000 0.41852  0.25709  0.75670  Biso   1.000  C
  C1007    1.0000 0.36948  0.10587  0.75380  Biso   1.000  C
  H1064    1.0000 0.36946  0.08157  0.73730  Biso   1.000  H
  C1008    1.0000 0.42091  0.14403  0.75440  Biso   1.000  C
  C1009    1.0000 0.31958  0.09570  0.75420  Biso   1.000  C
  H1065    1.0000 0.28647  0.25016  0.74290  Biso   1.000  H
  H1066    1.0000 0.45149  0.14631  0.73830  Biso   1.000  H
  H1067    1.0000 0.45388  0.33611  0.74270  Biso   1.000  H
  H1068    1.0000 0.28746  0.06528  0.73800  Biso   1.000  H
  N139     1.0000 0.96039  0.35791  0.70278  Biso   1.000  N
  H1069    1.0000 0.86397  0.28772  0.69250  Biso   1.000  H
  H1070    1.0000 0.90526  0.26840  0.72130  Biso   1.000  H
  C1010    1.0000 0.73639  0.10587  0.74620  Biso   1.000  C
  C1011    1.0000 0.87726  0.24680  0.74260  Biso   1.000  C
  C1012    1.0000 0.77607  0.09570  0.74580  Biso   1.000  C
  C1013    1.0000 0.83858  0.25709  0.74330  Biso   1.000  C
  C1014    1.0000 0.72312  0.14403  0.74560  Biso   1.000  C
  C1015    1.0000 0.88650  0.20722  0.74300  Biso   1.000  C
  C1016    1.0000 0.58252  0.59852  0.69386  Biso   1.000  C
  C1017    1.0000 0.42329  0.53545  0.68783  Biso   1.000  C
  H1071    1.0000 0.47393  0.56271  0.70380  Biso   1.000  H
  C1018    1.0000 0.36938  0.16920  0.76092  Biso   1.000  C
  H1072    1.0000 0.36952  0.28792  0.76270  Biso   1.000  H
  H1073    1.0000 0.28745  0.22216  0.76200  Biso   1.000  H
  H1074    1.0000 0.45149  0.30521  0.76170  Biso   1.000  H
  H1075    1.0000 0.36949  0.05377  0.75640  Biso   1.000  H
  H1076    1.0000 0.45389  0.11778  0.75730  Biso   1.000  H
  H1077    1.0000 0.28648  0.03628  0.75710  Biso   1.000  H
  C1019    1.0000 0.01599  0.41747  0.69386  Biso   1.000  C
  C1020    1.0000 0.75319  0.12269  0.75740  Biso   1.000  C
  H1078    1.0000 0.68429  0.05377  0.74360  Biso   1.000  H
  C1021    1.0000 0.79276  0.11347  0.75700  Biso   1.000  C
  C1022    1.0000 0.74287  0.16139  0.75670  Biso   1.000  C
  C1023    1.0000 0.89407  0.26362  0.75380  Biso   1.000  C
  H1079    1.0000 0.91840  0.28792  0.73730  Biso   1.000  H
  C1024    1.0000 0.85599  0.27688  0.75440  Biso   1.000  C
  C1025    1.0000 0.90429  0.22391  0.75420  Biso   1.000  C
  H1080    1.0000 0.74979  0.03628  0.74290  Biso   1.000  H
  H1081    1.0000 0.85366  0.30521  0.73830  Biso   1.000  H
  H1082    1.0000 0.66389  0.11778  0.74270  Biso   1.000  H
  H1083    1.0000 0.93465  0.22216  0.73800  Biso   1.000  H
  C1026    1.0000 0.60126  0.69368  0.69149  Biso   1.000  C
  N140     1.0000 0.64210  0.60249  0.70278  Biso   1.000  N
  H1084    1.0000 0.59580  0.57388  0.68710  Biso   1.000  H
  C1027    1.0000 0.44109  0.63109  0.68525  Biso   1.000  C
  H1085    1.0000 0.35996  0.49716  0.69020  Biso   1.000  H
  H1086    1.0000 0.43260  0.50860  0.68110  Biso   1.000  H
  C1028    1.0000 0.36951  0.15769  0.77398  Biso   1.000  C
  C1029    1.0000 0.05230  0.51318  0.69692  Biso   1.000  C
  H1087    1.0000 0.97812  0.40422  0.68710  Biso   1.000  H
  C1030    1.0000 0.09240  0.39870  0.69149  Biso   1.000  C
  C1031    1.0000 0.83078  0.20022  0.76092  Biso   1.000  C
  H1088    1.0000 0.71206  0.08157  0.76270  Biso   1.000  H
  H1089    1.0000 0.77776  0.06528  0.76200  Biso   1.000  H
  H1090    1.0000 0.69477  0.14631  0.76170  Biso   1.000  H
  H1091    1.0000 0.94616  0.31571  0.75640  Biso   1.000  H
  H1092    1.0000 0.88216  0.33611  0.75730  Biso   1.000  H
  H1093    1.0000 0.96369  0.25016  0.75710  Biso   1.000  H
  C1032    1.0000 0.54247  0.69489  0.68187  Biso   1.000  C
  H1094    1.0000 0.66560  0.73238  0.68960  Biso   1.000  H
  H1095    1.0000 0.58876  0.71858  0.69820  Biso   1.000  H
  C1033    1.0000 0.70719  0.58977  0.69994  Biso   1.000  C
  H1096    1.0000 0.42702  0.65599  0.69180  Biso   1.000  H
  H1097    1.0000 0.40129  0.62820  0.67920  Biso   1.000  H
  C1034    1.0000 0.38951  0.09288  0.77761  Biso   1.000  C
  C1035    1.0000 0.37679  0.22412  0.78113  Biso   1.000  C
  N141     1.0000 0.97999  0.53478  0.69882  Biso   1.000  N
  C1036    1.0000 0.11216  0.57671  0.68783  Biso   1.000  C
  H1098    1.0000 0.08878  0.52610  0.70380  Biso   1.000  H
  H1099    1.0000 0.06679  0.33442  0.68960  Biso   1.000  H
  H1100    1.0000 0.12978  0.41122  0.69820  Biso   1.000  H
  C1037    1.0000 0.15241  0.45752  0.68187  Biso   1.000  C
  C1038    1.0000 0.84228  0.21180  0.77398  Biso   1.000  C
  H1101    1.0000 0.55639  0.67295  0.67500  Biso   1.000  H
  H1102    1.0000 0.55417  0.75688  0.68060  Biso   1.000  H
  C1039    1.0000 0.77419  0.59576  0.70809  Biso   1.000  C
  H1103    1.0000 0.71230  0.57631  0.69250  Biso   1.000  H
  C1040    1.0000 0.41702  0.09463  0.78838  Biso   1.000  C
  H1104    1.0000 0.38448  0.04738  0.77270  Biso   1.000  H
  H1105    1.0000 0.36309  0.26840  0.77870  Biso   1.000  H
  C1041    1.0000 0.40421  0.22580  0.79191  Biso   1.000  C
  C1042    1.0000 0.97816  0.56446  0.70837  Biso   1.000  C
  C1043    1.0000 0.18997  0.55888  0.68525  Biso   1.000  C
  H1106    1.0000 0.13715  0.63997  0.69020  Biso   1.000  H
  H1107    1.0000 0.07595  0.56736  0.68110  Biso   1.000  H
  H1108    1.0000 0.11659  0.44359  0.67500  Biso   1.000  H
  H1109    1.0000 0.20268  0.44581  0.68060  Biso   1.000  H
  C1044    1.0000 0.90706  0.29660  0.77761  Biso   1.000  C
  C1045    1.0000 0.77589  0.15271  0.78113  Biso   1.000  C
  C1046    1.0000 0.77591  0.62322  0.71887  Biso   1.000  C
  C1047    1.0000 0.83900  0.57570  0.70446  Biso   1.000  C
  C1048    1.0000 0.43551  0.02181  0.79163  Biso   1.000  C
  C1049    1.0000 0.42426  0.16099  0.79554  Biso   1.000  C
  C1050    1.0000 0.41018  0.29276  0.80006  Biso   1.000  C
  C1051    1.0000 0.90535  0.58297  0.71162  Biso   1.000  C
  H1110    1.0000 0.02417  0.57489  0.71350  Biso   1.000  H
  H1111    1.0000 0.22898  0.57301  0.69180  Biso   1.000  H
  H1112    1.0000 0.22691  0.59872  0.67920  Biso   1.000  H
  C1052    1.0000 0.90537  0.32238  0.78838  Biso   1.000  C
  H1113    1.0000 0.95261  0.33712  0.77270  Biso   1.000  H
  C1053    1.0000 0.77418  0.17842  0.79191  Biso   1.000  C
  H1114    1.0000 0.73156  0.09469  0.77870  Biso   1.000  H
  C1054    1.0000 0.84226  0.63049  0.72602  Biso   1.000  C
  H1115    1.0000 0.73157  0.63688  0.72130  Biso   1.000  H
  H1116    1.0000 0.83779  0.55686  0.69710  Biso   1.000  H
  N142     1.0000 0.46520  0.01999  0.80118  Biso   1.000  N
  H1117    1.0000 0.42514  0.97577  0.78650  Biso   1.000  H
  H1118    1.0000 0.44311  0.16220  0.80290  Biso   1.000  H
  N143     1.0000 0.39753  0.35791  0.79722  Biso   1.000  N
  H1119    1.0000 0.42369  0.28772  0.80750  Biso   1.000  H
  C1055    1.0000 0.90710  0.61050  0.72239  Biso   1.000  C
  C1056    1.0000 0.97820  0.41371  0.79163  Biso   1.000  C
  C1057    1.0000 0.83899  0.26329  0.79554  Biso   1.000  C
  C1058    1.0000 0.70717  0.11737  0.80006  Biso   1.000  C
  C1059    1.0000 0.83075  0.63055  0.73908  Biso   1.000  C
  C1060    1.0000 0.48676  0.94771  0.80308  Biso   1.000  C
  C1061    1.0000 0.40149  0.41747  0.80614  Biso   1.000  C
  H1120    1.0000 0.95255  0.61548  0.72730  Biso   1.000  H
  N144     1.0000 0.97996  0.44520  0.80118  Biso   1.000  N
  H1121    1.0000 0.02421  0.44931  0.78650  Biso   1.000  H
  H1122    1.0000 0.83778  0.28092  0.80290  Biso   1.000  H
  N145     1.0000 0.64210  0.03957  0.79722  Biso   1.000  N
  H1123    1.0000 0.71229  0.13602  0.80750  Biso   1.000  H
  C1062    1.0000 0.89407  0.63049  0.74620  Biso   1.000  C
  C1063    1.0000 0.75320  0.63049  0.74260  Biso   1.000  C
  C1064    1.0000 0.90426  0.68036  0.74580  Biso   1.000  C
  C1065    1.0000 0.74286  0.58149  0.74330  Biso   1.000  C
  C1066    1.0000 0.85595  0.57907  0.74560  Biso   1.000  C
  C1067    1.0000 0.79281  0.67928  0.74300  Biso   1.000  C
  C1068    1.0000 0.58254  0.98398  0.80614  Biso   1.000  C
  C1069    1.0000 0.42336  0.88781  0.81217  Biso   1.000  C
  H1124    1.0000 0.47395  0.91123  0.79620  Biso   1.000  H
  C1070    1.0000 0.46088  0.51318  0.80308  Biso   1.000  C
  H1125    1.0000 0.42610  0.40422  0.81290  Biso   1.000  H
  C1071    1.0000 0.30630  0.39870  0.80851  Biso   1.000  C
  C1072    1.0000 0.05226  0.53909  0.80308  Biso   1.000  C
  C1073    1.0000 0.87729  0.63049  0.75740  Biso   1.000  C
  H1126    1.0000 0.94618  0.63049  0.74360  Biso   1.000  H
  C1074    1.0000 0.88647  0.67928  0.75700  Biso   1.000  C
  C1075    1.0000 0.83857  0.58149  0.75670  Biso   1.000  C
  C1076    1.0000 0.73641  0.63049  0.75380  Biso   1.000  C
  H1127    1.0000 0.71211  0.63049  0.73730  Biso   1.000  H
  C1077    1.0000 0.72306  0.57907  0.75440  Biso   1.000  C
  C1078    1.0000 0.77609  0.68036  0.75420  Biso   1.000  C
  H1128    1.0000 0.96366  0.71347  0.74290  Biso   1.000  H
  H1129    1.0000 0.69478  0.54851  0.73830  Biso   1.000  H
  H1130    1.0000 0.88218  0.54609  0.74270  Biso   1.000  H
  H1131    1.0000 0.77775  0.71246  0.73800  Biso   1.000  H
  H1132    1.0000 0.59577  0.02187  0.81290  Biso   1.000  H
  C1079    1.0000 0.60135  0.90759  0.80851  Biso   1.000  C
  C1080    1.0000 0.44111  0.81001  0.81475  Biso   1.000  C
  H1133    1.0000 0.36002  0.86277  0.80980  Biso   1.000  H
  H1134    1.0000 0.43266  0.92402  0.81890  Biso   1.000  H
  N146     1.0000 0.55480  0.53478  0.80118  Biso   1.000  N
  C1081    1.0000 0.46449  0.57671  0.81217  Biso   1.000  C
  H1135    1.0000 0.43732  0.52610  0.79620  Biso   1.000  H
  H1136    1.0000 0.26764  0.33442  0.81040  Biso   1.000  H
  H1137    1.0000 0.28138  0.41122  0.80180  Biso   1.000  H
  C1082    1.0000 0.30511  0.45752  0.81813  Biso   1.000  C
  C1083    1.0000 0.01599  0.59852  0.80614  Biso   1.000  C
  C1084    1.0000 0.11216  0.53545  0.81217  Biso   1.000  C
  H1138    1.0000 0.08878  0.56271  0.79620  Biso   1.000  H
  C1085    1.0000 0.79974  0.63055  0.76092  Biso   1.000  C
  H1139    1.0000 0.91838  0.63049  0.76270  Biso   1.000  H
  H1140    1.0000 0.93465  0.71246  0.76200  Biso   1.000  H
  H1141    1.0000 0.85367  0.54851  0.76170  Biso   1.000  H
  H1142    1.0000 0.68430  0.63049  0.75640  Biso   1.000  H
  H1143    1.0000 0.66391  0.54609  0.75730  Biso   1.000  H
  H1144    1.0000 0.74975  0.71347  0.75710  Biso   1.000  H
  H1145    1.0000 0.66554  0.93317  0.81040  Biso   1.000  H
  H1146    1.0000 0.58881  0.87017  0.80180  Biso   1.000  H
  C1086    1.0000 0.54257  0.84763  0.81813  Biso   1.000  C
  H1147    1.0000 0.42699  0.77104  0.80820  Biso   1.000  H
  H1148    1.0000 0.40134  0.77312  0.82080  Biso   1.000  H
  C1087    1.0000 0.58625  0.56446  0.79163  Biso   1.000  C
  C1088    1.0000 0.36891  0.55888  0.81475  Biso   1.000  C
  H1149    1.0000 0.50277  0.63997  0.80980  Biso   1.000  H
  H1150    1.0000 0.49135  0.56736  0.81890  Biso   1.000  H
  H1151    1.0000 0.32700  0.44359  0.82500  Biso   1.000  H
  H1152    1.0000 0.24313  0.44581  0.81940  Biso   1.000  H
  N147     1.0000 0.96039  0.60249  0.79722  Biso   1.000  N
  H1153    1.0000 0.97809  0.57388  0.81290  Biso   1.000  H
  C1089    1.0000 0.09237  0.69368  0.80851  Biso   1.000  C
  C1090    1.0000 0.19000  0.63109  0.81475  Biso   1.000  C
  H1154    1.0000 0.13714  0.49716  0.80980  Biso   1.000  H
  H1155    1.0000 0.07601  0.50860  0.81890  Biso   1.000  H
  C1091    1.0000 0.78817  0.63049  0.77398  Biso   1.000  C
  H1156    1.0000 0.55639  0.88343  0.82500  Biso   1.000  H
  H1157    1.0000 0.55424  0.79729  0.81940  Biso   1.000  H
  C1092    1.0000 0.67757  0.58297  0.78838  Biso   1.000  C
  H1158    1.0000 0.55066  0.57489  0.78650  Biso   1.000  H
  H1159    1.0000 0.34403  0.57301  0.80820  Biso   1.000  H
  H1160    1.0000 0.37181  0.59872  0.82080  Biso   1.000  H
  C1093    1.0000 0.88257  0.58977  0.80006  Biso   1.000  C
  H1161    1.0000 0.06678  0.73238  0.81040  Biso   1.000  H
  H1162    1.0000 0.12976  0.71858  0.80180  Biso   1.000  H
  C1094    1.0000 0.15237  0.69489  0.81813  Biso   1.000  C
  H1163    1.0000 0.22897  0.65599  0.80820  Biso   1.000  H
  H1164    1.0000 0.22690  0.62820  0.82080  Biso   1.000  H
  C1095    1.0000 0.70339  0.61050  0.77761  Biso   1.000  C
  C1096    1.0000 0.84731  0.62322  0.78113  Biso   1.000  C
  C1097    1.0000 0.73671  0.57570  0.79554  Biso   1.000  C
  C1098    1.0000 0.82157  0.59576  0.79191  Biso   1.000  C
  H1165    1.0000 0.86401  0.57631  0.80750  Biso   1.000  H
  H1166    1.0000 0.11657  0.67295  0.82500  Biso   1.000  H
  H1167    1.0000 0.20265  0.75688  0.81940  Biso   1.000  H
  H1168    1.0000 0.66287  0.61548  0.77270  Biso   1.000  H
  H1169    1.0000 0.90526  0.63688  0.77870  Biso   1.000  H
  H1170    1.0000 0.71906  0.55686  0.80290  Biso   1.000  H
  C1099    1.0000 0.17880  0.99542  0.81301  Biso   1.000  C
  C1100    1.0000 0.14381  0.05727  0.81758  Biso   1.000  C
  H1171    1.0000 0.21362  0.02100  0.80620  Biso   1.000  H
  H1172    1.0000 0.12776  0.93472  0.81140  Biso   1.000  H
  C1101    1.0000 0.23916  0.98977  0.82194  Biso   1.000  C
  C1102    1.0000 0.21899  0.14551  0.82024  Biso   1.000  C
  H1173    1.0000 0.10508  0.06340  0.81200  Biso   1.000  H
  H1174    1.0000 0.10723  0.02981  0.82420  Biso   1.000  H
  C1103    1.0000 0.31661  0.08359  0.82484  Biso   1.000  C
  H1175    1.0000 0.20280  0.96123  0.82860  Biso   1.000  H
  H1176    1.0000 0.26381  0.95188  0.81930  Biso   1.000  H
  C1104    1.0000 0.27741  0.14308  0.82871  Biso   1.000  C
  H1177    1.0000 0.19539  0.18468  0.82270  Biso   1.000  H
  H1178    1.0000 0.25496  0.17256  0.81350  Biso   1.000  H
  N148     1.0000 0.36886  0.07269  0.83369  Biso   1.000  N
  H1179    1.0000 0.35583  0.11132  0.81830  Biso   1.000  H
  N149     1.0000 0.35569  0.23461  0.83029  Biso   1.000  N
  H1180    1.0000 0.24364  0.11973  0.83580  Biso   1.000  H
  C1105    1.0000 0.44482  0.08332  0.83094  Biso   1.000  C
  C1106    1.0000 0.36162  0.26571  0.84021  Biso   1.000  C
  C1107    1.0000 0.50212  0.07121  0.83913  Biso   1.000  C
  H1181    1.0000 0.46519  0.09900  0.82360  Biso   1.000  H
  C1108    1.0000 0.43279  0.35838  0.84323  Biso   1.000  C
  H1182    1.0000 0.31961  0.22842  0.84560  Biso   1.000  H
  C1109    1.0000 0.47258  0.04361  0.85019  Biso   1.000  C
  C1110    1.0000 0.58420  0.08581  0.83621  Biso   1.000  C
  C1111    1.0000 0.50160  0.41579  0.83621  Biso   1.000  C
  C1112    1.0000 0.43546  0.38739  0.85384  Biso   1.000  C
  C1113    1.0000 0.52630  0.03062  0.85727  Biso   1.000  C
  H1183    1.0000 0.41581  0.03439  0.85260  Biso   1.000  H
  H1184    1.0000 0.60409  0.10519  0.82890  Biso   1.000  H
  C1114    1.0000 0.64154  0.07437  0.84323  Biso   1.000  C
  C1115    1.0000 0.56911  0.49790  0.83913  Biso   1.000  C
  H1185    1.0000 0.50108  0.39587  0.82890  Biso   1.000  H
  C1116    1.0000 0.50431  0.47367  0.85727  Biso   1.000  C
  H1186    1.0000 0.39066  0.34896  0.85890  Biso   1.000  H
  C1117    1.0000 0.61262  0.04812  0.85384  Biso   1.000  C
  C1118    1.0000 0.49182  0.99758  0.86862  Biso   1.000  C
  C1119    1.0000 0.73426  0.09591  0.84021  Biso   1.000  C
  C1120    1.0000 0.57097  0.52738  0.85019  Biso   1.000  C
  C1121    1.0000 0.63849  0.55517  0.83094  Biso   1.000  C
  C1122    1.0000 0.50577  0.50820  0.86862  Biso   1.000  C
  H1187    1.0000 0.65099  0.04173  0.85890  Biso   1.000  H
  N150     1.0000 0.52743  0.97483  0.87589  Biso   1.000  N
  H1188    1.0000 0.43619  0.99367  0.87050  Biso   1.000  H
  N151     1.0000 0.76538  0.12108  0.83029  Biso   1.000  N
  H1189    1.0000 0.77160  0.09119  0.84560  Biso   1.000  H
  H1190    1.0000 0.61860  0.58418  0.85260  Biso   1.000  H
  N152     1.0000 0.70378  0.63109  0.83369  Biso   1.000  N
  H1191    1.0000 0.63377  0.53478  0.82360  Biso   1.000  H
  N153     1.0000 0.44741  0.47259  0.87589  Biso   1.000  N
  H1192    1.0000 0.55747  0.56379  0.87050  Biso   1.000  H
  C1123    1.0000 0.47808  0.93593  0.88607  Biso   1.000  C
  C1124    1.0000 0.85684  0.13427  0.82871  Biso   1.000  C
  C1125    1.0000 0.76700  0.68338  0.82484  Biso   1.000  C
  C1126    1.0000 0.45788  0.52199  0.88607  Biso   1.000  C
  C1127    1.0000 0.53626  0.99482  0.89534  Biso   1.000  C
  C1128    1.0000 0.45856  0.84433  0.88776  Biso   1.000  C
  H1193    1.0000 0.42025  0.93707  0.88590  Biso   1.000  H
  H1194    1.0000 0.88028  0.12390  0.83580  Biso   1.000  H
  C1129    1.0000 0.85449  0.07349  0.82024  Biso   1.000  C
  C1130    1.0000 0.91641  0.23300  0.82484  Biso   1.000  C
  C1131    1.0000 0.86568  0.72255  0.82871  Biso   1.000  C
  C1132    1.0000 0.75065  0.76085  0.82194  Biso   1.000  C
  H1195    1.0000 0.75552  0.64421  0.81830  Biso   1.000  H
  C1133    1.0000 0.45856  0.46378  0.89534  Biso   1.000  C
  C1134    1.0000 0.38581  0.54151  0.88776  Biso   1.000  C
  H1196    1.0000 0.51680  0.57967  0.88590  Biso   1.000  H
  N154     1.0000 0.54520  0.08393  0.89458  Biso   1.000  N
  H1197    1.0000 0.59672  0.99953  0.89520  Biso   1.000  H
  C1135    1.0000 0.48764  0.95518  0.90670  Biso   1.000  C
  C1136    1.0000 0.41300  0.80274  0.89940  Biso   1.000  C
  H1198    1.0000 0.51517  0.84272  0.88710  Biso   1.000  H
  H1199    1.0000 0.41773  0.80590  0.88190  Biso   1.000  H
  H1200    1.0000 0.81528  0.01070  0.82270  Biso   1.000  H
  H1201    1.0000 0.82740  0.08238  0.81350  Biso   1.000  H
  C1137    1.0000 0.94270  0.08648  0.81758  Biso   1.000  C
  N155     1.0000 0.92726  0.29620  0.83369  Biso   1.000  N
  H1202    1.0000 0.88871  0.24451  0.81830  Biso   1.000  H
  C1138    1.0000 0.01017  0.24929  0.82194  Biso   1.000  C
  N156     1.0000 0.87888  0.64428  0.83029  Biso   1.000  N
  H1203    1.0000 0.87608  0.75641  0.83580  Biso   1.000  H
  C1139    1.0000 0.92648  0.78097  0.82024  Biso   1.000  C
  C1140    1.0000 0.81659  0.82115  0.81301  Biso   1.000  C
  H1204    1.0000 0.75839  0.79719  0.82860  Biso   1.000  H
  H1205    1.0000 0.68806  0.73615  0.81930  Biso   1.000  H
  N157     1.0000 0.53868  0.45476  0.89458  Biso   1.000  N
  H1206    1.0000 0.40278  0.40327  0.89520  Biso   1.000  H
  C1141    1.0000 0.46759  0.51237  0.90670  Biso   1.000  C
  C1142    1.0000 0.38967  0.58701  0.89940  Biso   1.000  C
  H1207    1.0000 0.32748  0.48478  0.88710  Biso   1.000  H
  H1208    1.0000 0.38819  0.58230  0.88190  Biso   1.000  H
  C1143    1.0000 0.62407  0.14901  0.89552  Biso   1.000  C
  H1209    1.0000 0.52507  0.99482  0.91280  Biso   1.000  H
  H1210    1.0000 0.42907  0.95343  0.90680  Biso   1.000  H
  C1144    1.0000 0.47286  0.86291  0.90835  Biso   1.000  C
  H1211    1.0000 0.35313  0.79782  0.89990  Biso   1.000  H
  H1212    1.0000 0.40486  0.74169  0.90020  Biso   1.000  H
  H1213    1.0000 0.93658  0.04173  0.81200  Biso   1.000  H
  H1214    1.0000 0.97016  0.07740  0.82420  Biso   1.000  H
  C1145    1.0000 0.00456  0.18340  0.81301  Biso   1.000  C
  C1146    1.0000 0.91665  0.36148  0.83094  Biso   1.000  C
  H1215    1.0000 0.03880  0.24161  0.82860  Biso   1.000  H
  H1216    1.0000 0.04805  0.31188  0.81930  Biso   1.000  H
  C1147    1.0000 0.90407  0.63836  0.84021  Biso   1.000  C
  H1217    1.0000 0.98929  0.80460  0.82270  Biso   1.000  H
  H1218    1.0000 0.91757  0.74497  0.81350  Biso   1.000  H
  C1148    1.0000 0.91347  0.85615  0.81758  Biso   1.000  C
  H1219    1.0000 0.80702  0.87230  0.81140  Biso   1.000  H
  H1220    1.0000 0.80735  0.78636  0.80620  Biso   1.000  H
  C1149    1.0000 0.52489  0.37588  0.89552  Biso   1.000  C
  H1221    1.0000 0.46978  0.47502  0.91280  Biso   1.000  H
  H1222    1.0000 0.52441  0.57099  0.90680  Biso   1.000  H
  C1150    1.0000 0.39007  0.52718  0.90835  Biso   1.000  C
  H1223    1.0000 0.44469  0.64691  0.89990  Biso   1.000  H
  H1224    1.0000 0.33677  0.59508  0.90020  Biso   1.000  H
  C1151    1.0000 0.64769  0.24437  0.89564  Biso   1.000  C
  H1225    1.0000 0.67161  0.13602  0.89620  Biso   1.000  H
  H1226    1.0000 0.44444  0.83962  0.91560  Biso   1.000  H
  H1227    1.0000 0.53119  0.86439  0.90820  Biso   1.000  H
  H1228    1.0000 0.97898  0.19262  0.80620  Biso   1.000  H
  H1229    1.0000 0.06527  0.19302  0.81140  Biso   1.000  H
  C1152    1.0000 0.92879  0.43087  0.83913  Biso   1.000  C
  H1230    1.0000 0.90099  0.36619  0.82360  Biso   1.000  H
  C1153    1.0000 0.92559  0.56715  0.84323  Biso   1.000  C
  H1231    1.0000 0.90875  0.68036  0.84560  Biso   1.000  H
  H1232    1.0000 0.95824  0.89485  0.81200  Biso   1.000  H
  H1233    1.0000 0.92257  0.89276  0.82420  Biso   1.000  H
  C1154    1.0000 0.59666  0.35226  0.89564  Biso   1.000  C
  H1234    1.0000 0.46435  0.32837  0.89620  Biso   1.000  H
  H1235    1.0000 0.39518  0.55558  0.91560  Biso   1.000  H
  H1236    1.0000 0.33317  0.46876  0.90820  Biso   1.000  H
  C1155    1.0000 0.57931  0.26302  0.89574  Biso   1.000  C
  C1156    1.0000 0.73699  0.31632  0.89574  Biso   1.000  C
  C1157    1.0000 0.91416  0.49837  0.83621  Biso   1.000  C
  C1158    1.0000 0.95635  0.42898  0.85019  Biso   1.000  C
  C1159    1.0000 0.95187  0.56446  0.85384  Biso   1.000  C
  C1160    1.0000 0.68369  0.42070  0.89574  Biso   1.000  C
  H1237    1.0000 0.51877  0.21490  0.89590  Biso   1.000  H
  C1161    1.0000 0.75558  0.40327  0.89564  Biso   1.000  C
  H1238    1.0000 0.78509  0.30387  0.89590  Biso   1.000  H
  H1239    1.0000 0.89479  0.49891  0.82890  Biso   1.000  H
  C1162    1.0000 0.96935  0.49568  0.85727  Biso   1.000  C
  H1240    1.0000 0.96560  0.38140  0.85260  Biso   1.000  H
  H1241    1.0000 0.95825  0.60929  0.85890  Biso   1.000  H
  H1242    1.0000 0.69610  0.48121  0.89590  Biso   1.000  H
  C1163    1.0000 0.85099  0.47508  0.89552  Biso   1.000  C
  C1164    1.0000 0.00236  0.49420  0.86862  Biso   1.000  C
  N158     1.0000 0.91608  0.46129  0.89458  Biso   1.000  N
  H1243    1.0000 0.86399  0.53559  0.89620  Biso   1.000  H
  N159     1.0000 0.02522  0.55262  0.87589  Biso   1.000  N
  H1244    1.0000 0.00630  0.44251  0.87050  Biso   1.000  H
  C1165    1.0000 0.00520  0.54138  0.89534  Biso   1.000  C
  C1166    1.0000 0.06409  0.54212  0.88607  Biso   1.000  C
  H1245    1.0000 0.00046  0.59717  0.89520  Biso   1.000  H
  C1167    1.0000 0.04475  0.53236  0.90670  Biso   1.000  C
  C1168    1.0000 0.15567  0.61420  0.88776  Biso   1.000  C
  H1246    1.0000 0.06288  0.48316  0.88590  Biso   1.000  H
  H1247    1.0000 0.00521  0.53021  0.91280  Biso   1.000  H
  H1248    1.0000 0.04654  0.47556  0.90680  Biso   1.000  H
  C1169    1.0000 0.13708  0.60989  0.90835  Biso   1.000  C
  C1170    1.0000 0.19726  0.61029  0.89940  Biso   1.000  C
  H1249    1.0000 0.15725  0.67248  0.88710  Biso   1.000  H
  H1250    1.0000 0.19404  0.61178  0.88190  Biso   1.000  H
  H1251    1.0000 0.16035  0.60478  0.91560  Biso   1.000  H
  H1252    1.0000 0.13556  0.66676  0.90820  Biso   1.000  H
  H1253    1.0000 0.20218  0.55531  0.89990  Biso   1.000  H
  H1254    1.0000 0.25827  0.66319  0.90020  Biso   1.000  H
  C1171    1.0000 0.21602  0.83053  0.84422  Biso   1.000  C
  C1172    1.0000 0.25413  0.76734  0.84442  Biso   1.000  C
  C1173    1.0000 0.17298  0.83013  0.85508  Biso   1.000  C
  C1174    1.0000 0.17286  0.83013  0.85508  Biso   1.000  C
  H1255    1.0000 0.26507  0.89238  0.84260  Biso   1.000  H
  H1256    1.0000 0.17056  0.81189  0.83830  Biso   1.000  H
  H1257    1.0000 0.26501  0.89238  0.84260  Biso   1.000  H
  H1258    1.0000 0.28732  0.77380  0.83750  Biso   1.000  H
  H1259    1.0000 0.20421  0.70434  0.84490  Biso   1.000  H
  C1175    1.0000 0.31662  0.78834  0.85408  Biso   1.000  C
  C1176    1.0000 0.31656  0.78834  0.85408  Biso   1.000  C
  H1260    1.0000 0.20418  0.70427  0.84490  Biso   1.000  H
  N160     1.0000 0.14921  0.90302  0.85468  Biso   1.000  N
  C1177    1.0000 0.23905  0.85247  0.86467  Biso   1.000  C
  H1261    1.0000 0.11777  0.77043  0.85630  Biso   1.000  H
  C1178    1.0000 0.23894  0.85247  0.86467  Biso   1.000  C
  H1262    1.0000 0.11772  0.77043  0.85630  Biso   1.000  H
  C1179    1.0000 0.27070  0.78463  0.86467  Biso   1.000  C
  H1263    1.0000 0.33808  0.74452  0.85430  Biso   1.000  H
  H1264    1.0000 0.36974  0.84911  0.85310  Biso   1.000  H
  C1180    1.0000 0.06517  0.87529  0.85361  Biso   1.000  C
  N161     1.0000 0.19110  0.84272  0.87513  Biso   1.000  N
  H1265    1.0000 0.29124  0.91500  0.86390  Biso   1.000  H
  H1266    1.0000 0.29112  0.91500  0.86390  Biso   1.000  H
  H1267    1.0000 0.31289  0.79742  0.87080  Biso   1.000  H
  H1268    1.0000 0.21852  0.72339  0.86570  Biso   1.000  H
  C1181    1.0000 0.03224  0.94138  0.85314  Biso   1.000  C
  C1182    1.0000 0.03212  0.94138  0.85314  Biso   1.000  C
  H1269    1.0000 0.02364  0.81263  0.85310  Biso   1.000  H
  C1183    1.0000 0.23123  0.90840  0.88206  Biso   1.000  C
  C1184    1.0000 0.09384  0.03567  0.85324  Biso   1.000  C
  C1185    1.0000 0.94175  0.90611  0.85324  Biso   1.000  C
  C1186    1.0000 0.94181  0.90611  0.85324  Biso   1.000  C
  C1187    1.0000 0.19606  0.90288  0.89308  Biso   1.000  C
  H1270    1.0000 0.28475  0.96123  0.87990  Biso   1.000  H
  C1188    1.0000 0.19601  0.90288  0.89308  Biso   1.000  C
  C1189    1.0000 0.05857  0.09079  0.85314  Biso   1.000  C
  C1190    1.0000 0.05863  0.09079  0.85314  Biso   1.000  C
  H1271    1.0000 0.15710  0.05902  0.85340  Biso   1.000  H
  C1191    1.0000 0.90919  0.96783  0.85314  Biso   1.000  C
  H1272    1.0000 0.90187  0.84292  0.85340  Biso   1.000  H
  C1192    1.0000 0.11904  0.82670  0.89707  Biso   1.000  C
  C1193    1.0000 0.24402  0.97618  0.90055  Biso   1.000  C
  C1194    1.0000 0.12469  0.18993  0.85361  Biso   1.000  C
  C1195    1.0000 0.12475  0.18993  0.85361  Biso   1.000  C
  C1196    1.0000 0.96429  0.05822  0.85324  Biso   1.000  C
  C1197    1.0000 0.81002  0.93478  0.85361  Biso   1.000  C
  C1198    1.0000 0.81008  0.93478  0.85361  Biso   1.000  C
  C1199    1.0000 0.09089  0.82192  0.90765  Biso   1.000  C
  H1273    1.0000 0.08555  0.77710  0.89230  Biso   1.000  H
  H1274    1.0000 0.08544  0.77710  0.89230  Biso   1.000  H
  C1200    1.0000 0.20981  0.97140  0.91135  Biso   1.000  C
  H1275    1.0000 0.29839  0.02780  0.89830  Biso   1.000  H
  N162     1.0000 0.09698  0.24619  0.85468  Biso   1.000  N
  N163     1.0000 0.09704  0.24619  0.85468  Biso   1.000  N
  H1276    1.0000 0.18739  0.21099  0.85310  Biso   1.000  H
  H1277    1.0000 0.94100  0.09813  0.85340  Biso   1.000  H
  N164     1.0000 0.75375  0.85079  0.85468  Biso   1.000  N
  H1278    1.0000 0.78897  0.97638  0.85310  Biso   1.000  H
  N165     1.0000 0.75386  0.85079  0.85468  Biso   1.000  N
  H1279    1.0000 0.78903  0.97638  0.85310  Biso   1.000  H
  C1201    1.0000 0.13514  0.89400  0.91453  Biso   1.000  C
  C1202    1.0000 0.00904  0.73692  0.91144  Biso   1.000  C
  C1203    1.0000 0.25923  0.04671  0.91900  Biso   1.000  C
  C1204    1.0000 0.16993  0.34277  0.85508  Biso   1.000  C
  C1205    1.0000 0.65715  0.82710  0.85508  Biso   1.000  C
  C1206    1.0000 0.65727  0.82710  0.85508  Biso   1.000  C
  H1280    1.0000 0.11334  0.89003  0.92180  Biso   1.000  H
  N166     1.0000 0.97911  0.72171  0.92112  Biso   1.000  N
  H1281    1.0000 0.97757  0.69122  0.90610  Biso   1.000  H
  N167     1.0000 0.32643  0.12188  0.91653  Biso   1.000  N
  H1282    1.0000 0.23913  0.03809  0.92640  Biso   1.000  H
  C1207    1.0000 0.16950  0.38551  0.84422  Biso   1.000  C
  C1208    1.0000 0.14750  0.38652  0.86467  Biso   1.000  C
  H1283    1.0000 0.22959  0.34728  0.85630  Biso   1.000  H
  C1209    1.0000 0.61452  0.78403  0.84422  Biso   1.000  C
  H1284    1.0000 0.65269  0.88229  0.85630  Biso   1.000  H
  C1210    1.0000 0.61344  0.76101  0.86467  Biso   1.000  C
  C1211    1.0000 0.61356  0.76101  0.86467  Biso   1.000  C
  C1212    1.0000 0.90340  0.63078  0.92291  Biso   1.000  C
  C1213    1.0000 0.36649  0.18522  0.92550  Biso   1.000  C
  H1285    1.0000 0.18810  0.35872  0.83830  Biso   1.000  H
  C1214    1.0000 0.23267  0.48680  0.84442  Biso   1.000  C
  H1286    1.0000 0.10755  0.37258  0.84260  Biso   1.000  H
  C1215    1.0000 0.23273  0.48680  0.84442  Biso   1.000  C
  C1216    1.0000 0.21534  0.48606  0.86467  Biso   1.000  C
  C1217    1.0000 0.21543  0.48612  0.86467  Biso   1.000  C
  N168     1.0000 0.15731  0.34842  0.87513  Biso   1.000  N
  H1287    1.0000 0.08500  0.37622  0.86390  Biso   1.000  H
  H1288    1.0000 0.64128  0.82939  0.83830  Biso   1.000  H
  C1218    1.0000 0.51317  0.74593  0.84442  Biso   1.000  C
  H1289    1.0000 0.62738  0.73503  0.84260  Biso   1.000  H
  C1219    1.0000 0.51329  0.74593  0.84442  Biso   1.000  C
  N169     1.0000 0.65162  0.80893  0.87513  Biso   1.000  N
  H1290    1.0000 0.62376  0.70878  0.86390  Biso   1.000  H
  C1220    1.0000 0.51384  0.72931  0.86467  Biso   1.000  C
  C1221    1.0000 0.51390  0.72931  0.86467  Biso   1.000  C
  H1291    1.0000 0.89332  0.59464  0.91610  Biso   1.000  H
  C1222    1.0000 0.81869  0.63354  0.92550  Biso   1.000  C
  C1223    1.0000 0.81875  0.63354  0.92550  Biso   1.000  C
  C1224    1.0000 0.92634  0.58643  0.93231  Biso   1.000  C
  C1225    1.0000 0.36914  0.27257  0.92291  Biso   1.000  C
  C1226    1.0000 0.46048  0.20009  0.92773  Biso   1.000  C
  H1292    1.0000 0.32886  0.15856  0.93220  Biso   1.000  H
  H1293    1.0000 0.32889  0.15863  0.93220  Biso   1.000  H
  H1294    1.0000 0.32895  0.15863  0.93220  Biso   1.000  H
  C1227    1.0000 0.21170  0.52832  0.85408  Biso   1.000  C
  H1295    1.0000 0.29571  0.49992  0.84490  Biso   1.000  H
  H1296    1.0000 0.22622  0.51351  0.83750  Biso   1.000  H
  H1297    1.0000 0.22616  0.51351  0.83750  Biso   1.000  H
  H1298    1.0000 0.20260  0.51547  0.87080  Biso   1.000  H
  H1299    1.0000 0.27656  0.49507  0.86570  Biso   1.000  H
  H1300    1.0000 0.20254  0.51547  0.87080  Biso   1.000  H
  H1301    1.0000 0.27662  0.49507  0.86570  Biso   1.000  H
  C1228    1.0000 0.09162  0.32278  0.88206  Biso   1.000  C
  C1229    1.0000 0.47171  0.68341  0.85408  Biso   1.000  C
  H1302    1.0000 0.50011  0.79581  0.84490  Biso   1.000  H
  H1303    1.0000 0.48647  0.71269  0.83750  Biso   1.000  H
  H1304    1.0000 0.50016  0.79581  0.84490  Biso   1.000  H
  C1230    1.0000 0.67720  0.76882  0.88206  Biso   1.000  C
  C1231    1.0000 0.67726  0.76882  0.88206  Biso   1.000  C
  H1305    1.0000 0.48452  0.68711  0.87080  Biso   1.000  H
  H1306    1.0000 0.50492  0.78154  0.86570  Biso   1.000  H
  N170     1.0000 0.79541  0.67359  0.91653  Biso   1.000  N
  N171     1.0000 0.79547  0.67359  0.91653  Biso   1.000  N
  C1232    1.0000 0.73963  0.53952  0.92773  Biso   1.000  C
  H1307    1.0000 0.82966  0.67110  0.93220  Biso   1.000  H
  H1308    1.0000 0.93996  0.62358  0.93900  Biso   1.000  H
  H1309    1.0000 0.98032  0.58259  0.93040  Biso   1.000  H
  C1233    1.0000 0.84715  0.49194  0.93453  Biso   1.000  C
  H1310    1.0000 0.94002  0.62358  0.93900  Biso   1.000  H
  C1234    1.0000 0.84727  0.49194  0.93453  Biso   1.000  C
  N172     1.0000 0.27830  0.25736  0.92112  Biso   1.000  N
  N173     1.0000 0.27828  0.25743  0.92112  Biso   1.000  N
  N174     1.0000 0.27824  0.25736  0.92112  Biso   1.000  N
  N175     1.0000 0.27833  0.25743  0.92112  Biso   1.000  N
  H1311    1.0000 0.40539  0.29869  0.91610  Biso   1.000  H
  C1235    1.0000 0.41357  0.33988  0.93231  Biso   1.000  C
  C1236    1.0000 0.41363  0.33988  0.93231  Biso   1.000  C
  C1237    1.0000 0.50630  0.26887  0.93681  Biso   1.000  C
  H1312    1.0000 0.45600  0.14241  0.92990  Biso   1.000  H
  H1313    1.0000 0.49703  0.22142  0.92100  Biso   1.000  H
  C1238    1.0000 0.50624  0.26887  0.93681  Biso   1.000  C
  H1314    1.0000 0.49697  0.22142  0.92100  Biso   1.000  H
  H1315    1.0000 0.45595  0.14241  0.92990  Biso   1.000  H
  H1316    1.0000 0.15089  0.52058  0.85310  Biso   1.000  H
  H1317    1.0000 0.25548  0.59360  0.85430  Biso   1.000  H
  H1318    1.0000 0.25554  0.59360  0.85430  Biso   1.000  H
  C1239    1.0000 0.09712  0.29310  0.89308  Biso   1.000  C
  C1240    1.0000 0.09707  0.29310  0.89308  Biso   1.000  C
  H1319    1.0000 0.03878  0.32352  0.87990  Biso   1.000  H
  H1320    1.0000 0.40633  0.66187  0.85430  Biso   1.000  H
  H1321    1.0000 0.47937  0.63031  0.85310  Biso   1.000  H
  H1322    1.0000 0.40642  0.66194  0.85430  Biso   1.000  H
  H1323    1.0000 0.40639  0.66187  0.85430  Biso   1.000  H
  H1324    1.0000 0.40636  0.66194  0.85430  Biso   1.000  H
  C1241    1.0000 0.70687  0.80402  0.89308  Biso   1.000  C
  H1325    1.0000 0.67656  0.71531  0.87990  Biso   1.000  H
  C1242    1.0000 0.78747  0.74082  0.91900  Biso   1.000  C
  C1243    1.0000 0.76258  0.49369  0.93681  Biso   1.000  C
  H1326    1.0000 0.68634  0.54403  0.92990  Biso   1.000  H
  H1327    1.0000 0.72436  0.50304  0.92100  Biso   1.000  H
  C1244    1.0000 0.76264  0.49369  0.93681  Biso   1.000  C
  H1328    1.0000 0.68645  0.54403  0.92990  Biso   1.000  H
  H1329    1.0000 0.72442  0.50304  0.92100  Biso   1.000  H
  H1330    1.0000 0.83800  0.45324  0.92810  Biso   1.000  H
  H1331    1.0000 0.86161  0.46549  0.94090  Biso   1.000  H
  C1245    1.0000 0.26311  0.27210  0.91144  Biso   1.000  C
  C1246    1.0000 0.26305  0.27210  0.91144  Biso   1.000  C
  H1332    1.0000 0.37641  0.31639  0.93900  Biso   1.000  H
  C1247    1.0000 0.50806  0.35529  0.93453  Biso   1.000  C
  H1333    1.0000 0.37636  0.31639  0.93900  Biso   1.000  H
  H1334    1.0000 0.41736  0.39769  0.93040  Biso   1.000  H
  C1248    1.0000 0.50812  0.35529  0.93453  Biso   1.000  C
  H1335    1.0000 0.47418  0.24357  0.94380  Biso   1.000  H
  H1336    1.0000 0.56884  0.28112  0.93770  Biso   1.000  H
  C1249    1.0000 0.02380  0.26779  0.90055  Biso   1.000  C
  C1250    1.0000 0.17331  0.29229  0.89707  Biso   1.000  C
  C1251    1.0000 0.17325  0.29229  0.89707  Biso   1.000  C
  C1252    1.0000 0.70771  0.88101  0.89707  Biso   1.000  C
  C1253    1.0000 0.73219  0.75603  0.90055  Biso   1.000  C
  C1254    1.0000 0.76158  0.79022  0.91135  Biso   1.000  C
  H1337    1.0000 0.79901  0.76088  0.92640  Biso   1.000  H
  H1338    1.0000 0.76942  0.52579  0.94380  Biso   1.000  H
  H1339    1.0000 0.71223  0.43123  0.93770  Biso   1.000  H
  H1340    1.0000 0.71229  0.43123  0.93770  Biso   1.000  H
  C1255    1.0000 0.17810  0.26901  0.90765  Biso   1.000  C
  H1341    1.0000 0.30880  0.28630  0.90610  Biso   1.000  H
  H1342    1.0000 0.54676  0.38477  0.92810  Biso   1.000  H
  H1343    1.0000 0.54682  0.38477  0.92810  Biso   1.000  H
  H1344    1.0000 0.53452  0.39607  0.94090  Biso   1.000  H
  H1345    1.0000 0.97217  0.27062  0.89830  Biso   1.000  H
  C1256    1.0000 0.02856  0.23838  0.91135  Biso   1.000  C
  H1346    1.0000 0.22291  0.30838  0.89230  Biso   1.000  H
  H1347    1.0000 0.22285  0.30838  0.89230  Biso   1.000  H
  C1257    1.0000 0.73096  0.90907  0.90765  Biso   1.000  C
  H1348    1.0000 0.69154  0.91453  0.89230  Biso   1.000  H
  H1349    1.0000 0.69160  0.91453  0.89230  Biso   1.000  H
  H1350    1.0000 0.72938  0.70158  0.89830  Biso   1.000  H
  C1258    1.0000 0.75882  0.86479  0.91453  Biso   1.000  C
  C1259    1.0000 0.10603  0.24121  0.91453  Biso   1.000  C
  C1260    1.0000 0.10598  0.24121  0.91453  Biso   1.000  C
  C1261    1.0000 0.95324  0.21247  0.91900  Biso   1.000  C
  C1262    1.0000 0.72790  0.99098  0.91144  Biso   1.000  C
  C1263    1.0000 0.72796  0.99098  0.91144  Biso   1.000  C
  H1351    1.0000 0.77667  0.88673  0.92180  Biso   1.000  H
  H1352    1.0000 0.77679  0.88673  0.92180  Biso   1.000  H
  H1353    1.0000 0.11002  0.22331  0.92180  Biso   1.000  H
  H1354    1.0000 0.10996  0.22331  0.92180  Biso   1.000  H
  N176     1.0000 0.87807  0.20446  0.91653  Biso   1.000  N
  N177     1.0000 0.87810  0.20453  0.91653  Biso   1.000  N
  H1355    1.0000 0.96185  0.20103  0.92640  Biso   1.000  H
  N178     1.0000 0.74264  0.02093  0.92112  Biso   1.000  N
  N179     1.0000 0.74259  0.02093  0.92112  Biso   1.000  N
  H1356    1.0000 0.71363  0.02248  0.90610  Biso   1.000  H
  C1264    1.0000 0.81479  0.18131  0.92550  Biso   1.000  C
  C1265    1.0000 0.72737  0.09658  0.92291  Biso   1.000  C
  C1266    1.0000 0.79989  0.26039  0.92773  Biso   1.000  C
  C1267    1.0000 0.79983  0.26039  0.92773  Biso   1.000  C
  H1357    1.0000 0.84133  0.17027  0.93220  Biso   1.000  H
  H1358    1.0000 0.70129  0.10667  0.91610  Biso   1.000  H
  C1268    1.0000 0.66009  0.07370  0.93231  Biso   1.000  C
  H1359    1.0000 0.70124  0.10667  0.91610  Biso   1.000  H
  H1360    1.0000 0.85760  0.31356  0.92990  Biso   1.000  H
  H1361    1.0000 0.77859  0.27560  0.92100  Biso   1.000  H
  H1362    1.0000 0.85758  0.31363  0.92990  Biso   1.000  H
  H1363    1.0000 0.85754  0.31356  0.92990  Biso   1.000  H
  C1269    1.0000 0.73103  0.23737  0.93681  Biso   1.000  C
  H1364    1.0000 0.68359  0.05997  0.93900  Biso   1.000  H
  H1365    1.0000 0.60233  0.01972  0.93040  Biso   1.000  H
  C1270    1.0000 0.64467  0.15278  0.93453  Biso   1.000  C
  H1366    1.0000 0.68363  0.06003  0.93900  Biso   1.000  H
  H1367    1.0000 0.60227  0.01972  0.93040  Biso   1.000  H
  H1368    1.0000 0.68357  0.06003  0.93900  Biso   1.000  H
  H1369    1.0000 0.75637  0.23058  0.94380  Biso   1.000  H
  H1370    1.0000 0.71890  0.28772  0.93770  Biso   1.000  H
  H1371    1.0000 0.61518  0.16200  0.92810  Biso   1.000  H
  H1372    1.0000 0.60390  0.13837  0.94090  Biso   1.000  H
  H1373    1.0000 0.60384  0.13837  0.94090  Biso   1.000  H
