data_image0
_cell_length_a       19.55
_cell_length_b       19.55
_cell_length_c       26.329
_cell_angle_alpha    90
_cell_angle_beta     90
_cell_angle_gamma    120

_symmetry_space_group_name_H-M    "P 1"
_symmetry_int_tables_number       1

loop_
  _symmetry_equiv_pos_as_xyz
  'x, y, z'

loop_
  _atom_site_label
  _atom_site_occupancy
  _atom_site_fract_x
  _atom_site_fract_y
  _atom_site_fract_z
  _atom_site_thermal_displace_type
  _atom_site_B_iso_or_equiv
  _atom_site_type_symbol
  C1       1.0000 0.72487  0.27961  0.40727  Biso   1.000  C
  C2       1.0000 0.66407  0.25929  0.36595  Biso   1.000  C
  N1       1.0000 0.78040  0.36561  0.40628  Biso   1.000  N
  C3       1.0000 0.77110  0.23602  0.39918  Biso   1.000  C
  H1       1.0000 0.69777  0.26449  0.44100  Biso   1.000  H
  N2       1.0000 0.62168  0.30188  0.37544  Biso   1.000  N
  H2       1.0000 0.69171  0.27630  0.33241  Biso   1.000  H
  C4       1.0000 0.60742  0.16951  0.36511  Biso   1.000  C
  C5       1.0000 0.77992  0.40382  0.44434  Biso   1.000  C
  C6       1.0000 0.71580  0.14772  0.39694  Biso   1.000  C
  H3       1.0000 0.80137  0.25409  0.36709  Biso   1.000  H
  H4       1.0000 0.80901  0.24860  0.42740  Biso   1.000  H
  C7       1.0000 0.62201  0.34541  0.34073  Biso   1.000  C
  H5       1.0000 0.57841  0.15262  0.39770  Biso   1.000  H
  H6       1.0000 0.56818  0.15611  0.33750  Biso   1.000  H
  C8       1.0000 0.65180  0.12581  0.35687  Biso   1.000  C
  C9       1.0000 0.83210  0.49141  0.44874  Biso   1.000  C
  H7       1.0000 0.74489  0.37612  0.47150  Biso   1.000  H
  H8       1.0000 0.69069  0.12870  0.43059  Biso   1.000  H
  H9       1.0000 0.74628  0.12120  0.38889  Biso   1.000  H
  C10      1.0000 0.58841  0.39892  0.34669  Biso   1.000  C
  H10      1.0000 0.64477  0.34458  0.30901  Biso   1.000  H
  H11      1.0000 0.67632  0.13862  0.32269  Biso   1.000  H
  H12      1.0000 0.61431  0.06822  0.35820  Biso   1.000  H
  C11      1.0000 0.82891  0.52780  0.49387  Biso   1.000  C
  C12      1.0000 0.88425  0.53606  0.41107  Biso   1.000  C
  C13      1.0000 0.58109  0.43707  0.30438  Biso   1.000  C
  C14      1.0000 0.56598  0.41268  0.39451  Biso   1.000  C
  C15      1.0000 0.87749  0.60889  0.49991  Biso   1.000  C
  H13      1.0000 0.79366  0.49720  0.52019  Biso   1.000  H
  H14      1.0000 0.88700  0.51108  0.38080  Biso   1.000  H
  C16      1.0000 0.93260  0.61610  0.41642  Biso   1.000  C
  C17      1.0000 0.55152  0.48810  0.30894  Biso   1.000  C
  H15      1.0000 0.59661  0.42821  0.27198  Biso   1.000  H
  C18      1.0000 0.53809  0.46442  0.40032  Biso   1.000  C
  H16      1.0000 0.57007  0.38586  0.42341  Biso   1.000  H
  C19      1.0000 0.86858  0.64917  0.54658  Biso   1.000  C
  C20      1.0000 0.92977  0.65402  0.46162  Biso   1.000  C
  C21      1.0000 0.98622  0.66051  0.37445  Biso   1.000  C
  C22      1.0000 0.53027  0.50228  0.35706  Biso   1.000  C
  C23      1.0000 0.54199  0.52910  0.26511  Biso   1.000  C
  C24      1.0000 0.51548  0.48232  0.45080  Biso   1.000  C
  C25      1.0000 0.79691  0.61521  0.57249  Biso   1.000  C
  C26      1.0000 0.93008  0.71969  0.56447  Biso   1.000  C
  H17      1.0000 0.96307  0.70936  0.46568  Biso   1.000  H
  H18      1.0000 0.98207  0.63228  0.34418  Biso   1.000  H
  N3       1.0000 0.03790  0.73381  0.37537  Biso   1.000  N
  H19      1.0000 0.51060  0.53772  0.36048  Biso   1.000  H
  N4       1.0000 0.55441  0.51669  0.22006  Biso   1.000  N
  H20      1.0000 0.52568  0.56666  0.27111  Biso   1.000  H
  C27      1.0000 0.45786  0.49147  0.45938  Biso   1.000  C
  C28      1.0000 0.51131  0.44062  0.49360  Biso   1.000  C
  C29      1.0000 0.56097  0.47877  0.49550  Biso   1.000  C
  C30      1.0000 0.49838  0.54398  0.45771  Biso   1.000  C
  C31      1.0000 0.78489  0.65366  0.61244  Biso   1.000  C
  H21      1.0000 0.75549  0.56459  0.56250  Biso   1.000  H
  H22      1.0000 0.98046  0.74137  0.54879  Biso   1.000  H
  C32      1.0000 0.92040  0.75956  0.60462  Biso   1.000  C
  C33      1.0000 0.08666  0.76606  0.33104  Biso   1.000  C
  C34      1.0000 0.54102  0.56081  0.18033  Biso   1.000  C
  H23      1.0000 0.42348  0.48450  0.43200  Biso   1.000  H
  C35      1.0000 0.44062  0.51132  0.50640  Biso   1.000  C
  C36      1.0000 0.47881  0.56099  0.50450  Biso   1.000  C
  C37      1.0000 0.49149  0.45786  0.54058  Biso   1.000  C
  H24      1.0000 0.52220  0.39856  0.49109  Biso   1.000  H
  C38      1.0000 0.54397  0.49838  0.54229  Biso   1.000  C
  H25      1.0000 0.59988  0.46359  0.49178  Biso   1.000  H
  H26      1.0000 0.50050  0.57481  0.42918  Biso   1.000  H
  C39      1.0000 0.84630  0.72708  0.62904  Biso   1.000  C
  H27      1.0000 0.73479  0.63051  0.62877  Biso   1.000  H
  H28      1.0000 0.96327  0.80859  0.61571  Biso   1.000  H
  C40      1.0000 0.08538  0.83930  0.31236  Biso   1.000  C
  H29      1.0000 0.06575  0.72536  0.30351  Biso   1.000  H
  C41      1.0000 0.17159  0.78738  0.34308  Biso   1.000  C
  C42      1.0000 0.61869  0.62838  0.16112  Biso   1.000  C
  C43      1.0000 0.49472  0.50382  0.13688  Biso   1.000  C
  H30      1.0000 0.50859  0.58290  0.19469  Biso   1.000  H
  C44      1.0000 0.48231  0.51551  0.54917  Biso   1.000  C
  H31      1.0000 0.39859  0.52218  0.50891  Biso   1.000  H
  H32      1.0000 0.46359  0.59991  0.50818  Biso   1.000  H
  H33      1.0000 0.48448  0.42349  0.56800  Biso   1.000  H
  H34      1.0000 0.57481  0.50051  0.57078  Biso   1.000  H
  C45      1.0000 0.82900  0.76960  0.66911  Biso   1.000  C
  N5       1.0000 0.00457  0.81579  0.29659  Biso   1.000  N
  C46      1.0000 0.13948  0.87610  0.26731  Biso   1.000  C
  H35      1.0000 0.10199  0.87875  0.34050  Biso   1.000  H
  H36      1.0000 0.17267  0.73930  0.35349  Biso   1.000  H
  H37      1.0000 0.19176  0.82536  0.37168  Biso   1.000  H
  C47      1.0000 0.22476  0.82436  0.29591  Biso   1.000  C
  N6       1.0000 0.65678  0.68378  0.20236  Biso   1.000  N
  H38      1.0000 0.65337  0.60741  0.14961  Biso   1.000  H
  C48      1.0000 0.60380  0.67020  0.11660  Biso   1.000  C
  C49      1.0000 0.47939  0.54557  0.09332  Biso   1.000  C
  H39      1.0000 0.52485  0.47907  0.12401  Biso   1.000  H
  H40      1.0000 0.44358  0.46117  0.15010  Biso   1.000  H
  C50      1.0000 0.46438  0.53807  0.59964  Biso   1.000  C
  C51      1.0000 0.78277  0.73239  0.70994  Biso   1.000  C
  C52      1.0000 0.85449  0.85046  0.66224  Biso   1.000  C
  C53      1.0000 0.97089  0.84940  0.31714  Biso   1.000  C
  C54      1.0000 0.22288  0.89547  0.27859  Biso   1.000  C
  H41      1.0000 0.11898  0.83918  0.23818  Biso   1.000  H
  H42      1.0000 0.13967  0.92506  0.25751  Biso   1.000  H
  H43      1.0000 0.27981  0.83900  0.30438  Biso   1.000  H
  H44      1.0000 0.20645  0.78508  0.26811  Biso   1.000  H
  C55      1.0000 0.72839  0.70641  0.21300  Biso   1.000  C
  H45      1.0000 0.57327  0.69489  0.12898  Biso   1.000  H
  H46      1.0000 0.65495  0.71267  0.10361  Biso   1.000  H
  C56      1.0000 0.55928  0.61421  0.07425  Biso   1.000  C
  H47      1.0000 0.44529  0.56648  0.10509  Biso   1.000  H
  H48      1.0000 0.45200  0.50789  0.06529  Biso   1.000  H
  C57      1.0000 0.50227  0.53028  0.64294  Biso   1.000  C
  C58      1.0000 0.41272  0.56601  0.60545  Biso   1.000  C
  C59      1.0000 0.75848  0.77108  0.74492  Biso   1.000  C
  H49      1.0000 0.76609  0.67817  0.71529  Biso   1.000  H
  C60      1.0000 0.82951  0.88921  0.69456  Biso   1.000  C
  H50      1.0000 0.88936  0.87858  0.63508  Biso   1.000  H
  C61      1.0000 0.88917  0.82949  0.30544  Biso   1.000  C
  H51      1.0000 0.99957  0.88968  0.34149  Biso   1.000  H
  H52      1.0000 0.25557  0.91667  0.24760  Biso   1.000  H
  H53      1.0000 0.24569  0.93670  0.30518  Biso   1.000  H
  C62      1.0000 0.77112  0.75850  0.25504  Biso   1.000  C
  H54      1.0000 0.75571  0.68810  0.19218  Biso   1.000  H
  H55      1.0000 0.59138  0.59259  0.06009  Biso   1.000  H
  H56      1.0000 0.54957  0.64297  0.04679  Biso   1.000  H
  H57      1.0000 0.53771  0.51061  0.63948  Biso   1.000  H
  C63      1.0000 0.48807  0.55148  0.69103  Biso   1.000  C
  C64      1.0000 0.39890  0.58840  0.65331  Biso   1.000  C
  H58      1.0000 0.38591  0.57009  0.57659  Biso   1.000  H
  C65      1.0000 0.70639  0.72838  0.78700  Biso   1.000  C
  C66      1.0000 0.78178  0.84899  0.73626  Biso   1.000  C
  C67      1.0000 0.84939  0.97089  0.68282  Biso   1.000  C
  C68      1.0000 0.84899  0.78177  0.26370  Biso   1.000  C
  C69      1.0000 0.85046  0.85448  0.33776  Biso   1.000  C
  C70      1.0000 0.73236  0.78277  0.29006  Biso   1.000  C
  C71      1.0000 0.43708  0.58107  0.69558  Biso   1.000  C
  C72      1.0000 0.52909  0.54197  0.73489  Biso   1.000  C
  C73      1.0000 0.34543  0.62200  0.65924  Biso   1.000  C
  N7       1.0000 0.68379  0.65679  0.79760  Biso   1.000  N
  H59      1.0000 0.68806  0.75566  0.80778  Biso   1.000  H
  H60      1.0000 0.76530  0.87586  0.75890  Biso   1.000  H
  H61      1.0000 0.88967  0.99960  0.65848  Biso   1.000  H
  N8       1.0000 0.81581  0.00462  0.70341  Biso   1.000  N
  H62      1.0000 0.87589  0.76529  0.24110  Biso   1.000  H
  C74      1.0000 0.76957  0.82896  0.33089  Biso   1.000  C
  H63      1.0000 0.87861  0.88939  0.36488  Biso   1.000  H
  H64      1.0000 0.67817  0.76606  0.28471  Biso   1.000  H
  H65      1.0000 0.42817  0.59661  0.72798  Biso   1.000  H
  N9       1.0000 0.51668  0.55437  0.77994  Biso   1.000  N
  H66      1.0000 0.56667  0.52567  0.72889  Biso   1.000  H
  N10      1.0000 0.30187  0.62165  0.62456  Biso   1.000  N
  H67      1.0000 0.34460  0.64480  0.69099  Biso   1.000  H
  C75      1.0000 0.62838  0.61870  0.83885  Biso   1.000  C
  C76      1.0000 0.83928  0.08542  0.68764  Biso   1.000  C
  C77      1.0000 0.72707  0.84627  0.37092  Biso   1.000  C
  C78      1.0000 0.56076  0.54097  0.81967  Biso   1.000  C
  C79      1.0000 0.25932  0.66412  0.63402  Biso   1.000  C
  H68      1.0000 0.60740  0.65337  0.85039  Biso   1.000  H
  C80      1.0000 0.67019  0.60381  0.88336  Biso   1.000  C
  C81      1.0000 0.76612  0.08672  0.66896  Biso   1.000  C
  C82      1.0000 0.87610  0.13952  0.73269  Biso   1.000  C
  H69      1.0000 0.87878  0.10202  0.65950  Biso   1.000  H
  C83      1.0000 0.65368  0.78490  0.38752  Biso   1.000  C
  C84      1.0000 0.75958  0.92039  0.39538  Biso   1.000  C
  C85      1.0000 0.50375  0.49466  0.86312  Biso   1.000  C
  H70      1.0000 0.58289  0.50860  0.80527  Biso   1.000  H
  H71      1.0000 0.27628  0.69170  0.66759  Biso   1.000  H
  C86      1.0000 0.16949  0.60741  0.63489  Biso   1.000  C
  C87      1.0000 0.27958  0.72489  0.59273  Biso   1.000  C
  H72      1.0000 0.69487  0.57327  0.87098  Biso   1.000  H
  H73      1.0000 0.71270  0.65496  0.89639  Biso   1.000  H
  C88      1.0000 0.61417  0.55928  0.92571  Biso   1.000  C
  N11      1.0000 0.73380  0.03793  0.62463  Biso   1.000  N
  H74      1.0000 0.72539  0.06581  0.69649  Biso   1.000  H
  C89      1.0000 0.78741  0.17165  0.65688  Biso   1.000  C
  C90      1.0000 0.89550  0.22292  0.72137  Biso   1.000  C
  H75      1.0000 0.83921  0.11903  0.76178  Biso   1.000  H
  H76      1.0000 0.92512  0.13976  0.74249  Biso   1.000  H
  H77      1.0000 0.63045  0.73476  0.37119  Biso   1.000  H
  C91      1.0000 0.61517  0.79689  0.42751  Biso   1.000  C
  C92      1.0000 0.71967  0.93008  0.43549  Biso   1.000  C
  H78      1.0000 0.80859  0.96327  0.38429  Biso   1.000  H
  C93      1.0000 0.54556  0.47936  0.90664  Biso   1.000  C
  H79      1.0000 0.47907  0.52490  0.87599  Biso   1.000  H
  H80      1.0000 0.46117  0.44357  0.84990  Biso   1.000  H
  H81      1.0000 0.15263  0.57841  0.60230  Biso   1.000  H
  H82      1.0000 0.15612  0.56820  0.66250  Biso   1.000  H
  C94      1.0000 0.12578  0.65177  0.64313  Biso   1.000  C
  N12      1.0000 0.36560  0.78041  0.59372  Biso   1.000  N
  C95      1.0000 0.23597  0.77108  0.60078  Biso   1.000  C
  H83      1.0000 0.26449  0.69778  0.55900  Biso   1.000  H
  H84      1.0000 0.59258  0.59141  0.93988  Biso   1.000  H
  H85      1.0000 0.64298  0.54959  0.95317  Biso   1.000  H
  C96      1.0000 0.66051  0.98619  0.62551  Biso   1.000  C
  H86      1.0000 0.73930  0.17272  0.64647  Biso   1.000  H
  H87      1.0000 0.82544  0.19185  0.62828  Biso   1.000  H
  C97      1.0000 0.82443  0.22481  0.70409  Biso   1.000  C
  H88      1.0000 0.91672  0.25564  0.75240  Biso   1.000  H
  H89      1.0000 0.93672  0.24572  0.69479  Biso   1.000  H
  H90      1.0000 0.56460  0.75549  0.43750  Biso   1.000  H
  C98      1.0000 0.64918  0.86859  0.45342  Biso   1.000  C
  H91      1.0000 0.74138  0.98046  0.45118  Biso   1.000  H
  H92      1.0000 0.56648  0.44528  0.89487  Biso   1.000  H
  H93      1.0000 0.50790  0.45202  0.93467  Biso   1.000  H
  H94      1.0000 0.13860  0.67628  0.67728  Biso   1.000  H
  H95      1.0000 0.06821  0.61427  0.64180  Biso   1.000  H
  C99      1.0000 0.14772  0.71580  0.60306  Biso   1.000  C
  C100     1.0000 0.40380  0.77988  0.55562  Biso   1.000  C
  H96      1.0000 0.25409  0.80138  0.63288  Biso   1.000  H
  H97      1.0000 0.24859  0.80900  0.57260  Biso   1.000  H
  C101     1.0000 0.61610  0.93256  0.58354  Biso   1.000  C
  H98      1.0000 0.63226  0.98206  0.65578  Biso   1.000  H
  H99      1.0000 0.83901  0.27986  0.69558  Biso   1.000  H
  H100     1.0000 0.78512  0.20656  0.73189  Biso   1.000  H
  C102     1.0000 0.60886  0.87745  0.50006  Biso   1.000  C
  H101     1.0000 0.12872  0.69069  0.56941  Biso   1.000  H
  H102     1.0000 0.12117  0.74627  0.61108  Biso   1.000  H
  C103     1.0000 0.49139  0.83209  0.55122  Biso   1.000  C
  H103     1.0000 0.37606  0.74486  0.52850  Biso   1.000  H
  C104     1.0000 0.65400  0.92978  0.53838  Biso   1.000  C
  C105     1.0000 0.53612  0.88431  0.58889  Biso   1.000  C
  C106     1.0000 0.52780  0.82890  0.50613  Biso   1.000  C
  H104     1.0000 0.70937  0.96310  0.53428  Biso   1.000  H
  H105     1.0000 0.51110  0.88696  0.61920  Biso   1.000  H
  H106     1.0000 0.49721  0.79370  0.47978  Biso   1.000  H
  C107     1.0000 0.56289  0.14400  0.63774  Biso   1.000  C
  C108     1.0000 0.51189  0.06338  0.64226  Biso   1.000  C
  C109     1.0000 0.51192  0.06343  0.64226  Biso   1.000  C
  H107     1.0000 0.57177  0.16839  0.60534  Biso   1.000  H
  H108     1.0000 0.57185  0.16845  0.60534  Biso   1.000  H
  C110     1.0000 0.60111  0.18954  0.68001  Biso   1.000  C
  C111     1.0000 0.47089  0.01288  0.59843  Biso   1.000  C
  C112     1.0000 0.47092  0.01294  0.59843  Biso   1.000  C
  C113     1.0000 0.49768  0.02800  0.69038  Biso   1.000  C
  C114     1.0000 0.49771  0.02806  0.69038  Biso   1.000  C
  C115     1.0000 0.58730  0.15333  0.72783  Biso   1.000  C
  C116     1.0000 0.65462  0.27660  0.67409  Biso   1.000  C
  N13      1.0000 0.48329  0.03768  0.55338  Biso   1.000  N
  N14      1.0000 0.48332  0.03774  0.55338  Biso   1.000  N
  H109     1.0000 0.43329  0.95895  0.60443  Biso   1.000  H
  H110     1.0000 0.46227  0.97283  0.69384  Biso   1.000  H
  H111     1.0000 0.46230  0.97289  0.69384  Biso   1.000  H
  C117     1.0000 0.53563  0.07371  0.73368  Biso   1.000  C
  H112     1.0000 0.61411  0.18422  0.75673  Biso   1.000  H
  N15      1.0000 0.69810  0.31977  0.70876  Biso   1.000  N
  N16      1.0000 0.69813  0.31983  0.70876  Biso   1.000  N
  H113     1.0000 0.65543  0.30022  0.64233  Biso   1.000  H
  C118     1.0000 0.43918  0.98015  0.51365  Biso   1.000  C
  C119     1.0000 0.51767  0.03319  0.78412  Biso   1.000  C
  C120     1.0000 0.51775  0.03325  0.78412  Biso   1.000  C
  C121     1.0000 0.74069  0.40477  0.69927  Biso   1.000  C
  C122     1.0000 0.74072  0.40482  0.69927  Biso   1.000  C
  C123     1.0000 0.37155  0.99025  0.49447  Biso   1.000  C
  C124     1.0000 0.37160  0.99025  0.49447  Biso   1.000  C
  H114     1.0000 0.41704  0.92564  0.52801  Biso   1.000  H
  C125     1.0000 0.49619  0.99085  0.47020  Biso   1.000  C
  H115     1.0000 0.41712  0.92570  0.52801  Biso   1.000  H
  C126     1.0000 0.55939  0.07070  0.82692  Biso   1.000  C
  C127     1.0000 0.50844  0.96633  0.79274  Biso   1.000  C
  C128     1.0000 0.50852  0.96639  0.79274  Biso   1.000  C
  C129     1.0000 0.45594  0.95434  0.79103  Biso   1.000  C
  C130     1.0000 0.52121  0.08222  0.82882  Biso   1.000  C
  C131     1.0000 0.72039  0.44528  0.74059  Biso   1.000  C
  C132     1.0000 0.72042  0.44534  0.74059  Biso   1.000  C
  H116     1.0000 0.72371  0.41540  0.66573  Biso   1.000  H
  C133     1.0000 0.83051  0.43790  0.69843  Biso   1.000  C
  N17      1.0000 0.31619  0.97295  0.53568  Biso   1.000  N
  H117     1.0000 0.39262  0.04601  0.48293  Biso   1.000  H
  C134     1.0000 0.32979  0.93355  0.44996  Biso   1.000  C
  C135     1.0000 0.45433  0.93373  0.42664  Biso   1.000  C
  C136     1.0000 0.45441  0.93379  0.42664  Biso   1.000  C
  H118     1.0000 0.53879  0.98234  0.48342  Biso   1.000  H
  H119     1.0000 0.52089  0.04577  0.45733  Biso   1.000  H
  H120     1.0000 0.52092  0.04583  0.45733  Biso   1.000  H
  H121     1.0000 0.60140  0.12362  0.82441  Biso   1.000  H
  C137     1.0000 0.54212  0.03361  0.87390  Biso   1.000  C
  C138     1.0000 0.50162  0.04560  0.87561  Biso   1.000  C
  H122     1.0000 0.51545  0.93893  0.76532  Biso   1.000  H
  C139     1.0000 0.48866  0.92924  0.83972  Biso   1.000  C
  H123     1.0000 0.51548  0.93899  0.76532  Biso   1.000  H
  C140     1.0000 0.43896  0.91772  0.83782  Biso   1.000  C
  H124     1.0000 0.42517  0.92564  0.76251  Biso   1.000  H
  H125     1.0000 0.53640  0.13632  0.82514  Biso   1.000  H
  N18      1.0000 0.63436  0.41481  0.73960  Biso   1.000  N
  N19      1.0000 0.63439  0.41487  0.73960  Biso   1.000  N
  C141     1.0000 0.76395  0.53506  0.73250  Biso   1.000  C
  C142     1.0000 0.76403  0.53512  0.73250  Biso   1.000  C
  H126     1.0000 0.73552  0.43329  0.77432  Biso   1.000  H
  H127     1.0000 0.84737  0.42579  0.73102  Biso   1.000  H
  H128     1.0000 0.84390  0.41209  0.67082  Biso   1.000  H
  C143     1.0000 0.87418  0.52596  0.69019  Biso   1.000  C
  C144     1.0000 0.87421  0.52602  0.69019  Biso   1.000  C
  C145     1.0000 0.29359  0.02197  0.54632  Biso   1.000  C
  C146     1.0000 0.29362  0.02203  0.54632  Biso   1.000  C
  H129     1.0000 0.28728  0.94224  0.43693  Biso   1.000  H
  C147     1.0000 0.38578  0.94507  0.40761  Biso   1.000  C
  H130     1.0000 0.30508  0.87839  0.46234  Biso   1.000  H
  H131     1.0000 0.28731  0.94229  0.43693  Biso   1.000  H
  H132     1.0000 0.49208  0.94407  0.39861  Biso   1.000  H
  H133     1.0000 0.43349  0.87874  0.43841  Biso   1.000  H
  H134     1.0000 0.57649  0.06101  0.90133  Biso   1.000  H
  C148     1.0000 0.48445  0.96675  0.88252  Biso   1.000  C
  C149     1.0000 0.48450  0.96675  0.88252  Biso   1.000  C
  H135     1.0000 0.49950  0.07430  0.90414  Biso   1.000  H
  H136     1.0000 0.47778  0.87638  0.84223  Biso   1.000  H
  H137     1.0000 0.40005  0.86362  0.84151  Biso   1.000  H
  C150     1.0000 0.59619  0.37612  0.77766  Biso   1.000  C
  H138     1.0000 0.74587  0.54729  0.70041  Biso   1.000  H
  H139     1.0000 0.75140  0.56040  0.76072  Biso   1.000  H
  C151     1.0000 0.85230  0.56814  0.73026  Biso   1.000  C
  H140     1.0000 0.86139  0.53772  0.65601  Biso   1.000  H
  H141     1.0000 0.93177  0.54611  0.69152  Biso   1.000  H
  C152     1.0000 0.24148  0.01258  0.58840  Biso   1.000  C
  C153     1.0000 0.24151  0.01264  0.58840  Biso   1.000  C
  H142     1.0000 0.31189  0.06757  0.52554  Biso   1.000  H
  H143     1.0000 0.31192  0.06763  0.52554  Biso   1.000  H
  H144     1.0000 0.40736  0.99876  0.39344  Biso   1.000  H
  H145     1.0000 0.35696  0.90656  0.38011  Biso   1.000  H
  C154     1.0000 0.46184  0.92623  0.93296  Biso   1.000  C
  C155     1.0000 0.46192  0.92629  0.93296  Biso   1.000  C
  C156     1.0000 0.50860  0.34068  0.78207  Biso   1.000  C
  C157     1.0000 0.50863  0.34074  0.78207  Biso   1.000  C
  H146     1.0000 0.62389  0.36880  0.80482  Biso   1.000  H
  H147     1.0000 0.87128  0.56199  0.76391  Biso   1.000  H
  H148     1.0000 0.87881  0.62513  0.72221  Biso   1.000  H
  C158     1.0000 0.21821  0.06721  0.59702  Biso   1.000  C
  C159     1.0000 0.21718  0.94956  0.62338  Biso   1.000  C
  C160     1.0000 0.46966  0.97194  0.97626  Biso   1.000  C
  C161     1.0000 0.43397  0.84667  0.93881  Biso   1.000  C
  C162     1.0000 0.46386  0.34818  0.74439  Biso   1.000  C
  C163     1.0000 0.46394  0.34824  0.74439  Biso   1.000  C
  C164     1.0000 0.47219  0.30111  0.82719  Biso   1.000  C
  C165     1.0000 0.17052  0.05971  0.63876  Biso   1.000  C
  H149     1.0000 0.23470  0.11063  0.57442  Biso   1.000  H
  C166     1.0000 0.17101  0.94058  0.66421  Biso   1.000  C
  H150     1.0000 0.23388  0.91205  0.61803  Biso   1.000  H
  H151     1.0000 0.48941  0.02711  0.97281  Biso   1.000  H
  C167     1.0000 0.44849  0.93657  0.02438  Biso   1.000  C
  C168     1.0000 0.41157  0.81046  0.98663  Biso   1.000  C
  H152     1.0000 0.42988  0.81578  0.90991  Biso   1.000  H
  C169     1.0000 0.38386  0.31646  0.74974  Biso   1.000  C
  C170     1.0000 0.38394  0.31652  0.74974  Biso   1.000  C
  H153     1.0000 0.48886  0.37588  0.71412  Biso   1.000  H
  H154     1.0000 0.48894  0.37594  0.71412  Biso   1.000  H
  C171     1.0000 0.39109  0.26862  0.83326  Biso   1.000  C
  C172     1.0000 0.39114  0.26862  0.83326  Biso   1.000  C
  H155     1.0000 0.50278  0.29650  0.85351  Biso   1.000  H
  H156     1.0000 0.50283  0.29650  0.85351  Biso   1.000  H
  C173     1.0000 0.15062  0.12149  0.65046  Biso   1.000  C
  C174     1.0000 0.14548  0.99592  0.67109  Biso   1.000  C
  C175     1.0000 0.14551  0.99598  0.67109  Biso   1.000  C
  C176     1.0000 0.15367  0.88075  0.70428  Biso   1.000  C
  C177     1.0000 0.41887  0.85594  0.02890  Biso   1.000  C
  C178     1.0000 0.45798  0.98706  0.06821  Biso   1.000  C
  C179     1.0000 0.37799  0.72334  0.99256  Biso   1.000  C
  C180     1.0000 0.33946  0.32568  0.70777  Biso   1.000  C
  C181     1.0000 0.33954  0.32574  0.70777  Biso   1.000  C
  C182     1.0000 0.34597  0.27577  0.79494  Biso   1.000  C
  C183     1.0000 0.34600  0.27583  0.79494  Biso   1.000  C
  C184     1.0000 0.35079  0.21942  0.87990  Biso   1.000  C
  C185     1.0000 0.35084  0.21942  0.87990  Biso   1.000  C
  H157     1.0000 0.11030  0.10992  0.67481  Biso   1.000  H
  N20      1.0000 0.18423  0.18883  0.62991  Biso   1.000  N
  H158     1.0000 0.11058  0.98913  0.69824  Biso   1.000  H
  H159     1.0000 0.11061  0.98919  0.69824  Biso   1.000  H
  C186     1.0000 0.21510  0.86876  0.72084  Biso   1.000  C
  C187     1.0000 0.07958  0.83917  0.72870  Biso   1.000  C
  H160     1.0000 0.40340  0.83155  0.06130  Biso   1.000  H
  N21      1.0000 0.44558  0.96226  0.11326  Biso   1.000  N
  H161     1.0000 0.47431  0.04099  0.06221  Biso   1.000  H
  H162     1.0000 0.47434  0.04105  0.06221  Biso   1.000  H
  N22      1.0000 0.37829  0.68017  0.95788  Biso   1.000  N
  H163     1.0000 0.35513  0.69972  0.02431  Biso   1.000  H
  H164     1.0000 0.35521  0.69978  0.02431  Biso   1.000  H
  N23      1.0000 0.26623  0.30412  0.70869  Biso   1.000  N
  H165     1.0000 0.36768  0.34978  0.67754  Biso   1.000  H
  H166     1.0000 0.36771  0.34984  0.67754  Biso   1.000  H
  H167     1.0000 0.29057  0.25368  0.79900  Biso   1.000  H
  H168     1.0000 0.29060  0.25374  0.79900  Biso   1.000  H
  C188     1.0000 0.28028  0.21039  0.89783  Biso   1.000  C
  C189     1.0000 0.38483  0.18174  0.90581  Biso   1.000  C
  C190     1.0000 0.28031  0.21044  0.89783  Biso   1.000  C
  C191     1.0000 0.16071  0.24612  0.64568  Biso   1.000  C
  C192     1.0000 0.20309  0.81826  0.76083  Biso   1.000  C
  H169     1.0000 0.26519  0.89569  0.70451  Biso   1.000  H
  C193     1.0000 0.06987  0.78956  0.76881  Biso   1.000  C
  H170     1.0000 0.03669  0.84525  0.71761  Biso   1.000  H
  C194     1.0000 0.45900  0.01979  0.15299  Biso   1.000  C
  C195     1.0000 0.45903  0.01985  0.15299  Biso   1.000  C
  C196     1.0000 0.33590  0.59518  0.96737  Biso   1.000  C
  C197     1.0000 0.23391  0.32060  0.66436  Biso   1.000  C
  H171     1.0000 0.43540  0.19089  0.89582  Biso   1.000  H
  C198     1.0000 0.34634  0.13124  0.94580  Biso   1.000  C
  H172     1.0000 0.25857  0.23909  0.88211  Biso   1.000  H
  H173     1.0000 0.25865  0.23915  0.88211  Biso   1.000  H
  C199     1.0000 0.24042  0.16083  0.93794  Biso   1.000  C
  H174     1.0000 0.12122  0.22320  0.67382  Biso   1.000  H
  C200     1.0000 0.12391  0.26337  0.60063  Biso   1.000  C
  C201     1.0000 0.12394  0.26343  0.60063  Biso   1.000  C
  H175     1.0000 0.24447  0.80905  0.77082  Biso   1.000  H
  C202     1.0000 0.13133  0.78052  0.78674  Biso   1.000  C
  C203     1.0000 0.13141  0.78058  0.78674  Biso   1.000  C
  H176     1.0000 0.01950  0.76085  0.78453  Biso   1.000  H
  C204     1.0000 0.38126  0.00969  0.17217  Biso   1.000  C
  C205     1.0000 0.38134  0.00975  0.17217  Biso   1.000  C
  C206     1.0000 0.50526  0.00910  0.19644  Biso   1.000  C
  C207     1.0000 0.50534  0.00915  0.19644  Biso   1.000  C
  H177     1.0000 0.49142  0.07430  0.13863  Biso   1.000  H
  C208     1.0000 0.27508  0.55466  0.92605  Biso   1.000  C
  C209     1.0000 0.39258  0.56204  0.96821  Biso   1.000  C
  C210     1.0000 0.39261  0.56210  0.96821  Biso   1.000  C
  H178     1.0000 0.30831  0.58460  0.00091  Biso   1.000  H
  C211     1.0000 0.21262  0.38421  0.67644  Biso   1.000  C
  H179     1.0000 0.27459  0.34039  0.63683  Biso   1.000  H
  H180     1.0000 0.27462  0.34044  0.63683  Biso   1.000  H
  H181     1.0000 0.36949  0.10431  0.96213  Biso   1.000  H
  C212     1.0000 0.27289  0.11919  0.96236  Biso   1.000  C
  C213     1.0000 0.27292  0.11925  0.96236  Biso   1.000  C
  H182     1.0000 0.19144  0.15475  0.94903  Biso   1.000  H
  C214     1.0000 0.10451  0.32739  0.61191  Biso   1.000  C
  H183     1.0000 0.16081  0.27979  0.57154  Biso   1.000  H
  H184     1.0000 0.16084  0.27985  0.57154  Biso   1.000  H
  H185     1.0000 0.07494  0.21464  0.59083  Biso   1.000  H
  C215     1.0000 0.12244  0.73132  0.83338  Biso   1.000  C
  C216     1.0000 0.12252  0.73138  0.83338  Biso   1.000  C
  N24      1.0000 0.34321  0.02699  0.13096  Biso   1.000  N
  N25      1.0000 0.34324  0.02705  0.13096  Biso   1.000  N
  H186     1.0000 0.34658  0.95393  0.18371  Biso   1.000  H
  H187     1.0000 0.34661  0.95399  0.18371  Biso   1.000  H
  C217     1.0000 0.39624  0.06645  0.21668  Biso   1.000  C
  H188     1.0000 0.47509  0.95417  0.20931  Biso   1.000  H
  C218     1.0000 0.52057  0.06621  0.24000  Biso   1.000  C
  C219     1.0000 0.52062  0.06621  0.24000  Biso   1.000  C
  H189     1.0000 0.55642  0.01760  0.18322  Biso   1.000  H
  N26      1.0000 0.21952  0.58513  0.92704  Biso   1.000  N
  C220     1.0000 0.22891  0.46488  0.93414  Biso   1.000  C
  H190     1.0000 0.30220  0.56665  0.89232  Biso   1.000  H
  H191     1.0000 0.42155  0.57415  0.93562  Biso   1.000  H
  H192     1.0000 0.43178  0.58785  0.99582  Biso   1.000  H
  C221     1.0000 0.34819  0.47398  0.97645  Biso   1.000  C
  H193     1.0000 0.26070  0.43341  0.68681  Biso   1.000  H
  C222     1.0000 0.17559  0.40039  0.62923  Biso   1.000  C
  H194     1.0000 0.17462  0.36643  0.70504  Biso   1.000  H
  C223     1.0000 0.23043  0.05942  0.00243  Biso   1.000  C
  H195     1.0000 0.08332  0.33891  0.58092  Biso   1.000  H
  H196     1.0000 0.06331  0.30902  0.63854  Biso   1.000  H
  C224     1.0000 0.17105  0.69883  0.83945  Biso   1.000  C
  C225     1.0000 0.07017  0.72417  0.87170  Biso   1.000  C
  C226     1.0000 0.17108  0.69889  0.83945  Biso   1.000  C
  C227     1.0000 0.27159  0.97797  0.12032  Biso   1.000  C
  H197     1.0000 0.42669  0.12161  0.20430  Biso   1.000  H
  H198     1.0000 0.34502  0.05771  0.22971  Biso   1.000  H
  C228     1.0000 0.44068  0.05487  0.25903  Biso   1.000  C
  C229     1.0000 0.44071  0.05493  0.25903  Biso   1.000  C
  H199     1.0000 0.54799  0.05587  0.26803  Biso   1.000  H
  H200     1.0000 0.55472  0.12120  0.22823  Biso   1.000  H
  H201     1.0000 0.54802  0.05593  0.26803  Biso   1.000  H
  C230     1.0000 0.22007  0.62388  0.88898  Biso   1.000  C
  C231     1.0000 0.28417  0.43186  0.93638  Biso   1.000  C
  H202     1.0000 0.19855  0.45265  0.96623  Biso   1.000  H
  H203     1.0000 0.19097  0.43954  0.90592  Biso   1.000  H
  H204     1.0000 0.19100  0.43960  0.90592  Biso   1.000  H
  H205     1.0000 0.38567  0.45389  0.97512  Biso   1.000  H
  H206     1.0000 0.32364  0.46222  0.01063  Biso   1.000  H
  H207     1.0000 0.32367  0.46228  0.01063  Biso   1.000  H
  H208     1.0000 0.16101  0.44079  0.63774  Biso   1.000  H
  H209     1.0000 0.21491  0.42142  0.60143  Biso   1.000  H
  C232     1.0000 0.14953  0.00402  0.99556  Biso   1.000  C
  C233     1.0000 0.26759  0.05038  0.04326  Biso   1.000  C
  C234     1.0000 0.26762  0.05044  0.04326  Biso   1.000  C
  H210     1.0000 0.20625  0.70344  0.81313  Biso   1.000  H
  C235     1.0000 0.16789  0.65926  0.88458  Biso   1.000  C
  H211     1.0000 0.20633  0.70350  0.81313  Biso   1.000  H
  C236     1.0000 0.06736  0.68348  0.91690  Biso   1.000  C
  H212     1.0000 0.03686  0.74626  0.86764  Biso   1.000  H
  C237     1.0000 0.06742  0.68348  0.91690  Biso   1.000  C
  C238     1.0000 0.22887  0.98736  0.07824  Biso   1.000  C
  H213     1.0000 0.24429  0.93237  0.14110  Biso   1.000  H
  H214     1.0000 0.40857  0.00118  0.27320  Biso   1.000  H
  H215     1.0000 0.45037  0.09338  0.28653  Biso   1.000  H
  H216     1.0000 0.40860  0.00124  0.27320  Biso   1.000  H
  H217     1.0000 0.45040  0.09344  0.28653  Biso   1.000  H
  H218     1.0000 0.25506  0.63115  0.86183  Biso   1.000  H
  H219     1.0000 0.25509  0.63120  0.86183  Biso   1.000  H
  H220     1.0000 0.25367  0.37487  0.94443  Biso   1.000  H
  H221     1.0000 0.30928  0.43801  0.90273  Biso   1.000  H
  H222     1.0000 0.12141  0.01081  0.96840  Biso   1.000  H
  C239     1.0000 0.11078  0.94023  0.02788  Biso   1.000  C
  C240     1.0000 0.11081  0.94029  0.02788  Biso   1.000  C
  H223     1.0000 0.32180  0.08789  0.04862  Biso   1.000  H
  H224     1.0000 0.32182  0.08795  0.04862  Biso   1.000  H
  C241     1.0000 0.11565  0.65176  0.92225  Biso   1.000  C
  C242     1.0000 0.11570  0.65176  0.92225  Biso   1.000  C
  C243     1.0000 0.01376  0.67426  0.95887  Biso   1.000  C
  C244     1.0000 0.01381  0.67426  0.95887  Biso   1.000  C
  C245     1.0000 0.15097  0.93273  0.06962  Biso   1.000  C
  C246     1.0000 0.15100  0.93279  0.06962  Biso   1.000  C
  C247     1.0000 0.02910  0.87845  0.01618  Biso   1.000  C
  H225     1.0000 0.11295  0.62406  0.95252  Biso   1.000  H
  H226     1.0000 0.11300  0.62406  0.95252  Biso   1.000  H
  N27      1.0000 0.96208  0.69582  0.95796  Biso   1.000  N
  N28      1.0000 0.96211  0.69588  0.95796  Biso   1.000  N
  H227     1.0000 0.01787  0.65016  0.98910  Biso   1.000  H
  H228     1.0000 0.12404  0.88931  0.09222  Biso   1.000  H
  H229     1.0000 0.12407  0.88937  0.09222  Biso   1.000  H
  N29      1.0000 0.99541  0.81117  0.03673  Biso   1.000  N
  H230     1.0000 0.00036  0.89002  0.99183  Biso   1.000  H
  H231     1.0000 0.00039  0.89008  0.99183  Biso   1.000  H
  C248     1.0000 0.91328  0.67934  0.00228  Biso   1.000  C
  C249     1.0000 0.91331  0.67940  0.00228  Biso   1.000  C
  C250     1.0000 0.91456  0.75382  0.02097  Biso   1.000  C
  C251     1.0000 0.91459  0.75388  0.02097  Biso   1.000  C
  C252     1.0000 0.82838  0.61573  0.99020  Biso   1.000  C
  C253     1.0000 0.82841  0.61579  0.99020  Biso   1.000  C
  H232     1.0000 0.93418  0.65956  0.02982  Biso   1.000  H
  H233     1.0000 0.89802  0.77680  0.99282  Biso   1.000  H
  C254     1.0000 0.86051  0.73657  0.06601  Biso   1.000  C
  H234     1.0000 0.82725  0.56653  0.97983  Biso   1.000  H
  H235     1.0000 0.80819  0.63357  0.96160  Biso   1.000  H
  H236     1.0000 0.82728  0.56659  0.97983  Biso   1.000  H
  C255     1.0000 0.77517  0.59955  0.03741  Biso   1.000  C
  C256     1.0000 0.77709  0.67255  0.05473  Biso   1.000  C
  H237     1.0000 0.88100  0.72015  0.09510  Biso   1.000  H
  H238     1.0000 0.86030  0.78536  0.07581  Biso   1.000  H
  H239     1.0000 0.72019  0.55915  0.02890  Biso   1.000  H
  H240     1.0000 0.79348  0.57858  0.06521  Biso   1.000  H
  H241     1.0000 0.72022  0.55921  0.02890  Biso   1.000  H
  H242     1.0000 0.74441  0.66109  0.08572  Biso   1.000  H
  H243     1.0000 0.75429  0.69098  0.02811  Biso   1.000  H
  C257     1.0000 0.93379  0.45438  0.57332  Biso   1.000  C
  C258     1.0000 0.99086  0.49620  0.52980  Biso   1.000  C
  C259     1.0000 0.94508  0.38581  0.59239  Biso   1.000  C
  H244     1.0000 0.87878  0.43347  0.56155  Biso   1.000  H
  H245     1.0000 0.94409  0.49206  0.60135  Biso   1.000  H
  C260     1.0000 0.98016  0.43920  0.48631  Biso   1.000  C
  H246     1.0000 0.98238  0.53878  0.51654  Biso   1.000  H
  H247     1.0000 0.04576  0.52089  0.54267  Biso   1.000  H
  C261     1.0000 0.93360  0.32981  0.55004  Biso   1.000  C
  H248     1.0000 0.99877  0.40736  0.60656  Biso   1.000  H
  H249     1.0000 0.90657  0.35698  0.61985  Biso   1.000  H
  N30      1.0000 0.03769  0.48326  0.44662  Biso   1.000  N
  N31      1.0000 0.03764  0.48326  0.44662  Biso   1.000  N
  C262     1.0000 0.99029  0.37157  0.50553  Biso   1.000  C
  H250     1.0000 0.92569  0.41711  0.47195  Biso   1.000  H
  H251     1.0000 0.87836  0.30507  0.53766  Biso   1.000  H
  H252     1.0000 0.94231  0.28729  0.56307  Biso   1.000  H
  H253     1.0000 0.94226  0.28729  0.56307  Biso   1.000  H
  C263     1.0000 0.01290  0.47092  0.40153  Biso   1.000  C
  N32      1.0000 0.97297  0.31617  0.46428  Biso   1.000  N
  H254     1.0000 0.04597  0.39260  0.51707  Biso   1.000  H
  C264     1.0000 0.06337  0.51191  0.35770  Biso   1.000  C
  H255     1.0000 0.95900  0.43329  0.39557  Biso   1.000  H
  C265     1.0000 0.02200  0.29361  0.45368  Biso   1.000  C
  C266     1.0000 0.02797  0.49767  0.30962  Biso   1.000  C
  C267     1.0000 0.14400  0.56288  0.36226  Biso   1.000  C
  C268     1.0000 0.01262  0.24151  0.41160  Biso   1.000  C
  C269     1.0000 0.01257  0.24151  0.41160  Biso   1.000  C
  H256     1.0000 0.06762  0.31192  0.47446  Biso   1.000  H
  H257     1.0000 0.06757  0.31192  0.47446  Biso   1.000  H
  C270     1.0000 0.07368  0.53559  0.26632  Biso   1.000  C
  H258     1.0000 0.97289  0.46229  0.30616  Biso   1.000  H
  C271     1.0000 0.18950  0.60109  0.31999  Biso   1.000  C
  H259     1.0000 0.16841  0.57180  0.39466  Biso   1.000  H
  C272     1.0000 0.94961  0.21718  0.37662  Biso   1.000  C
  C273     1.0000 0.94956  0.21718  0.37662  Biso   1.000  C
  C274     1.0000 0.06720  0.21818  0.40294  Biso   1.000  C
  C275     1.0000 0.06715  0.21818  0.40294  Biso   1.000  C
  C276     1.0000 0.03317  0.51770  0.21585  Biso   1.000  C
  C277     1.0000 0.15328  0.58727  0.27213  Biso   1.000  C
  C278     1.0000 0.27661  0.65461  0.32591  Biso   1.000  C
  C279     1.0000 0.27656  0.65461  0.32591  Biso   1.000  C
  C280     1.0000 0.94058  0.17099  0.33579  Biso   1.000  C
  H260     1.0000 0.91209  0.23389  0.38197  Biso   1.000  H
  C281     1.0000 0.05968  0.17052  0.36124  Biso   1.000  C
  H261     1.0000 0.11061  0.23472  0.42558  Biso   1.000  H
  C282     1.0000 0.96636  0.50848  0.20726  Biso   1.000  C
  C283     1.0000 0.95438  0.45597  0.20897  Biso   1.000  C
  C284     1.0000 0.07069  0.55939  0.17308  Biso   1.000  C
  C285     1.0000 0.08218  0.52118  0.17118  Biso   1.000  C
  H262     1.0000 0.18418  0.61409  0.24327  Biso   1.000  H
  N33      1.0000 0.31978  0.69808  0.29120  Biso   1.000  N
  H263     1.0000 0.30017  0.65537  0.35767  Biso   1.000  H
  C286     1.0000 0.88078  0.15368  0.29572  Biso   1.000  C
  C287     1.0000 0.99601  0.14547  0.32891  Biso   1.000  C
  C288     1.0000 0.99596  0.14547  0.32891  Biso   1.000  C
  C289     1.0000 0.12150  0.15061  0.34950  Biso   1.000  C
  C290     1.0000 0.92926  0.48870  0.16028  Biso   1.000  C
  C291     1.0000 0.91779  0.43896  0.16218  Biso   1.000  C
  H264     1.0000 0.93903  0.51551  0.23465  Biso   1.000  H
  H265     1.0000 0.93898  0.51551  0.23465  Biso   1.000  H
  H266     1.0000 0.92570  0.42520  0.23746  Biso   1.000  H
  C292     1.0000 0.03360  0.54209  0.12606  Biso   1.000  C
  C293     1.0000 0.04557  0.50157  0.12435  Biso   1.000  C
  H267     1.0000 0.12361  0.60139  0.17555  Biso   1.000  H
  H268     1.0000 0.12356  0.60139  0.17555  Biso   1.000  H
  H269     1.0000 0.13626  0.53636  0.17486  Biso   1.000  H
  C294     1.0000 0.40476  0.74066  0.30070  Biso   1.000  C
  C295     1.0000 0.86878  0.21511  0.27912  Biso   1.000  C
  C296     1.0000 0.83920  0.07962  0.27130  Biso   1.000  C
  H270     1.0000 0.98918  0.11063  0.30176  Biso   1.000  H
  N34      1.0000 0.18879  0.18422  0.37009  Biso   1.000  N
  H271     1.0000 0.10987  0.11027  0.32515  Biso   1.000  H
  C297     1.0000 0.96680  0.48450  0.11748  Biso   1.000  C
  H272     1.0000 0.87638  0.47777  0.15777  Biso   1.000  H
  H273     1.0000 0.86368  0.40010  0.15846  Biso   1.000  H
  H274     1.0000 0.06097  0.57646  0.09867  Biso   1.000  H
  H275     1.0000 0.07430  0.49950  0.09586  Biso   1.000  H
  H276     1.0000 0.41541  0.72371  0.33427  Biso   1.000  H
  H277     1.0000 0.41536  0.72371  0.33427  Biso   1.000  H
  C298     1.0000 0.43786  0.83050  0.30157  Biso   1.000  C
  C299     1.0000 0.44527  0.72040  0.25941  Biso   1.000  C
  C300     1.0000 0.81829  0.20312  0.23917  Biso   1.000  C
  H278     1.0000 0.89572  0.26520  0.29545  Biso   1.000  H
  H279     1.0000 0.89567  0.26520  0.29545  Biso   1.000  H
  C301     1.0000 0.78957  0.06987  0.23115  Biso   1.000  C
  H280     1.0000 0.84530  0.03668  0.28235  Biso   1.000  H
  C302     1.0000 0.24609  0.16071  0.35429  Biso   1.000  C
  C303     1.0000 0.92629  0.46188  0.06700  Biso   1.000  C
  H281     1.0000 0.42579  0.84739  0.26898  Biso   1.000  H
  H282     1.0000 0.41208  0.84391  0.32914  Biso   1.000  H
  C304     1.0000 0.52600  0.87421  0.30981  Biso   1.000  C
  N35      1.0000 0.41482  0.63435  0.26040  Biso   1.000  N
  C305     1.0000 0.53509  0.76399  0.26746  Biso   1.000  C
  H283     1.0000 0.43326  0.73546  0.22564  Biso   1.000  H
  N36      1.0000 0.41477  0.63435  0.26040  Biso   1.000  N
  C306     1.0000 0.78059  0.13142  0.21326  Biso   1.000  C
  H284     1.0000 0.80909  0.24447  0.22918  Biso   1.000  H
  H285     1.0000 0.76090  0.01949  0.21547  Biso   1.000  H
  C307     1.0000 0.32058  0.23389  0.33564  Biso   1.000  C
  C308     1.0000 0.26339  0.12392  0.39937  Biso   1.000  C
  H286     1.0000 0.22316  0.12120  0.32618  Biso   1.000  H
  C309     1.0000 0.84667  0.43400  0.06119  Biso   1.000  C
  C310     1.0000 0.97197  0.46968  0.02370  Biso   1.000  C
  H287     1.0000 0.53770  0.86139  0.34396  Biso   1.000  H
  C311     1.0000 0.56809  0.85229  0.26974  Biso   1.000  C
  H288     1.0000 0.53765  0.86139  0.34396  Biso   1.000  H
  H289     1.0000 0.54605  0.93179  0.30844  Biso   1.000  H
  C312     1.0000 0.37605  0.59619  0.22230  Biso   1.000  C
  H290     1.0000 0.54725  0.74586  0.29956  Biso   1.000  H
  H291     1.0000 0.56041  0.75141  0.23928  Biso   1.000  H
  H292     1.0000 0.56036  0.75141  0.23928  Biso   1.000  H
  C313     1.0000 0.73138  0.12250  0.16658  Biso   1.000  C
  N37      1.0000 0.30410  0.26620  0.29131  Biso   1.000  N
  H293     1.0000 0.34041  0.27459  0.36317  Biso   1.000  H
  C314     1.0000 0.38419  0.21257  0.32356  Biso   1.000  C
  H294     1.0000 0.34036  0.27459  0.36317  Biso   1.000  H
  C315     1.0000 0.38414  0.21257  0.32356  Biso   1.000  C
  C316     1.0000 0.32738  0.10448  0.38805  Biso   1.000  C
  H295     1.0000 0.27977  0.16077  0.42846  Biso   1.000  H
  H296     1.0000 0.21458  0.07489  0.40917  Biso   1.000  H
  C317     1.0000 0.81051  0.41162  0.01337  Biso   1.000  C
  H297     1.0000 0.81575  0.42987  0.09005  Biso   1.000  H
  C318     1.0000 0.93656  0.44847  0.97562  Biso   1.000  C
  H298     1.0000 0.02711  0.48940  0.02716  Biso   1.000  H
  H299     1.0000 0.56200  0.87131  0.23605  Biso   1.000  H
  H300     1.0000 0.62505  0.87875  0.27775  Biso   1.000  H
  C319     1.0000 0.34069  0.50860  0.21790  Biso   1.000  C
  H301     1.0000 0.36877  0.62389  0.19515  Biso   1.000  H
  C320     1.0000 0.69890  0.17111  0.16051  Biso   1.000  C
  C321     1.0000 0.72422  0.07023  0.12830  Biso   1.000  C
  C322     1.0000 0.32571  0.33950  0.29219  Biso   1.000  C
  C323     1.0000 0.32566  0.33950  0.29219  Biso   1.000  C
  H302     1.0000 0.43342  0.26071  0.31315  Biso   1.000  H
  H303     1.0000 0.36638  0.17459  0.29496  Biso   1.000  H
  C324     1.0000 0.40038  0.17560  0.37077  Biso   1.000  C
  H304     1.0000 0.43337  0.26071  0.31315  Biso   1.000  H
  H305     1.0000 0.33888  0.08328  0.41904  Biso   1.000  H
  H306     1.0000 0.30900  0.06332  0.36146  Biso   1.000  H
  C325     1.0000 0.72343  0.37801  0.00741  Biso   1.000  C
  C326     1.0000 0.72338  0.37801  0.00741  Biso   1.000  C
  C327     1.0000 0.85599  0.41888  0.97106  Biso   1.000  C
  C328     1.0000 0.98710  0.45798  0.93179  Biso   1.000  C
  C329     1.0000 0.30112  0.47222  0.17281  Biso   1.000  C
  C330     1.0000 0.30107  0.47222  0.17281  Biso   1.000  C
  C331     1.0000 0.34821  0.46389  0.25557  Biso   1.000  C
  C332     1.0000 0.34816  0.46389  0.25557  Biso   1.000  C
  C333     1.0000 0.65930  0.16792  0.11542  Biso   1.000  C
  H307     1.0000 0.70351  0.20631  0.18687  Biso   1.000  H
  C334     1.0000 0.68352  0.06739  0.08310  Biso   1.000  C
  C335     1.0000 0.68347  0.06739  0.08310  Biso   1.000  C
  H308     1.0000 0.74633  0.03691  0.13236  Biso   1.000  H
  H309     1.0000 0.74628  0.03691  0.13236  Biso   1.000  H
  C336     1.0000 0.31651  0.38392  0.25022  Biso   1.000  C
  H310     1.0000 0.34977  0.36767  0.32246  Biso   1.000  H
  H311     1.0000 0.44081  0.16101  0.36226  Biso   1.000  H
  H312     1.0000 0.44076  0.16101  0.36226  Biso   1.000  H
  H313     1.0000 0.42135  0.21487  0.39857  Biso   1.000  H
  N38      1.0000 0.68020  0.37830  0.04212  Biso   1.000  N
  H314     1.0000 0.69980  0.35521  0.97565  Biso   1.000  H
  H315     1.0000 0.83158  0.40341  0.93866  Biso   1.000  H
  N39      1.0000 0.96228  0.44558  0.88670  Biso   1.000  N
  H316     1.0000 0.04098  0.47428  0.93775  Biso   1.000  H
  C337     1.0000 0.26857  0.39106  0.16674  Biso   1.000  C
  H317     1.0000 0.29647  0.50281  0.14645  Biso   1.000  H
  H318     1.0000 0.37589  0.48887  0.28584  Biso   1.000  H
  H319     1.0000 0.37584  0.48887  0.28584  Biso   1.000  H
  C338     1.0000 0.62390  0.22007  0.11102  Biso   1.000  C
  C339     1.0000 0.65177  0.11571  0.07775  Biso   1.000  C
  C340     1.0000 0.67428  0.01382  0.04113  Biso   1.000  C
  C341     1.0000 0.27576  0.34600  0.20506  Biso   1.000  C
  C342     1.0000 0.59521  0.33590  0.03263  Biso   1.000  C
  C343     1.0000 0.01977  0.45899  0.84701  Biso   1.000  C
  C344     1.0000 0.21938  0.35078  0.12006  Biso   1.000  C
  N40      1.0000 0.58517  0.21954  0.07296  Biso   1.000  N
  H320     1.0000 0.63118  0.25510  0.13817  Biso   1.000  H
  H321     1.0000 0.62407  0.11299  0.04748  Biso   1.000  H
  N41      1.0000 0.69584  0.96202  0.04204  Biso   1.000  N
  H322     1.0000 0.65023  0.01790  0.01086  Biso   1.000  H
  H323     1.0000 0.65018  0.01790  0.01086  Biso   1.000  H
  H324     1.0000 0.25369  0.29059  0.20096  Biso   1.000  H
  C345     1.0000 0.56213  0.39260  0.03175  Biso   1.000  C
  C346     1.0000 0.56208  0.39260  0.03175  Biso   1.000  C
  H325     1.0000 0.58464  0.30831  0.99905  Biso   1.000  H
  H326     1.0000 0.58459  0.30831  0.99905  Biso   1.000  H
  C347     1.0000 0.55475  0.27512  0.07395  Biso   1.000  C
  C348     1.0000 0.55470  0.27512  0.07395  Biso   1.000  C
  C349     1.0000 0.00969  0.38132  0.82779  Biso   1.000  C
  H327     1.0000 0.07430  0.49141  0.86137  Biso   1.000  H
  C350     1.0000 0.00907  0.50529  0.80352  Biso   1.000  C
  C351     1.0000 0.18171  0.38480  0.09419  Biso   1.000  C
  C352     1.0000 0.18166  0.38480  0.09419  Biso   1.000  C
  C353     1.0000 0.21039  0.28032  0.10217  Biso   1.000  C
  C354     1.0000 0.67938  0.91324  0.99768  Biso   1.000  C
  C355     1.0000 0.67933  0.91324  0.99768  Biso   1.000  C
  C356     1.0000 0.47399  0.34818  0.02351  Biso   1.000  C
  H328     1.0000 0.57423  0.42160  0.06438  Biso   1.000  H
  H329     1.0000 0.57418  0.42160  0.06438  Biso   1.000  H
  H330     1.0000 0.58788  0.43182  0.00418  Biso   1.000  H
  C357     1.0000 0.46492  0.22887  0.06586  Biso   1.000  C
  C358     1.0000 0.46487  0.22887  0.06586  Biso   1.000  C
  H331     1.0000 0.56669  0.30217  0.10768  Biso   1.000  H
  H332     1.0000 0.95396  0.34659  0.81629  Biso   1.000  H
  N42      1.0000 0.02701  0.34322  0.86904  Biso   1.000  N
  C359     1.0000 0.06639  0.39620  0.78328  Biso   1.000  C
  H333     1.0000 0.95418  0.47511  0.79069  Biso   1.000  H
  C360     1.0000 0.06618  0.52059  0.76000  Biso   1.000  C
  H334     1.0000 0.01758  0.55638  0.81678  Biso   1.000  H
  C361     1.0000 0.13120  0.34629  0.05420  Biso   1.000  C
  C362     1.0000 0.13115  0.34629  0.05420  Biso   1.000  C
  H335     1.0000 0.19091  0.43542  0.10418  Biso   1.000  H
  C363     1.0000 0.16081  0.24039  0.06206  Biso   1.000  C
  C364     1.0000 0.16076  0.24039  0.06206  Biso   1.000  C
  H336     1.0000 0.23906  0.25858  0.11785  Biso   1.000  H
  H337     1.0000 0.65955  0.93414  0.97018  Biso   1.000  H
  C365     1.0000 0.75384  0.91453  0.97903  Biso   1.000  C
  C366     1.0000 0.61577  0.82836  0.00976  Biso   1.000  C
  H338     1.0000 0.46230  0.32367  0.98937  Biso   1.000  H
  H339     1.0000 0.45392  0.38569  0.02488  Biso   1.000  H
  C367     1.0000 0.43193  0.28422  0.06362  Biso   1.000  C
  H340     1.0000 0.45387  0.38569  0.02488  Biso   1.000  H
  C368     1.0000 0.43188  0.28422  0.06362  Biso   1.000  C
  H341     1.0000 0.45269  0.19857  0.03377  Biso   1.000  H
  H342     1.0000 0.43960  0.19101  0.09408  Biso   1.000  H
  C369     1.0000 0.97799  0.27158  0.87968  Biso   1.000  C
  H343     1.0000 0.12157  0.42668  0.79566  Biso   1.000  H
  H344     1.0000 0.05771  0.34499  0.77025  Biso   1.000  H
  H345     1.0000 0.05766  0.34499  0.77025  Biso   1.000  H
  C370     1.0000 0.05486  0.44068  0.74093  Biso   1.000  C
  H346     1.0000 0.12117  0.55467  0.77177  Biso   1.000  H
  H347     1.0000 0.05589  0.54800  0.73197  Biso   1.000  H
  C371     1.0000 0.11920  0.27288  0.03760  Biso   1.000  C
  C372     1.0000 0.11915  0.27288  0.03760  Biso   1.000  C
  H348     1.0000 0.10429  0.36950  0.03787  Biso   1.000  H
  H349     1.0000 0.15466  0.19137  0.05097  Biso   1.000  H
  N43      1.0000 0.81117  0.99533  0.96327  Biso   1.000  N
  C373     1.0000 0.73656  0.86043  0.93395  Biso   1.000  C
  H350     1.0000 0.77679  0.89794  0.00718  Biso   1.000  H
  H351     1.0000 0.77674  0.89794  0.00718  Biso   1.000  H
  C374     1.0000 0.59954  0.77514  0.96255  Biso   1.000  C
  H352     1.0000 0.56656  0.82724  0.02017  Biso   1.000  H
  H353     1.0000 0.63359  0.80816  0.03836  Biso   1.000  H
  H354     1.0000 0.63354  0.80816  0.03836  Biso   1.000  H
  H355     1.0000 0.43803  0.30932  0.09727  Biso   1.000  H
  H356     1.0000 0.43798  0.30932  0.09727  Biso   1.000  H
  H357     1.0000 0.37487  0.25368  0.05557  Biso   1.000  H
  C375     1.0000 0.98738  0.22887  0.92172  Biso   1.000  C
  H358     1.0000 0.93237  0.24429  0.85886  Biso   1.000  H
  H359     1.0000 0.00118  0.40860  0.72677  Biso   1.000  H
  H360     1.0000 0.09337  0.45036  0.71347  Biso   1.000  H
  C376     1.0000 0.05940  0.23041  0.99753  Biso   1.000  C
  C377     1.0000 0.87850  0.02912  0.98382  Biso   1.000  C
  C378     1.0000 0.67256  0.77703  0.94527  Biso   1.000  C
  H361     1.0000 0.72016  0.88093  0.90486  Biso   1.000  H
  H362     1.0000 0.78537  0.86025  0.92415  Biso   1.000  H
  H363     1.0000 0.57857  0.79345  0.93475  Biso   1.000  H
  H364     1.0000 0.55916  0.72015  0.97106  Biso   1.000  H
  C379     1.0000 0.93277  0.15097  0.93038  Biso   1.000  C
  C380     1.0000 0.05043  0.26762  0.95670  Biso   1.000  C
  C381     1.0000 0.05038  0.26762  0.95670  Biso   1.000  C
  C382     1.0000 0.00400  0.14949  0.00444  Biso   1.000  C
  C383     1.0000 0.00395  0.14949  0.00444  Biso   1.000  C
  C384     1.0000 0.94031  0.11080  0.97208  Biso   1.000  C
  C385     1.0000 0.94026  0.11080  0.97208  Biso   1.000  C
  H365     1.0000 0.89013  0.00041  0.00817  Biso   1.000  H
  H366     1.0000 0.89008  0.00041  0.00817  Biso   1.000  H
  H367     1.0000 0.66109  0.74437  0.91428  Biso   1.000  H
  H368     1.0000 0.69093  0.75423  0.97186  Biso   1.000  H
  H369     1.0000 0.88941  0.12409  0.90778  Biso   1.000  H
  H370     1.0000 0.88936  0.12409  0.90778  Biso   1.000  H
  H371     1.0000 0.08790  0.32178  0.95138  Biso   1.000  H
  H372     1.0000 0.08785  0.32178  0.95138  Biso   1.000  H
  H373     1.0000 0.01076  0.12138  0.03156  Biso   1.000  H
