data_image0
_cell_length_a       17.316
_cell_length_b       17.316
_cell_length_c       121.63
_cell_angle_alpha    90
_cell_angle_beta     90
_cell_angle_gamma    120

_symmetry_space_group_name_H-M    "P 1"
_symmetry_int_tables_number       1

loop_
  _symmetry_equiv_pos_as_xyz
  'x, y, z'

loop_
  _atom_site_label
  _atom_site_occupancy
  _atom_site_fract_x
  _atom_site_fract_y
  _atom_site_fract_z
  _atom_site_thermal_displace_type
  _atom_site_B_iso_or_equiv
  _atom_site_type_symbol
  C1       1.0000 0.23639  0.49993  0.43715  Biso   1.000  C
  C2       1.0000 0.26137  0.45679  0.42800  Biso   1.000  C
  C3       1.0000 0.15329  0.50340  0.43424  Biso   1.000  C
  H1       1.0000 0.22628  0.46619  0.44390  Biso   1.000  H
  H2       1.0000 0.28531  0.55988  0.43840  Biso   1.000  H
  C4       1.0000 0.18283  0.36243  0.42555  Biso   1.000  C
  H3       1.0000 0.31332  0.45292  0.43020  Biso   1.000  H
  H4       1.0000 0.27642  0.49313  0.42140  Biso   1.000  H
  C5       1.0000 0.07649  0.41077  0.43201  Biso   1.000  C
  H5       1.0000 0.13789  0.53000  0.44030  Biso   1.000  H
  H6       1.0000 0.16452  0.54041  0.42780  Biso   1.000  H
  N1       1.0000 0.20752  0.32228  0.41675  Biso   1.000  N
  C6       1.0000 0.10042  0.36590  0.42254  Biso   1.000  C
  H7       1.0000 0.17030  0.32582  0.43220  Biso   1.000  H
  H8       1.0000 0.02408  0.41417  0.43000  Biso   1.000  H
  H9       1.0000 0.06282  0.37490  0.43860  Biso   1.000  H
  C7       1.0000 0.20731  0.25153  0.41897  Biso   1.000  C
  H10      1.0000 0.11241  0.40177  0.41590  Biso   1.000  H
  N2       1.0000 0.02568  0.27821  0.42053  Biso   1.000  N
  C8       1.0000 0.23210  0.20352  0.41100  Biso   1.000  C
  H11      1.0000 0.19057  0.22799  0.42600  Biso   1.000  H
  C9       1.0000 0.99959  0.25987  0.41083  Biso   1.000  C
  C10      1.0000 0.25989  0.23519  0.40040  Biso   1.000  C
  C11      1.0000 0.23043  0.12603  0.41438  Biso   1.000  C
  H12      1.0000 0.03261  0.30188  0.40550  Biso   1.000  H
  C12      1.0000 0.91969  0.17618  0.40717  Biso   1.000  C
  C13      1.0000 0.28573  0.19112  0.39306  Biso   1.000  C
  H13      1.0000 0.26118  0.28721  0.39820  Biso   1.000  H
  C14      1.0000 0.25648  0.08029  0.40717  Biso   1.000  C
  H14      1.0000 0.21171  0.10429  0.42150  Biso   1.000  H
  C15      1.0000 0.88787  0.17098  0.39673  Biso   1.000  C
  C16      1.0000 0.87400  0.10443  0.41438  Biso   1.000  C
  C17      1.0000 0.31704  0.22533  0.38211  Biso   1.000  C
  C18      1.0000 0.28312  0.11210  0.39673  Biso   1.000  C
  C19      1.0000 0.26031  0.00040  0.41083  Biso   1.000  C
  C20      1.0000 0.80892  0.09462  0.39306  Biso   1.000  C
  H15      1.0000 0.91878  0.21859  0.39190  Biso   1.000  H
  C21      1.0000 0.79653  0.02861  0.41100  Biso   1.000  C
  H16      1.0000 0.89571  0.10743  0.42150  Biso   1.000  H
  N3       1.0000 0.35089  0.19358  0.37569  Biso   1.000  N
  H17      1.0000 0.31168  0.27340  0.37970  Biso   1.000  H
  H18      1.0000 0.29979  0.08122  0.39190  Biso   1.000  H
  H19      1.0000 0.26927  0.96739  0.40550  Biso   1.000  H
  N4       1.0000 0.25252  0.97433  0.42053  Biso   1.000  N
  C22      1.0000 0.77471  0.09169  0.38211  Biso   1.000  C
  C23      1.0000 0.76476  0.02467  0.40040  Biso   1.000  C
  C24      1.0000 0.74851  0.95579  0.41897  Biso   1.000  C
  C25      1.0000 0.38452  0.23439  0.36498  Biso   1.000  C
  C26      1.0000 0.26551  0.89957  0.42254  Biso   1.000  C
  N5       1.0000 0.80642  0.15731  0.37569  Biso   1.000  N
  H20      1.0000 0.72658  0.03828  0.37970  Biso   1.000  H
  H21      1.0000 0.71280  0.97399  0.39820  Biso   1.000  H
  H22      1.0000 0.77201  0.96259  0.42600  Biso   1.000  H
  N6       1.0000 0.67772  0.88524  0.41675  Biso   1.000  N
  C27      1.0000 0.33899  0.16771  0.35585  Biso   1.000  C
  C28      1.0000 0.48500  0.27087  0.36481  Biso   1.000  C
  H23      1.0000 0.37300  0.28401  0.36400  Biso   1.000  H
  H24      1.0000 0.28940  0.88764  0.41590  Biso   1.000  H
  C29      1.0000 0.33430  0.92351  0.43201  Biso   1.000  C
  C30      1.0000 0.17963  0.81722  0.42555  Biso   1.000  C
  C31      1.0000 0.76563  0.15011  0.36498  Biso   1.000  C
  C32      1.0000 0.63763  0.82042  0.42555  Biso   1.000  C
  C33      1.0000 0.38019  0.20932  0.34483  Biso   1.000  C
  H25      1.0000 0.34449  0.11483  0.35710  Biso   1.000  H
  N7       1.0000 0.24491  0.14297  0.35582  Biso   1.000  N
  C34      1.0000 0.52361  0.31101  0.35372  Biso   1.000  C
  H26      1.0000 0.51320  0.31608  0.37050  Biso   1.000  H
  H27      1.0000 0.49719  0.22319  0.36640  Biso   1.000  H
  H28      1.0000 0.39013  0.97593  0.43000  Biso   1.000  H
  H29      1.0000 0.31209  0.93718  0.43860  Biso   1.000  H
  C35      1.0000 0.35012  0.84669  0.43424  Biso   1.000  C
  C36      1.0000 0.19541  0.73860  0.42800  Biso   1.000  C
  H30      1.0000 0.15549  0.82969  0.43220  Biso   1.000  H
  N8       1.0000 0.11477  0.79248  0.41675  Biso   1.000  N
  C37      1.0000 0.83231  0.17131  0.35585  Biso   1.000  C
  H31      1.0000 0.71603  0.08902  0.36400  Biso   1.000  H
  C38      1.0000 0.72909  0.21412  0.36481  Biso   1.000  C
  C39      1.0000 0.63413  0.73453  0.42254  Biso   1.000  C
  C40      1.0000 0.54322  0.80462  0.42800  Biso   1.000  C
  H32      1.0000 0.67421  0.84449  0.43220  Biso   1.000  H
  C41      1.0000 0.48040  0.24573  0.34459  Biso   1.000  C
  H33      1.0000 0.36842  0.25740  0.34330  Biso   1.000  H
  H34      1.0000 0.35232  0.16491  0.33910  Biso   1.000  H
  C42      1.0000 0.18809  0.06202  0.35661  Biso   1.000  C
  H35      1.0000 0.51588  0.36209  0.35250  Biso   1.000  H
  H36      1.0000 0.58711  0.33189  0.35370  Biso   1.000  H
  H37      1.0000 0.39213  0.86210  0.44030  Biso   1.000  H
  H38      1.0000 0.37588  0.83549  0.42780  Biso   1.000  H
  C43      1.0000 0.26353  0.76361  0.43715  Biso   1.000  C
  H39      1.0000 0.13962  0.68672  0.43020  Biso   1.000  H
  H40      1.0000 0.21667  0.72359  0.42140  Biso   1.000  H
  C44      1.0000 0.04418  0.79268  0.41897  Biso   1.000  C
  N9       1.0000 0.85702  0.10189  0.35582  Biso   1.000  N
  C45      1.0000 0.79070  0.17091  0.34483  Biso   1.000  C
  H41      1.0000 0.88519  0.22973  0.35710  Biso   1.000  H
  H42      1.0000 0.68391  0.19712  0.37050  Biso   1.000  H
  H43      1.0000 0.77682  0.27400  0.36640  Biso   1.000  H
  C46      1.0000 0.68899  0.21259  0.35372  Biso   1.000  C
  N10      1.0000 0.72183  0.74753  0.42053  Biso   1.000  N
  H44      1.0000 0.59819  0.71059  0.41590  Biso   1.000  H
  C47      1.0000 0.58921  0.66571  0.43201  Biso   1.000  C
  C48      1.0000 0.50011  0.73653  0.43715  Biso   1.000  C
  H45      1.0000 0.54710  0.86043  0.43020  Biso   1.000  H
  H46      1.0000 0.50691  0.78328  0.42140  Biso   1.000  H
  H47      1.0000 0.49259  0.19712  0.34540  Biso   1.000  H
  H48      1.0000 0.50459  0.27460  0.33760  Biso   1.000  H
  H49      1.0000 0.20721  0.02067  0.35720  Biso   1.000  H
  C49      1.0000 0.09030  0.02987  0.35658  Biso   1.000  C
  H50      1.0000 0.23986  0.77367  0.44390  Biso   1.000  H
  H51      1.0000 0.27461  0.71473  0.43840  Biso   1.000  H
  C50      1.0000 0.97140  0.76794  0.41100  Biso   1.000  C
  H52      1.0000 0.03742  0.80942  0.42600  Biso   1.000  H
  C51      1.0000 0.93802  0.12610  0.35661  Biso   1.000  C
  C52      1.0000 0.75429  0.23473  0.34459  Biso   1.000  C
  H53      1.0000 0.74262  0.11103  0.34330  Biso   1.000  H
  H54      1.0000 0.83509  0.18738  0.33910  Biso   1.000  H
  H55      1.0000 0.63787  0.15377  0.35250  Biso   1.000  H
  H56      1.0000 0.66808  0.25520  0.35370  Biso   1.000  H
  C53      1.0000 0.74010  0.73973  0.41083  Biso   1.000  C
  H57      1.0000 0.58579  0.60990  0.43000  Biso   1.000  H
  H58      1.0000 0.62509  0.68792  0.43860  Biso   1.000  H
  C54      1.0000 0.49659  0.64991  0.43424  Biso   1.000  C
  H59      1.0000 0.53380  0.76014  0.44390  Biso   1.000  H
  H60      1.0000 0.44008  0.72540  0.43840  Biso   1.000  H
  C55      1.0000 0.05960  0.09009  0.35643  Biso   1.000  C
  C56      1.0000 0.03048  0.94038  0.35643  Biso   1.000  C
  C57      1.0000 0.97534  0.74013  0.40040  Biso   1.000  C
  C58      1.0000 0.89560  0.76961  0.41438  Biso   1.000  C
  C59      1.0000 0.97009  0.06042  0.35658  Biso   1.000  C
  H61      1.0000 0.97932  0.18652  0.35720  Biso   1.000  H
  H62      1.0000 0.80291  0.29548  0.34540  Biso   1.000  H
  H63      1.0000 0.72541  0.22999  0.33760  Biso   1.000  H
  C60      1.0000 0.82383  0.74353  0.40717  Biso   1.000  C
  H64      1.0000 0.69812  0.73073  0.40550  Biso   1.000  H
  H65      1.0000 0.46998  0.60790  0.44030  Biso   1.000  H
  H66      1.0000 0.45960  0.62410  0.42780  Biso   1.000  H
  H67      1.0000 0.09997  0.15097  0.35620  Biso   1.000  H
  C61      1.0000 0.93961  0.90971  0.35658  Biso   1.000  C
  H68      1.0000 0.05099  0.89997  0.35620  Biso   1.000  H
  C62      1.0000 0.90538  0.71433  0.39306  Biso   1.000  C
  H69      1.0000 0.02602  0.73880  0.39820  Biso   1.000  H
  H70      1.0000 0.89258  0.78828  0.42150  Biso   1.000  H
  C63      1.0000 0.90992  0.96953  0.35643  Biso   1.000  C
  C64      1.0000 0.82901  0.71693  0.39673  Biso   1.000  C
  C65      1.0000 0.87389  0.81188  0.35661  Biso   1.000  C
  C66      1.0000 0.90831  0.68298  0.38211  Biso   1.000  C
  H71      1.0000 0.84900  0.94899  0.35620  Biso   1.000  H
  H72      1.0000 0.78137  0.70019  0.39190  Biso   1.000  H
  H73      1.0000 0.81354  0.79281  0.35720  Biso   1.000  H
  N11      1.0000 0.89813  0.75514  0.35582  Biso   1.000  N
  N12      1.0000 0.84269  0.64911  0.37569  Biso   1.000  N
  H74      1.0000 0.96168  0.68832  0.37970  Biso   1.000  H
  C67      1.0000 0.82870  0.66098  0.35585  Biso   1.000  C
  C68      1.0000 0.84991  0.61550  0.36498  Biso   1.000  C
  C69      1.0000 0.82909  0.61983  0.34483  Biso   1.000  C
  H75      1.0000 0.77029  0.65551  0.35710  Biso   1.000  H
  H76      1.0000 0.91100  0.62704  0.36400  Biso   1.000  H
  C70      1.0000 0.78592  0.51501  0.36481  Biso   1.000  C
  C71      1.0000 0.76529  0.51961  0.34459  Biso   1.000  C
  H77      1.0000 0.88905  0.63164  0.34330  Biso   1.000  H
  H78      1.0000 0.81259  0.64771  0.33910  Biso   1.000  H
  H79      1.0000 0.80288  0.48680  0.37050  Biso   1.000  H
  H80      1.0000 0.72599  0.50280  0.36640  Biso   1.000  H
  C72      1.0000 0.78740  0.47640  0.35372  Biso   1.000  C
  H81      1.0000 0.70450  0.50741  0.34540  Biso   1.000  H
  H82      1.0000 0.76999  0.49540  0.33760  Biso   1.000  H
  H83      1.0000 0.84619  0.48413  0.35250  Biso   1.000  H
  H84      1.0000 0.74480  0.41291  0.35370  Biso   1.000  H
  C73      1.0000 0.81651  0.75500  0.44948  Biso   1.000  C
  N13      1.0000 0.81821  0.68551  0.45204  Biso   1.000  N
  H85      1.0000 0.82541  0.77360  0.44220  Biso   1.000  H
  C74      1.0000 0.80078  0.80808  0.45779  Biso   1.000  C
  C75      1.0000 0.84209  0.64190  0.44352  Biso   1.000  C
  C76      1.0000 0.77781  0.86943  0.45462  Biso   1.000  C
  C77      1.0000 0.81190  0.79727  0.46898  Biso   1.000  C
  C78      1.0000 0.76346  0.54968  0.44112  Biso   1.000  C
  C79      1.0000 0.92233  0.63410  0.44778  Biso   1.000  C
  H86      1.0000 0.85932  0.67798  0.43680  Biso   1.000  H
  H87      1.0000 0.77238  0.87810  0.44720  Biso   1.000  H
  C80      1.0000 0.76207  0.91951  0.46247  Biso   1.000  C
  C81      1.0000 0.79840  0.84582  0.47689  Biso   1.000  C
  H88      1.0000 0.82878  0.75620  0.47110  Biso   1.000  H
  C82      1.0000 0.78950  0.49953  0.43298  Biso   1.000  C
  H89      1.0000 0.71470  0.55541  0.43810  Biso   1.000  H
  H90      1.0000 0.74299  0.51600  0.44790  Biso   1.000  H
  C83      1.0000 0.94659  0.58422  0.43961  Biso   1.000  C
  H91      1.0000 0.90641  0.60202  0.45480  Biso   1.000  H
  N14      1.0000 0.99652  0.72439  0.44950  Biso   1.000  N
  C84      1.0000 0.73812  0.98732  0.45936  Biso   1.000  C
  C85      1.0000 0.77190  0.90670  0.47346  Biso   1.000  C
  C86      1.0000 0.81229  0.83628  0.48869  Biso   1.000  C
  C87      1.0000 0.86558  0.48999  0.43758  Biso   1.000  C
  H92      1.0000 0.73857  0.44098  0.43160  Biso   1.000  H
  H93      1.0000 0.80748  0.53181  0.42610  Biso   1.000  H
  H94      1.0000 0.99629  0.57908  0.44240  Biso   1.000  H
  H95      1.0000 0.96472  0.61689  0.43270  Biso   1.000  H
  C88      1.0000 0.01267  0.75080  0.45936  Biso   1.000  C
  H96      1.0000 0.72999  0.01947  0.46490  Biso   1.000  H
  N15      1.0000 0.72788  0.00346  0.44950  Biso   1.000  N
  H97      1.0000 0.76078  0.93898  0.47870  Biso   1.000  H
  C89      1.0000 0.80204  0.75653  0.49266  Biso   1.000  C
  C90      1.0000 0.74520  0.81808  0.49641  Biso   1.000  C
  C91      1.0000 0.89209  0.85082  0.49289  Biso   1.000  C
  C92      1.0000 0.84059  0.90570  0.49615  Biso   1.000  C
  H98      1.0000 0.88172  0.45772  0.43240  Biso   1.000  H
  H99      1.0000 0.84747  0.45679  0.44440  Biso   1.000  H
  H100     1.0000 0.98052  0.71052  0.46490  Biso   1.000  H
  C93      1.0000 0.08053  0.84262  0.46247  Biso   1.000  C
  C94      1.0000 0.71180  0.07768  0.44778  Biso   1.000  C
  H101     1.0000 0.78371  0.70878  0.48780  Biso   1.000  H
  C95      1.0000 0.81808  0.74519  0.50359  Biso   1.000  C
  C96      1.0000 0.75651  0.80201  0.50734  Biso   1.000  C
  H102     1.0000 0.69311  0.81681  0.49420  Biso   1.000  H
  H103     1.0000 0.93974  0.86863  0.48810  Biso   1.000  H
  C97      1.0000 0.90570  0.84062  0.50385  Biso   1.000  C
  C98      1.0000 0.85082  0.89210  0.50711  Biso   1.000  C
  H104     1.0000 0.85298  0.96178  0.49380  Biso   1.000  H
  C99      1.0000 0.13061  0.90837  0.45462  Biso   1.000  C
  C100     1.0000 0.09333  0.86523  0.47346  Biso   1.000  C
  H105     1.0000 0.69563  0.09362  0.45480  Biso   1.000  H
  C101     1.0000 0.63758  0.05341  0.43961  Biso   1.000  C
  C102     1.0000 0.79979  0.15790  0.44352  Biso   1.000  C
  C103     1.0000 0.83626  0.81228  0.51131  Biso   1.000  C
  H106     1.0000 0.81682  0.69311  0.50580  Biso   1.000  H
  H107     1.0000 0.70877  0.78367  0.51220  Biso   1.000  H
  H108     1.0000 0.96180  0.85302  0.50620  Biso   1.000  H
  H109     1.0000 0.86862  0.93971  0.51190  Biso   1.000  H
  C104     1.0000 0.19190  0.99273  0.45779  Biso   1.000  C
  H110     1.0000 0.12190  0.89430  0.44720  Biso   1.000  H
  H111     1.0000 0.06100  0.82181  0.47870  Biso   1.000  H
  C105     1.0000 0.15422  0.95258  0.47689  Biso   1.000  C
  H112     1.0000 0.58280  0.00366  0.44240  Biso   1.000  H
  H113     1.0000 0.65219  0.03527  0.43270  Biso   1.000  H
  C106     1.0000 0.62435  0.13436  0.43758  Biso   1.000  C
  C107     1.0000 0.78620  0.23652  0.44112  Biso   1.000  C
  H114     1.0000 0.81867  0.14070  0.43680  Biso   1.000  H
  N16      1.0000 0.86728  0.18177  0.45204  Biso   1.000  N
  C108     1.0000 0.84579  0.79841  0.52311  Biso   1.000  C
  C109     1.0000 0.24499  0.06148  0.44948  Biso   1.000  C
  C110     1.0000 0.20272  0.01460  0.46898  Biso   1.000  C
  C111     1.0000 0.16367  0.97599  0.48869  Biso   1.000  C
  H115     1.0000 0.57601  0.11829  0.43240  Biso   1.000  H
  H116     1.0000 0.60928  0.15250  0.44440  Biso   1.000  H
  C112     1.0000 0.71002  0.21052  0.43298  Biso   1.000  C
  H117     1.0000 0.84066  0.28527  0.43810  Biso   1.000  H
  H118     1.0000 0.77299  0.25699  0.44790  Biso   1.000  H
  C113     1.0000 0.93849  0.18351  0.44948  Biso   1.000  C
  C114     1.0000 0.90667  0.77187  0.52654  Biso   1.000  C
  C115     1.0000 0.79731  0.81188  0.53102  Biso   1.000  C
  H119     1.0000 0.22641  0.05181  0.44220  Biso   1.000  H
  N17      1.0000 0.31450  0.13269  0.45204  Biso   1.000  N
  H120     1.0000 0.24380  0.07261  0.47110  Biso   1.000  H
  C116     1.0000 0.18191  0.92711  0.49641  Biso   1.000  C
  C117     1.0000 0.09433  0.93491  0.49615  Biso   1.000  C
  C118     1.0000 0.24351  0.04547  0.49266  Biso   1.000  C
  C119     1.0000 0.14919  0.04127  0.49289  Biso   1.000  C
  H121     1.0000 0.70242  0.26139  0.43160  Biso   1.000  H
  H122     1.0000 0.72429  0.19251  0.42610  Biso   1.000  H
  H123     1.0000 0.94817  0.17457  0.44220  Biso   1.000  H
  C120     1.0000 0.00730  0.19918  0.45779  Biso   1.000  C
  C121     1.0000 0.91953  0.76213  0.53753  Biso   1.000  C
  H124     1.0000 0.93902  0.76080  0.52130  Biso   1.000  H
  C122     1.0000 0.80812  0.80081  0.54221  Biso   1.000  C
  H125     1.0000 0.75623  0.82882  0.52890  Biso   1.000  H
  C123     1.0000 0.35812  0.20018  0.44352  Biso   1.000  C
  C124     1.0000 0.19804  0.95452  0.50734  Biso   1.000  C
  H126     1.0000 0.18318  0.87629  0.49420  Biso   1.000  H
  C125     1.0000 0.10791  0.95872  0.50711  Biso   1.000  C
  H127     1.0000 0.03819  0.89123  0.49380  Biso   1.000  H
  H128     1.0000 0.29119  0.07488  0.48780  Biso   1.000  H
  C126     1.0000 0.25479  0.07288  0.50359  Biso   1.000  C
  H129     1.0000 0.13140  0.07108  0.48810  Biso   1.000  H
  C127     1.0000 0.15942  0.06508  0.50385  Biso   1.000  C
  C128     1.0000 0.98543  0.18811  0.46898  Biso   1.000  C
  C129     1.0000 0.09157  0.22218  0.45462  Biso   1.000  C
  C130     1.0000 0.98733  0.73813  0.54064  Biso   1.000  C
  C131     1.0000 0.86938  0.77780  0.54538  Biso   1.000  C
  C132     1.0000 0.75497  0.81648  0.55052  Biso   1.000  C
  C133     1.0000 0.36592  0.28820  0.44778  Biso   1.000  C
  C134     1.0000 0.45027  0.21378  0.44112  Biso   1.000  C
  H130     1.0000 0.32200  0.18131  0.43680  Biso   1.000  H
  H131     1.0000 0.21631  0.92511  0.51220  Biso   1.000  H
  C135     1.0000 0.18768  0.02400  0.51131  Biso   1.000  C
  H132     1.0000 0.06032  0.92891  0.51190  Biso   1.000  H
  H133     1.0000 0.30688  0.12369  0.50580  Biso   1.000  H
  H134     1.0000 0.14698  0.10882  0.50620  Biso   1.000  H
  H135     1.0000 0.92741  0.17117  0.47110  Biso   1.000  H
  C136     1.0000 0.04737  0.20158  0.47689  Biso   1.000  C
  C137     1.0000 0.15742  0.23792  0.46247  Biso   1.000  C
  H136     1.0000 0.10571  0.22759  0.44720  Biso   1.000  H
  H137     1.0000 0.01948  0.72999  0.53510  Biso   1.000  H
  N18      1.0000 0.00349  0.72792  0.55050  Biso   1.000  N
  H138     1.0000 0.87812  0.77240  0.55280  Biso   1.000  H
  H139     1.0000 0.77359  0.82541  0.55780  Biso   1.000  H
  N19      1.0000 0.68550  0.81821  0.54796  Biso   1.000  N
  H140     1.0000 0.39799  0.30441  0.45480  Biso   1.000  H
  C138     1.0000 0.41579  0.36242  0.43961  Biso   1.000  C
  N20      1.0000 0.27556  0.27206  0.44950  Biso   1.000  N
  C139     1.0000 0.50051  0.29000  0.43298  Biso   1.000  C
  H141     1.0000 0.44457  0.15930  0.43810  Biso   1.000  H
  H142     1.0000 0.48402  0.22699  0.44790  Biso   1.000  H
  C140     1.0000 0.20163  0.04741  0.52311  Biso   1.000  C
  C141     1.0000 0.13479  0.22812  0.47346  Biso   1.000  C
  C142     1.0000 0.02398  0.18771  0.48869  Biso   1.000  C
  C143     1.0000 0.24920  0.26186  0.45936  Biso   1.000  C
  C144     1.0000 0.07771  0.71179  0.55222  Biso   1.000  C
  C145     1.0000 0.64188  0.84209  0.55648  Biso   1.000  C
  H143     1.0000 0.42087  0.41717  0.44240  Biso   1.000  H
  H144     1.0000 0.38314  0.34782  0.43270  Biso   1.000  H
  C146     1.0000 0.51000  0.37562  0.43758  Biso   1.000  C
  H145     1.0000 0.55900  0.29760  0.43160  Biso   1.000  H
  H146     1.0000 0.46816  0.27567  0.42610  Biso   1.000  H
  C147     1.0000 0.18812  0.98539  0.53102  Biso   1.000  C
  C148     1.0000 0.22810  0.13476  0.52654  Biso   1.000  C
  H147     1.0000 0.17821  0.23919  0.47870  Biso   1.000  H
  C149     1.0000 0.95450  0.19798  0.49266  Biso   1.000  C
  C150     1.0000 0.95871  0.10789  0.49289  Biso   1.000  C
  C151     1.0000 0.07288  0.25479  0.49641  Biso   1.000  C
  C152     1.0000 0.06507  0.15937  0.49615  Biso   1.000  C
  H148     1.0000 0.28948  0.27000  0.46490  Biso   1.000  H
  C153     1.0000 0.15793  0.79981  0.55648  Biso   1.000  C
  H149     1.0000 0.09357  0.69558  0.54520  Biso   1.000  H
  C154     1.0000 0.05340  0.63763  0.56039  Biso   1.000  C
  C155     1.0000 0.63411  0.92231  0.55222  Biso   1.000  C
  C156     1.0000 0.54970  0.76353  0.55888  Biso   1.000  C
  H150     1.0000 0.67797  0.85929  0.56320  Biso   1.000  H
  H151     1.0000 0.54226  0.42397  0.43240  Biso   1.000  H
  H152     1.0000 0.54318  0.39070  0.44440  Biso   1.000  H
  H153     1.0000 0.17118  0.92737  0.52890  Biso   1.000  H
  C157     1.0000 0.19917  0.00726  0.54221  Biso   1.000  C
  C158     1.0000 0.23790  0.15737  0.53753  Biso   1.000  C
  H154     1.0000 0.23918  0.17817  0.52130  Biso   1.000  H
  H155     1.0000 0.92509  0.21632  0.48780  Biso   1.000  H
  C159     1.0000 0.92712  0.18191  0.50359  Biso   1.000  C
  H156     1.0000 0.92890  0.06028  0.48810  Biso   1.000  H
  C160     1.0000 0.93488  0.09428  0.50385  Biso   1.000  C
  C161     1.0000 0.04553  0.24352  0.50734  Biso   1.000  C
  H157     1.0000 0.12370  0.30687  0.49420  Biso   1.000  H
  C162     1.0000 0.04126  0.14917  0.50711  Biso   1.000  C
  H158     1.0000 0.10877  0.14697  0.49380  Biso   1.000  H
  N21      1.0000 0.18180  0.86729  0.54796  Biso   1.000  N
  C163     1.0000 0.23648  0.78620  0.55888  Biso   1.000  C
  H159     1.0000 0.14069  0.81868  0.56320  Biso   1.000  H
  H160     1.0000 0.00370  0.58282  0.55760  Biso   1.000  H
  H161     1.0000 0.03531  0.65217  0.56730  Biso   1.000  H
  C164     1.0000 0.13440  0.62443  0.56242  Biso   1.000  C
  H162     1.0000 0.60201  0.90637  0.54520  Biso   1.000  H
  C165     1.0000 0.58417  0.94658  0.56039  Biso   1.000  C
  N22      1.0000 0.72441  0.99653  0.55050  Biso   1.000  N
  C166     1.0000 0.49949  0.78947  0.56702  Biso   1.000  C
  H163     1.0000 0.55538  0.71472  0.56190  Biso   1.000  H
  H164     1.0000 0.51599  0.74299  0.55210  Biso   1.000  H
  C167     1.0000 0.18351  0.93851  0.55052  Biso   1.000  C
  C168     1.0000 0.22224  0.09162  0.54538  Biso   1.000  C
  C169     1.0000 0.26187  0.24919  0.54064  Biso   1.000  C
  C170     1.0000 0.97600  0.16370  0.51131  Biso   1.000  C
  H165     1.0000 0.87630  0.18317  0.50580  Biso   1.000  H
  H166     1.0000 0.89119  0.03820  0.50620  Biso   1.000  H
  H167     1.0000 0.07492  0.29120  0.51220  Biso   1.000  H
  H168     1.0000 0.07111  0.13136  0.51190  Biso   1.000  H
  C171     1.0000 0.21050  0.70998  0.56702  Biso   1.000  C
  H169     1.0000 0.28527  0.84069  0.56190  Biso   1.000  H
  H170     1.0000 0.25702  0.77300  0.55210  Biso   1.000  H
  H171     1.0000 0.11828  0.57602  0.56760  Biso   1.000  H
  H172     1.0000 0.15247  0.60929  0.55560  Biso   1.000  H
  H173     1.0000 0.57913  0.99633  0.55760  Biso   1.000  H
  H174     1.0000 0.61692  0.96472  0.56730  Biso   1.000  H
  C172     1.0000 0.48999  0.86563  0.56242  Biso   1.000  C
  C173     1.0000 0.75079  0.01266  0.54064  Biso   1.000  C
  H175     1.0000 0.44102  0.73859  0.56840  Biso   1.000  H
  H176     1.0000 0.53177  0.80748  0.57390  Biso   1.000  H
  H177     1.0000 0.17460  0.94818  0.55780  Biso   1.000  H
  H178     1.0000 0.22760  0.10569  0.55280  Biso   1.000  H
  H179     1.0000 0.26999  0.28947  0.53510  Biso   1.000  H
  N23      1.0000 0.27213  0.27560  0.55050  Biso   1.000  N
  C174     1.0000 0.95257  0.15417  0.52311  Biso   1.000  C
  H180     1.0000 0.26139  0.70238  0.56840  Biso   1.000  H
  H181     1.0000 0.19249  0.72432  0.57390  Biso   1.000  H
  H182     1.0000 0.45771  0.88170  0.56760  Biso   1.000  H
  H183     1.0000 0.45678  0.84749  0.55560  Biso   1.000  H
  H184     1.0000 0.71052  0.98052  0.53510  Biso   1.000  H
  C175     1.0000 0.84256  0.08048  0.53753  Biso   1.000  C
  C176     1.0000 0.28822  0.36589  0.55222  Biso   1.000  C
  C177     1.0000 0.86519  0.09328  0.52654  Biso   1.000  C
  C178     1.0000 0.01462  0.20271  0.53102  Biso   1.000  C
  C179     1.0000 0.90837  0.13056  0.54538  Biso   1.000  C
  H185     1.0000 0.30438  0.39796  0.54520  Biso   1.000  H
  C180     1.0000 0.36237  0.41577  0.56039  Biso   1.000  C
  C181     1.0000 0.20018  0.35809  0.55648  Biso   1.000  C
  H186     1.0000 0.82180  0.06101  0.52130  Biso   1.000  H
  C182     1.0000 0.99270  0.19191  0.54221  Biso   1.000  C
  H187     1.0000 0.07258  0.24379  0.52890  Biso   1.000  H
  H188     1.0000 0.89428  0.12189  0.55280  Biso   1.000  H
  H189     1.0000 0.41720  0.42090  0.55760  Biso   1.000  H
  H190     1.0000 0.34782  0.38309  0.56730  Biso   1.000  H
  C183     1.0000 0.37558  0.50999  0.56242  Biso   1.000  C
  C184     1.0000 0.21378  0.45031  0.55888  Biso   1.000  C
  H191     1.0000 0.18133  0.32201  0.56320  Biso   1.000  H
  N24      1.0000 0.13269  0.31448  0.54796  Biso   1.000  N
  C185     1.0000 0.06151  0.24499  0.55052  Biso   1.000  C
  H192     1.0000 0.42400  0.54227  0.56760  Biso   1.000  H
  H193     1.0000 0.39068  0.54320  0.55560  Biso   1.000  H
  C186     1.0000 0.28999  0.50052  0.56702  Biso   1.000  C
  H194     1.0000 0.15928  0.44458  0.56190  Biso   1.000  H
  H195     1.0000 0.22698  0.48399  0.55210  Biso   1.000  H
  H196     1.0000 0.05180  0.22639  0.55780  Biso   1.000  H
  H197     1.0000 0.29758  0.55901  0.56840  Biso   1.000  H
  H198     1.0000 0.27567  0.46818  0.57390  Biso   1.000  H
  C187     1.0000 0.53314  0.49213  0.40718  Biso   1.000  C
  C188     1.0000 0.53660  0.53521  0.39623  Biso   1.000  C
  H199     1.0000 0.53536  0.53087  0.41310  Biso   1.000  H
  H200     1.0000 0.47711  0.43631  0.40780  Biso   1.000  H
  C189     1.0000 0.60809  0.47479  0.40838  Biso   1.000  C
  C190     1.0000 0.53639  0.47819  0.38682  Biso   1.000  C
  H201     1.0000 0.59069  0.59382  0.39590  Biso   1.000  H
  N25      1.0000 0.45987  0.54588  0.39542  Biso   1.000  N
  C191     1.0000 0.60660  0.41671  0.39948  Biso   1.000  C
  H202     1.0000 0.66411  0.53080  0.40820  Biso   1.000  H
  H203     1.0000 0.60372  0.44652  0.41540  Biso   1.000  H
  N26      1.0000 0.54858  0.52600  0.37642  Biso   1.000  N
  C192     1.0000 0.61359  0.45992  0.38821  Biso   1.000  C
  H204     1.0000 0.47968  0.42171  0.38670  Biso   1.000  H
  C193     1.0000 0.47468  0.62550  0.39479  Biso   1.000  C
  H205     1.0000 0.55159  0.35983  0.39980  Biso   1.000  H
  H206     1.0000 0.65599  0.40577  0.40040  Biso   1.000  H
  C194     1.0000 0.48639  0.49173  0.36947  Biso   1.000  C
  H207     1.0000 0.66991  0.51527  0.38770  Biso   1.000  H
  H208     1.0000 0.61152  0.42031  0.38240  Biso   1.000  H
  C195     1.0000 0.40220  0.64650  0.39467  Biso   1.000  C
  H209     1.0000 0.53339  0.67211  0.39440  Biso   1.000  H
  C196     1.0000 0.48851  0.52807  0.35853  Biso   1.000  C
  H210     1.0000 0.43520  0.43911  0.37140  Biso   1.000  H
  C197     1.0000 0.31309  0.57802  0.39466  Biso   1.000  C
  C198     1.0000 0.42202  0.73512  0.39466  Biso   1.000  C
  C199     1.0000 0.42341  0.47779  0.35093  Biso   1.000  C
  C200     1.0000 0.55620  0.61403  0.35537  Biso   1.000  C
  C201     1.0000 0.24434  0.59782  0.39467  Biso   1.000  C
  H211     1.0000 0.29971  0.51880  0.39460  Biso   1.000  H
  H212     1.0000 0.48116  0.78087  0.39460  Biso   1.000  H
  C202     1.0000 0.35349  0.75573  0.39467  Biso   1.000  C
  C203     1.0000 0.42509  0.50773  0.34026  Biso   1.000  C
  H213     1.0000 0.37689  0.42218  0.35300  Biso   1.000  H
  C204     1.0000 0.55979  0.64637  0.34504  Biso   1.000  C
  H214     1.0000 0.59958  0.64950  0.36050  Biso   1.000  H
  C205     1.0000 0.15077  0.52527  0.39479  Biso   1.000  C
  C206     1.0000 0.26492  0.68691  0.39466  Biso   1.000  C
  C207     1.0000 0.37448  0.84922  0.39479  Biso   1.000  C
  C208     1.0000 0.35820  0.45352  0.33210  Biso   1.000  C
  C209     1.0000 0.49237  0.59169  0.33725  Biso   1.000  C
  C210     1.0000 0.63147  0.73579  0.34181  Biso   1.000  C
  N27      1.0000 0.08599  0.54007  0.39542  Biso   1.000  N
  H215     1.0000 0.13870  0.46659  0.39440  Biso   1.000  H
  H216     1.0000 0.21912  0.70032  0.39460  Biso   1.000  H
  H217     1.0000 0.32791  0.86129  0.39440  Biso   1.000  H
  N28      1.0000 0.45410  0.91397  0.39542  Biso   1.000  N
  N29      1.0000 0.29710  0.37430  0.33442  Biso   1.000  N
  H218     1.0000 0.36002  0.47679  0.32520  Biso   1.000  H
  H219     1.0000 0.49392  0.61269  0.33020  Biso   1.000  H
  H220     1.0000 0.67082  0.77280  0.34720  Biso   1.000  H
  N30      1.0000 0.64210  0.76433  0.33229  Biso   1.000  N
  C211     1.0000 0.99861  0.46339  0.39623  Biso   1.000  C
  C212     1.0000 0.46478  0.00139  0.39623  Biso   1.000  C
  C213     1.0000 0.23320  0.32122  0.32586  Biso   1.000  C
  C214     1.0000 0.71660  0.85582  0.33034  Biso   1.000  C
  C215     1.0000 0.94177  0.46359  0.38682  Biso   1.000  C
  H221     1.0000 0.00311  0.40931  0.39590  Biso   1.000  H
  C216     1.0000 0.95903  0.46692  0.40718  Biso   1.000  C
  C217     1.0000 0.52183  0.05821  0.38682  Biso   1.000  C
  H222     1.0000 0.40624  0.99693  0.39590  Biso   1.000  H
  C218     1.0000 0.50791  0.04100  0.40718  Biso   1.000  C
  C219     1.0000 0.24932  0.24640  0.32229  Biso   1.000  C
  C220     1.0000 0.13922  0.28341  0.33034  Biso   1.000  C
  H223     1.0000 0.24099  0.35943  0.31950  Biso   1.000  H
  H224     1.0000 0.74850  0.88150  0.33720  Biso   1.000  H
  C221     1.0000 0.77969  0.85009  0.32197  Biso   1.000  C
  C222     1.0000 0.67879  0.91197  0.32586  Biso   1.000  C
  N31      1.0000 0.97737  0.45138  0.37642  Biso   1.000  N
  C223     1.0000 0.84628  0.38637  0.38821  Biso   1.000  C
  H225     1.0000 0.94199  0.52027  0.38670  Biso   1.000  H
  H226     1.0000 0.99552  0.46459  0.41310  Biso   1.000  H
  H227     1.0000 0.95917  0.52287  0.40780  Biso   1.000  H
  C224     1.0000 0.86672  0.39190  0.40838  Biso   1.000  C
  N32      1.0000 0.47399  0.02260  0.37642  Biso   1.000  N
  C225     1.0000 0.54012  0.15370  0.38821  Biso   1.000  C
  H228     1.0000 0.57832  0.05801  0.38670  Biso   1.000  H
  H229     1.0000 0.46908  0.00446  0.41310  Biso   1.000  H
  H230     1.0000 0.56371  0.04080  0.40780  Biso   1.000  H
  C226     1.0000 0.52518  0.13329  0.40838  Biso   1.000  C
  C227     1.0000 0.18152  0.18378  0.31386  Biso   1.000  C
  H231     1.0000 0.24709  0.21212  0.32870  Biso   1.000  H
  H232     1.0000 0.30859  0.27207  0.31920  Biso   1.000  H
  C228     1.0000 0.07043  0.22032  0.32197  Biso   1.000  C
  H233     1.0000 0.13304  0.25153  0.33720  Biso   1.000  H
  N33      1.0000 0.12218  0.35789  0.33229  Biso   1.000  N
  H234     1.0000 0.80620  0.81741  0.32520  Biso   1.000  H
  H235     1.0000 0.74601  0.81761  0.31550  Biso   1.000  H
  C229     1.0000 0.85290  0.94211  0.31855  Biso   1.000  C
  H236     1.0000 0.64063  0.88163  0.31950  Biso   1.000  H
  N34      1.0000 0.62569  0.92277  0.33442  Biso   1.000  N
  C230     1.0000 0.75357  0.00286  0.32229  Biso   1.000  C
  C231     1.0000 0.00530  0.51360  0.36947  Biso   1.000  C
  C232     1.0000 0.81011  0.39337  0.39948  Biso   1.000  C
  H237     1.0000 0.84540  0.33009  0.38770  Biso   1.000  H
  H238     1.0000 0.80883  0.38850  0.38240  Biso   1.000  H
  H239     1.0000 0.86672  0.33589  0.40820  Biso   1.000  H
  H240     1.0000 0.84282  0.39630  0.41540  Biso   1.000  H
  C233     1.0000 0.50834  0.99473  0.36947  Biso   1.000  C
  C234     1.0000 0.58329  0.18991  0.39948  Biso   1.000  C
  H241     1.0000 0.48471  0.15457  0.38770  Biso   1.000  H
  H242     1.0000 0.57971  0.19118  0.38240  Biso   1.000  H
  H243     1.0000 0.46922  0.13329  0.40820  Biso   1.000  H
  H244     1.0000 0.55346  0.15717  0.41540  Biso   1.000  H
  C235     1.0000 0.08920  0.14710  0.31855  Biso   1.000  C
  H245     1.0000 0.18702  0.21592  0.30710  Biso   1.000  H
  H246     1.0000 0.19251  0.13530  0.31220  Biso   1.000  H
  H247     1.0000 0.01119  0.19378  0.32520  Biso   1.000  H
  H248     1.0000 0.07162  0.25400  0.31550  Biso   1.000  H
  C236     1.0000 0.10432  0.36850  0.34181  Biso   1.000  C
  H249     1.0000 0.88982  0.97252  0.32490  Biso   1.000  H
  H250     1.0000 0.89038  0.93611  0.31310  Biso   1.000  H
  C237     1.0000 0.81620  0.99773  0.31386  Biso   1.000  C
  C238     1.0000 0.54648  0.90470  0.33210  Biso   1.000  C
  H251     1.0000 0.78789  0.03500  0.32870  Biso   1.000  H
  H252     1.0000 0.72787  0.03647  0.31920  Biso   1.000  H
  C239     1.0000 0.03961  0.51153  0.35853  Biso   1.000  C
  H253     1.0000 0.00388  0.56481  0.37140  Biso   1.000  H
  H254     1.0000 0.80822  0.44838  0.39980  Biso   1.000  H
  H255     1.0000 0.74980  0.34402  0.40040  Biso   1.000  H
  C240     1.0000 0.47188  0.96038  0.35853  Biso   1.000  C
  H256     1.0000 0.56090  0.99613  0.37140  Biso   1.000  H
  H257     1.0000 0.64018  0.19178  0.39980  Biso   1.000  H
  H258     1.0000 0.59420  0.25019  0.40040  Biso   1.000  H
  H259     1.0000 0.08272  0.11023  0.32490  Biso   1.000  H
  H260     1.0000 0.04569  0.10963  0.31310  Biso   1.000  H
  C241     1.0000 0.08657  0.44018  0.34504  Biso   1.000  C
  H261     1.0000 0.10201  0.32922  0.34720  Biso   1.000  H
  H262     1.0000 0.78413  0.97112  0.30710  Biso   1.000  H
  H263     1.0000 0.86471  0.05721  0.31220  Biso   1.000  H
  C242     1.0000 0.49230  0.91737  0.34026  Biso   1.000  C
  H264     1.0000 0.52322  0.88323  0.32520  Biso   1.000  H
  C243     1.0000 0.05777  0.44378  0.35537  Biso   1.000  C
  C244     1.0000 0.05442  0.57662  0.35093  Biso   1.000  C
  C245     1.0000 0.52217  0.94558  0.35093  Biso   1.000  C
  C246     1.0000 0.38597  0.94218  0.35537  Biso   1.000  C
  C247     1.0000 0.09932  0.50760  0.33725  Biso   1.000  C
  C248     1.0000 0.40831  0.90070  0.33725  Biso   1.000  C
  H265     1.0000 0.04986  0.40037  0.36050  Biso   1.000  H
  C249     1.0000 0.08260  0.57488  0.34026  Biso   1.000  C
  H266     1.0000 0.04532  0.62310  0.35300  Biso   1.000  H
  H267     1.0000 0.57778  0.95472  0.35300  Biso   1.000  H
  C250     1.0000 0.35360  0.91337  0.34504  Biso   1.000  C
  H268     1.0000 0.35049  0.95011  0.36050  Biso   1.000  H
  H269     1.0000 0.11880  0.50613  0.33020  Biso   1.000  H
  H270     1.0000 0.38731  0.88123  0.33020  Biso   1.000  H
  C251     1.0000 0.09531  0.64177  0.33210  Biso   1.000  C
  C252     1.0000 0.26420  0.89570  0.34181  Biso   1.000  C
  H271     1.0000 0.11679  0.64003  0.32520  Biso   1.000  H
  N35      1.0000 0.07720  0.70292  0.33442  Biso   1.000  N
  N36      1.0000 0.23569  0.87783  0.33229  Biso   1.000  N
  H272     1.0000 0.22717  0.89797  0.34720  Biso   1.000  H
  C253     1.0000 0.08801  0.76680  0.32586  Biso   1.000  C
  C254     1.0000 0.14420  0.86082  0.33034  Biso   1.000  C
  H273     1.0000 0.11841  0.75900  0.31950  Biso   1.000  H
  C255     1.0000 0.99710  0.75073  0.32229  Biso   1.000  C
  H274     1.0000 0.11849  0.86703  0.33720  Biso   1.000  H
  C256     1.0000 0.14988  0.92958  0.32197  Biso   1.000  C
  C257     1.0000 0.00228  0.81848  0.31386  Biso   1.000  C
  H275     1.0000 0.96500  0.75293  0.32870  Biso   1.000  H
  H276     1.0000 0.96350  0.69138  0.31920  Biso   1.000  H
  H277     1.0000 0.18260  0.98879  0.32520  Biso   1.000  H
  H278     1.0000 0.18237  0.92837  0.31550  Biso   1.000  H
  C258     1.0000 0.05789  0.91077  0.31855  Biso   1.000  C
  H279     1.0000 0.02888  0.81301  0.30710  Biso   1.000  H
  H280     1.0000 0.94278  0.80748  0.31220  Biso   1.000  H
  H281     1.0000 0.02749  0.91731  0.32490  Biso   1.000  H
  H282     1.0000 0.06390  0.95432  0.31310  Biso   1.000  H
  C259     1.0000 0.69792  0.54981  0.31798  Biso   1.000  C
  C260     1.0000 0.69509  0.60929  0.30869  Biso   1.000  C
  C261     1.0000 0.63571  0.45298  0.31558  Biso   1.000  C
  H283     1.0000 0.75819  0.56028  0.31870  Biso   1.000  H
  H284     1.0000 0.68118  0.56541  0.32490  Biso   1.000  H
  C262     1.0000 0.60003  0.59022  0.30690  Biso   1.000  C
  H285     1.0000 0.73311  0.67157  0.31060  Biso   1.000  H
  H286     1.0000 0.71762  0.59809  0.30190  Biso   1.000  H
  C263     1.0000 0.54250  0.43278  0.31323  Biso   1.000  C
  H287     1.0000 0.63492  0.41791  0.32180  Biso   1.000  H
  H288     1.0000 0.65799  0.43551  0.30930  Biso   1.000  H
  C264     1.0000 0.54100  0.49099  0.30395  Biso   1.000  C
  H289     1.0000 0.57791  0.60349  0.31360  Biso   1.000  H
  N37      1.0000 0.59930  0.64570  0.29797  Biso   1.000  N
  H290     1.0000 0.51717  0.44298  0.31980  Biso   1.000  H
  H291     1.0000 0.50611  0.37050  0.31120  Biso   1.000  H
  N38      1.0000 0.44933  0.47212  0.30215  Biso   1.000  N
  H292     1.0000 0.56339  0.47812  0.29720  Biso   1.000  H
  C265     1.0000 0.57562  0.70078  0.30033  Biso   1.000  C
  C266     1.0000 0.42433  0.46092  0.29236  Biso   1.000  C
  C267     1.0000 0.56591  0.75933  0.29226  Biso   1.000  C
  H293     1.0000 0.56308  0.70538  0.30770  Biso   1.000  H
  C268     1.0000 0.33819  0.45218  0.28878  Biso   1.000  C
  H294     1.0000 0.46140  0.45792  0.28710  Biso   1.000  H
  C269     1.0000 0.56869  0.74779  0.28123  Biso   1.000  C
  C270     1.0000 0.55389  0.82908  0.29618  Biso   1.000  C
  C271     1.0000 0.32328  0.44998  0.27786  Biso   1.000  C
  C272     1.0000 0.27521  0.44612  0.29618  Biso   1.000  C
  C273     1.0000 0.55991  0.80161  0.27367  Biso   1.000  C
  H295     1.0000 0.57689  0.70172  0.27870  Biso   1.000  H
  C274     1.0000 0.54783  0.88603  0.28878  Biso   1.000  C
  H296     1.0000 0.55004  0.83662  0.30370  Biso   1.000  H
  C275     1.0000 0.24171  0.44011  0.27367  Biso   1.000  C
  H297     1.0000 0.36690  0.45499  0.27300  Biso   1.000  H
  C276     1.0000 0.19338  0.43411  0.29226  Biso   1.000  C
  H298     1.0000 0.28661  0.44998  0.30370  Biso   1.000  H
  C277     1.0000 0.55001  0.87329  0.27786  Biso   1.000  C
  C278     1.0000 0.55581  0.78740  0.26165  Biso   1.000  C
  C279     1.0000 0.53910  0.96338  0.29236  Biso   1.000  C
  C280     1.0000 0.23162  0.44418  0.26165  Biso   1.000  C
  C281     1.0000 0.17910  0.43131  0.28123  Biso   1.000  C
  C282     1.0000 0.12522  0.42438  0.30033  Biso   1.000  C
  H299     1.0000 0.54500  0.91190  0.27300  Biso   1.000  H
  C283     1.0000 0.60383  0.85942  0.25462  Biso   1.000  C
  C284     1.0000 0.60783  0.75573  0.25697  Biso   1.000  C
  C285     1.0000 0.49902  0.70572  0.25640  Biso   1.000  C
  C286     1.0000 0.49970  0.80628  0.25512  Biso   1.000  C
  N39      1.0000 0.52792  0.97719  0.30215  Biso   1.000  N
  H300     1.0000 0.54210  0.00346  0.28710  Biso   1.000  H
  C287     1.0000 0.25560  0.39617  0.25462  Biso   1.000  C
  C288     1.0000 0.30659  0.50033  0.25512  Biso   1.000  C
  C289     1.0000 0.14786  0.39217  0.25697  Biso   1.000  C
  C290     1.0000 0.20672  0.50100  0.25640  Biso   1.000  C
  H301     1.0000 0.12481  0.42311  0.27870  Biso   1.000  H
  H302     1.0000 0.14228  0.43691  0.30770  Biso   1.000  H
  N40      1.0000 0.04639  0.40070  0.29797  Biso   1.000  N
  H303     1.0000 0.63516  0.91597  0.25770  Biso   1.000  H
  C291     1.0000 0.60778  0.85209  0.24303  Biso   1.000  C
  C292     1.0000 0.60377  0.74439  0.24538  Biso   1.000  C
  H304     1.0000 0.64391  0.74219  0.26130  Biso   1.000  H
  H305     1.0000 0.45919  0.65770  0.26070  Biso   1.000  H
  C293     1.0000 0.49967  0.69338  0.24488  Biso   1.000  C
  C294     1.0000 0.49897  0.79327  0.24360  Biso   1.000  C
  H306     1.0000 0.46428  0.82668  0.25830  Biso   1.000  H
  C295     1.0000 0.50901  0.05001  0.30395  Biso   1.000  C
  H307     1.0000 0.28082  0.36483  0.25770  Biso   1.000  H
  C296     1.0000 0.24431  0.39217  0.24303  Biso   1.000  C
  C297     1.0000 0.29427  0.50100  0.24360  Biso   1.000  C
  H308     1.0000 0.36237  0.53567  0.25830  Biso   1.000  H
  C298     1.0000 0.14057  0.39617  0.24538  Biso   1.000  C
  H309     1.0000 0.09829  0.35609  0.26130  Biso   1.000  H
  H310     1.0000 0.19850  0.54081  0.26070  Biso   1.000  H
  C299     1.0000 0.19374  0.50033  0.24488  Biso   1.000  C
  C300     1.0000 0.99018  0.39997  0.30690  Biso   1.000  C
  C301     1.0000 0.55578  0.76840  0.23835  Biso   1.000  C
  H311     1.0000 0.64391  0.90170  0.23870  Biso   1.000  H
  H312     1.0000 0.63518  0.71919  0.24230  Biso   1.000  H
  H313     1.0000 0.46429  0.63763  0.24170  Biso   1.000  H
  H314     1.0000 0.45918  0.80148  0.23930  Biso   1.000  H
  C302     1.0000 0.40978  0.00980  0.30690  Biso   1.000  C
  C303     1.0000 0.56720  0.10969  0.31323  Biso   1.000  C
  H315     1.0000 0.52191  0.08528  0.29720  Biso   1.000  H
  C304     1.0000 0.21256  0.44418  0.23835  Biso   1.000  C
  H316     1.0000 0.25780  0.35609  0.23870  Biso   1.000  H
  H317     1.0000 0.34230  0.54081  0.23930  Biso   1.000  H
  H318     1.0000 0.08401  0.36483  0.24230  Biso   1.000  H
  H319     1.0000 0.17330  0.53567  0.24170  Biso   1.000  H
  H320     1.0000 0.02562  0.42211  0.31360  Biso   1.000  H
  C305     1.0000 0.91416  0.30488  0.30869  Biso   1.000  C
  C306     1.0000 0.94998  0.45899  0.30395  Biso   1.000  C
  C307     1.0000 0.55992  0.75833  0.22633  Biso   1.000  C
  N41      1.0000 0.35430  0.95358  0.29797  Biso   1.000  N
  H321     1.0000 0.39647  0.97439  0.31360  Biso   1.000  H
  C308     1.0000 0.39074  0.08582  0.30869  Biso   1.000  C
  C309     1.0000 0.54700  0.18271  0.31558  Biso   1.000  C
  H322     1.0000 0.55703  0.07421  0.31980  Biso   1.000  H
  H323     1.0000 0.62946  0.13556  0.31120  Biso   1.000  H
  C310     1.0000 0.19840  0.44011  0.22633  Biso   1.000  C
  H324     1.0000 0.93847  0.26687  0.31060  Biso   1.000  H
  H325     1.0000 0.88052  0.28241  0.30190  Biso   1.000  H
  C311     1.0000 0.85189  0.30208  0.31798  Biso   1.000  C
  N42      1.0000 0.02280  0.55068  0.30215  Biso   1.000  N
  C312     1.0000 0.89029  0.45752  0.31323  Biso   1.000  C
  H326     1.0000 0.91470  0.43658  0.29720  Biso   1.000  H
  C313     1.0000 0.55001  0.67671  0.22214  Biso   1.000  C
  C314     1.0000 0.56868  0.82088  0.21877  Biso   1.000  C
  C315     1.0000 0.29922  0.87483  0.30033  Biso   1.000  C
  H327     1.0000 0.32838  0.06148  0.31060  Biso   1.000  H
  H328     1.0000 0.40191  0.11949  0.30190  Biso   1.000  H
  C316     1.0000 0.45018  0.14810  0.31798  Biso   1.000  C
  H329     1.0000 0.58210  0.21698  0.32180  Biso   1.000  H
  H330     1.0000 0.56448  0.22252  0.30930  Biso   1.000  H
  C317     1.0000 0.12670  0.44998  0.22214  Biso   1.000  C
  C318     1.0000 0.25221  0.43131  0.21877  Biso   1.000  C
  H331     1.0000 0.80212  0.24180  0.31870  Biso   1.000  H
  H332     1.0000 0.88423  0.31882  0.32490  Biso   1.000  H
  C319     1.0000 0.81728  0.36429  0.31558  Biso   1.000  C
  C320     1.0000 0.03657  0.57568  0.29236  Biso   1.000  C
  H333     1.0000 0.92579  0.48279  0.31980  Biso   1.000  H
  H334     1.0000 0.86443  0.49393  0.31120  Biso   1.000  H
  C321     1.0000 0.54780  0.66177  0.21122  Biso   1.000  C
  H335     1.0000 0.54501  0.63310  0.22700  Biso   1.000  H
  C322     1.0000 0.56593  0.80661  0.20774  Biso   1.000  C
  H336     1.0000 0.57691  0.87523  0.22130  Biso   1.000  H
  C323     1.0000 0.24068  0.80661  0.29226  Biso   1.000  C
  H337     1.0000 0.29458  0.85769  0.30770  Biso   1.000  H
  H338     1.0000 0.43968  0.19791  0.31870  Biso   1.000  H
  H339     1.0000 0.43462  0.11582  0.32490  Biso   1.000  H
  C324     1.0000 0.11400  0.45218  0.21122  Biso   1.000  C
  H340     1.0000 0.08808  0.45499  0.22700  Biso   1.000  H
  H341     1.0000 0.29830  0.42311  0.22130  Biso   1.000  H
  C325     1.0000 0.24073  0.43411  0.20774  Biso   1.000  C
  H342     1.0000 0.78297  0.36510  0.32180  Biso   1.000  H
  H343     1.0000 0.77750  0.34202  0.30930  Biso   1.000  H
  C326     1.0000 0.11398  0.66177  0.28878  Biso   1.000  C
  H344     1.0000 0.99649  0.53861  0.28710  Biso   1.000  H
  C327     1.0000 0.53911  0.57568  0.20764  Biso   1.000  C
  C328     1.0000 0.55389  0.72479  0.20382  Biso   1.000  C
  C329     1.0000 0.57561  0.87483  0.19967  Biso   1.000  C
  C330     1.0000 0.17090  0.72479  0.29618  Biso   1.000  C
  C331     1.0000 0.25221  0.82088  0.28123  Biso   1.000  C
  C332     1.0000 0.03659  0.46092  0.20764  Biso   1.000  C
  C333     1.0000 0.17091  0.44612  0.20382  Biso   1.000  C
  C334     1.0000 0.29916  0.42438  0.19967  Biso   1.000  C
  C335     1.0000 0.12670  0.67671  0.27786  Biso   1.000  C
  N43      1.0000 0.52788  0.55068  0.19785  Biso   1.000  N
  H345     1.0000 0.54211  0.53861  0.21290  Biso   1.000  H
  H346     1.0000 0.54998  0.71339  0.19630  Biso   1.000  H
  H347     1.0000 0.56311  0.85769  0.19230  Biso   1.000  H
  N44      1.0000 0.59928  0.95358  0.20203  Biso   1.000  N
  H348     1.0000 0.16340  0.71339  0.30370  Biso   1.000  H
  C336     1.0000 0.19841  0.75833  0.27367  Biso   1.000  C
  H349     1.0000 0.29832  0.87523  0.27870  Biso   1.000  H
  N45      1.0000 0.02279  0.47212  0.19785  Biso   1.000  N
  H350     1.0000 0.99652  0.45792  0.21290  Biso   1.000  H
  H351     1.0000 0.16337  0.44998  0.19630  Biso   1.000  H
  H352     1.0000 0.29463  0.43691  0.19230  Biso   1.000  H
  N46      1.0000 0.35431  0.40070  0.20203  Biso   1.000  N
  H353     1.0000 0.08809  0.63310  0.27300  Biso   1.000  H
  C337     1.0000 0.50900  0.45899  0.19605  Biso   1.000  C
  C338     1.0000 0.60001  0.00980  0.19310  Biso   1.000  C
  C339     1.0000 0.21262  0.76840  0.26165  Biso   1.000  C
  C340     1.0000 0.94999  0.49099  0.19605  Biso   1.000  C
  C341     1.0000 0.40979  0.39997  0.19310  Biso   1.000  C
  C342     1.0000 0.56723  0.45752  0.18677  Biso   1.000  C
  H354     1.0000 0.52188  0.43658  0.20280  Biso   1.000  H
  C343     1.0000 0.54100  0.05001  0.19605  Biso   1.000  C
  H355     1.0000 0.57792  0.97439  0.18640  Biso   1.000  H
  C344     1.0000 0.69508  0.08582  0.19131  Biso   1.000  C
  C345     1.0000 0.14062  0.74439  0.25462  Biso   1.000  C
  C346     1.0000 0.24430  0.85209  0.25697  Biso   1.000  C
  C347     1.0000 0.29430  0.79327  0.25640  Biso   1.000  C
  C348     1.0000 0.19371  0.69338  0.25512  Biso   1.000  C
  C349     1.0000 0.99019  0.59022  0.19310  Biso   1.000  C
  C350     1.0000 0.89028  0.43278  0.18677  Biso   1.000  C
  H356     1.0000 0.91474  0.47812  0.20280  Biso   1.000  H
  H357     1.0000 0.39649  0.42211  0.18640  Biso   1.000  H
  C351     1.0000 0.39072  0.30488  0.19131  Biso   1.000  C
  C352     1.0000 0.54701  0.36429  0.18442  Biso   1.000  C
  H358     1.0000 0.55700  0.48279  0.18020  Biso   1.000  H
  H359     1.0000 0.62950  0.49393  0.18880  Biso   1.000  H
  N47      1.0000 0.44927  0.97719  0.19785  Biso   1.000  N
  C353     1.0000 0.54249  0.10969  0.18677  Biso   1.000  C
  H360     1.0000 0.56337  0.08528  0.20280  Biso   1.000  H
  H361     1.0000 0.73309  0.06148  0.18940  Biso   1.000  H
  H362     1.0000 0.71758  0.11949  0.19810  Biso   1.000  H
  C354     1.0000 0.69792  0.14810  0.18202  Biso   1.000  C
  H363     1.0000 0.08401  0.71919  0.25770  Biso   1.000  H
  C355     1.0000 0.14790  0.75573  0.24303  Biso   1.000  C
  C356     1.0000 0.25560  0.85942  0.24538  Biso   1.000  C
  H364     1.0000 0.25779  0.90170  0.26130  Biso   1.000  H
  H365     1.0000 0.34229  0.80148  0.26070  Biso   1.000  H
  C357     1.0000 0.30658  0.80628  0.24488  Biso   1.000  C
  C358     1.0000 0.20669  0.70572  0.24360  Biso   1.000  C
  H366     1.0000 0.17334  0.63763  0.25830  Biso   1.000  H
  H367     1.0000 0.02558  0.60349  0.18640  Biso   1.000  H
  N48      1.0000 0.04640  0.64570  0.20203  Biso   1.000  N
  C359     1.0000 0.91420  0.60929  0.19131  Biso   1.000  C
  C360     1.0000 0.81728  0.45298  0.18442  Biso   1.000  C
  H368     1.0000 0.92581  0.44298  0.18020  Biso   1.000  H
  H369     1.0000 0.86439  0.37050  0.18880  Biso   1.000  H
  H370     1.0000 0.32840  0.26687  0.18940  Biso   1.000  H
  H371     1.0000 0.40189  0.28241  0.19810  Biso   1.000  H
  C361     1.0000 0.45018  0.30208  0.18202  Biso   1.000  C
  H372     1.0000 0.58212  0.36510  0.17820  Biso   1.000  H
  H373     1.0000 0.56452  0.34202  0.19070  Biso   1.000  H
  C362     1.0000 0.42429  0.96338  0.20764  Biso   1.000  C
  C363     1.0000 0.63571  0.18271  0.18442  Biso   1.000  C
  H374     1.0000 0.51718  0.07421  0.18020  Biso   1.000  H
  H375     1.0000 0.50610  0.13556  0.18880  Biso   1.000  H
  H376     1.0000 0.75823  0.19791  0.18130  Biso   1.000  H
  H377     1.0000 0.68121  0.11582  0.17510  Biso   1.000  H
  C364     1.0000 0.23160  0.78740  0.23835  Biso   1.000  C
  H378     1.0000 0.09829  0.74219  0.23870  Biso   1.000  H
  H379     1.0000 0.28081  0.91597  0.24230  Biso   1.000  H
  H380     1.0000 0.36241  0.82668  0.24170  Biso   1.000  H
  H381     1.0000 0.19851  0.65770  0.23930  Biso   1.000  H
  C365     1.0000 0.12517  0.70078  0.19967  Biso   1.000  C
  H382     1.0000 0.93847  0.67157  0.18940  Biso   1.000  H
  H383     1.0000 0.88047  0.59809  0.19810  Biso   1.000  H
  C366     1.0000 0.85189  0.54981  0.18202  Biso   1.000  C
  H384     1.0000 0.78299  0.41791  0.17820  Biso   1.000  H
  H385     1.0000 0.77753  0.43551  0.19070  Biso   1.000  H
  H386     1.0000 0.43968  0.24180  0.18130  Biso   1.000  H
  H387     1.0000 0.43459  0.31882  0.17510  Biso   1.000  H
  C367     1.0000 0.33820  0.88603  0.21122  Biso   1.000  C
  H388     1.0000 0.46136  0.00346  0.21290  Biso   1.000  H
  H389     1.0000 0.63488  0.21698  0.17820  Biso   1.000  H
  H390     1.0000 0.65804  0.22252  0.19070  Biso   1.000  H
  C368     1.0000 0.24170  0.80161  0.22633  Biso   1.000  C
  C369     1.0000 0.19342  0.75933  0.20774  Biso   1.000  C
  H391     1.0000 0.14231  0.70538  0.19230  Biso   1.000  H
  H392     1.0000 0.80208  0.56028  0.18130  Biso   1.000  H
  H393     1.0000 0.88423  0.56541  0.17510  Biso   1.000  H
  C370     1.0000 0.27519  0.82908  0.20382  Biso   1.000  C
  C371     1.0000 0.32328  0.87329  0.22214  Biso   1.000  C
  C372     1.0000 0.17911  0.74779  0.21877  Biso   1.000  C
  H394     1.0000 0.28658  0.83662  0.19630  Biso   1.000  H
  H395     1.0000 0.36690  0.91190  0.22700  Biso   1.000  H
  H396     1.0000 0.12482  0.70172  0.22130  Biso   1.000  H
  C373     1.0000 0.50342  0.15330  0.56576  Biso   1.000  C
  C374     1.0000 0.41079  0.07648  0.56799  Biso   1.000  C
  H397     1.0000 0.53002  0.13790  0.55970  Biso   1.000  H
  H398     1.0000 0.54038  0.16450  0.57220  Biso   1.000  H
  C375     1.0000 0.49992  0.23639  0.56285  Biso   1.000  C
  C376     1.0000 0.36593  0.10042  0.57746  Biso   1.000  C
  H399     1.0000 0.41420  0.02407  0.57000  Biso   1.000  H
  H400     1.0000 0.37490  0.06281  0.56140  Biso   1.000  H
  C377     1.0000 0.45681  0.26139  0.57200  Biso   1.000  C
  H401     1.0000 0.46619  0.22632  0.55610  Biso   1.000  H
  H402     1.0000 0.55988  0.28527  0.56160  Biso   1.000  H
  N49      1.0000 0.27819  0.02567  0.57947  Biso   1.000  N
  H403     1.0000 0.40179  0.11242  0.58410  Biso   1.000  H
  C378     1.0000 0.36241  0.18277  0.57445  Biso   1.000  C
  H404     1.0000 0.45290  0.31328  0.56980  Biso   1.000  H
  H405     1.0000 0.49307  0.27640  0.57860  Biso   1.000  H
  C379     1.0000 0.25990  0.99959  0.58917  Biso   1.000  C
  H406     1.0000 0.32580  0.17030  0.56780  Biso   1.000  H
  N50      1.0000 0.32228  0.20751  0.58325  Biso   1.000  N
  C380     1.0000 0.17618  0.91971  0.59283  Biso   1.000  C
  H407     1.0000 0.30188  0.03260  0.59450  Biso   1.000  H
  C381     1.0000 0.25150  0.20731  0.58103  Biso   1.000  C
  C382     1.0000 0.10443  0.87403  0.58562  Biso   1.000  C
  C383     1.0000 0.17102  0.88790  0.60327  Biso   1.000  C
  H408     1.0000 0.22800  0.19058  0.57400  Biso   1.000  H
  C384     1.0000 0.20349  0.23212  0.58900  Biso   1.000  C
  H409     1.0000 0.10741  0.89570  0.57850  Biso   1.000  H
  C385     1.0000 0.02858  0.79647  0.58900  Biso   1.000  C
  H410     1.0000 0.21857  0.91877  0.60810  Biso   1.000  H
  C386     1.0000 0.09461  0.80888  0.60694  Biso   1.000  C
  C387     1.0000 0.12599  0.23039  0.58562  Biso   1.000  C
  C388     1.0000 0.23521  0.25986  0.59960  Biso   1.000  C
  C389     1.0000 0.02470  0.76480  0.59960  Biso   1.000  C
  C390     1.0000 0.95581  0.74853  0.58103  Biso   1.000  C
  C391     1.0000 0.09171  0.77467  0.61789  Biso   1.000  C
  C392     1.0000 0.08030  0.25646  0.59283  Biso   1.000  C
  H411     1.0000 0.10430  0.21172  0.57850  Biso   1.000  H
  H412     1.0000 0.28722  0.26119  0.60180  Biso   1.000  H
  C393     1.0000 0.19106  0.28567  0.60694  Biso   1.000  C
  H413     1.0000 0.97397  0.71279  0.60180  Biso   1.000  H
  H414     1.0000 0.96258  0.77200  0.57400  Biso   1.000  H
  N51      1.0000 0.88523  0.67771  0.58325  Biso   1.000  N
  H415     1.0000 0.03828  0.72659  0.62030  Biso   1.000  H
  N52      1.0000 0.15731  0.80641  0.62431  Biso   1.000  N
  C394     1.0000 0.11208  0.28307  0.60327  Biso   1.000  C
  C395     1.0000 0.00037  0.26026  0.58917  Biso   1.000  C
  C396     1.0000 0.22532  0.31701  0.61789  Biso   1.000  C
  C397     1.0000 0.82043  0.63763  0.57445  Biso   1.000  C
  C398     1.0000 0.15012  0.76560  0.63502  Biso   1.000  C
  H416     1.0000 0.08118  0.29980  0.60810  Biso   1.000  H
  H417     1.0000 0.96739  0.26926  0.59450  Biso   1.000  H
  N53      1.0000 0.97432  0.25253  0.57947  Biso   1.000  N
  H418     1.0000 0.27336  0.31167  0.62030  Biso   1.000  H
  N54      1.0000 0.19358  0.35088  0.62431  Biso   1.000  N
  C399     1.0000 0.73452  0.63410  0.57746  Biso   1.000  C
  C400     1.0000 0.80458  0.54321  0.57200  Biso   1.000  C
  H419     1.0000 0.84448  0.67418  0.56780  Biso   1.000  H
  H420     1.0000 0.08899  0.71599  0.63600  Biso   1.000  H
  C401     1.0000 0.21412  0.72912  0.63519  Biso   1.000  C
  C402     1.0000 0.17128  0.83228  0.64415  Biso   1.000  C
  C403     1.0000 0.89959  0.26546  0.57746  Biso   1.000  C
  C404     1.0000 0.23440  0.38449  0.63502  Biso   1.000  C
  H421     1.0000 0.71064  0.59822  0.58410  Biso   1.000  H
  C405     1.0000 0.66571  0.58922  0.56799  Biso   1.000  C
  N55      1.0000 0.74747  0.72179  0.57947  Biso   1.000  N
  C406     1.0000 0.73649  0.50013  0.56285  Biso   1.000  C
  H422     1.0000 0.86039  0.54708  0.56980  Biso   1.000  H
  H423     1.0000 0.78332  0.50693  0.57860  Biso   1.000  H
  H424     1.0000 0.19712  0.68391  0.62950  Biso   1.000  H
  H425     1.0000 0.27400  0.77680  0.63360  Biso   1.000  H
  C407     1.0000 0.21259  0.68898  0.64628  Biso   1.000  C
  C408     1.0000 0.17086  0.79067  0.65517  Biso   1.000  C
  H426     1.0000 0.22969  0.88523  0.64290  Biso   1.000  H
  N56      1.0000 0.10193  0.85702  0.64418  Biso   1.000  N
  C409     1.0000 0.81721  0.17957  0.57445  Biso   1.000  C
  H427     1.0000 0.88760  0.28940  0.58410  Biso   1.000  H
  C410     1.0000 0.92349  0.33428  0.56799  Biso   1.000  C
  H428     1.0000 0.28399  0.37302  0.63600  Biso   1.000  H
  C411     1.0000 0.27091  0.48499  0.63519  Biso   1.000  C
  C412     1.0000 0.16772  0.33902  0.64415  Biso   1.000  C
  H429     1.0000 0.60990  0.58582  0.57000  Biso   1.000  H
  H430     1.0000 0.68792  0.62510  0.56140  Biso   1.000  H
  C413     1.0000 0.64989  0.49660  0.56576  Biso   1.000  C
  C414     1.0000 0.73972  0.74013  0.58917  Biso   1.000  C
  H431     1.0000 0.76009  0.53381  0.55610  Biso   1.000  H
  H432     1.0000 0.72543  0.44011  0.56160  Biso   1.000  H
  H433     1.0000 0.15378  0.63790  0.64750  Biso   1.000  H
  H434     1.0000 0.25522  0.66811  0.64630  Biso   1.000  H
  C415     1.0000 0.23470  0.75433  0.65541  Biso   1.000  C
  H435     1.0000 0.11102  0.74259  0.65670  Biso   1.000  H
  H436     1.0000 0.18741  0.83508  0.66090  Biso   1.000  H
  C416     1.0000 0.12607  0.93798  0.64339  Biso   1.000  C
  N57      1.0000 0.79251  0.11482  0.58325  Biso   1.000  N
  C417     1.0000 0.73860  0.19538  0.57200  Biso   1.000  C
  H437     1.0000 0.82971  0.15550  0.56780  Biso   1.000  H
  H438     1.0000 0.97589  0.39010  0.57000  Biso   1.000  H
  H439     1.0000 0.93716  0.31207  0.56140  Biso   1.000  H
  C418     1.0000 0.84668  0.35008  0.56576  Biso   1.000  C
  H440     1.0000 0.31608  0.51319  0.62950  Biso   1.000  H
  H441     1.0000 0.22318  0.49719  0.63360  Biso   1.000  H
  C419     1.0000 0.31100  0.52360  0.64628  Biso   1.000  C
  N58      1.0000 0.14302  0.24492  0.64418  Biso   1.000  N
  C420     1.0000 0.20929  0.38023  0.65517  Biso   1.000  C
  H442     1.0000 0.11478  0.34448  0.64290  Biso   1.000  H
  H443     1.0000 0.60789  0.46999  0.55970  Biso   1.000  H
  H444     1.0000 0.62411  0.45959  0.57220  Biso   1.000  H
  C421     1.0000 0.74351  0.82381  0.59283  Biso   1.000  C
  H445     1.0000 0.73073  0.69812  0.59450  Biso   1.000  H
  H446     1.0000 0.29547  0.80288  0.65460  Biso   1.000  H
  H447     1.0000 0.22998  0.72539  0.66240  Biso   1.000  H
  H448     1.0000 0.18653  0.97932  0.64280  Biso   1.000  H
  C422     1.0000 0.06042  0.97012  0.64342  Biso   1.000  C
  C423     1.0000 0.79272  0.04421  0.58103  Biso   1.000  C
  C424     1.0000 0.76357  0.26346  0.56285  Biso   1.000  C
  H449     1.0000 0.68667  0.13956  0.56980  Biso   1.000  H
  H450     1.0000 0.72363  0.21672  0.57860  Biso   1.000  H
  H451     1.0000 0.86208  0.39210  0.55970  Biso   1.000  H
  H452     1.0000 0.83550  0.37589  0.57220  Biso   1.000  H
  H453     1.0000 0.36205  0.51586  0.64750  Biso   1.000  H
  H454     1.0000 0.33189  0.58708  0.64630  Biso   1.000  H
  C425     1.0000 0.24568  0.48039  0.65541  Biso   1.000  C
  C426     1.0000 0.06200  0.18811  0.64339  Biso   1.000  C
  H455     1.0000 0.25744  0.36842  0.65670  Biso   1.000  H
  H456     1.0000 0.16488  0.35229  0.66090  Biso   1.000  H
  C427     1.0000 0.71689  0.82902  0.60327  Biso   1.000  C
  C428     1.0000 0.76960  0.89563  0.58562  Biso   1.000  C
  C429     1.0000 0.96950  0.90990  0.64357  Biso   1.000  C
  C430     1.0000 0.09010  0.05961  0.64357  Biso   1.000  C
  C431     1.0000 0.76792  0.97139  0.58900  Biso   1.000  C
  H457     1.0000 0.80942  0.03740  0.57400  Biso   1.000  H
  H458     1.0000 0.77369  0.23992  0.55610  Biso   1.000  H
  H459     1.0000 0.71468  0.27460  0.56160  Biso   1.000  H
  H460     1.0000 0.19709  0.49259  0.65460  Biso   1.000  H
  H461     1.0000 0.27459  0.50459  0.66240  Biso   1.000  H
  C432     1.0000 0.02990  0.09028  0.64342  Biso   1.000  C
  H462     1.0000 0.02072  0.20718  0.64280  Biso   1.000  H
  H463     1.0000 0.70018  0.78140  0.60810  Biso   1.000  H
  C433     1.0000 0.71429  0.90537  0.60694  Biso   1.000  C
  H464     1.0000 0.78831  0.89263  0.57850  Biso   1.000  H
  C434     1.0000 0.90967  0.93958  0.64342  Biso   1.000  C
  H465     1.0000 0.94900  0.84902  0.64380  Biso   1.000  H
  H466     1.0000 0.15101  0.10002  0.64380  Biso   1.000  H
  C435     1.0000 0.74009  0.97532  0.59960  Biso   1.000  C
  C436     1.0000 0.94039  0.03047  0.64357  Biso   1.000  C
  C437     1.0000 0.68302  0.90830  0.61789  Biso   1.000  C
  C438     1.0000 0.81192  0.87389  0.64339  Biso   1.000  C
  H467     1.0000 0.73880  0.02600  0.60180  Biso   1.000  H
  H468     1.0000 0.90001  0.05101  0.64380  Biso   1.000  H
  H469     1.0000 0.68830  0.96172  0.62030  Biso   1.000  H
  N59      1.0000 0.64911  0.84269  0.62431  Biso   1.000  N
  H470     1.0000 0.79280  0.81348  0.64280  Biso   1.000  H
  N60      1.0000 0.75513  0.89810  0.64418  Biso   1.000  N
  C439     1.0000 0.61552  0.84989  0.63502  Biso   1.000  C
  C440     1.0000 0.66099  0.82868  0.64415  Biso   1.000  C
  H471     1.0000 0.62700  0.91097  0.63600  Biso   1.000  H
  C441     1.0000 0.51496  0.78587  0.63519  Biso   1.000  C
  C442     1.0000 0.61978  0.82908  0.65517  Biso   1.000  C
  H472     1.0000 0.65546  0.77027  0.64290  Biso   1.000  H
  H473     1.0000 0.48679  0.80288  0.62950  Biso   1.000  H
  H474     1.0000 0.50281  0.72599  0.63360  Biso   1.000  H
  C443     1.0000 0.47640  0.78740  0.64628  Biso   1.000  C
  C444     1.0000 0.51959  0.76533  0.65541  Biso   1.000  C
  H475     1.0000 0.63163  0.88903  0.65670  Biso   1.000  H
  H476     1.0000 0.64770  0.81261  0.66090  Biso   1.000  H
  H477     1.0000 0.48409  0.84622  0.64750  Biso   1.000  H
  H478     1.0000 0.41288  0.74479  0.64630  Biso   1.000  H
  H479     1.0000 0.50743  0.70452  0.65460  Biso   1.000  H
  H480     1.0000 0.49542  0.77000  0.66240  Biso   1.000  H
  C445     1.0000 0.47481  0.60809  0.59162  Biso   1.000  C
  C446     1.0000 0.49211  0.53307  0.59282  Biso   1.000  C
  H481     1.0000 0.53083  0.66411  0.59180  Biso   1.000  H
  H482     1.0000 0.44651  0.60369  0.58460  Biso   1.000  H
  C447     1.0000 0.41673  0.60662  0.60052  Biso   1.000  C
  C448     1.0000 0.53522  0.53661  0.60377  Biso   1.000  C
  H483     1.0000 0.53093  0.53541  0.58690  Biso   1.000  H
  H484     1.0000 0.43630  0.47712  0.59220  Biso   1.000  H
  H485     1.0000 0.35983  0.55161  0.60020  Biso   1.000  H
  H486     1.0000 0.40577  0.65597  0.59960  Biso   1.000  H
  C449     1.0000 0.45991  0.61363  0.61179  Biso   1.000  C
  H487     1.0000 0.59380  0.59069  0.60410  Biso   1.000  H
  C450     1.0000 0.47818  0.53641  0.61318  Biso   1.000  C
  N61      1.0000 0.54591  0.45992  0.60458  Biso   1.000  N
  H488     1.0000 0.51531  0.66991  0.61230  Biso   1.000  H
  H489     1.0000 0.42032  0.61149  0.61760  Biso   1.000  H
  H490     1.0000 0.42172  0.47972  0.61330  Biso   1.000  H
  N62      1.0000 0.52598  0.54861  0.62358  Biso   1.000  N
  C451     1.0000 0.62550  0.47472  0.60521  Biso   1.000  C
  C452     1.0000 0.49170  0.48639  0.63053  Biso   1.000  C
  C453     1.0000 0.64651  0.40217  0.60533  Biso   1.000  C
  H491     1.0000 0.67211  0.53341  0.60560  Biso   1.000  H
  H492     1.0000 0.43906  0.43518  0.62860  Biso   1.000  H
  C454     1.0000 0.52811  0.48853  0.64147  Biso   1.000  C
  C455     1.0000 0.57800  0.31308  0.60534  Biso   1.000  C
  C456     1.0000 0.73507  0.42198  0.60534  Biso   1.000  C
  C457     1.0000 0.61398  0.55621  0.64463  Biso   1.000  C
  C458     1.0000 0.47780  0.42338  0.64907  Biso   1.000  C
  H493     1.0000 0.51880  0.29968  0.60540  Biso   1.000  H
  C459     1.0000 0.59779  0.24433  0.60533  Biso   1.000  C
  H494     1.0000 0.78091  0.48119  0.60540  Biso   1.000  H
  C460     1.0000 0.75569  0.35349  0.60533  Biso   1.000  C
  H495     1.0000 0.64949  0.59962  0.63950  Biso   1.000  H
  C461     1.0000 0.64639  0.55981  0.65496  Biso   1.000  C
  C462     1.0000 0.50772  0.42511  0.65974  Biso   1.000  C
  H496     1.0000 0.42222  0.37690  0.64700  Biso   1.000  H
  C463     1.0000 0.68689  0.26487  0.60534  Biso   1.000  C
  C464     1.0000 0.52526  0.15077  0.60521  Biso   1.000  C
  C465     1.0000 0.84918  0.37450  0.60521  Biso   1.000  C
  C466     1.0000 0.59172  0.49239  0.66275  Biso   1.000  C
  C467     1.0000 0.73582  0.63150  0.65819  Biso   1.000  C
  C468     1.0000 0.45354  0.35823  0.66790  Biso   1.000  C
  H497     1.0000 0.70029  0.21912  0.60540  Biso   1.000  H
  H498     1.0000 0.46661  0.13870  0.60560  Biso   1.000  H
  N63      1.0000 0.54012  0.08602  0.60458  Biso   1.000  N
  H499     1.0000 0.86127  0.32789  0.60560  Biso   1.000  H
  N64      1.0000 0.91400  0.45412  0.60458  Biso   1.000  N
  H500     1.0000 0.61270  0.49393  0.66980  Biso   1.000  H
  H501     1.0000 0.77279  0.67077  0.65280  Biso   1.000  H
  N65      1.0000 0.76428  0.64210  0.66771  Biso   1.000  N
  H502     1.0000 0.47679  0.36003  0.67480  Biso   1.000  H
  N66      1.0000 0.37428  0.29708  0.66558  Biso   1.000  N
  C469     1.0000 0.46338  0.99860  0.60377  Biso   1.000  C
  C470     1.0000 0.00139  0.46479  0.60377  Biso   1.000  C
  C471     1.0000 0.85581  0.71659  0.66966  Biso   1.000  C
  C472     1.0000 0.32121  0.23319  0.67414  Biso   1.000  C
  H503     1.0000 0.40931  0.00307  0.60410  Biso   1.000  H
  C473     1.0000 0.46691  0.95899  0.59282  Biso   1.000  C
  C474     1.0000 0.46362  0.94178  0.61318  Biso   1.000  C
  H504     1.0000 0.99686  0.40617  0.60410  Biso   1.000  H
  C475     1.0000 0.04104  0.50793  0.59282  Biso   1.000  C
  C476     1.0000 0.05820  0.52180  0.61318  Biso   1.000  C
  H505     1.0000 0.88154  0.74853  0.66280  Biso   1.000  H
  C477     1.0000 0.85010  0.77967  0.67803  Biso   1.000  C
  C478     1.0000 0.91198  0.67878  0.67414  Biso   1.000  C
  C479     1.0000 0.28338  0.13917  0.66966  Biso   1.000  C
  C480     1.0000 0.24640  0.24933  0.67771  Biso   1.000  C
  H506     1.0000 0.35941  0.24100  0.68050  Biso   1.000  H
  H507     1.0000 0.46462  0.99553  0.58690  Biso   1.000  H
  H508     1.0000 0.52291  0.95919  0.59220  Biso   1.000  H
  C481     1.0000 0.39188  0.86670  0.59162  Biso   1.000  C
  C482     1.0000 0.38642  0.84629  0.61179  Biso   1.000  C
  H509     1.0000 0.52031  0.94198  0.61330  Biso   1.000  H
  N67      1.0000 0.45139  0.97739  0.62358  Biso   1.000  N
  H510     1.0000 0.00448  0.46912  0.58690  Biso   1.000  H
  H511     1.0000 0.04079  0.56368  0.59220  Biso   1.000  H
  C483     1.0000 0.13330  0.52520  0.59162  Biso   1.000  C
  C484     1.0000 0.15367  0.54007  0.61179  Biso   1.000  C
  H512     1.0000 0.05797  0.57828  0.61330  Biso   1.000  H
  N68      1.0000 0.02257  0.47399  0.62358  Biso   1.000  N
  H513     1.0000 0.81740  0.80621  0.67480  Biso   1.000  H
  H514     1.0000 0.81761  0.74599  0.68450  Biso   1.000  H
  C485     1.0000 0.94209  0.85289  0.68145  Biso   1.000  C
  H515     1.0000 0.88156  0.64057  0.68050  Biso   1.000  H
  N69      1.0000 0.92280  0.62570  0.66558  Biso   1.000  N
  C486     1.0000 0.00292  0.75360  0.67771  Biso   1.000  C
  H516     1.0000 0.25146  0.13297  0.66280  Biso   1.000  H
  C487     1.0000 0.22030  0.07042  0.67803  Biso   1.000  C
  N70      1.0000 0.35789  0.12223  0.66771  Biso   1.000  N
  C488     1.0000 0.18379  0.18151  0.68614  Biso   1.000  C
  H517     1.0000 0.21210  0.24713  0.67130  Biso   1.000  H
  H518     1.0000 0.27212  0.30861  0.68080  Biso   1.000  H
  H519     1.0000 0.33592  0.86670  0.59180  Biso   1.000  H
  H520     1.0000 0.39629  0.84283  0.58460  Biso   1.000  H
  C489     1.0000 0.39338  0.81008  0.60052  Biso   1.000  C
  H521     1.0000 0.33014  0.84543  0.61230  Biso   1.000  H
  H522     1.0000 0.38853  0.80882  0.61760  Biso   1.000  H
  C490     1.0000 0.51361  0.00527  0.63053  Biso   1.000  C
  H523     1.0000 0.13330  0.46919  0.59180  Biso   1.000  H
  H524     1.0000 0.15720  0.55348  0.58460  Biso   1.000  H
  C491     1.0000 0.18989  0.58329  0.60052  Biso   1.000  C
  H525     1.0000 0.15464  0.48473  0.61230  Biso   1.000  H
  H526     1.0000 0.19121  0.57968  0.61760  Biso   1.000  H
  C492     1.0000 0.99470  0.50833  0.63053  Biso   1.000  C
  H527     1.0000 0.97252  0.88983  0.67510  Biso   1.000  H
  H528     1.0000 0.93609  0.89043  0.68690  Biso   1.000  H
  C493     1.0000 0.99773  0.81621  0.68614  Biso   1.000  C
  C494     1.0000 0.90468  0.54648  0.66790  Biso   1.000  C
  H529     1.0000 0.03496  0.78787  0.67130  Biso   1.000  H
  H530     1.0000 0.03652  0.72792  0.68080  Biso   1.000  H
  H531     1.0000 0.19381  0.01120  0.67480  Biso   1.000  H
  H532     1.0000 0.25399  0.07162  0.68450  Biso   1.000  H
  C495     1.0000 0.14712  0.08922  0.68145  Biso   1.000  C
  C496     1.0000 0.36850  0.10429  0.65819  Biso   1.000  C
  H533     1.0000 0.21586  0.18698  0.69290  Biso   1.000  H
  H534     1.0000 0.13530  0.19252  0.68780  Biso   1.000  H
  H535     1.0000 0.44840  0.80822  0.60020  Biso   1.000  H
  H536     1.0000 0.34400  0.74980  0.59960  Biso   1.000  H
  H537     1.0000 0.56477  0.00387  0.62860  Biso   1.000  H
  C497     1.0000 0.51149  0.03961  0.64147  Biso   1.000  C
  H538     1.0000 0.19180  0.64023  0.60020  Biso   1.000  H
  H539     1.0000 0.25022  0.59422  0.59960  Biso   1.000  H
  H540     1.0000 0.99608  0.56088  0.62860  Biso   1.000  H
  C498     1.0000 0.96044  0.47192  0.64147  Biso   1.000  C
  H541     1.0000 0.97110  0.78407  0.69290  Biso   1.000  H
  H542     1.0000 0.05720  0.86469  0.68780  Biso   1.000  H
  C499     1.0000 0.91739  0.49233  0.65974  Biso   1.000  C
  H543     1.0000 0.88322  0.52320  0.67480  Biso   1.000  H
  H544     1.0000 0.11018  0.08269  0.67510  Biso   1.000  H
  H545     1.0000 0.10958  0.04568  0.68690  Biso   1.000  H
  C500     1.0000 0.44023  0.08662  0.65496  Biso   1.000  C
  H546     1.0000 0.32920  0.10203  0.65280  Biso   1.000  H
  C501     1.0000 0.44378  0.05782  0.64463  Biso   1.000  C
  C502     1.0000 0.57658  0.05441  0.64907  Biso   1.000  C
  C503     1.0000 0.94218  0.38597  0.64463  Biso   1.000  C
  C504     1.0000 0.94561  0.52220  0.64907  Biso   1.000  C
  C505     1.0000 0.90068  0.40831  0.66275  Biso   1.000  C
  C506     1.0000 0.50760  0.09929  0.66275  Biso   1.000  C
  H547     1.0000 0.40037  0.04988  0.63950  Biso   1.000  H
  C507     1.0000 0.57492  0.08262  0.65974  Biso   1.000  C
  H548     1.0000 0.62307  0.04528  0.64700  Biso   1.000  H
  H549     1.0000 0.95008  0.35049  0.63950  Biso   1.000  H
  C508     1.0000 0.91341  0.35363  0.65496  Biso   1.000  C
  H550     1.0000 0.95471  0.57782  0.64700  Biso   1.000  H
  H551     1.0000 0.88122  0.38730  0.66980  Biso   1.000  H
  H552     1.0000 0.50611  0.11883  0.66980  Biso   1.000  H
  C509     1.0000 0.64178  0.09529  0.66790  Biso   1.000  C
  C510     1.0000 0.89567  0.26420  0.65819  Biso   1.000  C
  H553     1.0000 0.64002  0.11683  0.67480  Biso   1.000  H
  N71      1.0000 0.70291  0.07722  0.66558  Biso   1.000  N
  H554     1.0000 0.89802  0.22719  0.65280  Biso   1.000  H
  N72      1.0000 0.87780  0.23573  0.66771  Biso   1.000  N
  C511     1.0000 0.76681  0.08802  0.67414  Biso   1.000  C
  C512     1.0000 0.86078  0.14417  0.66966  Biso   1.000  C
  H555     1.0000 0.75903  0.11843  0.68050  Biso   1.000  H
  C513     1.0000 0.75070  0.99713  0.67771  Biso   1.000  C
  H556     1.0000 0.86700  0.11850  0.66280  Biso   1.000  H
  C514     1.0000 0.92960  0.14991  0.67803  Biso   1.000  C
  C515     1.0000 0.81847  0.00227  0.68614  Biso   1.000  C
  H557     1.0000 0.75288  0.96499  0.67130  Biso   1.000  H
  H558     1.0000 0.69139  0.96352  0.68080  Biso   1.000  H
  H559     1.0000 0.98878  0.18258  0.67480  Biso   1.000  H
  H560     1.0000 0.92839  0.18238  0.68450  Biso   1.000  H
  C516     1.0000 0.91078  0.05788  0.68145  Biso   1.000  C
  H561     1.0000 0.81300  0.02887  0.69290  Biso   1.000  H
  H562     1.0000 0.80750  0.94279  0.68780  Biso   1.000  H
  H563     1.0000 0.91729  0.02747  0.67510  Biso   1.000  H
  H564     1.0000 0.95427  0.06388  0.68690  Biso   1.000  H
  C517     1.0000 0.54981  0.69791  0.68202  Biso   1.000  C
  C518     1.0000 0.60928  0.69511  0.69131  Biso   1.000  C
  H565     1.0000 0.56032  0.75820  0.68130  Biso   1.000  H
  H566     1.0000 0.56541  0.68118  0.67510  Biso   1.000  H
  C519     1.0000 0.45298  0.63570  0.68442  Biso   1.000  C
  C520     1.0000 0.59021  0.60002  0.69310  Biso   1.000  C
  H567     1.0000 0.67160  0.73312  0.68940  Biso   1.000  H
  H568     1.0000 0.59811  0.71759  0.69810  Biso   1.000  H
  H569     1.0000 0.41788  0.63490  0.67820  Biso   1.000  H
  H570     1.0000 0.43548  0.65797  0.69070  Biso   1.000  H
  C521     1.0000 0.43276  0.54247  0.68677  Biso   1.000  C
  H571     1.0000 0.60351  0.57788  0.68640  Biso   1.000  H
  C522     1.0000 0.49099  0.54101  0.69605  Biso   1.000  C
  N73      1.0000 0.64568  0.59929  0.70203  Biso   1.000  N
  H572     1.0000 0.44300  0.51720  0.68020  Biso   1.000  H
  H573     1.0000 0.37053  0.50613  0.68880  Biso   1.000  H
  H574     1.0000 0.47811  0.56341  0.70280  Biso   1.000  H
  N74      1.0000 0.47212  0.44932  0.69785  Biso   1.000  N
  C523     1.0000 0.70084  0.57562  0.69967  Biso   1.000  C
  C524     1.0000 0.46088  0.42431  0.70764  Biso   1.000  C
  C525     1.0000 0.75926  0.56588  0.70774  Biso   1.000  C
  H575     1.0000 0.70537  0.56308  0.69230  Biso   1.000  H
  H576     1.0000 0.45788  0.46139  0.71290  Biso   1.000  H
  C526     1.0000 0.45220  0.33822  0.71122  Biso   1.000  C
  C527     1.0000 0.74778  0.56868  0.71877  Biso   1.000  C
  C528     1.0000 0.82909  0.55388  0.70382  Biso   1.000  C
  C529     1.0000 0.44999  0.32328  0.72214  Biso   1.000  C
  C530     1.0000 0.44610  0.27520  0.70382  Biso   1.000  C
  C531     1.0000 0.80160  0.55988  0.72633  Biso   1.000  C
  H577     1.0000 0.70170  0.57688  0.72130  Biso   1.000  H
  C532     1.0000 0.88600  0.54781  0.71122  Biso   1.000  C
  H578     1.0000 0.83662  0.55001  0.69630  Biso   1.000  H
  H579     1.0000 0.45499  0.36690  0.72700  Biso   1.000  H
  C533     1.0000 0.44011  0.24173  0.72633  Biso   1.000  C
  C534     1.0000 0.43407  0.19338  0.70774  Biso   1.000  C
  H580     1.0000 0.45001  0.28661  0.69630  Biso   1.000  H
  C535     1.0000 0.87330  0.55001  0.72214  Biso   1.000  C
  C536     1.0000 0.78743  0.55581  0.73835  Biso   1.000  C
  C537     1.0000 0.96340  0.53907  0.70764  Biso   1.000  C
  C538     1.0000 0.43132  0.17911  0.71877  Biso   1.000  C
  C539     1.0000 0.44422  0.23159  0.73835  Biso   1.000  C
  C540     1.0000 0.42442  0.12523  0.69967  Biso   1.000  C
  H581     1.0000 0.91191  0.54501  0.72700  Biso   1.000  H
  C541     1.0000 0.85943  0.60382  0.74538  Biso   1.000  C
  C542     1.0000 0.75569  0.60782  0.74303  Biso   1.000  C
  C543     1.0000 0.70572  0.49900  0.74360  Biso   1.000  C
  C544     1.0000 0.80629  0.49973  0.74488  Biso   1.000  C
  N75      1.0000 0.97721  0.52787  0.69785  Biso   1.000  N
  H582     1.0000 0.00348  0.54207  0.71290  Biso   1.000  H
  H583     1.0000 0.42312  0.12483  0.72130  Biso   1.000  H
  C545     1.0000 0.39622  0.25560  0.74538  Biso   1.000  C
  C546     1.0000 0.39221  0.14791  0.74303  Biso   1.000  C
  C547     1.0000 0.50103  0.20672  0.74360  Biso   1.000  C
  C548     1.0000 0.50033  0.30661  0.74488  Biso   1.000  C
  H584     1.0000 0.43688  0.14230  0.69230  Biso   1.000  H
  N76      1.0000 0.40072  0.04641  0.70203  Biso   1.000  N
  H585     1.0000 0.91602  0.63523  0.74230  Biso   1.000  H
  C549     1.0000 0.85213  0.60782  0.75697  Biso   1.000  C
  C550     1.0000 0.74439  0.60382  0.75462  Biso   1.000  C
  H586     1.0000 0.74220  0.64390  0.73870  Biso   1.000  H
  H587     1.0000 0.65769  0.45919  0.73930  Biso   1.000  H
  C551     1.0000 0.69344  0.49973  0.75512  Biso   1.000  C
  C552     1.0000 0.79327  0.49900  0.75640  Biso   1.000  C
  H588     1.0000 0.82670  0.46432  0.74170  Biso   1.000  H
  C553     1.0000 0.05001  0.50900  0.69605  Biso   1.000  C
  H589     1.0000 0.36482  0.28081  0.74230  Biso   1.000  H
  C554     1.0000 0.39220  0.24433  0.75697  Biso   1.000  C
  C555     1.0000 0.39617  0.14057  0.75462  Biso   1.000  C
  H590     1.0000 0.35609  0.09829  0.73870  Biso   1.000  H
  H591     1.0000 0.54082  0.19852  0.73930  Biso   1.000  H
  C556     1.0000 0.50030  0.19372  0.75512  Biso   1.000  C
  C557     1.0000 0.50097  0.29428  0.75640  Biso   1.000  C
  H592     1.0000 0.53574  0.36243  0.74170  Biso   1.000  H
  C558     1.0000 0.39998  0.99020  0.69310  Biso   1.000  C
  C559     1.0000 0.76838  0.55581  0.76165  Biso   1.000  C
  H593     1.0000 0.90170  0.64390  0.76130  Biso   1.000  H
  H594     1.0000 0.71921  0.63523  0.75770  Biso   1.000  H
  H595     1.0000 0.63762  0.46432  0.75830  Biso   1.000  H
  H596     1.0000 0.80149  0.45919  0.76070  Biso   1.000  H
  C560     1.0000 0.00981  0.40977  0.69310  Biso   1.000  C
  C561     1.0000 0.10972  0.56721  0.68677  Biso   1.000  C
  H597     1.0000 0.08526  0.52187  0.70280  Biso   1.000  H
  C562     1.0000 0.44419  0.21259  0.76165  Biso   1.000  C
  H598     1.0000 0.35609  0.25780  0.76130  Biso   1.000  H
  H599     1.0000 0.36483  0.08402  0.75770  Biso   1.000  H
  H600     1.0000 0.53572  0.17331  0.75830  Biso   1.000  H
  H601     1.0000 0.54080  0.34229  0.76070  Biso   1.000  H
  H602     1.0000 0.42208  0.02561  0.68640  Biso   1.000  H
  C563     1.0000 0.30492  0.91418  0.69131  Biso   1.000  C
  C564     1.0000 0.45900  0.94999  0.69605  Biso   1.000  C
  C565     1.0000 0.75828  0.55988  0.77367  Biso   1.000  C
  H603     1.0000 0.97441  0.39650  0.68640  Biso   1.000  H
  N77      1.0000 0.95360  0.35429  0.70203  Biso   1.000  N
  C566     1.0000 0.08580  0.39070  0.69131  Biso   1.000  C
  C567     1.0000 0.18272  0.54701  0.68442  Biso   1.000  C
  H604     1.0000 0.07419  0.55701  0.68020  Biso   1.000  H
  H605     1.0000 0.13561  0.62950  0.68880  Biso   1.000  H
  C568     1.0000 0.44009  0.19838  0.77367  Biso   1.000  C
  H606     1.0000 0.26690  0.93852  0.68940  Biso   1.000  H
  H607     1.0000 0.28242  0.88050  0.69810  Biso   1.000  H
  C569     1.0000 0.30207  0.85189  0.68202  Biso   1.000  C
  N78      1.0000 0.55073  0.02281  0.69785  Biso   1.000  N
  C570     1.0000 0.45751  0.89030  0.68677  Biso   1.000  C
  H608     1.0000 0.43662  0.91471  0.70280  Biso   1.000  H
  C571     1.0000 0.67671  0.55001  0.77786  Biso   1.000  C
  C572     1.0000 0.82090  0.56868  0.78123  Biso   1.000  C
  C573     1.0000 0.87483  0.29921  0.69967  Biso   1.000  C
  H609     1.0000 0.06153  0.32842  0.68940  Biso   1.000  H
  H610     1.0000 0.11952  0.40190  0.69810  Biso   1.000  H
  C574     1.0000 0.14811  0.45018  0.68202  Biso   1.000  C
  H611     1.0000 0.21701  0.58208  0.67820  Biso   1.000  H
  H612     1.0000 0.22247  0.56448  0.69070  Biso   1.000  H
  C575     1.0000 0.44999  0.12670  0.77786  Biso   1.000  C
  C576     1.0000 0.43131  0.25220  0.78123  Biso   1.000  C
  H613     1.0000 0.24177  0.80208  0.68130  Biso   1.000  H
  H614     1.0000 0.31882  0.88424  0.67510  Biso   1.000  H
  C577     1.0000 0.36429  0.81729  0.68442  Biso   1.000  C
  C578     1.0000 0.57571  0.03661  0.70764  Biso   1.000  C
  H615     1.0000 0.48281  0.92578  0.68020  Biso   1.000  H
  H616     1.0000 0.49389  0.86443  0.68880  Biso   1.000  H
  C579     1.0000 0.66181  0.54781  0.78878  Biso   1.000  C
  H617     1.0000 0.63310  0.54501  0.77300  Biso   1.000  H
  H618     1.0000 0.87518  0.57688  0.77870  Biso   1.000  H
  C580     1.0000 0.80662  0.56588  0.79226  Biso   1.000  C
  C581     1.0000 0.80661  0.24073  0.70774  Biso   1.000  C
  H619     1.0000 0.85769  0.29461  0.69230  Biso   1.000  H
  H620     1.0000 0.19791  0.43971  0.68130  Biso   1.000  H
  H621     1.0000 0.11577  0.43458  0.67510  Biso   1.000  H
  C582     1.0000 0.45220  0.11403  0.78878  Biso   1.000  C
  H622     1.0000 0.45499  0.08809  0.77300  Biso   1.000  H
  H623     1.0000 0.42311  0.29828  0.77870  Biso   1.000  H
  C583     1.0000 0.43412  0.24073  0.79226  Biso   1.000  C
  H624     1.0000 0.36511  0.78301  0.67820  Biso   1.000  H
  H625     1.0000 0.34196  0.77748  0.69070  Biso   1.000  H
  C584     1.0000 0.66183  0.11403  0.71122  Biso   1.000  C
  H626     1.0000 0.53863  0.99653  0.71290  Biso   1.000  H
  C585     1.0000 0.57567  0.53907  0.79236  Biso   1.000  C
  C586     1.0000 0.72479  0.55388  0.79618  Biso   1.000  C
  C587     1.0000 0.87478  0.57562  0.80033  Biso   1.000  C
  C588     1.0000 0.82089  0.25220  0.71877  Biso   1.000  C
  C589     1.0000 0.72481  0.17091  0.70382  Biso   1.000  C
  C590     1.0000 0.46090  0.03661  0.79236  Biso   1.000  C
  C591     1.0000 0.44610  0.17091  0.79618  Biso   1.000  C
  C592     1.0000 0.42438  0.29921  0.80033  Biso   1.000  C
  C593     1.0000 0.67671  0.12670  0.72214  Biso   1.000  C
  H627     1.0000 0.53859  0.54207  0.78710  Biso   1.000  H
  N79      1.0000 0.55066  0.52787  0.80215  Biso   1.000  N
  H628     1.0000 0.71339  0.55001  0.80370  Biso   1.000  H
  H629     1.0000 0.85771  0.56308  0.80770  Biso   1.000  H
  N80      1.0000 0.95361  0.59929  0.79797  Biso   1.000  N
  C594     1.0000 0.75829  0.19838  0.72633  Biso   1.000  C
  H630     1.0000 0.87517  0.29828  0.72130  Biso   1.000  H
  H631     1.0000 0.71342  0.16338  0.69630  Biso   1.000  H
  N81      1.0000 0.47208  0.02281  0.80215  Biso   1.000  N
  H632     1.0000 0.45790  0.99653  0.78710  Biso   1.000  H
  H633     1.0000 0.44996  0.16338  0.80370  Biso   1.000  H
  H634     1.0000 0.43692  0.29461  0.80770  Biso   1.000  H
  N82      1.0000 0.40070  0.35429  0.79797  Biso   1.000  N
  H635     1.0000 0.63310  0.08809  0.72700  Biso   1.000  H
  C595     1.0000 0.45899  0.50900  0.80395  Biso   1.000  C
  C596     1.0000 0.00982  0.60002  0.80690  Biso   1.000  C
  C597     1.0000 0.76840  0.21259  0.73835  Biso   1.000  C
  C598     1.0000 0.49099  0.94999  0.80395  Biso   1.000  C
  C599     1.0000 0.39997  0.40977  0.80690  Biso   1.000  C
  C600     1.0000 0.45749  0.56721  0.81323  Biso   1.000  C
  H636     1.0000 0.43661  0.52187  0.79720  Biso   1.000  H
  H637     1.0000 0.97438  0.57788  0.81360  Biso   1.000  H
  C601     1.0000 0.08583  0.69511  0.80869  Biso   1.000  C
  C602     1.0000 0.05001  0.54101  0.80395  Biso   1.000  C
  C603     1.0000 0.74440  0.14057  0.74538  Biso   1.000  C
  C604     1.0000 0.85213  0.24433  0.74303  Biso   1.000  C
  C605     1.0000 0.79330  0.29428  0.74360  Biso   1.000  C
  C606     1.0000 0.69342  0.19372  0.74488  Biso   1.000  C
  C607     1.0000 0.59021  0.99020  0.80690  Biso   1.000  C
  C608     1.0000 0.43279  0.89030  0.81323  Biso   1.000  C
  H638     1.0000 0.47809  0.91471  0.79720  Biso   1.000  H
  H639     1.0000 0.42209  0.39650  0.81360  Biso   1.000  H
  C609     1.0000 0.30490  0.39070  0.80869  Biso   1.000  C
  C610     1.0000 0.36429  0.54701  0.81558  Biso   1.000  C
  H640     1.0000 0.48283  0.55701  0.81980  Biso   1.000  H
  H641     1.0000 0.49389  0.62950  0.81120  Biso   1.000  H
  H642     1.0000 0.06153  0.73312  0.81060  Biso   1.000  H
  H643     1.0000 0.11948  0.71759  0.80190  Biso   1.000  H
  C611     1.0000 0.14810  0.69791  0.81798  Biso   1.000  C
  N83      1.0000 0.97720  0.44932  0.80215  Biso   1.000  N
  C612     1.0000 0.10971  0.54247  0.81323  Biso   1.000  C
  H644     1.0000 0.08530  0.56341  0.79720  Biso   1.000  H
  H645     1.0000 0.71919  0.08402  0.74230  Biso   1.000  H
  C613     1.0000 0.75569  0.14791  0.75697  Biso   1.000  C
  C614     1.0000 0.85938  0.25560  0.75462  Biso   1.000  C
  H646     1.0000 0.90171  0.25780  0.73870  Biso   1.000  H
  H647     1.0000 0.80149  0.34229  0.73930  Biso   1.000  H
  C615     1.0000 0.80629  0.30661  0.75512  Biso   1.000  C
  C616     1.0000 0.70569  0.20672  0.75640  Biso   1.000  C
  H648     1.0000 0.63759  0.17331  0.74170  Biso   1.000  H
  H649     1.0000 0.60353  0.02561  0.81360  Biso   1.000  H
  N84      1.0000 0.64569  0.04641  0.79797  Biso   1.000  N
  C617     1.0000 0.60926  0.91418  0.80869  Biso   1.000  C
  C618     1.0000 0.45299  0.81729  0.81558  Biso   1.000  C
  H650     1.0000 0.44297  0.92578  0.81980  Biso   1.000  H
  H651     1.0000 0.37054  0.86443  0.81120  Biso   1.000  H
  H652     1.0000 0.26689  0.32842  0.81060  Biso   1.000  H
  H653     1.0000 0.28238  0.40190  0.80190  Biso   1.000  H
  C619     1.0000 0.30207  0.45018  0.81798  Biso   1.000  C
  H654     1.0000 0.36508  0.58208  0.82180  Biso   1.000  H
  H655     1.0000 0.34201  0.56448  0.80930  Biso   1.000  H
  H656     1.0000 0.19788  0.75820  0.81870  Biso   1.000  H
  H657     1.0000 0.11577  0.68118  0.82490  Biso   1.000  H
  C620     1.0000 0.18271  0.63570  0.81558  Biso   1.000  C
  C621     1.0000 0.96343  0.42431  0.79236  Biso   1.000  C
  H658     1.0000 0.07420  0.51720  0.81980  Biso   1.000  H
  H659     1.0000 0.13560  0.50613  0.81120  Biso   1.000  H
  C622     1.0000 0.78737  0.23159  0.76165  Biso   1.000  C
  H660     1.0000 0.74220  0.09829  0.76130  Biso   1.000  H
  H661     1.0000 0.91599  0.28081  0.75770  Biso   1.000  H
  H662     1.0000 0.82669  0.36243  0.75830  Biso   1.000  H
  H663     1.0000 0.65770  0.19852  0.76070  Biso   1.000  H
  C623     1.0000 0.70081  0.12523  0.80033  Biso   1.000  C
  H664     1.0000 0.67161  0.93852  0.81060  Biso   1.000  H
  H665     1.0000 0.59808  0.88050  0.80190  Biso   1.000  H
  C624     1.0000 0.54982  0.85189  0.81798  Biso   1.000  C
  H666     1.0000 0.41790  0.78301  0.82180  Biso   1.000  H
  H667     1.0000 0.43552  0.77748  0.80930  Biso   1.000  H
  H668     1.0000 0.24180  0.43971  0.81870  Biso   1.000  H
  H669     1.0000 0.31881  0.43458  0.82490  Biso   1.000  H
  H670     1.0000 0.21702  0.63490  0.82180  Biso   1.000  H
  H671     1.0000 0.22249  0.65797  0.80930  Biso   1.000  H
  C625     1.0000 0.88602  0.33822  0.78878  Biso   1.000  C
  H672     1.0000 0.00350  0.46139  0.78710  Biso   1.000  H
  C626     1.0000 0.80162  0.24173  0.77367  Biso   1.000  C
  C627     1.0000 0.75932  0.19338  0.79226  Biso   1.000  C
  H673     1.0000 0.70542  0.14230  0.80770  Biso   1.000  H
  H674     1.0000 0.56032  0.80208  0.81870  Biso   1.000  H
  H675     1.0000 0.56541  0.88424  0.82490  Biso   1.000  H
  C628     1.0000 0.87330  0.32328  0.77786  Biso   1.000  C
  C629     1.0000 0.82910  0.27520  0.79618  Biso   1.000  C
  C630     1.0000 0.74779  0.17911  0.78123  Biso   1.000  C
  H676     1.0000 0.91191  0.36690  0.77300  Biso   1.000  H
  H677     1.0000 0.83659  0.28661  0.80370  Biso   1.000  H
  H678     1.0000 0.70171  0.12483  0.77870  Biso   1.000  H
  C631     1.0000 0.81620  0.81848  0.18614  Biso   1.000  C
  C632     1.0000 0.75363  0.75073  0.17771  Biso   1.000  C
  C633     1.0000 0.85288  0.91077  0.18145  Biso   1.000  C
  H679     1.0000 0.78413  0.81301  0.19290  Biso   1.000  H
  H680     1.0000 0.86470  0.80748  0.18780  Biso   1.000  H
  C634     1.0000 0.67879  0.76680  0.17414  Biso   1.000  C
  H681     1.0000 0.78793  0.75293  0.17130  Biso   1.000  H
  H682     1.0000 0.72788  0.69138  0.18080  Biso   1.000  H
  C635     1.0000 0.77970  0.92958  0.17803  Biso   1.000  C
  H683     1.0000 0.88981  0.91731  0.17510  Biso   1.000  H
  H684     1.0000 0.89042  0.95432  0.18690  Biso   1.000  H
  N85      1.0000 0.62571  0.70292  0.16558  Biso   1.000  N
  C636     1.0000 0.71662  0.86082  0.16966  Biso   1.000  C
  H685     1.0000 0.64059  0.75900  0.18050  Biso   1.000  H
  H686     1.0000 0.80619  0.98879  0.17480  Biso   1.000  H
  H687     1.0000 0.74601  0.92837  0.18450  Biso   1.000  H
  C637     1.0000 0.54646  0.64177  0.16790  Biso   1.000  C
  H688     1.0000 0.74854  0.86703  0.16280  Biso   1.000  H
  N86      1.0000 0.64214  0.87783  0.16771  Biso   1.000  N
  C638     1.0000 0.49228  0.57488  0.15974  Biso   1.000  C
  H689     1.0000 0.52324  0.64003  0.17480  Biso   1.000  H
  C639     1.0000 0.63150  0.89570  0.15819  Biso   1.000  C
  C640     1.0000 0.40828  0.50760  0.16275  Biso   1.000  C
  C641     1.0000 0.52220  0.57662  0.14907  Biso   1.000  C
  C642     1.0000 0.55977  0.91337  0.15496  Biso   1.000  C
  H690     1.0000 0.67080  0.89797  0.15280  Biso   1.000  H
  C643     1.0000 0.35361  0.44018  0.15496  Biso   1.000  C
  H691     1.0000 0.38733  0.50613  0.16980  Biso   1.000  H
  C644     1.0000 0.47193  0.51153  0.14147  Biso   1.000  C
  H692     1.0000 0.57778  0.62310  0.14700  Biso   1.000  H
  C645     1.0000 0.49239  0.90070  0.16275  Biso   1.000  C
  C646     1.0000 0.55621  0.94218  0.14463  Biso   1.000  C
  C647     1.0000 0.26417  0.36850  0.15819  Biso   1.000  C
  C648     1.0000 0.38602  0.44378  0.14463  Biso   1.000  C
  C649     1.0000 0.50830  0.51360  0.13053  Biso   1.000  C
  C650     1.0000 0.42508  0.91737  0.15974  Biso   1.000  C
  H693     1.0000 0.49392  0.88123  0.16980  Biso   1.000  H
  C651     1.0000 0.48851  0.96038  0.14147  Biso   1.000  C
  H694     1.0000 0.59962  0.95011  0.13950  Biso   1.000  H
  N87      1.0000 0.23571  0.35789  0.16771  Biso   1.000  N
  H695     1.0000 0.22721  0.32922  0.15280  Biso   1.000  H
  H696     1.0000 0.35051  0.40037  0.13950  Biso   1.000  H
  H697     1.0000 0.56094  0.56481  0.12860  Biso   1.000  H
  N88      1.0000 0.47402  0.45138  0.12358  Biso   1.000  N
  C652     1.0000 0.35822  0.90470  0.16790  Biso   1.000  C
  C653     1.0000 0.42341  0.94558  0.14907  Biso   1.000  C
  C654     1.0000 0.48639  0.99473  0.13053  Biso   1.000  C
  C655     1.0000 0.14419  0.28341  0.16966  Biso   1.000  C
  C656     1.0000 0.52181  0.46359  0.11318  Biso   1.000  C
  N89      1.0000 0.29709  0.92277  0.16558  Biso   1.000  N
  H698     1.0000 0.36001  0.88323  0.17480  Biso   1.000  H
  H699     1.0000 0.37693  0.95472  0.14700  Biso   1.000  H
  H700     1.0000 0.43523  0.99613  0.12860  Biso   1.000  H
  N90      1.0000 0.54861  0.02260  0.12358  Biso   1.000  N
  C657     1.0000 0.14989  0.22032  0.17803  Biso   1.000  C
  C658     1.0000 0.08802  0.32122  0.17414  Biso   1.000  C
  H701     1.0000 0.11849  0.25153  0.16280  Biso   1.000  H
  C659     1.0000 0.46477  0.46339  0.10377  Biso   1.000  C
  C660     1.0000 0.54009  0.38637  0.11179  Biso   1.000  C
  H702     1.0000 0.57828  0.52027  0.11330  Biso   1.000  H
  C661     1.0000 0.23319  0.91197  0.17414  Biso   1.000  C
  C662     1.0000 0.53638  0.05821  0.11318  Biso   1.000  C
  C663     1.0000 0.05790  0.14710  0.18145  Biso   1.000  C
  H703     1.0000 0.18259  0.19378  0.17480  Biso   1.000  H
  H704     1.0000 0.18238  0.25400  0.18450  Biso   1.000  H
  C664     1.0000 0.99707  0.24640  0.17771  Biso   1.000  C
  H705     1.0000 0.11844  0.35943  0.18050  Biso   1.000  H
  N91      1.0000 0.07719  0.37430  0.16558  Biso   1.000  N
  H706     1.0000 0.40620  0.40931  0.10410  Biso   1.000  H
  C665     1.0000 0.50789  0.46692  0.09282  Biso   1.000  C
  N92      1.0000 0.45409  0.54007  0.10458  Biso   1.000  N
  C666     1.0000 0.58326  0.39337  0.10052  Biso   1.000  C
  H707     1.0000 0.48469  0.33009  0.11230  Biso   1.000  H
  H708     1.0000 0.57967  0.38850  0.11760  Biso   1.000  H
  C667     1.0000 0.13922  0.85582  0.16966  Biso   1.000  C
  H709     1.0000 0.24100  0.88163  0.18050  Biso   1.000  H
  C668     1.0000 0.24929  0.00286  0.17771  Biso   1.000  C
  C669     1.0000 0.53662  0.00139  0.10377  Biso   1.000  C
  C670     1.0000 0.61358  0.15370  0.11179  Biso   1.000  C
  H710     1.0000 0.47969  0.05801  0.11330  Biso   1.000  H
  C671     1.0000 0.00226  0.18378  0.18614  Biso   1.000  C
  H711     1.0000 0.02751  0.11023  0.17510  Biso   1.000  H
  H712     1.0000 0.06394  0.10963  0.18690  Biso   1.000  H
  H713     1.0000 0.96504  0.21212  0.17130  Biso   1.000  H
  H714     1.0000 0.96348  0.27207  0.18080  Biso   1.000  H
  C672     1.0000 0.09532  0.45352  0.16790  Biso   1.000  C
  H715     1.0000 0.46907  0.46459  0.08690  Biso   1.000  H
  H716     1.0000 0.56370  0.52287  0.09220  Biso   1.000  H
  C673     1.0000 0.52518  0.39190  0.09162  Biso   1.000  C
  C674     1.0000 0.37450  0.52527  0.10521  Biso   1.000  C
  H717     1.0000 0.64017  0.44838  0.10020  Biso   1.000  H
  H718     1.0000 0.59422  0.34402  0.09960  Biso   1.000  H
  N93      1.0000 0.12223  0.76433  0.16771  Biso   1.000  N
  H719     1.0000 0.13300  0.88150  0.16280  Biso   1.000  H
  C675     1.0000 0.07040  0.85009  0.17803  Biso   1.000  C
  C676     1.0000 0.18153  0.99773  0.18614  Biso   1.000  C
  H720     1.0000 0.24712  0.03500  0.17130  Biso   1.000  H
  H721     1.0000 0.30860  0.03647  0.18080  Biso   1.000  H
  N94      1.0000 0.45987  0.91397  0.10458  Biso   1.000  N
  H722     1.0000 0.59069  0.99693  0.10410  Biso   1.000  H
  C677     1.0000 0.53309  0.04100  0.09282  Biso   1.000  C
  C678     1.0000 0.60662  0.18991  0.10052  Biso   1.000  C
  H723     1.0000 0.66986  0.15457  0.11230  Biso   1.000  H
  H724     1.0000 0.61147  0.19118  0.11760  Biso   1.000  H
  H725     1.0000 0.02890  0.21592  0.19290  Biso   1.000  H
  H726     1.0000 0.94280  0.13530  0.18780  Biso   1.000  H
  C679     1.0000 0.08264  0.50773  0.15974  Biso   1.000  C
  H727     1.0000 0.11677  0.47679  0.17480  Biso   1.000  H
  H728     1.0000 0.46917  0.33589  0.09180  Biso   1.000  H
  H729     1.0000 0.55349  0.39630  0.08460  Biso   1.000  H
  C680     1.0000 0.35348  0.59782  0.10533  Biso   1.000  C
  H730     1.0000 0.32789  0.46659  0.10560  Biso   1.000  H
  C681     1.0000 0.10432  0.73579  0.15819  Biso   1.000  C
  H731     1.0000 0.01121  0.81741  0.17480  Biso   1.000  H
  H732     1.0000 0.07160  0.81761  0.18450  Biso   1.000  H
  C682     1.0000 0.08921  0.94211  0.18145  Biso   1.000  C
  H733     1.0000 0.18699  0.97112  0.19290  Biso   1.000  H
  H734     1.0000 0.19250  0.05721  0.18780  Biso   1.000  H
  C683     1.0000 0.47474  0.84922  0.10521  Biso   1.000  C
  H735     1.0000 0.53538  0.00446  0.08690  Biso   1.000  H
  H736     1.0000 0.47709  0.04080  0.09220  Biso   1.000  H
  C684     1.0000 0.60811  0.13329  0.09162  Biso   1.000  C
  H737     1.0000 0.55159  0.19178  0.10020  Biso   1.000  H
  H738     1.0000 0.65599  0.25019  0.09960  Biso   1.000  H
  C685     1.0000 0.09932  0.59169  0.16275  Biso   1.000  C
  C686     1.0000 0.05438  0.47779  0.14907  Biso   1.000  C
  C687     1.0000 0.26493  0.57802  0.10534  Biso   1.000  C
  C688     1.0000 0.42200  0.68691  0.10534  Biso   1.000  C
  C689     1.0000 0.08658  0.64637  0.15496  Biso   1.000  C
  H739     1.0000 0.10198  0.77280  0.15280  Biso   1.000  H
  H740     1.0000 0.08270  0.97252  0.17510  Biso   1.000  H
  H741     1.0000 0.04573  0.93611  0.18690  Biso   1.000  H
  C690     1.0000 0.40224  0.75573  0.10533  Biso   1.000  C
  H742     1.0000 0.53338  0.86129  0.10560  Biso   1.000  H
  H743     1.0000 0.66407  0.13329  0.09180  Biso   1.000  H
  H744     1.0000 0.60371  0.15717  0.08460  Biso   1.000  H
  H745     1.0000 0.11877  0.61269  0.16980  Biso   1.000  H
  C691     1.0000 0.03956  0.52807  0.14147  Biso   1.000  C
  H746     1.0000 0.04529  0.42218  0.14700  Biso   1.000  H
  C692     1.0000 0.24431  0.64650  0.10533  Biso   1.000  C
  H747     1.0000 0.21909  0.51880  0.10540  Biso   1.000  H
  H748     1.0000 0.48119  0.70032  0.10540  Biso   1.000  H
  C693     1.0000 0.05782  0.61403  0.14463  Biso   1.000  C
  C694     1.0000 0.31310  0.73512  0.10534  Biso   1.000  C
  C695     1.0000 0.00534  0.49173  0.13053  Biso   1.000  C
  C696     1.0000 0.15082  0.62550  0.10521  Biso   1.000  C
  H749     1.0000 0.04992  0.64950  0.13950  Biso   1.000  H
  H750     1.0000 0.29971  0.78087  0.10540  Biso   1.000  H
  H751     1.0000 0.00392  0.43911  0.12860  Biso   1.000  H
  N95      1.0000 0.97743  0.52600  0.12358  Biso   1.000  N
  N96      1.0000 0.08600  0.54588  0.10458  Biso   1.000  N
  H752     1.0000 0.13872  0.67211  0.10560  Biso   1.000  H
  C697     1.0000 0.94180  0.47819  0.11318  Biso   1.000  C
  C698     1.0000 0.99860  0.53521  0.10377  Biso   1.000  C
  C699     1.0000 0.84633  0.45992  0.11179  Biso   1.000  C
  H753     1.0000 0.94203  0.42171  0.11330  Biso   1.000  H
  H754     1.0000 0.00314  0.59382  0.10410  Biso   1.000  H
  C700     1.0000 0.95899  0.49213  0.09282  Biso   1.000  C
  C701     1.0000 0.81011  0.41671  0.10052  Biso   1.000  C
  H755     1.0000 0.84536  0.51527  0.11230  Biso   1.000  H
  H756     1.0000 0.80879  0.42031  0.11760  Biso   1.000  H
  H757     1.0000 0.99551  0.53087  0.08690  Biso   1.000  H
  H758     1.0000 0.95921  0.43631  0.09220  Biso   1.000  H
  C702     1.0000 0.86670  0.47479  0.09162  Biso   1.000  C
  H759     1.0000 0.80823  0.35983  0.10020  Biso   1.000  H
  H760     1.0000 0.74978  0.40577  0.09960  Biso   1.000  H
  H761     1.0000 0.86670  0.53080  0.09180  Biso   1.000  H
  H762     1.0000 0.84280  0.44652  0.08460  Biso   1.000  H
  C703     1.0000 0.76533  0.24573  0.15541  Biso   1.000  C
  C704     1.0000 0.78741  0.31101  0.14628  Biso   1.000  C
  H763     1.0000 0.70453  0.19712  0.15460  Biso   1.000  H
  H764     1.0000 0.77001  0.27460  0.16240  Biso   1.000  H
  C705     1.0000 0.82914  0.20932  0.15517  Biso   1.000  C
  C706     1.0000 0.78587  0.27087  0.13519  Biso   1.000  C
  H765     1.0000 0.84621  0.36209  0.14750  Biso   1.000  H
  H766     1.0000 0.74477  0.33189  0.14630  Biso   1.000  H
  H767     1.0000 0.88898  0.25740  0.15670  Biso   1.000  H
  H768     1.0000 0.81259  0.16491  0.16090  Biso   1.000  H
  C707     1.0000 0.82872  0.16771  0.14415  Biso   1.000  C
  C708     1.0000 0.84987  0.23439  0.13502  Biso   1.000  C
  H769     1.0000 0.80288  0.31608  0.12950  Biso   1.000  H
  H770     1.0000 0.72600  0.22319  0.13360  Biso   1.000  H
  H771     1.0000 0.77034  0.11483  0.14290  Biso   1.000  H
  N97      1.0000 0.89806  0.14297  0.14418  Biso   1.000  N
  H772     1.0000 0.91100  0.28401  0.13600  Biso   1.000  H
  N98      1.0000 0.84269  0.19358  0.12431  Biso   1.000  N
  C709     1.0000 0.87393  0.06202  0.14339  Biso   1.000  C
  C710     1.0000 0.90829  0.22533  0.11789  Biso   1.000  C
  H773     1.0000 0.81347  0.02067  0.14280  Biso   1.000  H
  C711     1.0000 0.93957  0.02987  0.14342  Biso   1.000  C
  C712     1.0000 0.90539  0.19112  0.10694  Biso   1.000  C
  H774     1.0000 0.96172  0.27340  0.12030  Biso   1.000  H
  C713     1.0000 0.90990  0.94038  0.14357  Biso   1.000  C
  C714     1.0000 0.03049  0.09009  0.14357  Biso   1.000  C
  C715     1.0000 0.82897  0.11210  0.10327  Biso   1.000  C
  C716     1.0000 0.97530  0.23519  0.09960  Biso   1.000  C
  C717     1.0000 0.97010  0.90971  0.14342  Biso   1.000  C
  H775     1.0000 0.84898  0.89997  0.14380  Biso   1.000  H
  C718     1.0000 0.09033  0.06042  0.14342  Biso   1.000  C
  H776     1.0000 0.05100  0.15097  0.14380  Biso   1.000  H
  H777     1.0000 0.78143  0.08122  0.10810  Biso   1.000  H
  C719     1.0000 0.82381  0.08029  0.09283  Biso   1.000  C
  C720     1.0000 0.97142  0.20352  0.08900  Biso   1.000  C
  H778     1.0000 0.02602  0.28721  0.10180  Biso   1.000  H
  C721     1.0000 0.93799  0.81188  0.14339  Biso   1.000  C
  C722     1.0000 0.05961  0.96953  0.14357  Biso   1.000  C
  C723     1.0000 0.18808  0.12610  0.14339  Biso   1.000  C
  C724     1.0000 0.89560  0.12603  0.08562  Biso   1.000  C
  C725     1.0000 0.74009  0.00040  0.08917  Biso   1.000  C
  C726     1.0000 0.04422  0.25153  0.08103  Biso   1.000  C
  H779     1.0000 0.97928  0.79281  0.14280  Biso   1.000  H
  N99      1.0000 0.85701  0.75514  0.14418  Biso   1.000  N
  H780     1.0000 0.09998  0.94899  0.14380  Biso   1.000  H
  H781     1.0000 0.20720  0.18652  0.14280  Biso   1.000  H
  N100     1.0000 0.24487  0.10189  0.14418  Biso   1.000  N
  H782     1.0000 0.89258  0.10429  0.07850  Biso   1.000  H
  H783     1.0000 0.69812  0.96739  0.09450  Biso   1.000  H
  N101     1.0000 0.72180  0.97433  0.07947  Biso   1.000  N
  H784     1.0000 0.03742  0.22799  0.07400  Biso   1.000  H
  N102     1.0000 0.11477  0.32228  0.08325  Biso   1.000  N
  C727     1.0000 0.83228  0.66098  0.14415  Biso   1.000  C
  C728     1.0000 0.33901  0.17131  0.14415  Biso   1.000  C
  C729     1.0000 0.63407  0.89957  0.07746  Biso   1.000  C
  C730     1.0000 0.17960  0.36243  0.07445  Biso   1.000  C
  C731     1.0000 0.76559  0.61550  0.13502  Biso   1.000  C
  C732     1.0000 0.79074  0.61983  0.15517  Biso   1.000  C
  H785     1.0000 0.88522  0.65551  0.14290  Biso   1.000  H
  C733     1.0000 0.38448  0.15011  0.13502  Biso   1.000  C
  C734     1.0000 0.38021  0.17091  0.15517  Biso   1.000  C
  H786     1.0000 0.34454  0.22973  0.14290  Biso   1.000  H
  H787     1.0000 0.59824  0.88764  0.08410  Biso   1.000  H
  C735     1.0000 0.58921  0.92351  0.06799  Biso   1.000  C
  C736     1.0000 0.63759  0.81722  0.07445  Biso   1.000  C
  C737     1.0000 0.26547  0.36590  0.07746  Biso   1.000  C
  C738     1.0000 0.19542  0.45679  0.07200  Biso   1.000  C
  H788     1.0000 0.15552  0.32582  0.06780  Biso   1.000  H
  H789     1.0000 0.71604  0.62704  0.13600  Biso   1.000  H
  C739     1.0000 0.72909  0.51501  0.13519  Biso   1.000  C
  N103     1.0000 0.80642  0.64911  0.12431  Biso   1.000  N
  C740     1.0000 0.75432  0.51961  0.15541  Biso   1.000  C
  H790     1.0000 0.74259  0.63164  0.15670  Biso   1.000  H
  H791     1.0000 0.83512  0.64771  0.16090  Biso   1.000  H
  H792     1.0000 0.37299  0.08902  0.13600  Biso   1.000  H
  C741     1.0000 0.48504  0.21412  0.13519  Biso   1.000  C
  N104     1.0000 0.35089  0.15731  0.12431  Biso   1.000  N
  C742     1.0000 0.48044  0.23473  0.15541  Biso   1.000  C
  H793     1.0000 0.36840  0.11103  0.15670  Biso   1.000  H
  H794     1.0000 0.35230  0.18738  0.16090  Biso   1.000  H
  H795     1.0000 0.58579  0.97593  0.07000  Biso   1.000  H
  H796     1.0000 0.62509  0.93718  0.06140  Biso   1.000  H
  C743     1.0000 0.49657  0.84669  0.06576  Biso   1.000  C
  C744     1.0000 0.54318  0.73860  0.07200  Biso   1.000  C
  H797     1.0000 0.67420  0.82969  0.06780  Biso   1.000  H
  N105     1.0000 0.67771  0.79248  0.08325  Biso   1.000  N
  H798     1.0000 0.28936  0.40177  0.08410  Biso   1.000  H
  C745     1.0000 0.33428  0.41077  0.06799  Biso   1.000  C
  N106     1.0000 0.25252  0.27821  0.07947  Biso   1.000  N
  C746     1.0000 0.26354  0.49993  0.06285  Biso   1.000  C
  H799     1.0000 0.13960  0.45292  0.06980  Biso   1.000  H
  H800     1.0000 0.21671  0.49313  0.07860  Biso   1.000  H
  H801     1.0000 0.68392  0.48680  0.12950  Biso   1.000  H
  H802     1.0000 0.77681  0.50280  0.13360  Biso   1.000  H
  C747     1.0000 0.68900  0.47640  0.14628  Biso   1.000  C
  C748     1.0000 0.77468  0.68298  0.11789  Biso   1.000  C
  H803     1.0000 0.80291  0.50741  0.15460  Biso   1.000  H
  H804     1.0000 0.72541  0.49540  0.16240  Biso   1.000  H
  H805     1.0000 0.51320  0.19712  0.12950  Biso   1.000  H
  H806     1.0000 0.49719  0.27400  0.13360  Biso   1.000  H
  C749     1.0000 0.52360  0.21259  0.14628  Biso   1.000  C
  C750     1.0000 0.31698  0.09169  0.11789  Biso   1.000  C
  H807     1.0000 0.49256  0.29548  0.15460  Biso   1.000  H
  H808     1.0000 0.50458  0.22999  0.16240  Biso   1.000  H
  H809     1.0000 0.46997  0.86210  0.05970  Biso   1.000  H
  H810     1.0000 0.45961  0.83549  0.07220  Biso   1.000  H
  C751     1.0000 0.50007  0.76361  0.06285  Biso   1.000  C
  H811     1.0000 0.54710  0.68672  0.06980  Biso   1.000  H
  H812     1.0000 0.50692  0.72359  0.07860  Biso   1.000  H
  C752     1.0000 0.74850  0.79268  0.08103  Biso   1.000  C
  H813     1.0000 0.39010  0.41417  0.07000  Biso   1.000  H
  H814     1.0000 0.31207  0.37490  0.06140  Biso   1.000  H
  C753     1.0000 0.35010  0.50340  0.06576  Biso   1.000  C
  C754     1.0000 0.26028  0.25987  0.08917  Biso   1.000  C
  H815     1.0000 0.23991  0.46619  0.05610  Biso   1.000  H
  H816     1.0000 0.27457  0.55988  0.06160  Biso   1.000  H
  H817     1.0000 0.63794  0.48413  0.14750  Biso   1.000  H
  H818     1.0000 0.66811  0.41291  0.14630  Biso   1.000  H
  C755     1.0000 0.80894  0.71433  0.10694  Biso   1.000  C
  H819     1.0000 0.72664  0.68832  0.12030  Biso   1.000  H
  H820     1.0000 0.51590  0.15377  0.14750  Biso   1.000  H
  H821     1.0000 0.58712  0.25520  0.14630  Biso   1.000  H
  C756     1.0000 0.28570  0.09462  0.10694  Biso   1.000  C
  H822     1.0000 0.31170  0.03828  0.12030  Biso   1.000  H
  H823     1.0000 0.53381  0.77367  0.05610  Biso   1.000  H
  H824     1.0000 0.44012  0.71473  0.06160  Biso   1.000  H
  H825     1.0000 0.77200  0.80942  0.07400  Biso   1.000  H
  C757     1.0000 0.79654  0.76794  0.08900  Biso   1.000  C
  H826     1.0000 0.39211  0.53000  0.05970  Biso   1.000  H
  H827     1.0000 0.37589  0.54041  0.07220  Biso   1.000  H
  C758     1.0000 0.25649  0.17618  0.09283  Biso   1.000  C
  H828     1.0000 0.26927  0.30188  0.09450  Biso   1.000  H
  C759     1.0000 0.88792  0.71693  0.10327  Biso   1.000  C
  C760     1.0000 0.76479  0.74013  0.09960  Biso   1.000  C
  C761     1.0000 0.28311  0.17098  0.10327  Biso   1.000  C
  C762     1.0000 0.25991  0.02467  0.09960  Biso   1.000  C
  C763     1.0000 0.87400  0.76961  0.08562  Biso   1.000  C
  C764     1.0000 0.23043  0.10443  0.08562  Biso   1.000  C
  H829     1.0000 0.91882  0.70019  0.10810  Biso   1.000  H
  C765     1.0000 0.91970  0.74353  0.09283  Biso   1.000  C
  H830     1.0000 0.71278  0.73880  0.10180  Biso   1.000  H
  H831     1.0000 0.29981  0.21859  0.10810  Biso   1.000  H
  H832     1.0000 0.26119  0.97399  0.10180  Biso   1.000  H
  C766     1.0000 0.23208  0.02861  0.08900  Biso   1.000  C
  H833     1.0000 0.89570  0.78828  0.07850  Biso   1.000  H
  H834     1.0000 0.21172  0.10743  0.07850  Biso   1.000  H
  C767     1.0000 0.99963  0.73973  0.08917  Biso   1.000  C
  C768     1.0000 0.20728  0.95579  0.08103  Biso   1.000  C
  H835     1.0000 0.03261  0.73073  0.09450  Biso   1.000  H
  N107     1.0000 0.02571  0.74753  0.07947  Biso   1.000  N
  H836     1.0000 0.19058  0.96259  0.07400  Biso   1.000  H
  N108     1.0000 0.20752  0.88524  0.08325  Biso   1.000  N
  C769     1.0000 0.10040  0.73453  0.07746  Biso   1.000  C
  C770     1.0000 0.18279  0.82042  0.07445  Biso   1.000  C
  H837     1.0000 0.11240  0.71059  0.08410  Biso   1.000  H
  C771     1.0000 0.07650  0.66571  0.06799  Biso   1.000  C
  C772     1.0000 0.26140  0.80462  0.07200  Biso   1.000  C
  H838     1.0000 0.17028  0.84449  0.06780  Biso   1.000  H
  H839     1.0000 0.02411  0.60990  0.07000  Biso   1.000  H
  H840     1.0000 0.06283  0.68792  0.06140  Biso   1.000  H
  C773     1.0000 0.15332  0.64991  0.06576  Biso   1.000  C
  C774     1.0000 0.23642  0.73653  0.06285  Biso   1.000  C
  H841     1.0000 0.31333  0.86043  0.06980  Biso   1.000  H
  H842     1.0000 0.27637  0.78328  0.07860  Biso   1.000  H
  H843     1.0000 0.13792  0.60790  0.05970  Biso   1.000  H
  H844     1.0000 0.16450  0.62410  0.07220  Biso   1.000  H
  H845     1.0000 0.22634  0.76014  0.05610  Biso   1.000  H
  H846     1.0000 0.28531  0.72540  0.06160  Biso   1.000  H
  C775     1.0000 0.81848  0.81621  0.81386  Biso   1.000  C
  C776     1.0000 0.75067  0.75360  0.82229  Biso   1.000  C
  C777     1.0000 0.91079  0.85289  0.81855  Biso   1.000  C
  H847     1.0000 0.81298  0.78407  0.80710  Biso   1.000  H
  H848     1.0000 0.80749  0.86469  0.81220  Biso   1.000  H
  C778     1.0000 0.76680  0.67878  0.82586  Biso   1.000  C
  H849     1.0000 0.75291  0.78787  0.82870  Biso   1.000  H
  H850     1.0000 0.69140  0.72792  0.81920  Biso   1.000  H
  C779     1.0000 0.92957  0.77967  0.82197  Biso   1.000  C
  H851     1.0000 0.91731  0.88983  0.82490  Biso   1.000  H
  H852     1.0000 0.95434  0.89043  0.81310  Biso   1.000  H
  N109     1.0000 0.70289  0.62570  0.83442  Biso   1.000  N
  C780     1.0000 0.86078  0.71659  0.83034  Biso   1.000  C
  H853     1.0000 0.75901  0.64057  0.81950  Biso   1.000  H
  H854     1.0000 0.98881  0.80621  0.82520  Biso   1.000  H
  H855     1.0000 0.92838  0.74599  0.81550  Biso   1.000  H
  C781     1.0000 0.64180  0.54648  0.83210  Biso   1.000  C
  H856     1.0000 0.86699  0.74853  0.83720  Biso   1.000  H
  N110     1.0000 0.87782  0.64210  0.83229  Biso   1.000  N
  C782     1.0000 0.57494  0.49233  0.84026  Biso   1.000  C
  H857     1.0000 0.63998  0.52320  0.82520  Biso   1.000  H
  C783     1.0000 0.89567  0.63150  0.84181  Biso   1.000  C
  C784     1.0000 0.50763  0.40831  0.83725  Biso   1.000  C
  C785     1.0000 0.57659  0.52220  0.85093  Biso   1.000  C
  C786     1.0000 0.91342  0.55981  0.84504  Biso   1.000  C
  H858     1.0000 0.89799  0.67077  0.84720  Biso   1.000  H
  C787     1.0000 0.44021  0.35363  0.84504  Biso   1.000  C
  H859     1.0000 0.50608  0.38730  0.83020  Biso   1.000  H
  C788     1.0000 0.51149  0.47192  0.85853  Biso   1.000  C
  H860     1.0000 0.62311  0.57782  0.85300  Biso   1.000  H
  C789     1.0000 0.90068  0.49239  0.83725  Biso   1.000  C
  C790     1.0000 0.94223  0.55621  0.85537  Biso   1.000  C
  C791     1.0000 0.36853  0.26420  0.84181  Biso   1.000  C
  C792     1.0000 0.44379  0.38597  0.85537  Biso   1.000  C
  C793     1.0000 0.51364  0.50833  0.86947  Biso   1.000  C
  C794     1.0000 0.91739  0.42511  0.84026  Biso   1.000  C
  H861     1.0000 0.88123  0.49393  0.83020  Biso   1.000  H
  C795     1.0000 0.96042  0.48853  0.85853  Biso   1.000  C
  H862     1.0000 0.95013  0.59962  0.86050  Biso   1.000  H
  N111     1.0000 0.35793  0.23573  0.83229  Biso   1.000  N
  H863     1.0000 0.32918  0.22719  0.84720  Biso   1.000  H
  H864     1.0000 0.40041  0.35049  0.86050  Biso   1.000  H
  H865     1.0000 0.56480  0.56088  0.87140  Biso   1.000  H
  N112     1.0000 0.45142  0.47399  0.87642  Biso   1.000  N
  C796     1.0000 0.90469  0.35823  0.83210  Biso   1.000  C
  C797     1.0000 0.94558  0.42338  0.85093  Biso   1.000  C
  C798     1.0000 0.99470  0.48639  0.86947  Biso   1.000  C
  C799     1.0000 0.28339  0.14417  0.83034  Biso   1.000  C
  C800     1.0000 0.46360  0.52180  0.88682  Biso   1.000  C
  N113     1.0000 0.92279  0.29708  0.83442  Biso   1.000  N
  H866     1.0000 0.88324  0.36003  0.82520  Biso   1.000  H
  H867     1.0000 0.95468  0.37690  0.85300  Biso   1.000  H
  H868     1.0000 0.99612  0.43518  0.87140  Biso   1.000  H
  N114     1.0000 0.02263  0.54861  0.87642  Biso   1.000  N
  C801     1.0000 0.22031  0.14991  0.82197  Biso   1.000  C
  C802     1.0000 0.32121  0.08802  0.82586  Biso   1.000  C
  H869     1.0000 0.25150  0.11850  0.83720  Biso   1.000  H
  C803     1.0000 0.46339  0.46479  0.89623  Biso   1.000  C
  C804     1.0000 0.38640  0.54007  0.88821  Biso   1.000  C
  H870     1.0000 0.52032  0.57828  0.88670  Biso   1.000  H
  C805     1.0000 0.91199  0.23319  0.82586  Biso   1.000  C
  C806     1.0000 0.05822  0.53641  0.88682  Biso   1.000  C
  C807     1.0000 0.14710  0.05788  0.81855  Biso   1.000  C
  H871     1.0000 0.19380  0.18258  0.82520  Biso   1.000  H
  H872     1.0000 0.25399  0.18238  0.81550  Biso   1.000  H
  C808     1.0000 0.24643  0.99713  0.82229  Biso   1.000  C
  H873     1.0000 0.35940  0.11843  0.81950  Biso   1.000  H
  N115     1.0000 0.37431  0.07722  0.83442  Biso   1.000  N
  H874     1.0000 0.40931  0.40617  0.89590  Biso   1.000  H
  C809     1.0000 0.46689  0.50793  0.90718  Biso   1.000  C
  N116     1.0000 0.54012  0.45412  0.89542  Biso   1.000  N
  C810     1.0000 0.39340  0.58329  0.89948  Biso   1.000  C
  H875     1.0000 0.33009  0.48473  0.88770  Biso   1.000  H
  H876     1.0000 0.38848  0.57968  0.88240  Biso   1.000  H
  C811     1.0000 0.85579  0.13917  0.83034  Biso   1.000  C
  H877     1.0000 0.88159  0.24100  0.81950  Biso   1.000  H
  C812     1.0000 0.00293  0.24933  0.82229  Biso   1.000  C
  C813     1.0000 0.00138  0.53661  0.89623  Biso   1.000  C
  C814     1.0000 0.15372  0.61363  0.88821  Biso   1.000  C
  H878     1.0000 0.05801  0.47972  0.88670  Biso   1.000  H
  C815     1.0000 0.18380  0.00227  0.81386  Biso   1.000  C
  H879     1.0000 0.11018  0.02747  0.82490  Biso   1.000  H
  H880     1.0000 0.10962  0.06388  0.81310  Biso   1.000  H
  H881     1.0000 0.21211  0.96499  0.82870  Biso   1.000  H
  H882     1.0000 0.27213  0.96352  0.81920  Biso   1.000  H
  C816     1.0000 0.45351  0.09529  0.83210  Biso   1.000  C
  H883     1.0000 0.46464  0.46912  0.91310  Biso   1.000  H
  H884     1.0000 0.52289  0.56368  0.90780  Biso   1.000  H
  C817     1.0000 0.39190  0.52520  0.90838  Biso   1.000  C
  C818     1.0000 0.52532  0.37450  0.89479  Biso   1.000  C
  H885     1.0000 0.44844  0.64023  0.89980  Biso   1.000  H
  H886     1.0000 0.34400  0.59422  0.90040  Biso   1.000  H
  N117     1.0000 0.76434  0.12223  0.83229  Biso   1.000  N
  H887     1.0000 0.88151  0.13297  0.83720  Biso   1.000  H
  C819     1.0000 0.85012  0.07042  0.82197  Biso   1.000  C
  C820     1.0000 0.99772  0.18151  0.81386  Biso   1.000  C
  H888     1.0000 0.03503  0.24713  0.82870  Biso   1.000  H
  H889     1.0000 0.03650  0.30861  0.81920  Biso   1.000  H
  N118     1.0000 0.91401  0.45992  0.89542  Biso   1.000  N
  H890     1.0000 0.99689  0.59069  0.89590  Biso   1.000  H
  C821     1.0000 0.04096  0.53307  0.90718  Biso   1.000  C
  C822     1.0000 0.18989  0.60662  0.89948  Biso   1.000  C
  H891     1.0000 0.15460  0.66991  0.88770  Biso   1.000  H
  H892     1.0000 0.19117  0.61149  0.88240  Biso   1.000  H
  H893     1.0000 0.21587  0.02887  0.80710  Biso   1.000  H
  H894     1.0000 0.13529  0.94279  0.81220  Biso   1.000  H
  C823     1.0000 0.50770  0.08262  0.84026  Biso   1.000  C
  H895     1.0000 0.47681  0.11683  0.82520  Biso   1.000  H
  H896     1.0000 0.33589  0.46919  0.90820  Biso   1.000  H
  H897     1.0000 0.39628  0.55348  0.91540  Biso   1.000  H
  C824     1.0000 0.59780  0.35349  0.89467  Biso   1.000  C
  H898     1.0000 0.46661  0.32789  0.89440  Biso   1.000  H
  C825     1.0000 0.73579  0.10429  0.84181  Biso   1.000  C
  H899     1.0000 0.81739  0.01120  0.82520  Biso   1.000  H
  H900     1.0000 0.81763  0.07162  0.81550  Biso   1.000  H
  C826     1.0000 0.94211  0.08922  0.81855  Biso   1.000  C
  H901     1.0000 0.97112  0.18698  0.80710  Biso   1.000  H
  H902     1.0000 0.05722  0.19252  0.81220  Biso   1.000  H
  C827     1.0000 0.84922  0.47472  0.89479  Biso   1.000  C
  H903     1.0000 0.00448  0.53541  0.91310  Biso   1.000  H
  H904     1.0000 0.04083  0.47712  0.90780  Biso   1.000  H
  C828     1.0000 0.13328  0.60809  0.90838  Biso   1.000  C
  H905     1.0000 0.19178  0.55161  0.89980  Biso   1.000  H
  H906     1.0000 0.25020  0.65597  0.90040  Biso   1.000  H
  C829     1.0000 0.59169  0.09929  0.83725  Biso   1.000  C
  C830     1.0000 0.47783  0.05441  0.85093  Biso   1.000  C
  C831     1.0000 0.57798  0.26487  0.89466  Biso   1.000  C
  C832     1.0000 0.68691  0.42198  0.89466  Biso   1.000  C
  C833     1.0000 0.64640  0.08662  0.84504  Biso   1.000  C
  H907     1.0000 0.77283  0.10203  0.84720  Biso   1.000  H
  H908     1.0000 0.97251  0.08269  0.82490  Biso   1.000  H
  H909     1.0000 0.93610  0.04568  0.81310  Biso   1.000  H
  C834     1.0000 0.75566  0.40217  0.89467  Biso   1.000  C
  H910     1.0000 0.86130  0.53341  0.89440  Biso   1.000  H
  H911     1.0000 0.13328  0.66411  0.90820  Biso   1.000  H
  H912     1.0000 0.15718  0.60369  0.91540  Biso   1.000  H
  H913     1.0000 0.61272  0.11883  0.83020  Biso   1.000  H
  C835     1.0000 0.52812  0.03961  0.85853  Biso   1.000  C
  H914     1.0000 0.42221  0.04528  0.85300  Biso   1.000  H
  C836     1.0000 0.64654  0.24433  0.89467  Biso   1.000  C
  H915     1.0000 0.51884  0.21912  0.89460  Biso   1.000  H
  H916     1.0000 0.70029  0.48119  0.89460  Biso   1.000  H
  C837     1.0000 0.61403  0.05782  0.85537  Biso   1.000  C
  C838     1.0000 0.73508  0.31308  0.89466  Biso   1.000  C
  C839     1.0000 0.49166  0.00527  0.86947  Biso   1.000  C
  C840     1.0000 0.62551  0.15077  0.89479  Biso   1.000  C
  H917     1.0000 0.64951  0.04988  0.86050  Biso   1.000  H
  H918     1.0000 0.78087  0.29968  0.89460  Biso   1.000  H
  H919     1.0000 0.43910  0.00387  0.87140  Biso   1.000  H
  N119     1.0000 0.52600  0.97739  0.87642  Biso   1.000  N
  N120     1.0000 0.54590  0.08602  0.89542  Biso   1.000  N
  H920     1.0000 0.67209  0.13870  0.89440  Biso   1.000  H
  C841     1.0000 0.47817  0.94178  0.88682  Biso   1.000  C
  C842     1.0000 0.53522  0.99860  0.89623  Biso   1.000  C
  C843     1.0000 0.45988  0.84629  0.88821  Biso   1.000  C
  H921     1.0000 0.42167  0.94198  0.88670  Biso   1.000  H
  H922     1.0000 0.59376  0.00307  0.89590  Biso   1.000  H
  C844     1.0000 0.49208  0.95899  0.90718  Biso   1.000  C
  C845     1.0000 0.41671  0.81008  0.89948  Biso   1.000  C
  H923     1.0000 0.51529  0.84543  0.88770  Biso   1.000  H
  H924     1.0000 0.42029  0.80882  0.88240  Biso   1.000  H
  H925     1.0000 0.53091  0.99553  0.91310  Biso   1.000  H
  H926     1.0000 0.43628  0.95919  0.90780  Biso   1.000  H
  C846     1.0000 0.47481  0.86670  0.90838  Biso   1.000  C
  H927     1.0000 0.35981  0.80822  0.89980  Biso   1.000  H
  H928     1.0000 0.40580  0.74980  0.90040  Biso   1.000  H
  H929     1.0000 0.53077  0.86670  0.90820  Biso   1.000  H
  H930     1.0000 0.44653  0.84283  0.91540  Biso   1.000  H
  C847     1.0000 0.50050  0.21052  0.06702  Biso   1.000  C
  C848     1.0000 0.51001  0.13436  0.06242  Biso   1.000  C
  C849     1.0000 0.45032  0.23652  0.05888  Biso   1.000  C
  H931     1.0000 0.55897  0.26139  0.06840  Biso   1.000  H
  H932     1.0000 0.46822  0.19251  0.07390  Biso   1.000  H
  C850     1.0000 0.41582  0.05341  0.06039  Biso   1.000  C
  H933     1.0000 0.54228  0.11829  0.06760  Biso   1.000  H
  H934     1.0000 0.54322  0.15250  0.05560  Biso   1.000  H
  C851     1.0000 0.35811  0.15790  0.05648  Biso   1.000  C
  H935     1.0000 0.44461  0.28527  0.06190  Biso   1.000  H
  H936     1.0000 0.48401  0.25699  0.05210  Biso   1.000  H
  C852     1.0000 0.36588  0.07768  0.05222  Biso   1.000  C
  H937     1.0000 0.42087  0.00366  0.05760  Biso   1.000  H
  H938     1.0000 0.38308  0.03527  0.06730  Biso   1.000  H
  H939     1.0000 0.32202  0.14070  0.06320  Biso   1.000  H
  N121     1.0000 0.31450  0.18177  0.04796  Biso   1.000  N
  N122     1.0000 0.27558  0.00346  0.05050  Biso   1.000  N
  H940     1.0000 0.39799  0.09362  0.04520  Biso   1.000  H
  C853     1.0000 0.24502  0.18351  0.05052  Biso   1.000  C
  C854     1.0000 0.24921  0.98732  0.04064  Biso   1.000  C
  H941     1.0000 0.22641  0.17457  0.05780  Biso   1.000  H
  C855     1.0000 0.19187  0.19918  0.04221  Biso   1.000  C
  C856     1.0000 0.15743  0.91951  0.03753  Biso   1.000  C
  H942     1.0000 0.28947  0.01947  0.03510  Biso   1.000  H
  C857     1.0000 0.13061  0.22218  0.04538  Biso   1.000  C
  C858     1.0000 0.20268  0.18811  0.03102  Biso   1.000  C
  C859     1.0000 0.09162  0.86943  0.04538  Biso   1.000  C
  C860     1.0000 0.13480  0.90670  0.02654  Biso   1.000  C
  H943     1.0000 0.12188  0.22759  0.05280  Biso   1.000  H
  C861     1.0000 0.08050  0.23792  0.03753  Biso   1.000  C
  C862     1.0000 0.15421  0.20158  0.02311  Biso   1.000  C
  H944     1.0000 0.24376  0.17117  0.02890  Biso   1.000  H
  C863     1.0000 0.00730  0.80808  0.04221  Biso   1.000  C
  H945     1.0000 0.10571  0.87810  0.05280  Biso   1.000  H
  C864     1.0000 0.04742  0.84582  0.02311  Biso   1.000  C
  H946     1.0000 0.17820  0.93898  0.02130  Biso   1.000  H
  C865     1.0000 0.01266  0.26186  0.04064  Biso   1.000  C
  C866     1.0000 0.09333  0.22812  0.02654  Biso   1.000  C
  C867     1.0000 0.16373  0.18771  0.01131  Biso   1.000  C
  C868     1.0000 0.93848  0.75500  0.05052  Biso   1.000  C
  C869     1.0000 0.98538  0.79727  0.03102  Biso   1.000  C
  C870     1.0000 0.02400  0.83628  0.01131  Biso   1.000  C
  H947     1.0000 0.98052  0.27000  0.03510  Biso   1.000  H
  N123     1.0000 0.99651  0.27206  0.05050  Biso   1.000  N
  H948     1.0000 0.06098  0.23919  0.02130  Biso   1.000  H
  C871     1.0000 0.24348  0.19798  0.00734  Biso   1.000  C
  C872     1.0000 0.18191  0.25479  0.00359  Biso   1.000  C
  C873     1.0000 0.14917  0.10789  0.00711  Biso   1.000  C
  C874     1.0000 0.09429  0.15937  0.00385  Biso   1.000  C
  H949     1.0000 0.94819  0.77360  0.05780  Biso   1.000  H
  N124     1.0000 0.86730  0.68551  0.04796  Biso   1.000  N
  H950     1.0000 0.92742  0.75620  0.02890  Biso   1.000  H
  C875     1.0000 0.07288  0.81808  0.00359  Biso   1.000  C
  C876     1.0000 0.06512  0.90570  0.00385  Biso   1.000  C
  C877     1.0000 0.95450  0.75653  0.00734  Biso   1.000  C
  C878     1.0000 0.95873  0.85082  0.00711  Biso   1.000  C
  C879     1.0000 0.92228  0.28820  0.05222  Biso   1.000  C
  C880     1.0000 0.25479  0.18191  0.99641  Biso   1.000  C
  H951     1.0000 0.29123  0.21632  0.01220  Biso   1.000  H
  C881     1.0000 0.19799  0.24352  0.99266  Biso   1.000  C
  H952     1.0000 0.18318  0.30687  0.00580  Biso   1.000  H
  C882     1.0000 0.15941  0.09428  0.99615  Biso   1.000  C
  H953     1.0000 0.13137  0.06028  0.01190  Biso   1.000  H
  C883     1.0000 0.10790  0.14917  0.99289  Biso   1.000  C
  H954     1.0000 0.03820  0.14697  0.00620  Biso   1.000  H
  C884     1.0000 0.79981  0.64190  0.05648  Biso   1.000  C
  H955     1.0000 0.12370  0.81681  0.00580  Biso   1.000  H
  C885     1.0000 0.04550  0.80201  0.99266  Biso   1.000  C
  H956     1.0000 0.10881  0.96178  0.00620  Biso   1.000  H
  C886     1.0000 0.04128  0.89210  0.99289  Biso   1.000  C
  C887     1.0000 0.92711  0.74519  0.99641  Biso   1.000  C
  H957     1.0000 0.92508  0.70878  0.01220  Biso   1.000  H
  C888     1.0000 0.93492  0.84062  0.99615  Biso   1.000  C
  H958     1.0000 0.92888  0.86863  0.01190  Biso   1.000  H
  C889     1.0000 0.84206  0.20018  0.05648  Biso   1.000  C
  H959     1.0000 0.90642  0.30441  0.04520  Biso   1.000  H
  C890     1.0000 0.94663  0.36242  0.06039  Biso   1.000  C
  C891     1.0000 0.18771  0.16370  0.98869  Biso   1.000  C
  H960     1.0000 0.30688  0.18317  0.99420  Biso   1.000  H
  H961     1.0000 0.21629  0.29120  0.98780  Biso   1.000  H
  H962     1.0000 0.14702  0.03820  0.99380  Biso   1.000  H
  H963     1.0000 0.06025  0.13136  0.98810  Biso   1.000  H
  C892     1.0000 0.71177  0.63410  0.05222  Biso   1.000  C
  C893     1.0000 0.78621  0.54968  0.05888  Biso   1.000  C
  H964     1.0000 0.81866  0.67798  0.06320  Biso   1.000  H
  C894     1.0000 0.97602  0.81228  0.98869  Biso   1.000  C
  H965     1.0000 0.07490  0.78367  0.98780  Biso   1.000  H
  H966     1.0000 0.07109  0.93971  0.98810  Biso   1.000  H
  H967     1.0000 0.87630  0.69311  0.99420  Biso   1.000  H
  H968     1.0000 0.89123  0.85302  0.99380  Biso   1.000  H
  N125     1.0000 0.81820  0.13269  0.04796  Biso   1.000  N
  C895     1.0000 0.76351  0.21378  0.05888  Biso   1.000  C
  H969     1.0000 0.85931  0.18131  0.06320  Biso   1.000  H
  H970     1.0000 0.99630  0.41717  0.05760  Biso   1.000  H
  H971     1.0000 0.96468  0.34782  0.06730  Biso   1.000  H
  C896     1.0000 0.86562  0.37562  0.06242  Biso   1.000  C
  C897     1.0000 0.20159  0.15417  0.97689  Biso   1.000  C
  H972     1.0000 0.69562  0.60202  0.04520  Biso   1.000  H
  C898     1.0000 0.63763  0.58422  0.06039  Biso   1.000  C
  N126     1.0000 0.72787  0.72439  0.05050  Biso   1.000  N
  C899     1.0000 0.71003  0.49953  0.06702  Biso   1.000  C
  H973     1.0000 0.84071  0.55541  0.06190  Biso   1.000  H
  H974     1.0000 0.77302  0.51600  0.05210  Biso   1.000  H
  C900     1.0000 0.95262  0.79841  0.97689  Biso   1.000  C
  C901     1.0000 0.81649  0.06148  0.05052  Biso   1.000  C
  C902     1.0000 0.78949  0.29000  0.06702  Biso   1.000  C
  H975     1.0000 0.71473  0.15930  0.06190  Biso   1.000  H
  H976     1.0000 0.74297  0.22699  0.05210  Biso   1.000  H
  H977     1.0000 0.88171  0.42397  0.06760  Biso   1.000  H
  H978     1.0000 0.84752  0.39070  0.05560  Biso   1.000  H
  C903     1.0000 0.22809  0.09328  0.97346  Biso   1.000  C
  C904     1.0000 0.18810  0.20271  0.96898  Biso   1.000  C
  H979     1.0000 0.58280  0.57908  0.05760  Biso   1.000  H
  H980     1.0000 0.65218  0.61689  0.06730  Biso   1.000  H
  C905     1.0000 0.62441  0.48999  0.06242  Biso   1.000  C
  C906     1.0000 0.73813  0.75080  0.04064  Biso   1.000  C
  H981     1.0000 0.70241  0.44098  0.06840  Biso   1.000  H
  H982     1.0000 0.72432  0.53181  0.07390  Biso   1.000  H
  C907     1.0000 0.86520  0.77187  0.97346  Biso   1.000  C
  C908     1.0000 0.01457  0.81188  0.96898  Biso   1.000  C
  C909     1.0000 0.80082  0.99273  0.04221  Biso   1.000  C
  H983     1.0000 0.82540  0.05181  0.05780  Biso   1.000  H
  H984     1.0000 0.73860  0.29760  0.06840  Biso   1.000  H
  H985     1.0000 0.80750  0.27567  0.07390  Biso   1.000  H
  C910     1.0000 0.23792  0.08048  0.96247  Biso   1.000  C
  H986     1.0000 0.23921  0.06101  0.97870  Biso   1.000  H
  C911     1.0000 0.19921  0.19191  0.95779  Biso   1.000  C
  H987     1.0000 0.17121  0.24379  0.97110  Biso   1.000  H
  H988     1.0000 0.57600  0.45772  0.06760  Biso   1.000  H
  H989     1.0000 0.60931  0.45679  0.05560  Biso   1.000  H
  H990     1.0000 0.73000  0.71052  0.03510  Biso   1.000  H
  C912     1.0000 0.76209  0.84262  0.03753  Biso   1.000  C
  C913     1.0000 0.84260  0.76213  0.96247  Biso   1.000  C
  H991     1.0000 0.82178  0.76080  0.97870  Biso   1.000  H
  C914     1.0000 0.99269  0.80081  0.95779  Biso   1.000  C
  H992     1.0000 0.07259  0.82882  0.97110  Biso   1.000  H
  C915     1.0000 0.77776  0.90837  0.04538  Biso   1.000  C
  C916     1.0000 0.81187  0.01460  0.03102  Biso   1.000  C
  C917     1.0000 0.26188  0.01266  0.95936  Biso   1.000  C
  C918     1.0000 0.22219  0.13056  0.95462  Biso   1.000  C
  C919     1.0000 0.18348  0.24499  0.94948  Biso   1.000  C
  C920     1.0000 0.77189  0.86523  0.02654  Biso   1.000  C
  C921     1.0000 0.75079  0.73813  0.95936  Biso   1.000  C
  C922     1.0000 0.90842  0.77780  0.95462  Biso   1.000  C
  C923     1.0000 0.06151  0.81648  0.94948  Biso   1.000  C
  H993     1.0000 0.77240  0.89430  0.05280  Biso   1.000  H
  C924     1.0000 0.79836  0.95258  0.02311  Biso   1.000  C
  H994     1.0000 0.82881  0.07261  0.02890  Biso   1.000  H
  N127     1.0000 0.27211  0.99653  0.94950  Biso   1.000  N
  H995     1.0000 0.27000  0.98052  0.96490  Biso   1.000  H
  H996     1.0000 0.22761  0.12189  0.94720  Biso   1.000  H
  H997     1.0000 0.17458  0.22639  0.94220  Biso   1.000  H
  N128     1.0000 0.18178  0.31448  0.95204  Biso   1.000  N
  H998     1.0000 0.76081  0.82181  0.02130  Biso   1.000  H
  H999     1.0000 0.71051  0.72999  0.96490  Biso   1.000  H
  N129     1.0000 0.72444  0.72792  0.94950  Biso   1.000  N
  H1000    1.0000 0.89429  0.77240  0.94720  Biso   1.000  H
  H1001    1.0000 0.05183  0.82541  0.94220  Biso   1.000  H
  N130     1.0000 0.13271  0.81821  0.95204  Biso   1.000  N
  C925     1.0000 0.81232  0.97599  0.01131  Biso   1.000  C
  C926     1.0000 0.28819  0.92231  0.94778  Biso   1.000  C
  C927     1.0000 0.15791  0.35809  0.94352  Biso   1.000  C
  C928     1.0000 0.63407  0.71179  0.94778  Biso   1.000  C
  C929     1.0000 0.20021  0.84209  0.94352  Biso   1.000  C
  C930     1.0000 0.74520  0.92711  0.00359  Biso   1.000  C
  C931     1.0000 0.84058  0.93491  0.00385  Biso   1.000  C
  C932     1.0000 0.80196  0.04547  0.00734  Biso   1.000  C
  C933     1.0000 0.89208  0.04127  0.00711  Biso   1.000  C
  H1002    1.0000 0.30436  0.90637  0.95480  Biso   1.000  H
  C934     1.0000 0.36241  0.94658  0.93961  Biso   1.000  C
  C935     1.0000 0.07767  0.36589  0.94778  Biso   1.000  C
  C936     1.0000 0.23653  0.45031  0.94112  Biso   1.000  C
  H1003    1.0000 0.14068  0.32201  0.93680  Biso   1.000  H
  H1004    1.0000 0.60201  0.69558  0.95480  Biso   1.000  H
  C937     1.0000 0.58424  0.63763  0.93961  Biso   1.000  C
  C938     1.0000 0.64188  0.79981  0.94352  Biso   1.000  C
  C939     1.0000 0.21383  0.76353  0.94112  Biso   1.000  C
  H1005    1.0000 0.18132  0.85929  0.93680  Biso   1.000  H
  C940     1.0000 0.75648  0.95452  0.99266  Biso   1.000  C
  H1006    1.0000 0.69311  0.87629  0.00580  Biso   1.000  H
  C941     1.0000 0.85081  0.95872  0.99289  Biso   1.000  C
  H1007    1.0000 0.85304  0.89123  0.00620  Biso   1.000  H
  C942     1.0000 0.81809  0.07288  0.99641  Biso   1.000  C
  H1008    1.0000 0.78369  0.07488  0.01220  Biso   1.000  H
  C943     1.0000 0.90566  0.06508  0.99615  Biso   1.000  C
  H1009    1.0000 0.93967  0.07108  0.01190  Biso   1.000  H
  H1010    1.0000 0.41720  0.99633  0.94240  Biso   1.000  H
  H1011    1.0000 0.34780  0.96472  0.93270  Biso   1.000  H
  C944     1.0000 0.37564  0.86563  0.93758  Biso   1.000  C
  N131     1.0000 0.00347  0.27560  0.94950  Biso   1.000  N
  H1012    1.0000 0.09359  0.39796  0.95480  Biso   1.000  H
  C945     1.0000 0.05340  0.41577  0.93961  Biso   1.000  C
  C946     1.0000 0.21053  0.50052  0.93298  Biso   1.000  C
  H1013    1.0000 0.28529  0.44458  0.93810  Biso   1.000  H
  H1014    1.0000 0.25701  0.48399  0.94790  Biso   1.000  H
  H1015    1.0000 0.57912  0.58282  0.94240  Biso   1.000  H
  H1016    1.0000 0.61686  0.65217  0.93270  Biso   1.000  H
  C947     1.0000 0.49003  0.62443  0.93758  Biso   1.000  C
  C948     1.0000 0.54972  0.78620  0.94112  Biso   1.000  C
  H1017    1.0000 0.67799  0.81868  0.93680  Biso   1.000  H
  N132     1.0000 0.68549  0.86729  0.95204  Biso   1.000  N
  C949     1.0000 0.28998  0.78947  0.93298  Biso   1.000  C
  H1018    1.0000 0.15933  0.71472  0.93810  Biso   1.000  H
  H1019    1.0000 0.22701  0.74299  0.94790  Biso   1.000  H
  H1020    1.0000 0.70880  0.92511  0.98780  Biso   1.000  H
  C950     1.0000 0.83632  0.02400  0.98869  Biso   1.000  C
  H1021    1.0000 0.86859  0.92891  0.98810  Biso   1.000  H
  H1022    1.0000 0.81681  0.12369  0.99420  Biso   1.000  H
  H1023    1.0000 0.96184  0.10882  0.99380  Biso   1.000  H
  H1024    1.0000 0.42399  0.88170  0.93240  Biso   1.000  H
  H1025    1.0000 0.39071  0.84749  0.94440  Biso   1.000  H
  C951     1.0000 0.98732  0.24919  0.95936  Biso   1.000  C
  H1026    1.0000 0.00371  0.42090  0.94240  Biso   1.000  H
  H1027    1.0000 0.03528  0.38309  0.93270  Biso   1.000  H
  C952     1.0000 0.13441  0.50999  0.93758  Biso   1.000  C
  H1028    1.0000 0.26143  0.55901  0.93160  Biso   1.000  H
  H1029    1.0000 0.19251  0.46818  0.92610  Biso   1.000  H
  H1030    1.0000 0.45774  0.57602  0.93240  Biso   1.000  H
  H1031    1.0000 0.45682  0.60929  0.94440  Biso   1.000  H
  C953     1.0000 0.49948  0.70998  0.93298  Biso   1.000  C
  H1032    1.0000 0.55542  0.84069  0.93810  Biso   1.000  H
  H1033    1.0000 0.51598  0.77300  0.94790  Biso   1.000  H
  C954     1.0000 0.75500  0.93851  0.94948  Biso   1.000  C
  H1034    1.0000 0.29757  0.73859  0.93160  Biso   1.000  H
  H1035    1.0000 0.27571  0.80748  0.92610  Biso   1.000  H
  C955     1.0000 0.84578  0.04741  0.97689  Biso   1.000  C
  C956     1.0000 0.91947  0.15737  0.96247  Biso   1.000  C
  H1036    1.0000 0.01947  0.28947  0.96490  Biso   1.000  H
  H1037    1.0000 0.11827  0.54227  0.93240  Biso   1.000  H
  H1038    1.0000 0.15252  0.54320  0.94440  Biso   1.000  H
  H1039    1.0000 0.44099  0.70238  0.93160  Biso   1.000  H
  H1040    1.0000 0.53183  0.72432  0.92610  Biso   1.000  H
  C957     1.0000 0.80809  0.00726  0.95779  Biso   1.000  C
  H1041    1.0000 0.77358  0.94818  0.94220  Biso   1.000  H
  C958     1.0000 0.79727  0.98539  0.96898  Biso   1.000  C
  C959     1.0000 0.90666  0.13476  0.97346  Biso   1.000  C
  C960     1.0000 0.86938  0.09162  0.95462  Biso   1.000  C
  H1042    1.0000 0.75619  0.92737  0.97110  Biso   1.000  H
  H1043    1.0000 0.93899  0.17817  0.97870  Biso   1.000  H
  H1044    1.0000 0.87809  0.10569  0.94720  Biso   1.000  H
  C961     1.0000 0.51963  0.75433  0.84459  Biso   1.000  C
  C962     1.0000 0.47639  0.68898  0.85372  Biso   1.000  C
  H1045    1.0000 0.50741  0.80288  0.84540  Biso   1.000  H
  H1046    1.0000 0.49540  0.72539  0.83760  Biso   1.000  H
  C963     1.0000 0.61981  0.79067  0.84483  Biso   1.000  C
  C964     1.0000 0.51500  0.72912  0.86481  Biso   1.000  C
  H1047    1.0000 0.48411  0.63790  0.85250  Biso   1.000  H
  H1048    1.0000 0.41288  0.66811  0.85370  Biso   1.000  H
  H1049    1.0000 0.63158  0.74259  0.84330  Biso   1.000  H
  H1050    1.0000 0.64768  0.83508  0.83910  Biso   1.000  H
  C965     1.0000 0.66100  0.83228  0.85585  Biso   1.000  C
  C966     1.0000 0.61547  0.76560  0.86498  Biso   1.000  C
  H1051    1.0000 0.48679  0.68391  0.87050  Biso   1.000  H
  H1052    1.0000 0.50280  0.77680  0.86640  Biso   1.000  H
  H1053    1.0000 0.65554  0.88523  0.85710  Biso   1.000  H
  N133     1.0000 0.75509  0.85702  0.85582  Biso   1.000  N
  H1054    1.0000 0.62699  0.71599  0.86400  Biso   1.000  H
  N134     1.0000 0.64910  0.80641  0.87569  Biso   1.000  N
  C967     1.0000 0.81191  0.93798  0.85661  Biso   1.000  C
  C968     1.0000 0.68296  0.77467  0.88211  Biso   1.000  C
  H1055    1.0000 0.79279  0.97932  0.85720  Biso   1.000  H
  C969     1.0000 0.90970  0.97012  0.85658  Biso   1.000  C
  C970     1.0000 0.71427  0.80888  0.89306  Biso   1.000  C
  H1056    1.0000 0.68831  0.72659  0.87970  Biso   1.000  H
  C971     1.0000 0.94040  0.90990  0.85643  Biso   1.000  C
  C972     1.0000 0.96951  0.05961  0.85643  Biso   1.000  C
  C973     1.0000 0.71688  0.88790  0.89673  Biso   1.000  C
  C974     1.0000 0.74010  0.76480  0.90040  Biso   1.000  C
  H1057    1.0000 0.90002  0.84902  0.85620  Biso   1.000  H
  C975     1.0000 0.02991  0.93958  0.85658  Biso   1.000  C
  H1058    1.0000 0.94900  0.10002  0.85620  Biso   1.000  H
  C976     1.0000 0.06039  0.09028  0.85658  Biso   1.000  C
  H1059    1.0000 0.70020  0.91877  0.89190  Biso   1.000  H
  C977     1.0000 0.74352  0.91971  0.90717  Biso   1.000  C
  C978     1.0000 0.76790  0.79647  0.91100  Biso   1.000  C
  H1060    1.0000 0.73881  0.71279  0.89820  Biso   1.000  H
  C979     1.0000 0.06198  0.87389  0.85661  Biso   1.000  C
  C980     1.0000 0.09008  0.03047  0.85643  Biso   1.000  C
  C981     1.0000 0.12611  0.18811  0.85661  Biso   1.000  C
  C982     1.0000 0.76960  0.87403  0.91438  Biso   1.000  C
  C983     1.0000 0.73969  0.99959  0.91083  Biso   1.000  C
  C984     1.0000 0.79272  0.74853  0.91897  Biso   1.000  C
  H1061    1.0000 0.02068  0.81348  0.85720  Biso   1.000  H
  N135     1.0000 0.14297  0.89810  0.85582  Biso   1.000  N
  H1062    1.0000 0.15099  0.05101  0.85620  Biso   1.000  H
  H1063    1.0000 0.18646  0.20718  0.85720  Biso   1.000  H
  N136     1.0000 0.10190  0.24492  0.85582  Biso   1.000  N
  H1064    1.0000 0.78829  0.89570  0.92150  Biso   1.000  H
  H1065    1.0000 0.73073  0.03260  0.90550  Biso   1.000  H
  N137     1.0000 0.74747  0.02567  0.92053  Biso   1.000  N
  H1066    1.0000 0.80942  0.77200  0.92600  Biso   1.000  H
  N138     1.0000 0.79248  0.67771  0.91675  Biso   1.000  N
  C985     1.0000 0.16769  0.82868  0.85585  Biso   1.000  C
  C986     1.0000 0.17130  0.33902  0.85585  Biso   1.000  C
  C987     1.0000 0.73449  0.10042  0.92254  Biso   1.000  C
  C988     1.0000 0.81720  0.63763  0.92555  Biso   1.000  C
  C989     1.0000 0.23437  0.84989  0.86498  Biso   1.000  C
  C990     1.0000 0.20930  0.82908  0.84483  Biso   1.000  C
  H1067    1.0000 0.11481  0.77027  0.85710  Biso   1.000  H
  C991     1.0000 0.15009  0.38449  0.86498  Biso   1.000  C
  C992     1.0000 0.17094  0.38023  0.84483  Biso   1.000  C
  H1068    1.0000 0.22970  0.34448  0.85710  Biso   1.000  H
  H1069    1.0000 0.71064  0.11242  0.91590  Biso   1.000  H
  C993     1.0000 0.66569  0.07648  0.93201  Biso   1.000  C
  C994     1.0000 0.82037  0.18277  0.92555  Biso   1.000  C
  C995     1.0000 0.89957  0.63410  0.92254  Biso   1.000  C
  C996     1.0000 0.73863  0.54321  0.92800  Biso   1.000  C
  H1070    1.0000 0.82970  0.67418  0.93220  Biso   1.000  H
  H1071    1.0000 0.28397  0.91097  0.86400  Biso   1.000  H
  C997     1.0000 0.27091  0.78587  0.86481  Biso   1.000  C
  N139     1.0000 0.19358  0.84269  0.87569  Biso   1.000  N
  C998     1.0000 0.24574  0.76533  0.84459  Biso   1.000  C
  H1072    1.0000 0.25741  0.88903  0.84330  Biso   1.000  H
  H1073    1.0000 0.16491  0.81261  0.83910  Biso   1.000  H
  H1074    1.0000 0.08903  0.37302  0.86400  Biso   1.000  H
  C999     1.0000 0.21408  0.48499  0.86481  Biso   1.000  C
  N140     1.0000 0.15731  0.35088  0.87569  Biso   1.000  N
  C1000    1.0000 0.23471  0.48039  0.84459  Biso   1.000  C
  H1075    1.0000 0.11098  0.36842  0.84330  Biso   1.000  H
  H1076    1.0000 0.18740  0.35229  0.83910  Biso   1.000  H
  H1077    1.0000 0.60986  0.02407  0.93000  Biso   1.000  H
  H1078    1.0000 0.68791  0.06281  0.93860  Biso   1.000  H
  C1001    1.0000 0.64988  0.15330  0.93424  Biso   1.000  C
  C1002    1.0000 0.80458  0.26139  0.92800  Biso   1.000  C
  H1079    1.0000 0.84451  0.17030  0.93220  Biso   1.000  H
  N141     1.0000 0.88523  0.20751  0.91675  Biso   1.000  N
  H1080    1.0000 0.88758  0.59822  0.91590  Biso   1.000  H
  C1003    1.0000 0.92351  0.58922  0.93201  Biso   1.000  C
  N142     1.0000 0.97432  0.72179  0.92053  Biso   1.000  N
  C1004    1.0000 0.76364  0.50013  0.93715  Biso   1.000  C
  H1081    1.0000 0.68668  0.54708  0.93020  Biso   1.000  H
  H1082    1.0000 0.72361  0.50693  0.92140  Biso   1.000  H
  H1083    1.0000 0.31608  0.80288  0.87050  Biso   1.000  H
  H1084    1.0000 0.22318  0.72599  0.86640  Biso   1.000  H
  C1005    1.0000 0.31100  0.78740  0.85372  Biso   1.000  C
  C1006    1.0000 0.22529  0.90830  0.88211  Biso   1.000  C
  H1085    1.0000 0.19708  0.70452  0.84540  Biso   1.000  H
  H1086    1.0000 0.27458  0.77000  0.83760  Biso   1.000  H
  H1087    1.0000 0.19711  0.51319  0.87050  Biso   1.000  H
  H1088    1.0000 0.27400  0.49719  0.86640  Biso   1.000  H
  C1007    1.0000 0.21260  0.52360  0.85372  Biso   1.000  C
  C1008    1.0000 0.09169  0.31701  0.88211  Biso   1.000  C
  H1089    1.0000 0.29550  0.49259  0.84540  Biso   1.000  H
  H1090    1.0000 0.23000  0.50459  0.83760  Biso   1.000  H
  H1091    1.0000 0.60787  0.13790  0.94030  Biso   1.000  H
  H1092    1.0000 0.62412  0.16450  0.92780  Biso   1.000  H
  C1009    1.0000 0.73647  0.23639  0.93715  Biso   1.000  C
  H1093    1.0000 0.86038  0.31328  0.93020  Biso   1.000  H
  H1094    1.0000 0.78333  0.27640  0.92140  Biso   1.000  H
  C1010    1.0000 0.95582  0.20731  0.91897  Biso   1.000  C
  H1095    1.0000 0.97592  0.58582  0.93000  Biso   1.000  H
  H1096    1.0000 0.93717  0.62510  0.93860  Biso   1.000  H
  C1011    1.0000 0.84670  0.49660  0.93424  Biso   1.000  C
  C1012    1.0000 0.00040  0.74013  0.91083  Biso   1.000  C
  H1097    1.0000 0.77372  0.53381  0.94390  Biso   1.000  H
  H1098    1.0000 0.71469  0.44011  0.93840  Biso   1.000  H
  H1099    1.0000 0.36213  0.84622  0.85250  Biso   1.000  H
  H1100    1.0000 0.33191  0.74479  0.85370  Biso   1.000  H
  C1013    1.0000 0.19108  0.90537  0.89306  Biso   1.000  C
  H1101    1.0000 0.27342  0.96172  0.87970  Biso   1.000  H
  H1102    1.0000 0.15381  0.51586  0.85250  Biso   1.000  H
  H1103    1.0000 0.25519  0.58708  0.85370  Biso   1.000  H
  C1014    1.0000 0.09461  0.28567  0.89306  Biso   1.000  C
  H1104    1.0000 0.03832  0.31167  0.87970  Biso   1.000  H
  H1105    1.0000 0.76013  0.22632  0.94390  Biso   1.000  H
  H1106    1.0000 0.72539  0.28527  0.93840  Biso   1.000  H
  H1107    1.0000 0.96258  0.19058  0.92600  Biso   1.000  H
  C1015    1.0000 0.02863  0.23212  0.91100  Biso   1.000  C
  H1108    1.0000 0.86210  0.46999  0.94030  Biso   1.000  H
  H1109    1.0000 0.83548  0.45959  0.92780  Biso   1.000  H
  H1110    1.0000 0.96739  0.69812  0.90550  Biso   1.000  H
  C1016    1.0000 0.08031  0.82381  0.90717  Biso   1.000  C
  C1017    1.0000 0.11213  0.82902  0.89673  Biso   1.000  C
  C1018    1.0000 0.23523  0.97532  0.90040  Biso   1.000  C
  C1019    1.0000 0.17099  0.28307  0.89673  Biso   1.000  C
  C1020    1.0000 0.02465  0.25986  0.90040  Biso   1.000  C
  C1021    1.0000 0.10439  0.23039  0.91438  Biso   1.000  C
  C1022    1.0000 0.12603  0.89563  0.91438  Biso   1.000  C
  H1111    1.0000 0.08122  0.78140  0.89190  Biso   1.000  H
  C1023    1.0000 0.20347  0.97139  0.91100  Biso   1.000  C
  H1112    1.0000 0.28720  0.02600  0.89820  Biso   1.000  H
  H1113    1.0000 0.21863  0.29980  0.89190  Biso   1.000  H
  C1024    1.0000 0.17616  0.25646  0.90717  Biso   1.000  C
  H1114    1.0000 0.97398  0.26119  0.89820  Biso   1.000  H
  H1115    1.0000 0.10742  0.21172  0.92150  Biso   1.000  H
  H1116    1.0000 0.10432  0.89263  0.92150  Biso   1.000  H
  C1025    1.0000 0.25149  0.04421  0.91897  Biso   1.000  C
  C1026    1.0000 0.25990  0.26026  0.91083  Biso   1.000  C
  H1117    1.0000 0.22799  0.03740  0.92600  Biso   1.000  H
  N143     1.0000 0.32231  0.11482  0.91675  Biso   1.000  N
  H1118    1.0000 0.30188  0.26926  0.90550  Biso   1.000  H
  N144     1.0000 0.27820  0.25253  0.92053  Biso   1.000  N
  C1027    1.0000 0.36237  0.17957  0.92555  Biso   1.000  C
  C1028    1.0000 0.36587  0.26546  0.92254  Biso   1.000  C
  C1029    1.0000 0.45678  0.19538  0.92800  Biso   1.000  C
  H1119    1.0000 0.32579  0.15550  0.93220  Biso   1.000  H
  H1120    1.0000 0.40180  0.28940  0.91590  Biso   1.000  H
  C1030    1.0000 0.41079  0.33428  0.93201  Biso   1.000  C
  C1031    1.0000 0.49989  0.26346  0.93715  Biso   1.000  C
  H1121    1.0000 0.45290  0.13956  0.93020  Biso   1.000  H
  H1122    1.0000 0.49309  0.21672  0.92140  Biso   1.000  H
  H1123    1.0000 0.41421  0.39010  0.93000  Biso   1.000  H
  H1124    1.0000 0.37491  0.31207  0.93860  Biso   1.000  H
  C1032    1.0000 0.50341  0.35008  0.93424  Biso   1.000  C
  H1125    1.0000 0.46623  0.23992  0.94390  Biso   1.000  H
  H1126    1.0000 0.55991  0.27460  0.93840  Biso   1.000  H
  H1127    1.0000 0.53002  0.39210  0.94030  Biso   1.000  H
  H1128    1.0000 0.54039  0.37589  0.92780  Biso   1.000  H
