data_image0
_cell_length_a       17.157
_cell_length_b       17.157
_cell_length_c       121.803
_cell_angle_alpha    90
_cell_angle_beta     90
_cell_angle_gamma    120

_symmetry_space_group_name_H-M    "P 1"
_symmetry_int_tables_number       1

loop_
  _symmetry_equiv_pos_as_xyz
  'x, y, z'

loop_
  _atom_site_label
  _atom_site_occupancy
  _atom_site_fract_x
  _atom_site_fract_y
  _atom_site_fract_z
  _atom_site_thermal_displace_type
  _atom_site_B_iso_or_equiv
  _atom_site_type_symbol
  C1       1.0000 0.80530  0.74389  0.44995  Biso   1.000  C
  N1       1.0000 0.82288  0.68312  0.45244  Biso   1.000  N
  C2       1.0000 0.79179  0.79638  0.45781  Biso   1.000  C
  H1       1.0000 0.80076  0.75486  0.44240  Biso   1.000  H
  C3       1.0000 0.84706  0.63997  0.44402  Biso   1.000  C
  C4       1.0000 0.76388  0.85689  0.45490  Biso   1.000  C
  C5       1.0000 0.80895  0.79107  0.46901  Biso   1.000  C
  C6       1.0000 0.76349  0.54360  0.44226  Biso   1.000  C
  H2       1.0000 0.86279  0.67551  0.43710  Biso   1.000  H
  C7       1.0000 0.92787  0.63129  0.44812  Biso   1.000  C
  C8       1.0000 0.75308  0.91060  0.46268  Biso   1.000  C
  H3       1.0000 0.75180  0.86187  0.44740  Biso   1.000  H
  C9       1.0000 0.79337  0.84080  0.47694  Biso   1.000  C
  H4       1.0000 0.83170  0.75311  0.47120  Biso   1.000  H
  C10      1.0000 0.79059  0.49218  0.43331  Biso   1.000  C
  H5       1.0000 0.71150  0.54838  0.43960  Biso   1.000  H
  H6       1.0000 0.74658  0.50988  0.44930  Biso   1.000  H
  C11      1.0000 0.95360  0.58250  0.43944  Biso   1.000  C
  H7       1.0000 0.91357  0.59872  0.45530  Biso   1.000  H
  N2       1.0000 0.00157  0.72437  0.44939  Biso   1.000  N
  C12      1.0000 0.76300  0.89909  0.47345  Biso   1.000  C
  C13      1.0000 0.72737  0.97877  0.45923  Biso   1.000  C
  C14      1.0000 0.80698  0.83165  0.48890  Biso   1.000  C
  H8       1.0000 0.73905  0.43107  0.43200  Biso   1.000  H
  H9       1.0000 0.80700  0.52570  0.42630  Biso   1.000  H
  C15      1.0000 0.87150  0.48579  0.43777  Biso   1.000  C
  H10      1.0000 0.96905  0.61608  0.43240  Biso   1.000  H
  H11      1.0000 0.00657  0.57886  0.44200  Biso   1.000  H
  C16      1.0000 0.02121  0.74860  0.45923  Biso   1.000  C
  H12      1.0000 0.74916  0.93085  0.47880  Biso   1.000  H
  N3       1.0000 0.72276  0.99836  0.44939  Biso   1.000  N
  H13      1.0000 0.71373  0.00886  0.46480  Biso   1.000  H
  C17      1.0000 0.79528  0.74927  0.49280  Biso   1.000  C
  C18      1.0000 0.73580  0.80668  0.49632  Biso   1.000  C
  C19      1.0000 0.89049  0.84679  0.49288  Biso   1.000  C
  C20      1.0000 0.83910  0.90696  0.49617  Biso   1.000  C
  H14      1.0000 0.88760  0.45200  0.43250  Biso   1.000  H
  H15      1.0000 0.85514  0.45308  0.44490  Biso   1.000  H
  H16      1.0000 0.99106  0.70485  0.46480  Biso   1.000  H
  C21      1.0000 0.08943  0.84249  0.46268  Biso   1.000  C
  C22      1.0000 0.70331  0.07205  0.44812  Biso   1.000  C
  H17      1.0000 0.77896  0.70135  0.48770  Biso   1.000  H
  C23      1.0000 0.80668  0.73581  0.50368  Biso   1.000  C
  C24      1.0000 0.74929  0.79531  0.50720  Biso   1.000  C
  H18      1.0000 0.67931  0.79780  0.49390  Biso   1.000  H
  H19      1.0000 0.93796  0.86315  0.48780  Biso   1.000  H
  C25      1.0000 0.90697  0.83905  0.50383  Biso   1.000  C
  C26      1.0000 0.84676  0.89047  0.50712  Biso   1.000  C
  H20      1.0000 0.85439  0.96518  0.49360  Biso   1.000  H
  C27      1.0000 0.10088  0.86389  0.47345  Biso   1.000  C
  C28      1.0000 0.14311  0.90696  0.45490  Biso   1.000  C
  C29      1.0000 0.79285  0.15288  0.44402  Biso   1.000  C
  C30      1.0000 0.62884  0.04634  0.43944  Biso   1.000  C
  H21      1.0000 0.68506  0.08639  0.45530  Biso   1.000  H
  H22      1.0000 0.79776  0.67928  0.50610  Biso   1.000  H
  C31      1.0000 0.83164  0.80695  0.51110  Biso   1.000  C
  H23      1.0000 0.70136  0.77895  0.51230  Biso   1.000  H
  H24      1.0000 0.96517  0.85440  0.50640  Biso   1.000  H
  H25      1.0000 0.86318  0.93799  0.51220  Biso   1.000  H
  C32      1.0000 0.15922  0.95259  0.47694  Biso   1.000  C
  H26      1.0000 0.06909  0.81826  0.47880  Biso   1.000  H
  H27      1.0000 0.13806  0.88987  0.44740  Biso   1.000  H
  C33      1.0000 0.20359  0.99540  0.45781  Biso   1.000  C
  N4       1.0000 0.86013  0.17704  0.45244  Biso   1.000  N
  H28      1.0000 0.81270  0.13720  0.43710  Biso   1.000  H
  C34      1.0000 0.78004  0.23647  0.44226  Biso   1.000  C
  H29      1.0000 0.57228  0.99338  0.44200  Biso   1.000  H
  C35      1.0000 0.61429  0.12845  0.43777  Biso   1.000  C
  H30      1.0000 0.64692  0.03086  0.43240  Biso   1.000  H
  C36      1.0000 0.84075  0.79336  0.52306  Biso   1.000  C
  C37      1.0000 0.16829  0.97527  0.48890  Biso   1.000  C
  C38      1.0000 0.20883  0.01788  0.46901  Biso   1.000  C
  C39      1.0000 0.25604  0.06135  0.44995  Biso   1.000  C
  C40      1.0000 0.93854  0.19468  0.44995  Biso   1.000  C
  H31      1.0000 0.83688  0.28850  0.43960  Biso   1.000  H
  H32      1.0000 0.76330  0.25337  0.44930  Biso   1.000  H
  C41      1.0000 0.70160  0.20935  0.43331  Biso   1.000  C
  H33      1.0000 0.56440  0.11237  0.43250  Biso   1.000  H
  H34      1.0000 0.59790  0.14474  0.44490  Biso   1.000  H
  C42      1.0000 0.89907  0.76300  0.52655  Biso   1.000  C
  C43      1.0000 0.79109  0.80897  0.53099  Biso   1.000  C
  C44      1.0000 0.19329  0.92910  0.49632  Biso   1.000  C
  C45      1.0000 0.09301  0.93207  0.49617  Biso   1.000  C
  C46      1.0000 0.25072  0.04594  0.49280  Biso   1.000  C
  C47      1.0000 0.15317  0.04365  0.49288  Biso   1.000  C
  H35      1.0000 0.24687  0.07858  0.47120  Biso   1.000  H
  N5       1.0000 0.31686  0.13976  0.45244  Biso   1.000  N
  H36      1.0000 0.24503  0.04587  0.44240  Biso   1.000  H
  H37      1.0000 0.95408  0.19919  0.44240  Biso   1.000  H
  C48      1.0000 0.00461  0.20814  0.45781  Biso   1.000  C
  H38      1.0000 0.69197  0.26084  0.43200  Biso   1.000  H
  H39      1.0000 0.71866  0.19300  0.42630  Biso   1.000  H
  H40      1.0000 0.93088  0.74921  0.52120  Biso   1.000  H
  C49      1.0000 0.91056  0.75311  0.53732  Biso   1.000  C
  C50      1.0000 0.79638  0.79181  0.54219  Biso   1.000  C
  H41      1.0000 0.75306  0.83165  0.52880  Biso   1.000  H
  C51      1.0000 0.20469  0.95401  0.50720  Biso   1.000  C
  H42      1.0000 0.20217  0.88145  0.49390  Biso   1.000  H
  C52      1.0000 0.10949  0.95629  0.50712  Biso   1.000  C
  H43      1.0000 0.03479  0.88919  0.49360  Biso   1.000  H
  H44      1.0000 0.29859  0.07757  0.48770  Biso   1.000  H
  C53      1.0000 0.26422  0.07084  0.50368  Biso   1.000  C
  H45      1.0000 0.13678  0.07475  0.48780  Biso   1.000  H
  C54      1.0000 0.16091  0.06788  0.50383  Biso   1.000  C
  C55      1.0000 0.36001  0.20706  0.44402  Biso   1.000  C
  C56      1.0000 0.98209  0.19098  0.46901  Biso   1.000  C
  C57      1.0000 0.09300  0.23607  0.45490  Biso   1.000  C
  C58      1.0000 0.85691  0.76388  0.54510  Biso   1.000  C
  C59      1.0000 0.97878  0.72740  0.54077  Biso   1.000  C
  C60      1.0000 0.74389  0.80527  0.55005  Biso   1.000  C
  H46      1.0000 0.22099  0.92237  0.51230  Biso   1.000  H
  C61      1.0000 0.19299  0.02467  0.51110  Biso   1.000  C
  H47      1.0000 0.06201  0.92520  0.51220  Biso   1.000  H
  H48      1.0000 0.32074  0.11849  0.50610  Biso   1.000  H
  H49      1.0000 0.14563  0.11075  0.50640  Biso   1.000  H
  H50      1.0000 0.32453  0.18727  0.43710  Biso   1.000  H
  C62      1.0000 0.45640  0.21985  0.44226  Biso   1.000  C
  C63      1.0000 0.36869  0.29657  0.44812  Biso   1.000  C
  H51      1.0000 0.92133  0.16830  0.47120  Biso   1.000  H
  C64      1.0000 0.04743  0.20659  0.47694  Biso   1.000  C
  C65      1.0000 0.15743  0.24684  0.46268  Biso   1.000  C
  H52      1.0000 0.11007  0.24818  0.44740  Biso   1.000  H
  H53      1.0000 0.86186  0.75176  0.55260  Biso   1.000  H
  N6       1.0000 0.99838  0.72276  0.55061  Biso   1.000  N
  H54      1.0000 0.00894  0.71381  0.53520  Biso   1.000  H
  N7       1.0000 0.68312  0.82290  0.54756  Biso   1.000  N
  H55      1.0000 0.75487  0.80076  0.55760  Biso   1.000  H
  C66      1.0000 0.20655  0.04735  0.52306  Biso   1.000  C
  H56      1.0000 0.45161  0.16305  0.43960  Biso   1.000  H
  H57      1.0000 0.49011  0.23667  0.44930  Biso   1.000  H
  C67      1.0000 0.50774  0.29839  0.43331  Biso   1.000  C
  N8       1.0000 0.27554  0.27719  0.44939  Biso   1.000  N
  C68      1.0000 0.41743  0.37108  0.43944  Biso   1.000  C
  H58      1.0000 0.40128  0.31488  0.45530  Biso   1.000  H
  C69      1.0000 0.13604  0.23694  0.47345  Biso   1.000  C
  C70      1.0000 0.02466  0.19300  0.48890  Biso   1.000  C
  C71      1.0000 0.25136  0.27255  0.45923  Biso   1.000  C
  C72      1.0000 0.07209  0.70337  0.55188  Biso   1.000  C
  C73      1.0000 0.64000  0.84706  0.55598  Biso   1.000  C
  C74      1.0000 0.19098  0.98207  0.53099  Biso   1.000  C
  C75      1.0000 0.23697  0.13606  0.52655  Biso   1.000  C
  H59      1.0000 0.56888  0.30795  0.43200  Biso   1.000  H
  H60      1.0000 0.47430  0.28130  0.42630  Biso   1.000  H
  C76      1.0000 0.51414  0.38568  0.43777  Biso   1.000  C
  H61      1.0000 0.42107  0.42768  0.44200  Biso   1.000  H
  H62      1.0000 0.38384  0.35297  0.43240  Biso   1.000  H
  H63      1.0000 0.18164  0.25074  0.47880  Biso   1.000  H
  C77      1.0000 0.95390  0.20464  0.49280  Biso   1.000  C
  C78      1.0000 0.95626  0.10947  0.49288  Biso   1.000  C
  C79      1.0000 0.07090  0.26413  0.49632  Biso   1.000  C
  C80      1.0000 0.06794  0.16089  0.49617  Biso   1.000  C
  H64      1.0000 0.29511  0.28614  0.46480  Biso   1.000  H
  C81      1.0000 0.15293  0.79288  0.55598  Biso   1.000  C
  C82      1.0000 0.04638  0.62887  0.56056  Biso   1.000  C
  H65      1.0000 0.08637  0.68507  0.54470  Biso   1.000  H
  H66      1.0000 0.67550  0.86281  0.56290  Biso   1.000  H
  C83      1.0000 0.54360  0.76347  0.55774  Biso   1.000  C
  C84      1.0000 0.63128  0.92789  0.55188  Biso   1.000  C
  H67      1.0000 0.16827  0.92136  0.52880  Biso   1.000  H
  C85      1.0000 0.20817  0.00455  0.54219  Biso   1.000  C
  H68      1.0000 0.25075  0.18169  0.52120  Biso   1.000  H
  C86      1.0000 0.24685  0.15746  0.53732  Biso   1.000  C
  H69      1.0000 0.54793  0.43555  0.43250  Biso   1.000  H
  H70      1.0000 0.54685  0.40204  0.44490  Biso   1.000  H
  H71      1.0000 0.92238  0.22099  0.48770  Biso   1.000  H
  C87      1.0000 0.92909  0.19326  0.50368  Biso   1.000  C
  H72      1.0000 0.92516  0.06196  0.48780  Biso   1.000  H
  C88      1.0000 0.93205  0.09298  0.50383  Biso   1.000  C
  C89      1.0000 0.04604  0.25067  0.50720  Biso   1.000  C
  H73      1.0000 0.11851  0.32067  0.49390  Biso   1.000  H
  C90      1.0000 0.04367  0.15315  0.50712  Biso   1.000  C
  H74      1.0000 0.11075  0.14555  0.49360  Biso   1.000  H
  N9       1.0000 0.17708  0.86019  0.54756  Biso   1.000  N
  H75      1.0000 0.13717  0.81267  0.56290  Biso   1.000  H
  C91      1.0000 0.23653  0.78010  0.55774  Biso   1.000  C
  H76      1.0000 0.99337  0.57227  0.55800  Biso   1.000  H
  C92      1.0000 0.12849  0.61427  0.56223  Biso   1.000  C
  H77      1.0000 0.03090  0.64697  0.56760  Biso   1.000  H
  H78      1.0000 0.54839  0.71152  0.56040  Biso   1.000  H
  H79      1.0000 0.50991  0.74658  0.55070  Biso   1.000  H
  C93      1.0000 0.49217  0.79060  0.56669  Biso   1.000  C
  C94      1.0000 0.58247  0.95360  0.56056  Biso   1.000  C
  H80      1.0000 0.59870  0.91356  0.54470  Biso   1.000  H
  N10      1.0000 0.72443  0.00159  0.55061  Biso   1.000  N
  C95      1.0000 0.19472  0.93859  0.55005  Biso   1.000  C
  C96      1.0000 0.23612  0.09298  0.54510  Biso   1.000  C
  C97      1.0000 0.27252  0.25135  0.54077  Biso   1.000  C
  H81      1.0000 0.88148  0.20215  0.50610  Biso   1.000  H
  C98      1.0000 0.97524  0.16830  0.51110  Biso   1.000  C
  H82      1.0000 0.88913  0.03477  0.50640  Biso   1.000  H
  H83      1.0000 0.07758  0.29859  0.51230  Biso   1.000  H
  H84      1.0000 0.07478  0.13680  0.51220  Biso   1.000  H
  H85      1.0000 0.28847  0.83690  0.56040  Biso   1.000  H
  H86      1.0000 0.25341  0.76327  0.55070  Biso   1.000  H
  C99      1.0000 0.20938  0.70156  0.56669  Biso   1.000  C
  H87      1.0000 0.11241  0.56439  0.56750  Biso   1.000  H
  H88      1.0000 0.14479  0.59791  0.55510  Biso   1.000  H
  H89      1.0000 0.43110  0.73911  0.56800  Biso   1.000  H
  H90      1.0000 0.52570  0.80695  0.57370  Biso   1.000  H
  C100     1.0000 0.48581  0.87149  0.56223  Biso   1.000  C
  H91      1.0000 0.61609  0.96908  0.56760  Biso   1.000  H
  H92      1.0000 0.57882  0.00657  0.55800  Biso   1.000  H
  C101     1.0000 0.74857  0.02117  0.54077  Biso   1.000  C
  H93      1.0000 0.19919  0.95407  0.55760  Biso   1.000  H
  H94      1.0000 0.24823  0.11008  0.55260  Biso   1.000  H
  N11      1.0000 0.27718  0.27557  0.55061  Biso   1.000  N
  H95      1.0000 0.28618  0.29509  0.53520  Biso   1.000  H
  C102     1.0000 0.95254  0.15914  0.52306  Biso   1.000  C
  H96      1.0000 0.26090  0.69200  0.56800  Biso   1.000  H
  H97      1.0000 0.19298  0.71865  0.57370  Biso   1.000  H
  H98      1.0000 0.45201  0.88758  0.56750  Biso   1.000  H
  H99      1.0000 0.45307  0.85521  0.55510  Biso   1.000  H
  H100     1.0000 0.70491  0.99109  0.53520  Biso   1.000  H
  C103     1.0000 0.84245  0.08935  0.53732  Biso   1.000  C
  C104     1.0000 0.29661  0.36865  0.55188  Biso   1.000  C
  C105     1.0000 0.86389  0.10086  0.52655  Biso   1.000  C
  C106     1.0000 0.01786  0.20888  0.53099  Biso   1.000  C
  C107     1.0000 0.90696  0.14306  0.54510  Biso   1.000  C
  C108     1.0000 0.20706  0.35997  0.55598  Biso   1.000  C
  C109     1.0000 0.37108  0.41745  0.56056  Biso   1.000  C
  H101     1.0000 0.31492  0.40130  0.54470  Biso   1.000  H
  H102     1.0000 0.81822  0.06909  0.52120  Biso   1.000  H
  C110     1.0000 0.99538  0.20356  0.54219  Biso   1.000  C
  H103     1.0000 0.07857  0.24684  0.52880  Biso   1.000  H
  H104     1.0000 0.88990  0.13808  0.55260  Biso   1.000  H
  N12      1.0000 0.13977  0.31690  0.54756  Biso   1.000  N
  H105     1.0000 0.18725  0.32444  0.56290  Biso   1.000  H
  C111     1.0000 0.21993  0.45635  0.55774  Biso   1.000  C
  C112     1.0000 0.38563  0.51416  0.56223  Biso   1.000  C
  H106     1.0000 0.42774  0.42108  0.55800  Biso   1.000  H
  H107     1.0000 0.35294  0.38386  0.56760  Biso   1.000  H
  C113     1.0000 0.06144  0.25606  0.55005  Biso   1.000  C
  H108     1.0000 0.16310  0.45157  0.56040  Biso   1.000  H
  H109     1.0000 0.23667  0.49007  0.55070  Biso   1.000  H
  C114     1.0000 0.29833  0.50777  0.56669  Biso   1.000  C
  H110     1.0000 0.43557  0.54795  0.56750  Biso   1.000  H
  H111     1.0000 0.40210  0.54687  0.55510  Biso   1.000  H
  H112     1.0000 0.04587  0.24509  0.55760  Biso   1.000  H
  H113     1.0000 0.30796  0.56888  0.56800  Biso   1.000  H
  H114     1.0000 0.28122  0.47425  0.57370  Biso   1.000  H
  C115     1.0000 0.58639  0.66010  0.43231  Biso   1.000  C
  C116     1.0000 0.63082  0.72740  0.42291  Biso   1.000  C
  H115     1.0000 0.62360  0.68359  0.43900  Biso   1.000  H
  H116     1.0000 0.58260  0.60229  0.43040  Biso   1.000  H
  C117     1.0000 0.49189  0.64469  0.43453  Biso   1.000  C
  N13      1.0000 0.72172  0.74261  0.42112  Biso   1.000  N
  H117     1.0000 0.59457  0.70129  0.41610  Biso   1.000  H
  C118     1.0000 0.63347  0.81476  0.42550  Biso   1.000  C
  H118     1.0000 0.45320  0.61521  0.42810  Biso   1.000  H
  H119     1.0000 0.46550  0.60390  0.44090  Biso   1.000  H
  C119     1.0000 0.49372  0.73110  0.43681  Biso   1.000  C
  C120     1.0000 0.73690  0.72787  0.41144  Biso   1.000  C
  N14      1.0000 0.67358  0.87809  0.41653  Biso   1.000  N
  C121     1.0000 0.53948  0.79988  0.42773  Biso   1.000  C
  H120     1.0000 0.67110  0.84141  0.43220  Biso   1.000  H
  H121     1.0000 0.52578  0.75641  0.44380  Biso   1.000  H
  H122     1.0000 0.43118  0.71885  0.43770  Biso   1.000  H
  C122     1.0000 0.82186  0.73097  0.40765  Biso   1.000  C
  H123     1.0000 0.69116  0.71367  0.40610  Biso   1.000  H
  C123     1.0000 0.74078  0.95327  0.41900  Biso   1.000  C
  H124     1.0000 0.54395  0.85756  0.42990  Biso   1.000  H
  H125     1.0000 0.50299  0.77855  0.42100  Biso   1.000  H
  C124     1.0000 0.82665  0.70768  0.39707  Biso   1.000  C
  C125     1.0000 0.89398  0.75876  0.41453  Biso   1.000  C
  H126     1.0000 0.76088  0.96188  0.42640  Biso   1.000  H
  C126     1.0000 0.79021  0.02858  0.41135  Biso   1.000  C
  C127     1.0000 0.90289  0.70687  0.39308  Biso   1.000  C
  H127     1.0000 0.77711  0.69160  0.39230  Biso   1.000  H
  C128     1.0000 0.97140  0.76159  0.41135  Biso   1.000  C
  H128     1.0000 0.88999  0.77667  0.42180  Biso   1.000  H
  C129     1.0000 0.75600  0.02380  0.40055  Biso   1.000  C
  C130     1.0000 0.86475  0.10597  0.41453  Biso   1.000  C
  C131     1.0000 0.90839  0.67719  0.38206  Biso   1.000  C
  C132     1.0000 0.97616  0.73218  0.40055  Biso   1.000  C
  C133     1.0000 0.04672  0.78750  0.41900  Biso   1.000  C
  C134     1.0000 0.80401  0.09709  0.39308  Biso   1.000  C
  H129     1.0000 0.70157  0.97218  0.39830  Biso   1.000  H
  C135     1.0000 0.90901  0.17805  0.40765  Biso   1.000  C
  H130     1.0000 0.88667  0.10994  0.42180  Biso   1.000  H
  N15      1.0000 0.84268  0.65162  0.37513  Biso   1.000  N
  H131     1.0000 0.96118  0.67645  0.37990  Biso   1.000  H
  H132     1.0000 0.02779  0.72935  0.39830  Biso   1.000  H
  N16      1.0000 0.12189  0.79551  0.41653  Biso   1.000  N
  H133     1.0000 0.03814  0.79901  0.42640  Biso   1.000  H
  C136     1.0000 0.76873  0.09157  0.38206  Biso   1.000  C
  C137     1.0000 0.88098  0.17328  0.39707  Biso   1.000  C
  C138     1.0000 0.99097  0.26306  0.41144  Biso   1.000  C
  C139     1.0000 0.85245  0.61346  0.36467  Biso   1.000  C
  C140     1.0000 0.18517  0.81866  0.42550  Biso   1.000  C
  N17      1.0000 0.80886  0.15726  0.37513  Biso   1.000  N
  H134     1.0000 0.71527  0.03874  0.37990  Biso   1.000  H
  H135     1.0000 0.91446  0.22288  0.39230  Biso   1.000  H
  N18      1.0000 0.02090  0.27827  0.42112  Biso   1.000  N
  H136     1.0000 0.02251  0.30875  0.40610  Biso   1.000  H
  C141     1.0000 0.78462  0.51392  0.36467  Biso   1.000  C
  C142     1.0000 0.83009  0.65720  0.35508  Biso   1.000  C
  H137     1.0000 0.91495  0.62376  0.36390  Biso   1.000  H
  C143     1.0000 0.27259  0.90339  0.42291  Biso   1.000  C
  C144     1.0000 0.20012  0.73958  0.42773  Biso   1.000  C
  H138     1.0000 0.15863  0.82970  0.43220  Biso   1.000  H
  C145     1.0000 0.76096  0.14750  0.36467  Biso   1.000  C
  C146     1.0000 0.09661  0.36919  0.42291  Biso   1.000  C
  C147     1.0000 0.78829  0.47172  0.35408  Biso   1.000  C
  H139     1.0000 0.79736  0.48451  0.37080  Biso   1.000  H
  H140     1.0000 0.72339  0.50490  0.36570  Biso   1.000  H
  C148     1.0000 0.83046  0.61447  0.34422  Biso   1.000  C
  N19      1.0000 0.90297  0.75378  0.35468  Biso   1.000  N
  H141     1.0000 0.77036  0.65269  0.35630  Biso   1.000  H
  N20      1.0000 0.25740  0.97911  0.42112  Biso   1.000  N
  H142     1.0000 0.29872  0.89330  0.41610  Biso   1.000  H
  C149     1.0000 0.33987  0.92628  0.43231  Biso   1.000  C
  C150     1.0000 0.26893  0.76260  0.43681  Biso   1.000  C
  H143     1.0000 0.14241  0.68641  0.42990  Biso   1.000  H
  H144     1.0000 0.22137  0.72437  0.42100  Biso   1.000  H
  C151     1.0000 0.82704  0.16984  0.35508  Biso   1.000  C
  H145     1.0000 0.70878  0.08498  0.36390  Biso   1.000  H
  C152     1.0000 0.72931  0.21534  0.36467  Biso   1.000  C
  C153     1.0000 0.18132  0.36643  0.42550  Biso   1.000  C
  H146     1.0000 0.10664  0.40533  0.41610  Biso   1.000  H
  C154     1.0000 0.07368  0.41354  0.43231  Biso   1.000  C
  C155     1.0000 0.76728  0.51318  0.34442  Biso   1.000  C
  H147     1.0000 0.74448  0.40637  0.35430  Biso   1.000  H
  H148     1.0000 0.84907  0.47939  0.35310  Biso   1.000  H
  H149     1.0000 0.89241  0.62739  0.34260  Biso   1.000  H
  H150     1.0000 0.81185  0.64125  0.33830  Biso   1.000  H
  C156     1.0000 0.87530  0.81011  0.35361  Biso   1.000  C
  C157     1.0000 0.27205  0.00899  0.41144  Biso   1.000  C
  H151     1.0000 0.31642  0.94001  0.43900  Biso   1.000  H
  H152     1.0000 0.39769  0.98025  0.43040  Biso   1.000  H
  C158     1.0000 0.35529  0.84720  0.43453  Biso   1.000  C
  H153     1.0000 0.24359  0.76940  0.44380  Biso   1.000  H
  H154     1.0000 0.28106  0.71226  0.43770  Biso   1.000  H
  N21      1.0000 0.85075  0.09696  0.35468  Biso   1.000  N
  C159     1.0000 0.78394  0.16944  0.34422  Biso   1.000  C
  H155     1.0000 0.88230  0.22954  0.35630  Biso   1.000  H
  H156     1.0000 0.68707  0.20255  0.37080  Biso   1.000  H
  H157     1.0000 0.78150  0.27658  0.36570  Biso   1.000  H
  C160     1.0000 0.68340  0.21164  0.35408  Biso   1.000  C
  N22      1.0000 0.20449  0.32639  0.41653  Biso   1.000  N
  C161     1.0000 0.26033  0.46045  0.42773  Biso   1.000  C
  H158     1.0000 0.17024  0.32888  0.43220  Biso   1.000  H
  H159     1.0000 0.06006  0.37639  0.43900  Biso   1.000  H
  H160     1.0000 0.01964  0.41738  0.43040  Biso   1.000  H
  C162     1.0000 0.15275  0.50804  0.43453  Biso   1.000  C
  H161     1.0000 0.70428  0.50012  0.34490  Biso   1.000  H
  H162     1.0000 0.77374  0.48646  0.33750  Biso   1.000  H
  H163     1.0000 0.81257  0.78898  0.35310  Biso   1.000  H
  C163     1.0000 0.94139  0.90918  0.35314  Biso   1.000  C
  H164     1.0000 0.28632  0.97749  0.40610  Biso   1.000  H
  C164     1.0000 0.26900  0.09090  0.40765  Biso   1.000  C
  H165     1.0000 0.38478  0.83798  0.42810  Biso   1.000  H
  H166     1.0000 0.39612  0.86160  0.44090  Biso   1.000  H
  C165     1.0000 0.93473  0.12468  0.35361  Biso   1.000  C
  C166     1.0000 0.74589  0.23264  0.34442  Biso   1.000  C
  H167     1.0000 0.73495  0.10759  0.34260  Biso   1.000  H
  H168     1.0000 0.82934  0.18808  0.33830  Biso   1.000  H
  H169     1.0000 0.66188  0.25545  0.35430  Biso   1.000  H
  H170     1.0000 0.63028  0.15086  0.35310  Biso   1.000  H
  C167     1.0000 0.21249  0.25915  0.41900  Biso   1.000  C
  C168     1.0000 0.23744  0.50629  0.43681  Biso   1.000  C
  H171     1.0000 0.31356  0.45594  0.42990  Biso   1.000  H
  H172     1.0000 0.27554  0.49693  0.42100  Biso   1.000  H
  H173     1.0000 0.16201  0.54673  0.42810  Biso   1.000  H
  H174     1.0000 0.13835  0.53449  0.44090  Biso   1.000  H
  C169     1.0000 0.90612  0.96430  0.35324  Biso   1.000  C
  C170     1.0000 0.03566  0.94176  0.35324  Biso   1.000  C
  C171     1.0000 0.29224  0.11896  0.39707  Biso   1.000  C
  C172     1.0000 0.24114  0.13518  0.41453  Biso   1.000  C
  C173     1.0000 0.96772  0.05859  0.35314  Biso   1.000  C
  H175     1.0000 0.97637  0.18734  0.35310  Biso   1.000  H
  H176     1.0000 0.79578  0.29570  0.34490  Biso   1.000  H
  H177     1.0000 0.71264  0.22618  0.33750  Biso   1.000  H
  C174     1.0000 0.23832  0.20975  0.41135  Biso   1.000  C
  H178     1.0000 0.20100  0.23910  0.42640  Biso   1.000  H
  H179     1.0000 0.23053  0.47418  0.44380  Biso   1.000  H
  H180     1.0000 0.28772  0.56874  0.43770  Biso   1.000  H
  H181     1.0000 0.84286  0.94095  0.35340  Biso   1.000  H
  H182     1.0000 0.05896  0.90185  0.35340  Biso   1.000  H
  C175     1.0000 0.09082  0.03214  0.35314  Biso   1.000  C
  C176     1.0000 0.29303  0.19596  0.39308  Biso   1.000  C
  H183     1.0000 0.30836  0.08545  0.39230  Biso   1.000  H
  H184     1.0000 0.22329  0.11324  0.42180  Biso   1.000  H
  C177     1.0000 0.05815  0.09386  0.35324  Biso   1.000  C
  C178     1.0000 0.26771  0.24394  0.40055  Biso   1.000  C
  C179     1.0000 0.18988  0.06519  0.35361  Biso   1.000  C
  C180     1.0000 0.32275  0.23116  0.38206  Biso   1.000  C
  H185     1.0000 0.09808  0.15706  0.35340  Biso   1.000  H
  H186     1.0000 0.27063  0.29839  0.39830  Biso   1.000  H
  N23      1.0000 0.24621  0.14918  0.35468  Biso   1.000  N
  H187     1.0000 0.21099  0.02360  0.35310  Biso   1.000  H
  N24      1.0000 0.34833  0.19104  0.37513  Biso   1.000  N
  H188     1.0000 0.32351  0.28466  0.37990  Biso   1.000  H
  C181     1.0000 0.34275  0.17287  0.35508  Biso   1.000  C
  C182     1.0000 0.38646  0.23896  0.36467  Biso   1.000  C
  C183     1.0000 0.38544  0.21595  0.34422  Biso   1.000  C
  H189     1.0000 0.34727  0.11768  0.35630  Biso   1.000  H
  H190     1.0000 0.37614  0.29119  0.36390  Biso   1.000  H
  C184     1.0000 0.48612  0.27066  0.36467  Biso   1.000  C
  C185     1.0000 0.48678  0.25404  0.34442  Biso   1.000  C
  H191     1.0000 0.37252  0.26494  0.34260  Biso   1.000  H
  H192     1.0000 0.35874  0.17058  0.33830  Biso   1.000  H
  H193     1.0000 0.51550  0.31286  0.37080  Biso   1.000  H
  H194     1.0000 0.49504  0.21844  0.36570  Biso   1.000  H
  C186     1.0000 0.52830  0.31656  0.35408  Biso   1.000  C
  H195     1.0000 0.49985  0.20417  0.34490  Biso   1.000  H
  H196     1.0000 0.51349  0.28729  0.33750  Biso   1.000  H
  H197     1.0000 0.59363  0.33810  0.35430  Biso   1.000  H
  H198     1.0000 0.52053  0.36966  0.35310  Biso   1.000  H
  C187     1.0000 0.60989  0.47280  0.40835  Biso   1.000  C
  C188     1.0000 0.53237  0.48760  0.40670  Biso   1.000  C
  C189     1.0000 0.61028  0.41297  0.39940  Biso   1.000  C
  H199     1.0000 0.60478  0.44440  0.41560  Biso   1.000  H
  H200     1.0000 0.66678  0.53121  0.40820  Biso   1.000  H
  C190     1.0000 0.54140  0.53620  0.39534  Biso   1.000  C
  H201     1.0000 0.53018  0.52496  0.41280  Biso   1.000  H
  H202     1.0000 0.47561  0.42898  0.40680  Biso   1.000  H
  C191     1.0000 0.61415  0.45846  0.38776  Biso   1.000  C
  H203     1.0000 0.55527  0.35307  0.39990  Biso   1.000  H
  H204     1.0000 0.66319  0.40489  0.40020  Biso   1.000  H
  C192     1.0000 0.54207  0.47798  0.38607  Biso   1.000  C
  N25      1.0000 0.46128  0.54521  0.39458  Biso   1.000  N
  H205     1.0000 0.59718  0.59670  0.39520  Biso   1.000  H
  H206     1.0000 0.67247  0.51520  0.38710  Biso   1.000  H
  H207     1.0000 0.61176  0.41768  0.38190  Biso   1.000  H
  N26      1.0000 0.55261  0.52738  0.37589  Biso   1.000  N
  H208     1.0000 0.48322  0.42030  0.38590  Biso   1.000  H
  C193     1.0000 0.47507  0.62409  0.39552  Biso   1.000  C
  C194     1.0000 0.49418  0.49178  0.36862  Biso   1.000  C
  C195     1.0000 0.40330  0.64771  0.39564  Biso   1.000  C
  H209     1.0000 0.53561  0.67161  0.39620  Biso   1.000  H
  C196     1.0000 0.49571  0.52630  0.35727  Biso   1.000  C
  H210     1.0000 0.44249  0.43618  0.37050  Biso   1.000  H
  C197     1.0000 0.42070  0.73696  0.39574  Biso   1.000  C
  C198     1.0000 0.31627  0.57927  0.39574  Biso   1.000  C
  C199     1.0000 0.42899  0.47259  0.35019  Biso   1.000  C
  C200     1.0000 0.56450  0.61258  0.35384  Biso   1.000  C
  H211     1.0000 0.48119  0.78508  0.39590  Biso   1.000  H
  C201     1.0000 0.35233  0.75560  0.39564  Biso   1.000  C
  C202     1.0000 0.24438  0.59670  0.39564  Biso   1.000  C
  H212     1.0000 0.30385  0.51876  0.39590  Biso   1.000  H
  C203     1.0000 0.43090  0.50207  0.33913  Biso   1.000  C
  H213     1.0000 0.38141  0.41579  0.35260  Biso   1.000  H
  C204     1.0000 0.56717  0.64159  0.34323  Biso   1.000  C
  H214     1.0000 0.60930  0.65101  0.35890  Biso   1.000  H
  C205     1.0000 0.26297  0.68365  0.39574  Biso   1.000  C
  C206     1.0000 0.37588  0.85097  0.39552  Biso   1.000  C
  C207     1.0000 0.14902  0.52489  0.39552  Biso   1.000  C
  C208     1.0000 0.36147  0.44480  0.33094  Biso   1.000  C
  C209     1.0000 0.49836  0.58418  0.33621  Biso   1.000  C
  C210     1.0000 0.63839  0.73426  0.34021  Biso   1.000  C
  H215     1.0000 0.21493  0.69610  0.39590  Biso   1.000  H
  N27      1.0000 0.45476  0.91605  0.39458  Biso   1.000  N
  H216     1.0000 0.32841  0.86396  0.39620  Biso   1.000  H
  N28      1.0000 0.08388  0.53869  0.39458  Biso   1.000  N
  H217     1.0000 0.13602  0.46438  0.39620  Biso   1.000  H
  N29      1.0000 0.29617  0.36888  0.33369  Biso   1.000  N
  H218     1.0000 0.36619  0.46519  0.32360  Biso   1.000  H
  H219     1.0000 0.49888  0.60410  0.32890  Biso   1.000  H
  N30      1.0000 0.64426  0.76536  0.33029  Biso   1.000  N
  H220     1.0000 0.68035  0.77155  0.34560  Biso   1.000  H
  C211     1.0000 0.46382  0.00516  0.39534  Biso   1.000  C
  C212     1.0000 0.99476  0.45860  0.39534  Biso   1.000  C
  C213     1.0000 0.23302  0.31659  0.32484  Biso   1.000  C
  C214     1.0000 0.72261  0.85689  0.32871  Biso   1.000  C
  C215     1.0000 0.52200  0.06404  0.38607  Biso   1.000  C
  H221     1.0000 0.40329  0.00044  0.39520  Biso   1.000  H
  C216     1.0000 0.51237  0.04480  0.40670  Biso   1.000  C
  C217     1.0000 0.93590  0.45792  0.38607  Biso   1.000  C
  H222     1.0000 0.99950  0.40280  0.39520  Biso   1.000  H
  C218     1.0000 0.95520  0.46761  0.40670  Biso   1.000  C
  C219     1.0000 0.24930  0.23912  0.32194  Biso   1.000  C
  C220     1.0000 0.13434  0.27742  0.32871  Biso   1.000  C
  H223     1.0000 0.24450  0.35576  0.31830  Biso   1.000  H
  H224     1.0000 0.75641  0.88031  0.33580  Biso   1.000  H
  C221     1.0000 0.78097  0.85447  0.32024  Biso   1.000  C
  C222     1.0000 0.68341  0.91638  0.32484  Biso   1.000  C
  N31      1.0000 0.47259  0.02514  0.37589  Biso   1.000  N
  C223     1.0000 0.54145  0.15564  0.38776  Biso   1.000  C
  H225     1.0000 0.57971  0.06290  0.38590  Biso   1.000  H
  H226     1.0000 0.47501  0.00516  0.41280  Biso   1.000  H
  H227     1.0000 0.57101  0.04655  0.40680  Biso   1.000  H
  C224     1.0000 0.52715  0.13707  0.40835  Biso   1.000  C
  N32      1.0000 0.97474  0.44736  0.37589  Biso   1.000  N
  C225     1.0000 0.84428  0.38578  0.38776  Biso   1.000  C
  H228     1.0000 0.93708  0.51681  0.38590  Biso   1.000  H
  H229     1.0000 0.99475  0.46977  0.41280  Biso   1.000  H
  H230     1.0000 0.95341  0.52442  0.40680  Biso   1.000  H
  C226     1.0000 0.86287  0.39008  0.40835  Biso   1.000  C
  C227     1.0000 0.18342  0.17882  0.31301  Biso   1.000  C
  H231     1.0000 0.24157  0.20278  0.32860  Biso   1.000  H
  H232     1.0000 0.31190  0.26382  0.31930  Biso   1.000  H
  C228     1.0000 0.07348  0.21900  0.32024  Biso   1.000  C
  N33      1.0000 0.12108  0.35569  0.33029  Biso   1.000  N
  H233     1.0000 0.12388  0.24357  0.33580  Biso   1.000  H
  H234     1.0000 0.80457  0.81530  0.32270  Biso   1.000  H
  H235     1.0000 0.74500  0.82741  0.31350  Biso   1.000  H
  C229     1.0000 0.85621  0.94270  0.31758  Biso   1.000  C
  N34      1.0000 0.63110  0.92729  0.33369  Biso   1.000  N
  H236     1.0000 0.64419  0.88866  0.31830  Biso   1.000  H
  C230     1.0000 0.76086  0.01020  0.32194  Biso   1.000  C
  C231     1.0000 0.50813  0.00240  0.36862  Biso   1.000  C
  C232     1.0000 0.58690  0.19724  0.39940  Biso   1.000  C
  H237     1.0000 0.48473  0.15726  0.38710  Biso   1.000  H
  H238     1.0000 0.58223  0.19407  0.38190  Biso   1.000  H
  H239     1.0000 0.55558  0.16035  0.41560  Biso   1.000  H
  H240     1.0000 0.46883  0.13559  0.40820  Biso   1.000  H
  C233     1.0000 0.99760  0.50577  0.36862  Biso   1.000  C
  C234     1.0000 0.80270  0.38968  0.39940  Biso   1.000  C
  H241     1.0000 0.84265  0.32749  0.38710  Biso   1.000  H
  H242     1.0000 0.80586  0.38820  0.38190  Biso   1.000  H
  H243     1.0000 0.83961  0.39520  0.41560  Biso   1.000  H
  H244     1.0000 0.86440  0.33321  0.40820  Biso   1.000  H
  C235     1.0000 0.08648  0.14382  0.31758  Biso   1.000  C
  H245     1.0000 0.19300  0.12767  0.31140  Biso   1.000  H
  H246     1.0000 0.19260  0.21362  0.30620  Biso   1.000  H
  H247     1.0000 0.01067  0.19538  0.32270  Biso   1.000  H
  H248     1.0000 0.08239  0.25501  0.31350  Biso   1.000  H
  C236     1.0000 0.09589  0.36161  0.34021  Biso   1.000  C
  H249     1.0000 0.89488  0.93657  0.31200  Biso   1.000  H
  H250     1.0000 0.89278  0.97016  0.32420  Biso   1.000  H
  C237     1.0000 0.82115  0.00455  0.31301  Biso   1.000  C
  C238     1.0000 0.55520  0.91665  0.33094  Biso   1.000  C
  H251     1.0000 0.79716  0.03874  0.32860  Biso   1.000  H
  H252     1.0000 0.73615  0.04809  0.31930  Biso   1.000  H
  C239     1.0000 0.47366  0.96935  0.35727  Biso   1.000  C
  H253     1.0000 0.56377  0.00630  0.37050  Biso   1.000  H
  H254     1.0000 0.64683  0.20215  0.39990  Biso   1.000  H
  H255     1.0000 0.59504  0.25828  0.40020  Biso   1.000  H
  C240     1.0000 0.03060  0.50429  0.35727  Biso   1.000  C
  H256     1.0000 0.99366  0.55746  0.37050  Biso   1.000  H
  H257     1.0000 0.79778  0.44466  0.39990  Biso   1.000  H
  H258     1.0000 0.74168  0.33678  0.40020  Biso   1.000  H
  H259     1.0000 0.04172  0.10513  0.31200  Biso   1.000  H
  H260     1.0000 0.07739  0.10721  0.32420  Biso   1.000  H
  C241     1.0000 0.07443  0.43282  0.34323  Biso   1.000  C
  H261     1.0000 0.09121  0.31962  0.34560  Biso   1.000  H
  H262     1.0000 0.78639  0.97897  0.30620  Biso   1.000  H
  H263     1.0000 0.87226  0.06526  0.31140  Biso   1.000  H
  C242     1.0000 0.49790  0.92877  0.33913  Biso   1.000  C
  H264     1.0000 0.53477  0.90097  0.32360  Biso   1.000  H
  C243     1.0000 0.52737  0.95636  0.35019  Biso   1.000  C
  C244     1.0000 0.38739  0.95185  0.35384  Biso   1.000  C
  C245     1.0000 0.04809  0.43551  0.35384  Biso   1.000  C
  C246     1.0000 0.04361  0.57099  0.35019  Biso   1.000  C
  C247     1.0000 0.08580  0.50160  0.33621  Biso   1.000  C
  C248     1.0000 0.41576  0.91416  0.33621  Biso   1.000  C
  H265     1.0000 0.58421  0.96558  0.35260  Biso   1.000  H
  C249     1.0000 0.35841  0.92560  0.34323  Biso   1.000  C
  H266     1.0000 0.34897  0.95825  0.35890  Biso   1.000  H
  H267     1.0000 0.04170  0.39069  0.35890  Biso   1.000  H
  C250     1.0000 0.07123  0.56911  0.33913  Biso   1.000  C
  H268     1.0000 0.03441  0.61857  0.35260  Biso   1.000  H
  H269     1.0000 0.10517  0.50106  0.32890  Biso   1.000  H
  H270     1.0000 0.39587  0.89478  0.32890  Biso   1.000  H
  C251     1.0000 0.26570  0.90407  0.34021  Biso   1.000  C
  C252     1.0000 0.08331  0.63849  0.33094  Biso   1.000  C
  N35      1.0000 0.23458  0.87890  0.33029  Biso   1.000  N
  H271     1.0000 0.22842  0.90878  0.34560  Biso   1.000  H
  N36      1.0000 0.07270  0.70378  0.33369  Biso   1.000  N
  H272     1.0000 0.09902  0.63378  0.32360  Biso   1.000  H
  C253     1.0000 0.14312  0.86571  0.32871  Biso   1.000  C
  C254     1.0000 0.08361  0.76697  0.32484  Biso   1.000  C
  H273     1.0000 0.11968  0.87607  0.33580  Biso   1.000  H
  C255     1.0000 0.14547  0.92648  0.32024  Biso   1.000  C
  H274     1.0000 0.11131  0.75547  0.31830  Biso   1.000  H
  C256     1.0000 0.98979  0.75069  0.32194  Biso   1.000  C
  H275     1.0000 0.18468  0.98927  0.32270  Biso   1.000  H
  H276     1.0000 0.17262  0.91760  0.31350  Biso   1.000  H
  C257     1.0000 0.05732  0.91349  0.31758  Biso   1.000  C
  C258     1.0000 0.99539  0.81658  0.31301  Biso   1.000  C
  H277     1.0000 0.96116  0.75836  0.32860  Biso   1.000  H
  H278     1.0000 0.95190  0.68810  0.31930  Biso   1.000  H
  H279     1.0000 0.06337  0.95825  0.31200  Biso   1.000  H
  H280     1.0000 0.02980  0.92258  0.32420  Biso   1.000  H
  H281     1.0000 0.02098  0.80735  0.30620  Biso   1.000  H
  H282     1.0000 0.93469  0.80695  0.31140  Biso   1.000  H
  C259     1.0000 0.73106  0.49366  0.56319  Biso   1.000  C
  C260     1.0000 0.64468  0.49191  0.56547  Biso   1.000  C
  H283     1.0000 0.75638  0.52576  0.55620  Biso   1.000  H
  H284     1.0000 0.71890  0.43120  0.56230  Biso   1.000  H
  C261     1.0000 0.79991  0.53949  0.57227  Biso   1.000  C
  C262     1.0000 0.66011  0.58640  0.56769  Biso   1.000  C
  H285     1.0000 0.61519  0.45321  0.57190  Biso   1.000  H
  H286     1.0000 0.60389  0.46546  0.55910  Biso   1.000  H
  H287     1.0000 0.85759  0.54400  0.57010  Biso   1.000  H
  H288     1.0000 0.77858  0.50302  0.57900  Biso   1.000  H
  C263     1.0000 0.81480  0.63351  0.57450  Biso   1.000  C
  C264     1.0000 0.72740  0.63075  0.57709  Biso   1.000  C
  H289     1.0000 0.68358  0.62355  0.56100  Biso   1.000  H
  H290     1.0000 0.60229  0.58257  0.56960  Biso   1.000  H
  N37      1.0000 0.87807  0.67356  0.58347  Biso   1.000  N
  H291     1.0000 0.84139  0.67107  0.56780  Biso   1.000  H
  N38      1.0000 0.74261  0.72168  0.57888  Biso   1.000  N
  H292     1.0000 0.70128  0.59461  0.58390  Biso   1.000  H
  C265     1.0000 0.95331  0.74079  0.58100  Biso   1.000  C
  C266     1.0000 0.72789  0.73689  0.58856  Biso   1.000  C
  H293     1.0000 0.96188  0.76085  0.57360  Biso   1.000  H
  C267     1.0000 0.02860  0.79019  0.58865  Biso   1.000  C
  C268     1.0000 0.73099  0.82189  0.59235  Biso   1.000  C
  H294     1.0000 0.71367  0.69119  0.59390  Biso   1.000  H
  C269     1.0000 0.10598  0.86476  0.58547  Biso   1.000  C
  C270     1.0000 0.02380  0.75600  0.59945  Biso   1.000  C
  C271     1.0000 0.75875  0.89397  0.58547  Biso   1.000  C
  C272     1.0000 0.70768  0.82667  0.60293  Biso   1.000  C
  H295     1.0000 0.11002  0.88670  0.57820  Biso   1.000  H
  C273     1.0000 0.17808  0.90905  0.59235  Biso   1.000  C
  H296     1.0000 0.97216  0.70156  0.60170  Biso   1.000  H
  C274     1.0000 0.09710  0.80399  0.60692  Biso   1.000  C
  H297     1.0000 0.77670  0.89000  0.57820  Biso   1.000  H
  C275     1.0000 0.76161  0.97137  0.58865  Biso   1.000  C
  H298     1.0000 0.69156  0.77707  0.60770  Biso   1.000  H
  C276     1.0000 0.70689  0.90286  0.60692  Biso   1.000  C
  C277     1.0000 0.17331  0.88098  0.60293  Biso   1.000  C
  C278     1.0000 0.26309  0.99095  0.58856  Biso   1.000  C
  C279     1.0000 0.09163  0.76879  0.61794  Biso   1.000  C
  C280     1.0000 0.73217  0.97615  0.59945  Biso   1.000  C
  C281     1.0000 0.78749  0.04668  0.58100  Biso   1.000  C
  C282     1.0000 0.67719  0.90838  0.61794  Biso   1.000  C
  H299     1.0000 0.22288  0.91450  0.60770  Biso   1.000  H
  N39      1.0000 0.27830  0.02090  0.57888  Biso   1.000  N
  H300     1.0000 0.30880  0.02245  0.59390  Biso   1.000  H
  N40      1.0000 0.15732  0.80890  0.62487  Biso   1.000  N
  H301     1.0000 0.03882  0.71529  0.62010  Biso   1.000  H
  H302     1.0000 0.72937  0.02777  0.60170  Biso   1.000  H
  N41      1.0000 0.79547  0.12186  0.58347  Biso   1.000  N
  H303     1.0000 0.79898  0.03807  0.57360  Biso   1.000  H
  N42      1.0000 0.65157  0.84269  0.62487  Biso   1.000  N
  H304     1.0000 0.67650  0.96121  0.62010  Biso   1.000  H
  C283     1.0000 0.36922  0.09655  0.57709  Biso   1.000  C
  C284     1.0000 0.14753  0.76098  0.63533  Biso   1.000  C
  C285     1.0000 0.81862  0.18519  0.57450  Biso   1.000  C
  C286     1.0000 0.61349  0.85245  0.63533  Biso   1.000  C
  H305     1.0000 0.40534  0.10665  0.58390  Biso   1.000  H
  C287     1.0000 0.41362  0.07367  0.56769  Biso   1.000  C
  C288     1.0000 0.36654  0.18128  0.57450  Biso   1.000  C
  H306     1.0000 0.08498  0.70876  0.63610  Biso   1.000  H
  C289     1.0000 0.21537  0.72928  0.63533  Biso   1.000  C
  C290     1.0000 0.16990  0.82707  0.64492  Biso   1.000  C
  C291     1.0000 0.90334  0.27255  0.57709  Biso   1.000  C
  C292     1.0000 0.73957  0.20006  0.57227  Biso   1.000  C
  H307     1.0000 0.82960  0.15854  0.56780  Biso   1.000  H
  H308     1.0000 0.62377  0.91497  0.63610  Biso   1.000  H
  C293     1.0000 0.51389  0.78461  0.63533  Biso   1.000  C
  C294     1.0000 0.65717  0.83010  0.64492  Biso   1.000  C
  H309     1.0000 0.37633  0.05994  0.56100  Biso   1.000  H
  H310     1.0000 0.41735  0.01969  0.56960  Biso   1.000  H
  C295     1.0000 0.50812  0.15275  0.56547  Biso   1.000  C
  N43      1.0000 0.32641  0.20444  0.58347  Biso   1.000  N
  C296     1.0000 0.46046  0.26036  0.57227  Biso   1.000  C
  H311     1.0000 0.32890  0.17025  0.56780  Biso   1.000  H
  H312     1.0000 0.20261  0.68709  0.62920  Biso   1.000  H
  H313     1.0000 0.27663  0.78151  0.63430  Biso   1.000  H
  C297     1.0000 0.21172  0.68338  0.64592  Biso   1.000  C
  N44      1.0000 0.09700  0.85076  0.64532  Biso   1.000  N
  C298     1.0000 0.16953  0.78400  0.65578  Biso   1.000  C
  H314     1.0000 0.22961  0.88226  0.64370  Biso   1.000  H
  N45      1.0000 0.97902  0.25734  0.57888  Biso   1.000  N
  H315     1.0000 0.89331  0.29866  0.58390  Biso   1.000  H
  C299     1.0000 0.92620  0.33985  0.56769  Biso   1.000  C
  C300     1.0000 0.76259  0.26884  0.56319  Biso   1.000  C
  H316     1.0000 0.68636  0.14238  0.57010  Biso   1.000  H
  H317     1.0000 0.72435  0.22140  0.57900  Biso   1.000  H
  H318     1.0000 0.48449  0.79739  0.62920  Biso   1.000  H
  H319     1.0000 0.50489  0.72336  0.63430  Biso   1.000  H
  C301     1.0000 0.47167  0.78831  0.64592  Biso   1.000  C
  N46      1.0000 0.75376  0.90299  0.64532  Biso   1.000  N
  C302     1.0000 0.61447  0.83051  0.65578  Biso   1.000  C
  H320     1.0000 0.65267  0.77041  0.64370  Biso   1.000  H
  H321     1.0000 0.54677  0.16197  0.57190  Biso   1.000  H
  H322     1.0000 0.53444  0.13835  0.55910  Biso   1.000  H
  C303     1.0000 0.50630  0.23735  0.56319  Biso   1.000  C
  C304     1.0000 0.25919  0.21245  0.58100  Biso   1.000  C
  H323     1.0000 0.45592  0.31353  0.57010  Biso   1.000  H
  H324     1.0000 0.49703  0.27557  0.57900  Biso   1.000  H
  H325     1.0000 0.25554  0.66192  0.64570  Biso   1.000  H
  H326     1.0000 0.15089  0.63028  0.64690  Biso   1.000  H
  C305     1.0000 0.23272  0.74591  0.65558  Biso   1.000  C
  C306     1.0000 0.12466  0.93476  0.64639  Biso   1.000  C
  H327     1.0000 0.10761  0.73501  0.65740  Biso   1.000  H
  H328     1.0000 0.18807  0.82936  0.66170  Biso   1.000  H
  C307     1.0000 0.00900  0.27208  0.58856  Biso   1.000  C
  H329     1.0000 0.93999  0.31636  0.56100  Biso   1.000  H
  H330     1.0000 0.98029  0.39766  0.56960  Biso   1.000  H
  C308     1.0000 0.84718  0.35526  0.56547  Biso   1.000  C
  H331     1.0000 0.76941  0.24354  0.55620  Biso   1.000  H
  H332     1.0000 0.71224  0.28109  0.56230  Biso   1.000  H
  H333     1.0000 0.40640  0.74449  0.64570  Biso   1.000  H
  H334     1.0000 0.47939  0.84908  0.64690  Biso   1.000  H
  C309     1.0000 0.51322  0.76731  0.65558  Biso   1.000  C
  C310     1.0000 0.81007  0.87526  0.64639  Biso   1.000  C
  H335     1.0000 0.62739  0.89236  0.65740  Biso   1.000  H
  H336     1.0000 0.64129  0.81186  0.66170  Biso   1.000  H
  H337     1.0000 0.47417  0.23055  0.55620  Biso   1.000  H
  H338     1.0000 0.56883  0.28769  0.56230  Biso   1.000  H
  H339     1.0000 0.23910  0.20094  0.57360  Biso   1.000  H
  C311     1.0000 0.20978  0.23836  0.58865  Biso   1.000  C
  H340     1.0000 0.29572  0.79578  0.65510  Biso   1.000  H
  H341     1.0000 0.22618  0.71266  0.66250  Biso   1.000  H
  H342     1.0000 0.18736  0.97635  0.64690  Biso   1.000  H
  C312     1.0000 0.05859  0.96780  0.64686  Biso   1.000  C
  H343     1.0000 0.97752  0.28628  0.59390  Biso   1.000  H
  C313     1.0000 0.09086  0.26898  0.59235  Biso   1.000  C
  H344     1.0000 0.83797  0.38474  0.57190  Biso   1.000  H
  H345     1.0000 0.86151  0.39605  0.55910  Biso   1.000  H
  H346     1.0000 0.50009  0.70432  0.65510  Biso   1.000  H
  H347     1.0000 0.48650  0.77377  0.66250  Biso   1.000  H
  H348     1.0000 0.78900  0.81260  0.64690  Biso   1.000  H
  C314     1.0000 0.90916  0.94135  0.64686  Biso   1.000  C
  C315     1.0000 0.13519  0.24118  0.58547  Biso   1.000  C
  C316     1.0000 0.24396  0.26777  0.59945  Biso   1.000  C
  C317     1.0000 0.96426  0.90609  0.64676  Biso   1.000  C
  C318     1.0000 0.09394  0.05819  0.64676  Biso   1.000  C
  C319     1.0000 0.11900  0.29227  0.60293  Biso   1.000  C
  C320     1.0000 0.94179  0.03564  0.64676  Biso   1.000  C
  H349     1.0000 0.11330  0.22328  0.57820  Biso   1.000  H
  H350     1.0000 0.29841  0.27059  0.60170  Biso   1.000  H
  C321     1.0000 0.19599  0.29307  0.60692  Biso   1.000  C
  H351     1.0000 0.94100  0.84289  0.64660  Biso   1.000  H
  C322     1.0000 0.03218  0.09076  0.64686  Biso   1.000  C
  H352     1.0000 0.15708  0.09810  0.64660  Biso   1.000  H
  H353     1.0000 0.08543  0.30835  0.60770  Biso   1.000  H
  H354     1.0000 0.90182  0.05900  0.64660  Biso   1.000  H
  C323     1.0000 0.23123  0.32275  0.61794  Biso   1.000  C
  C324     1.0000 0.06525  0.18990  0.64639  Biso   1.000  C
  N47      1.0000 0.19107  0.34840  0.62487  Biso   1.000  N
  H355     1.0000 0.28470  0.32349  0.62010  Biso   1.000  H
  N48      1.0000 0.14922  0.24616  0.64532  Biso   1.000  N
  H356     1.0000 0.02356  0.21097  0.64690  Biso   1.000  H
  C325     1.0000 0.23903  0.38649  0.63533  Biso   1.000  C
  C326     1.0000 0.17286  0.34274  0.64492  Biso   1.000  C
  H357     1.0000 0.29123  0.37619  0.63610  Biso   1.000  H
  C327     1.0000 0.27067  0.48603  0.63533  Biso   1.000  C
  C328     1.0000 0.21597  0.38548  0.65578  Biso   1.000  C
  H358     1.0000 0.11770  0.34725  0.64370  Biso   1.000  H
  H359     1.0000 0.31283  0.51544  0.62920  Biso   1.000  H
  H360     1.0000 0.21853  0.49505  0.63430  Biso   1.000  H
  C329     1.0000 0.31663  0.52829  0.64592  Biso   1.000  C
  C330     1.0000 0.25408  0.48677  0.65558  Biso   1.000  C
  H361     1.0000 0.26493  0.37256  0.65740  Biso   1.000  H
  H362     1.0000 0.17057  0.35869  0.66170  Biso   1.000  H
  H363     1.0000 0.33808  0.59358  0.64570  Biso   1.000  H
  H364     1.0000 0.36971  0.52055  0.64690  Biso   1.000  H
  H365     1.0000 0.20416  0.49989  0.65510  Biso   1.000  H
  H366     1.0000 0.28726  0.51349  0.66250  Biso   1.000  H
  C331     1.0000 0.69484  0.54245  0.31813  Biso   1.000  C
  C332     1.0000 0.69366  0.60128  0.30851  Biso   1.000  C
  C333     1.0000 0.63111  0.44110  0.31475  Biso   1.000  C
  H367     1.0000 0.67296  0.55639  0.32500  Biso   1.000  H
  H368     1.0000 0.75689  0.55416  0.31940  Biso   1.000  H
  C334     1.0000 0.59847  0.58250  0.30614  Biso   1.000  C
  H369     1.0000 0.73241  0.66562  0.31040  Biso   1.000  H
  H370     1.0000 0.71858  0.58876  0.30180  Biso   1.000  H
  C335     1.0000 0.53546  0.42326  0.31217  Biso   1.000  C
  H371     1.0000 0.65598  0.42696  0.30820  Biso   1.000  H
  H372     1.0000 0.62818  0.40132  0.32080  Biso   1.000  H
  C336     1.0000 0.53908  0.48680  0.30308  Biso   1.000  C
  N49      1.0000 0.60249  0.64206  0.29722  Biso   1.000  N
  H373     1.0000 0.57386  0.59576  0.31290  Biso   1.000  H
  H374     1.0000 0.49719  0.36000  0.30980  Biso   1.000  H
  H375     1.0000 0.50861  0.43262  0.31890  Biso   1.000  H
  N50      1.0000 0.44516  0.46519  0.30118  Biso   1.000  N
  H376     1.0000 0.56269  0.47387  0.29620  Biso   1.000  H
  C337     1.0000 0.58978  0.70721  0.30006  Biso   1.000  C
  C338     1.0000 0.41371  0.43551  0.29163  Biso   1.000  C
  C339     1.0000 0.59581  0.77417  0.29191  Biso   1.000  C
  H377     1.0000 0.57627  0.71226  0.30750  Biso   1.000  H
  C340     1.0000 0.32239  0.41700  0.28838  Biso   1.000  C
  H378     1.0000 0.44929  0.42508  0.28650  Biso   1.000  H
  C341     1.0000 0.62317  0.77586  0.28113  Biso   1.000  C
  C342     1.0000 0.57570  0.83899  0.29554  Biso   1.000  C
  C343     1.0000 0.29656  0.38948  0.27761  Biso   1.000  C
  C344     1.0000 0.26331  0.42427  0.29554  Biso   1.000  C
  C345     1.0000 0.63050  0.84228  0.27398  Biso   1.000  C
  H379     1.0000 0.63687  0.73157  0.27870  Biso   1.000  H
  C346     1.0000 0.58300  0.90535  0.28838  Biso   1.000  C
  H380     1.0000 0.55691  0.83778  0.30290  Biso   1.000  H
  C347     1.0000 0.21179  0.36949  0.27398  Biso   1.000  C
  H381     1.0000 0.33709  0.38450  0.27270  Biso   1.000  H
  C348     1.0000 0.17839  0.40422  0.29191  Biso   1.000  C
  H382     1.0000 0.28089  0.44312  0.30290  Biso   1.000  H
  C349     1.0000 0.61051  0.90710  0.27761  Biso   1.000  C
  C350     1.0000 0.63058  0.83078  0.26092  Biso   1.000  C
  C351     1.0000 0.56450  0.97817  0.29163  Biso   1.000  C
  C352     1.0000 0.20021  0.36942  0.26092  Biso   1.000  C
  C353     1.0000 0.15274  0.37682  0.28113  Biso   1.000  C
  C354     1.0000 0.11738  0.41021  0.30006  Biso   1.000  C
  H383     1.0000 0.61548  0.95259  0.27270  Biso   1.000  H
  C355     1.0000 0.63048  0.89411  0.25380  Biso   1.000  C
  C356     1.0000 0.63048  0.75318  0.25740  Biso   1.000  C
  C357     1.0000 0.68038  0.90427  0.25420  Biso   1.000  C
  C358     1.0000 0.57905  0.85595  0.25440  Biso   1.000  C
  C359     1.0000 0.58150  0.74288  0.25670  Biso   1.000  C
  C360     1.0000 0.67929  0.79275  0.25700  Biso   1.000  C
  N51      1.0000 0.53481  0.97998  0.30118  Biso   1.000  N
  H384     1.0000 0.57487  0.02420  0.28650  Biso   1.000  H
  C361     1.0000 0.22392  0.31962  0.25420  Biso   1.000  C
  C362     1.0000 0.27690  0.42091  0.25440  Biso   1.000  C
  C363     1.0000 0.26360  0.36949  0.25380  Biso   1.000  C
  C364     1.0000 0.12267  0.36949  0.25740  Biso   1.000  C
  C365     1.0000 0.16139  0.41848  0.25670  Biso   1.000  C
  C366     1.0000 0.11349  0.32069  0.25700  Biso   1.000  C
  H385     1.0000 0.09470  0.36309  0.27870  Biso   1.000  H
  N52      1.0000 0.03962  0.39749  0.29722  Biso   1.000  N
  H386     1.0000 0.13600  0.42367  0.30750  Biso   1.000  H
  H387     1.0000 0.63047  0.94620  0.25640  Biso   1.000  H
  C367     1.0000 0.63046  0.87728  0.24260  Biso   1.000  C
  C368     1.0000 0.58150  0.83858  0.24330  Biso   1.000  C
  C369     1.0000 0.67931  0.88650  0.24300  Biso   1.000  C
  C370     1.0000 0.63046  0.73635  0.24620  Biso   1.000  C
  H388     1.0000 0.63049  0.71206  0.26270  Biso   1.000  H
  C371     1.0000 0.68039  0.77606  0.24580  Biso   1.000  C
  C372     1.0000 0.57907  0.72309  0.24560  Biso   1.000  C
  H389     1.0000 0.71347  0.96370  0.25710  Biso   1.000  H
  H390     1.0000 0.54607  0.88219  0.25730  Biso   1.000  H
  H391     1.0000 0.54846  0.69476  0.26170  Biso   1.000  H
  H392     1.0000 0.71250  0.77781  0.26200  Biso   1.000  H
  C373     1.0000 0.51314  0.05227  0.30308  Biso   1.000  C
  C374     1.0000 0.24682  0.36949  0.24260  Biso   1.000  C
  H393     1.0000 0.25021  0.28650  0.25710  Biso   1.000  H
  C375     1.0000 0.20721  0.32069  0.24300  Biso   1.000  C
  H394     1.0000 0.33611  0.45388  0.25730  Biso   1.000  H
  C376     1.0000 0.25709  0.41848  0.24330  Biso   1.000  C
  H395     1.0000 0.31571  0.36949  0.25640  Biso   1.000  H
  C377     1.0000 0.10588  0.36949  0.24620  Biso   1.000  C
  H396     1.0000 0.08158  0.36949  0.26270  Biso   1.000  H
  C378     1.0000 0.09569  0.31962  0.24580  Biso   1.000  C
  C379     1.0000 0.14401  0.42091  0.24560  Biso   1.000  C
  H397     1.0000 0.14629  0.45146  0.26170  Biso   1.000  H
  H398     1.0000 0.06531  0.28751  0.26200  Biso   1.000  H
  C380     1.0000 0.98400  0.40152  0.30614  Biso   1.000  C
  C381     1.0000 0.63057  0.79975  0.23908  Biso   1.000  C
  H399     1.0000 0.63050  0.91840  0.23730  Biso   1.000  H
  H400     1.0000 0.54847  0.85366  0.23830  Biso   1.000  H
  H401     1.0000 0.71249  0.93469  0.23800  Biso   1.000  H
  H402     1.0000 0.63047  0.68426  0.24360  Biso   1.000  H
  H403     1.0000 0.71348  0.74981  0.24290  Biso   1.000  H
  H404     1.0000 0.54607  0.66387  0.24270  Biso   1.000  H
  C382     1.0000 0.41754  0.01599  0.30614  Biso   1.000  C
  C383     1.0000 0.57666  0.11217  0.31217  Biso   1.000  C
  H405     1.0000 0.52601  0.08874  0.29620  Biso   1.000  H
  C384     1.0000 0.16921  0.36942  0.23908  Biso   1.000  C
  H406     1.0000 0.28791  0.36949  0.23730  Biso   1.000  H
  H407     1.0000 0.22221  0.28751  0.23800  Biso   1.000  H
  H408     1.0000 0.30517  0.45146  0.23830  Biso   1.000  H
  H409     1.0000 0.05378  0.36949  0.24360  Biso   1.000  H
  H410     1.0000 0.03630  0.28650  0.24290  Biso   1.000  H
  H411     1.0000 0.11777  0.45388  0.24270  Biso   1.000  H
  H412     1.0000 0.02193  0.42609  0.31290  Biso   1.000  H
  C385     1.0000 0.90759  0.30629  0.30851  Biso   1.000  C
  C386     1.0000 0.94770  0.46088  0.30308  Biso   1.000  C
  C387     1.0000 0.63049  0.78817  0.22602  Biso   1.000  C
  N53      1.0000 0.35792  0.96040  0.29722  Biso   1.000  N
  H413     1.0000 0.40419  0.97810  0.31290  Biso   1.000  H
  C388     1.0000 0.39873  0.09238  0.30851  Biso   1.000  C
  C389     1.0000 0.55885  0.18997  0.31475  Biso   1.000  C
  H414     1.0000 0.63994  0.13720  0.30980  Biso   1.000  H
  H415     1.0000 0.56735  0.07596  0.31890  Biso   1.000  H
  C390     1.0000 0.15770  0.36949  0.22602  Biso   1.000  C
  H416     1.0000 0.93318  0.26759  0.31040  Biso   1.000  H
  H417     1.0000 0.87019  0.28139  0.30180  Biso   1.000  H
  C391     1.0000 0.84759  0.30508  0.31813  Biso   1.000  C
  N54      1.0000 0.02000  0.55477  0.30118  Biso   1.000  N
  C392     1.0000 0.88779  0.46452  0.31217  Biso   1.000  C
  H418     1.0000 0.91118  0.43726  0.29620  Biso   1.000  H
  C393     1.0000 0.61047  0.70337  0.22239  Biso   1.000  C
  C394     1.0000 0.62320  0.84726  0.21887  Biso   1.000  C
  C395     1.0000 0.29279  0.88260  0.30006  Biso   1.000  C
  H419     1.0000 0.33442  0.06680  0.31040  Biso   1.000  H
  H420     1.0000 0.41114  0.12980  0.30180  Biso   1.000  H
  C396     1.0000 0.45745  0.15234  0.31813  Biso   1.000  C
  H421     1.0000 0.57291  0.22893  0.30820  Biso   1.000  H
  H422     1.0000 0.59862  0.22685  0.32080  Biso   1.000  H
  C397     1.0000 0.09291  0.38948  0.22239  Biso   1.000  C
  C398     1.0000 0.22408  0.37682  0.21887  Biso   1.000  C
  H423     1.0000 0.88339  0.32702  0.32500  Biso   1.000  H
  H424     1.0000 0.79731  0.24309  0.31940  Biso   1.000  H
  C399     1.0000 0.80996  0.36888  0.31475  Biso   1.000  C
  C400     1.0000 0.02182  0.58627  0.29163  Biso   1.000  C
  H425     1.0000 0.86282  0.50281  0.30980  Biso   1.000  H
  H426     1.0000 0.92395  0.49137  0.31890  Biso   1.000  H
  C401     1.0000 0.58301  0.67760  0.21162  Biso   1.000  C
  H427     1.0000 0.61545  0.66286  0.22730  Biso   1.000  H
  C402     1.0000 0.59578  0.82156  0.20809  Biso   1.000  C
  H428     1.0000 0.63688  0.90528  0.22130  Biso   1.000  H
  C403     1.0000 0.22578  0.82156  0.29191  Biso   1.000  C
  H429     1.0000 0.28766  0.86396  0.30750  Biso   1.000  H
  H430     1.0000 0.44356  0.11654  0.32500  Biso   1.000  H
  H431     1.0000 0.44584  0.20269  0.31940  Biso   1.000  H
  C404     1.0000 0.09461  0.41700  0.21162  Biso   1.000  C
  H432     1.0000 0.04741  0.38450  0.22730  Biso   1.000  H
  H433     1.0000 0.26839  0.36309  0.22130  Biso   1.000  H
  C405     1.0000 0.22583  0.40422  0.20809  Biso   1.000  C
  H434     1.0000 0.77099  0.34398  0.30820  Biso   1.000  H
  H435     1.0000 0.77305  0.37178  0.32080  Biso   1.000  H
  C406     1.0000 0.09458  0.67760  0.28838  Biso   1.000  C
  H436     1.0000 0.97575  0.55067  0.28650  Biso   1.000  H
  C407     1.0000 0.56445  0.58627  0.20837  Biso   1.000  C
  C408     1.0000 0.57566  0.73669  0.20446  Biso   1.000  C
  C409     1.0000 0.58981  0.88260  0.19994  Biso   1.000  C
  C410     1.0000 0.16102  0.73669  0.29554  Biso   1.000  C
  C411     1.0000 0.22406  0.84726  0.28113  Biso   1.000  C
  C412     1.0000 0.02180  0.43551  0.20837  Biso   1.000  C
  C413     1.0000 0.16096  0.42427  0.20446  Biso   1.000  C
  C414     1.0000 0.29282  0.41021  0.19994  Biso   1.000  C
  C415     1.0000 0.09290  0.70337  0.27761  Biso   1.000  C
  N55      1.0000 0.53477  0.55477  0.19882  Biso   1.000  N
  H437     1.0000 0.57486  0.55067  0.21350  Biso   1.000  H
  H438     1.0000 0.55688  0.71905  0.19710  Biso   1.000  H
  N56      1.0000 0.60248  0.96040  0.20278  Biso   1.000  N
  H439     1.0000 0.57629  0.86396  0.19250  Biso   1.000  H
  H440     1.0000 0.16217  0.71905  0.30290  Biso   1.000  H
  C416     1.0000 0.15768  0.78817  0.27398  Biso   1.000  C
  H441     1.0000 0.26840  0.90528  0.27870  Biso   1.000  H
  N57      1.0000 0.02003  0.46519  0.19882  Biso   1.000  N
  H442     1.0000 0.97579  0.42508  0.21350  Biso   1.000  H
  H443     1.0000 0.16222  0.44312  0.19710  Biso   1.000  H
  N58      1.0000 0.35786  0.39749  0.20278  Biso   1.000  N
  H444     1.0000 0.28766  0.42367  0.19250  Biso   1.000  H
  H445     1.0000 0.04740  0.66286  0.27270  Biso   1.000  H
  C417     1.0000 0.51318  0.46088  0.19692  Biso   1.000  C
  C418     1.0000 0.59845  0.01599  0.19386  Biso   1.000  C
  C419     1.0000 0.16918  0.79975  0.26092  Biso   1.000  C
  C420     1.0000 0.94766  0.48680  0.19692  Biso   1.000  C
  C421     1.0000 0.41752  0.40152  0.19386  Biso   1.000  C
  C422     1.0000 0.57673  0.46452  0.18783  Biso   1.000  C
  H446     1.0000 0.52609  0.43726  0.20380  Biso   1.000  H
  C423     1.0000 0.53907  0.05227  0.19692  Biso   1.000  C
  H447     1.0000 0.57391  0.97810  0.18710  Biso   1.000  H
  C424     1.0000 0.69365  0.09238  0.19149  Biso   1.000  C
  C425     1.0000 0.10589  0.73635  0.25380  Biso   1.000  C
  C426     1.0000 0.24682  0.87728  0.25740  Biso   1.000  C
  C427     1.0000 0.09567  0.77606  0.25420  Biso   1.000  C
  C428     1.0000 0.14403  0.72309  0.25440  Biso   1.000  C
  C429     1.0000 0.25708  0.83858  0.25670  Biso   1.000  C
  C430     1.0000 0.20720  0.88650  0.25700  Biso   1.000  C
  C431     1.0000 0.98397  0.58250  0.19386  Biso   1.000  C
  C432     1.0000 0.88774  0.42326  0.18783  Biso   1.000  C
  H448     1.0000 0.91118  0.47387  0.20380  Biso   1.000  H
  H449     1.0000 0.40416  0.42609  0.18710  Biso   1.000  H
  C433     1.0000 0.39870  0.30629  0.19149  Biso   1.000  C
  C434     1.0000 0.55887  0.36888  0.18525  Biso   1.000  C
  H450     1.0000 0.63999  0.50281  0.19020  Biso   1.000  H
  H451     1.0000 0.56736  0.49137  0.18110  Biso   1.000  H
  N59      1.0000 0.44517  0.97998  0.19882  Biso   1.000  N
  C435     1.0000 0.53551  0.11217  0.18783  Biso   1.000  C
  H452     1.0000 0.56267  0.08874  0.20380  Biso   1.000  H
  H453     1.0000 0.73233  0.06680  0.18960  Biso   1.000  H
  H454     1.0000 0.71854  0.12980  0.19820  Biso   1.000  H
  C436     1.0000 0.69490  0.15234  0.18187  Biso   1.000  C
  H455     1.0000 0.05379  0.68426  0.25640  Biso   1.000  H
  C437     1.0000 0.12270  0.75318  0.24260  Biso   1.000  C
  C438     1.0000 0.16138  0.74288  0.24330  Biso   1.000  C
  C439     1.0000 0.11346  0.79275  0.24300  Biso   1.000  C
  C440     1.0000 0.26363  0.89411  0.24620  Biso   1.000  C
  H456     1.0000 0.28790  0.91840  0.26270  Biso   1.000  H
  C441     1.0000 0.22389  0.90427  0.24580  Biso   1.000  C
  C442     1.0000 0.27690  0.85595  0.24560  Biso   1.000  C
  H457     1.0000 0.03633  0.74981  0.25710  Biso   1.000  H
  H458     1.0000 0.11779  0.66387  0.25730  Biso   1.000  H
  H459     1.0000 0.30519  0.85366  0.26170  Biso   1.000  H
  H460     1.0000 0.22220  0.93469  0.26200  Biso   1.000  H
  N60      1.0000 0.03957  0.64206  0.20278  Biso   1.000  N
  H461     1.0000 0.02190  0.59576  0.18710  Biso   1.000  H
  C443     1.0000 0.90756  0.60128  0.19149  Biso   1.000  C
  C444     1.0000 0.80999  0.44110  0.18525  Biso   1.000  C
  H462     1.0000 0.86281  0.36000  0.19020  Biso   1.000  H
  H463     1.0000 0.92401  0.43262  0.18110  Biso   1.000  H
  H464     1.0000 0.33441  0.26759  0.18960  Biso   1.000  H
  H465     1.0000 0.41120  0.28139  0.19820  Biso   1.000  H
  C445     1.0000 0.45749  0.30508  0.18187  Biso   1.000  C
  H466     1.0000 0.57299  0.34398  0.19180  Biso   1.000  H
  H467     1.0000 0.59866  0.37178  0.17920  Biso   1.000  H
  C446     1.0000 0.41366  0.97817  0.20837  Biso   1.000  C
  C447     1.0000 0.63112  0.18997  0.18525  Biso   1.000  C
  H468     1.0000 0.49714  0.13720  0.19020  Biso   1.000  H
  H469     1.0000 0.50860  0.07596  0.18110  Biso   1.000  H
  H470     1.0000 0.67298  0.11654  0.17500  Biso   1.000  H
  H471     1.0000 0.75685  0.20269  0.18060  Biso   1.000  H
  C448     1.0000 0.20020  0.83078  0.23908  Biso   1.000  C
  H472     1.0000 0.08156  0.71206  0.23730  Biso   1.000  H
  H473     1.0000 0.14630  0.69476  0.23830  Biso   1.000  H
  H474     1.0000 0.06530  0.77781  0.23800  Biso   1.000  H
  H475     1.0000 0.31573  0.94620  0.24360  Biso   1.000  H
  H476     1.0000 0.25022  0.96370  0.24290  Biso   1.000  H
  H477     1.0000 0.33613  0.88219  0.24270  Biso   1.000  H
  C449     1.0000 0.11743  0.70721  0.19994  Biso   1.000  C
  H478     1.0000 0.93320  0.66562  0.18960  Biso   1.000  H
  H479     1.0000 0.87018  0.58876  0.19820  Biso   1.000  H
  C450     1.0000 0.84755  0.54245  0.18187  Biso   1.000  C
  H480     1.0000 0.77098  0.42696  0.19180  Biso   1.000  H
  H481     1.0000 0.77308  0.40132  0.17920  Biso   1.000  H
  H482     1.0000 0.44363  0.32702  0.17500  Biso   1.000  H
  H483     1.0000 0.44579  0.24309  0.18060  Biso   1.000  H
  C451     1.0000 0.32235  0.90535  0.21162  Biso   1.000  C
  H484     1.0000 0.44933  0.02420  0.21350  Biso   1.000  H
  H485     1.0000 0.65597  0.22893  0.19180  Biso   1.000  H
  H486     1.0000 0.62817  0.22685  0.17920  Biso   1.000  H
  C452     1.0000 0.21178  0.84228  0.22602  Biso   1.000  C
  C453     1.0000 0.17837  0.77417  0.20809  Biso   1.000  C
  H487     1.0000 0.13599  0.71226  0.19250  Biso   1.000  H
  H488     1.0000 0.88337  0.55639  0.17500  Biso   1.000  H
  H489     1.0000 0.79728  0.55416  0.18060  Biso   1.000  H
  C454     1.0000 0.26329  0.83899  0.20446  Biso   1.000  C
  C455     1.0000 0.29659  0.90710  0.22239  Biso   1.000  C
  C456     1.0000 0.15269  0.77586  0.21887  Biso   1.000  C
  H490     1.0000 0.28087  0.83778  0.19710  Biso   1.000  H
  H491     1.0000 0.33711  0.95259  0.22730  Biso   1.000  H
  H492     1.0000 0.09470  0.73157  0.22130  Biso   1.000  H
  C457     1.0000 0.47281  0.60989  0.59165  Biso   1.000  C
  C458     1.0000 0.48755  0.53236  0.59330  Biso   1.000  C
  H493     1.0000 0.44437  0.60478  0.58440  Biso   1.000  H
  H494     1.0000 0.53120  0.66676  0.59180  Biso   1.000  H
  C459     1.0000 0.41298  0.61029  0.60060  Biso   1.000  C
  C460     1.0000 0.53618  0.54138  0.60466  Biso   1.000  C
  H495     1.0000 0.52500  0.53021  0.58720  Biso   1.000  H
  H496     1.0000 0.42895  0.47556  0.59320  Biso   1.000  H
  H497     1.0000 0.35308  0.55531  0.60010  Biso   1.000  H
  H498     1.0000 0.40492  0.66319  0.59980  Biso   1.000  H
  C461     1.0000 0.45852  0.61420  0.61224  Biso   1.000  C
  N61      1.0000 0.54521  0.46129  0.60542  Biso   1.000  N
  H499     1.0000 0.59666  0.59717  0.60480  Biso   1.000  H
  C462     1.0000 0.47803  0.54212  0.61393  Biso   1.000  C
  H500     1.0000 0.51518  0.67248  0.61290  Biso   1.000  H
  H501     1.0000 0.41768  0.61178  0.61810  Biso   1.000  H
  C463     1.0000 0.62409  0.47508  0.60448  Biso   1.000  C
  N62      1.0000 0.52740  0.55262  0.62411  Biso   1.000  N
  H502     1.0000 0.42028  0.48316  0.61410  Biso   1.000  H
  C464     1.0000 0.64769  0.40327  0.60436  Biso   1.000  C
  H503     1.0000 0.67159  0.53559  0.60380  Biso   1.000  H
  C465     1.0000 0.49178  0.49420  0.63138  Biso   1.000  C
  C466     1.0000 0.73702  0.42070  0.60426  Biso   1.000  C
  C467     1.0000 0.57933  0.31632  0.60426  Biso   1.000  C
  H504     1.0000 0.43621  0.44251  0.62950  Biso   1.000  H
  C468     1.0000 0.52627  0.49568  0.64273  Biso   1.000  C
  H505     1.0000 0.78511  0.48121  0.60410  Biso   1.000  H
  C469     1.0000 0.75554  0.35226  0.60436  Biso   1.000  C
  H506     1.0000 0.51878  0.30387  0.60410  Biso   1.000  H
  C470     1.0000 0.59669  0.24437  0.60436  Biso   1.000  C
  C471     1.0000 0.47258  0.42898  0.64981  Biso   1.000  C
  C472     1.0000 0.61259  0.56446  0.64616  Biso   1.000  C
  C473     1.0000 0.68370  0.26302  0.60426  Biso   1.000  C
  C474     1.0000 0.85099  0.37588  0.60448  Biso   1.000  C
  C475     1.0000 0.52487  0.14901  0.60448  Biso   1.000  C
  H507     1.0000 0.41580  0.38140  0.64740  Biso   1.000  H
  C476     1.0000 0.50208  0.43087  0.66087  Biso   1.000  C
  C477     1.0000 0.64157  0.56715  0.65677  Biso   1.000  C
  H508     1.0000 0.65097  0.60929  0.64110  Biso   1.000  H
  H509     1.0000 0.69607  0.21490  0.60410  Biso   1.000  H
  N63      1.0000 0.91608  0.45476  0.60542  Biso   1.000  N
  H510     1.0000 0.86396  0.32837  0.60380  Biso   1.000  H
  N64      1.0000 0.53873  0.08393  0.60542  Biso   1.000  N
  H511     1.0000 0.46441  0.13602  0.60380  Biso   1.000  H
  C478     1.0000 0.58415  0.49837  0.66379  Biso   1.000  C
  C479     1.0000 0.44477  0.36148  0.66906  Biso   1.000  C
  C480     1.0000 0.73429  0.63836  0.65979  Biso   1.000  C
  C481     1.0000 0.00522  0.46378  0.60466  Biso   1.000  C
  C482     1.0000 0.45856  0.99482  0.60466  Biso   1.000  C
  H512     1.0000 0.60412  0.49891  0.67110  Biso   1.000  H
  N65      1.0000 0.36888  0.29620  0.66631  Biso   1.000  N
  H513     1.0000 0.46520  0.36619  0.67640  Biso   1.000  H
  N66      1.0000 0.76540  0.64428  0.66971  Biso   1.000  N
  H514     1.0000 0.77155  0.68036  0.65440  Biso   1.000  H
  H515     1.0000 0.00049  0.40327  0.60480  Biso   1.000  H
  C483     1.0000 0.04478  0.51237  0.59330  Biso   1.000  C
  C484     1.0000 0.06411  0.52199  0.61393  Biso   1.000  C
  H516     1.0000 0.40281  0.99953  0.60480  Biso   1.000  H
  C485     1.0000 0.46753  0.95518  0.59330  Biso   1.000  C
  C486     1.0000 0.45791  0.93593  0.61393  Biso   1.000  C
  C487     1.0000 0.31659  0.23300  0.67516  Biso   1.000  C
  C488     1.0000 0.85688  0.72255  0.67129  Biso   1.000  C
  H517     1.0000 0.00524  0.47502  0.58720  Biso   1.000  H
  H518     1.0000 0.04658  0.57099  0.59320  Biso   1.000  H
  C489     1.0000 0.13711  0.52718  0.59165  Biso   1.000  C
  N67      1.0000 0.02519  0.47259  0.62411  Biso   1.000  N
  C490     1.0000 0.15570  0.54151  0.61224  Biso   1.000  C
  H519     1.0000 0.06287  0.57967  0.61410  Biso   1.000  H
  H520     1.0000 0.46975  0.99482  0.58720  Biso   1.000  H
  H521     1.0000 0.52436  0.95343  0.59320  Biso   1.000  H
  C491     1.0000 0.39016  0.86291  0.59165  Biso   1.000  C
  N68      1.0000 0.44746  0.97483  0.62411  Biso   1.000  N
  C492     1.0000 0.38582  0.84433  0.61224  Biso   1.000  C
  H522     1.0000 0.51677  0.93707  0.61410  Biso   1.000  H
  C493     1.0000 0.27737  0.13427  0.67129  Biso   1.000  C
  C494     1.0000 0.23912  0.24929  0.67806  Biso   1.000  C
  H523     1.0000 0.35580  0.24451  0.68170  Biso   1.000  H
  H524     1.0000 0.88027  0.75641  0.66420  Biso   1.000  H
  C495     1.0000 0.85450  0.78097  0.67976  Biso   1.000  C
  C496     1.0000 0.91638  0.68338  0.67516  Biso   1.000  C
  H525     1.0000 0.16040  0.55558  0.58440  Biso   1.000  H
  H526     1.0000 0.13559  0.46876  0.59180  Biso   1.000  H
  C497     1.0000 0.19733  0.58701  0.60060  Biso   1.000  C
  C498     1.0000 0.00242  0.50820  0.63138  Biso   1.000  C
  H527     1.0000 0.15729  0.48478  0.61290  Biso   1.000  H
  H528     1.0000 0.19410  0.58230  0.61810  Biso   1.000  H
  H529     1.0000 0.39518  0.83962  0.58440  Biso   1.000  H
  H530     1.0000 0.33320  0.86439  0.59180  Biso   1.000  H
  C499     1.0000 0.38974  0.80274  0.60060  Biso   1.000  C
  C500     1.0000 0.50575  0.99758  0.63138  Biso   1.000  C
  H531     1.0000 0.32749  0.84272  0.61290  Biso   1.000  H
  H532     1.0000 0.38818  0.80590  0.61810  Biso   1.000  H
  N69      1.0000 0.35569  0.12108  0.66971  Biso   1.000  N
  H533     1.0000 0.24357  0.12390  0.66420  Biso   1.000  H
  C501     1.0000 0.21900  0.07349  0.67976  Biso   1.000  C
  C502     1.0000 0.17878  0.18340  0.68699  Biso   1.000  C
  H534     1.0000 0.20281  0.24161  0.67140  Biso   1.000  H
  H535     1.0000 0.26377  0.31188  0.68070  Biso   1.000  H
  H536     1.0000 0.81531  0.80460  0.67730  Biso   1.000  H
  H537     1.0000 0.82740  0.74497  0.68650  Biso   1.000  H
  C503     1.0000 0.94267  0.85615  0.68242  Biso   1.000  C
  N70      1.0000 0.92731  0.63109  0.66631  Biso   1.000  N
  H538     1.0000 0.88870  0.64421  0.68170  Biso   1.000  H
  C504     1.0000 0.01020  0.76085  0.67806  Biso   1.000  C
  H539     1.0000 0.20222  0.64691  0.60010  Biso   1.000  H
  H540     1.0000 0.25832  0.59508  0.59980  Biso   1.000  H
  C505     1.0000 0.96936  0.47367  0.64273  Biso   1.000  C
  H541     1.0000 0.00632  0.56379  0.62950  Biso   1.000  H
  H542     1.0000 0.44470  0.79782  0.60010  Biso   1.000  H
  H543     1.0000 0.33684  0.74169  0.59980  Biso   1.000  H
  C506     1.0000 0.50432  0.03062  0.64273  Biso   1.000  C
  H544     1.0000 0.55754  0.99367  0.62950  Biso   1.000  H
  C507     1.0000 0.36159  0.09591  0.65979  Biso   1.000  C
  H545     1.0000 0.19542  0.01070  0.67730  Biso   1.000  H
  H546     1.0000 0.25498  0.08238  0.68650  Biso   1.000  H
  C508     1.0000 0.14378  0.08648  0.68242  Biso   1.000  C
  H547     1.0000 0.12769  0.19302  0.68860  Biso   1.000  H
  H548     1.0000 0.21358  0.19262  0.69380  Biso   1.000  H
  H549     1.0000 0.93655  0.89485  0.68800  Biso   1.000  H
  H550     1.0000 0.97019  0.89276  0.67580  Biso   1.000  H
  C509     1.0000 0.00456  0.82115  0.68699  Biso   1.000  C
  C510     1.0000 0.91668  0.55517  0.66906  Biso   1.000  C
  H551     1.0000 0.03880  0.79719  0.67140  Biso   1.000  H
  H552     1.0000 0.04809  0.73615  0.68070  Biso   1.000  H
  C511     1.0000 0.95635  0.52738  0.64981  Biso   1.000  C
  C512     1.0000 0.95187  0.38739  0.64616  Biso   1.000  C
  C513     1.0000 0.57097  0.04361  0.64981  Biso   1.000  C
  C514     1.0000 0.43550  0.04812  0.64616  Biso   1.000  C
  C515     1.0000 0.43277  0.07437  0.65677  Biso   1.000  C
  H553     1.0000 0.31960  0.09119  0.65440  Biso   1.000  H
  H554     1.0000 0.10509  0.04173  0.68800  Biso   1.000  H
  H555     1.0000 0.10718  0.07740  0.67580  Biso   1.000  H
  H556     1.0000 0.97895  0.78636  0.69380  Biso   1.000  H
  H557     1.0000 0.06528  0.87230  0.68860  Biso   1.000  H
  C516     1.0000 0.92879  0.49790  0.66087  Biso   1.000  C
  H558     1.0000 0.90095  0.53478  0.67640  Biso   1.000  H
  H559     1.0000 0.96558  0.58418  0.64740  Biso   1.000  H
  C517     1.0000 0.92559  0.35838  0.65677  Biso   1.000  C
  H560     1.0000 0.95824  0.34896  0.64110  Biso   1.000  H
  H561     1.0000 0.61858  0.03439  0.64740  Biso   1.000  H
  C518     1.0000 0.56909  0.07121  0.66087  Biso   1.000  C
  H562     1.0000 0.39068  0.04173  0.64110  Biso   1.000  H
  C519     1.0000 0.50161  0.08581  0.66379  Biso   1.000  C
  C520     1.0000 0.91420  0.41579  0.66379  Biso   1.000  C
  C521     1.0000 0.90408  0.26571  0.65979  Biso   1.000  C
  C522     1.0000 0.63850  0.08332  0.66906  Biso   1.000  C
  H563     1.0000 0.50110  0.10519  0.67110  Biso   1.000  H
  H564     1.0000 0.89479  0.39587  0.67110  Biso   1.000  H
  N71      1.0000 0.87886  0.23461  0.66971  Biso   1.000  N
  H565     1.0000 0.90881  0.22842  0.65440  Biso   1.000  H
  N72      1.0000 0.70377  0.07269  0.66631  Biso   1.000  N
  H566     1.0000 0.63381  0.09900  0.67640  Biso   1.000  H
  C523     1.0000 0.86568  0.14308  0.67129  Biso   1.000  C
  C524     1.0000 0.76698  0.08359  0.67516  Biso   1.000  C
  H567     1.0000 0.87609  0.11973  0.66420  Biso   1.000  H
  C525     1.0000 0.92646  0.14551  0.67976  Biso   1.000  C
  H568     1.0000 0.75549  0.11132  0.68170  Biso   1.000  H
  C526     1.0000 0.75067  0.98977  0.67806  Biso   1.000  C
  H569     1.0000 0.98929  0.18468  0.67730  Biso   1.000  H
  H570     1.0000 0.91755  0.17256  0.68650  Biso   1.000  H
  C527     1.0000 0.91347  0.05727  0.68242  Biso   1.000  C
  C528     1.0000 0.81662  0.99542  0.68699  Biso   1.000  C
  H571     1.0000 0.75843  0.96123  0.67140  Biso   1.000  H
  H572     1.0000 0.68813  0.95188  0.68070  Biso   1.000  H
  H573     1.0000 0.95826  0.06340  0.68800  Biso   1.000  H
  H574     1.0000 0.92258  0.02981  0.67580  Biso   1.000  H
  H575     1.0000 0.80738  0.02100  0.69380  Biso   1.000  H
  H576     1.0000 0.80696  0.93472  0.68860  Biso   1.000  H
  C529     1.0000 0.54247  0.69489  0.68187  Biso   1.000  C
  C530     1.0000 0.60126  0.69368  0.69149  Biso   1.000  C
  H577     1.0000 0.55639  0.67295  0.67500  Biso   1.000  H
  H578     1.0000 0.55417  0.75688  0.68060  Biso   1.000  H
  C531     1.0000 0.44109  0.63109  0.68525  Biso   1.000  C
  C532     1.0000 0.58252  0.59852  0.69386  Biso   1.000  C
  H579     1.0000 0.66560  0.73238  0.68960  Biso   1.000  H
  H580     1.0000 0.58876  0.71858  0.69820  Biso   1.000  H
  H581     1.0000 0.42702  0.65599  0.69180  Biso   1.000  H
  H582     1.0000 0.40129  0.62820  0.67920  Biso   1.000  H
  C533     1.0000 0.42329  0.53545  0.68783  Biso   1.000  C
  N73      1.0000 0.64210  0.60249  0.70278  Biso   1.000  N
  H583     1.0000 0.59580  0.57388  0.68710  Biso   1.000  H
  C534     1.0000 0.48677  0.53909  0.69692  Biso   1.000  C
  H584     1.0000 0.35996  0.49716  0.69020  Biso   1.000  H
  H585     1.0000 0.43260  0.50860  0.68110  Biso   1.000  H
  C535     1.0000 0.70719  0.58977  0.69994  Biso   1.000  C
  N74      1.0000 0.46518  0.44520  0.69882  Biso   1.000  N
  H586     1.0000 0.47393  0.56271  0.70380  Biso   1.000  H
  C536     1.0000 0.77419  0.59576  0.70809  Biso   1.000  C
  H587     1.0000 0.71230  0.57631  0.69250  Biso   1.000  H
  C537     1.0000 0.43551  0.41371  0.70837  Biso   1.000  C
  C538     1.0000 0.77591  0.62322  0.71887  Biso   1.000  C
  C539     1.0000 0.83900  0.57570  0.70446  Biso   1.000  C
  H588     1.0000 0.42510  0.44931  0.71350  Biso   1.000  H
  C540     1.0000 0.41700  0.32238  0.71162  Biso   1.000  C
  C541     1.0000 0.84226  0.63049  0.72602  Biso   1.000  C
  H589     1.0000 0.73157  0.63688  0.72130  Biso   1.000  H
  C542     1.0000 0.90535  0.58297  0.71162  Biso   1.000  C
  H590     1.0000 0.83779  0.55686  0.69710  Biso   1.000  H
  C543     1.0000 0.38948  0.29660  0.72239  Biso   1.000  C
  C544     1.0000 0.42429  0.26329  0.70446  Biso   1.000  C
  C545     1.0000 0.90710  0.61050  0.72239  Biso   1.000  C
  C546     1.0000 0.83075  0.63055  0.73908  Biso   1.000  C
  C547     1.0000 0.97816  0.56446  0.70837  Biso   1.000  C
  H591     1.0000 0.38450  0.33712  0.72730  Biso   1.000  H
  C548     1.0000 0.36947  0.21180  0.72602  Biso   1.000  C
  C549     1.0000 0.40418  0.17842  0.70809  Biso   1.000  C
  H592     1.0000 0.44308  0.28092  0.69710  Biso   1.000  H
  H593     1.0000 0.95255  0.61548  0.72730  Biso   1.000  H
  C550     1.0000 0.89407  0.63049  0.74620  Biso   1.000  C
  C551     1.0000 0.75320  0.63049  0.74260  Biso   1.000  C
  C552     1.0000 0.90426  0.68036  0.74580  Biso   1.000  C
  C553     1.0000 0.85595  0.57907  0.74560  Biso   1.000  C
  C554     1.0000 0.74286  0.58149  0.74330  Biso   1.000  C
  C555     1.0000 0.79281  0.67928  0.74300  Biso   1.000  C
  N75      1.0000 0.97999  0.53478  0.69882  Biso   1.000  N
  H594     1.0000 0.02423  0.57489  0.71350  Biso   1.000  H
  C556     1.0000 0.37681  0.15271  0.71887  Biso   1.000  C
  C557     1.0000 0.36939  0.20022  0.73908  Biso   1.000  C
  C558     1.0000 0.41021  0.11737  0.69994  Biso   1.000  C
  H595     1.0000 0.94618  0.63049  0.74360  Biso   1.000  H
  C559     1.0000 0.87729  0.63049  0.75740  Biso   1.000  C
  C560     1.0000 0.83857  0.58149  0.75670  Biso   1.000  C
  C561     1.0000 0.88647  0.67928  0.75700  Biso   1.000  C
  C562     1.0000 0.73641  0.63049  0.75380  Biso   1.000  C
  H596     1.0000 0.71211  0.63049  0.73730  Biso   1.000  H
  C563     1.0000 0.77609  0.68036  0.75420  Biso   1.000  C
  C564     1.0000 0.72306  0.57907  0.75440  Biso   1.000  C
  H597     1.0000 0.96366  0.71347  0.74290  Biso   1.000  H
  H598     1.0000 0.88218  0.54609  0.74270  Biso   1.000  H
  H599     1.0000 0.69478  0.54851  0.73830  Biso   1.000  H
  H600     1.0000 0.77775  0.71246  0.73800  Biso   1.000  H
  C565     1.0000 0.05230  0.51318  0.69692  Biso   1.000  C
  H601     1.0000 0.36308  0.09469  0.72130  Biso   1.000  H
  C566     1.0000 0.36950  0.26362  0.74620  Biso   1.000  C
  C567     1.0000 0.36950  0.12269  0.74260  Biso   1.000  C
  C568     1.0000 0.31963  0.22391  0.74580  Biso   1.000  C
  C569     1.0000 0.42089  0.27688  0.74560  Biso   1.000  C
  C570     1.0000 0.41846  0.16139  0.74330  Biso   1.000  C
  C571     1.0000 0.32065  0.11347  0.74300  Biso   1.000  C
  N76      1.0000 0.39748  0.03957  0.70278  Biso   1.000  N
  H602     1.0000 0.42372  0.13602  0.69250  Biso   1.000  H
  C572     1.0000 0.79974  0.63055  0.76092  Biso   1.000  C
  H603     1.0000 0.91838  0.63049  0.76270  Biso   1.000  H
  H604     1.0000 0.85367  0.54851  0.76170  Biso   1.000  H
  H605     1.0000 0.93465  0.71246  0.76200  Biso   1.000  H
  H606     1.0000 0.68430  0.63049  0.75640  Biso   1.000  H
  H607     1.0000 0.74975  0.71347  0.75710  Biso   1.000  H
  H608     1.0000 0.66391  0.54609  0.75730  Biso   1.000  H
  C573     1.0000 0.01599  0.41747  0.69386  Biso   1.000  C
  C574     1.0000 0.11222  0.57671  0.68783  Biso   1.000  C
  H609     1.0000 0.08878  0.52610  0.70380  Biso   1.000  H
  H610     1.0000 0.36949  0.31571  0.74360  Biso   1.000  H
  C575     1.0000 0.36948  0.24680  0.75740  Biso   1.000  C
  C576     1.0000 0.41852  0.25709  0.75670  Biso   1.000  C
  C577     1.0000 0.32072  0.20722  0.75700  Biso   1.000  C
  C578     1.0000 0.36948  0.10587  0.75380  Biso   1.000  C
  H611     1.0000 0.36946  0.08157  0.73730  Biso   1.000  H
  C579     1.0000 0.31958  0.09570  0.75420  Biso   1.000  C
  C580     1.0000 0.42091  0.14403  0.75440  Biso   1.000  C
  H612     1.0000 0.28647  0.25016  0.74290  Biso   1.000  H
  H613     1.0000 0.45388  0.33611  0.74270  Biso   1.000  H
  H614     1.0000 0.45149  0.14631  0.73830  Biso   1.000  H
  H615     1.0000 0.28746  0.06528  0.73800  Biso   1.000  H
  C581     1.0000 0.40150  0.98398  0.69386  Biso   1.000  C
  C582     1.0000 0.78817  0.63049  0.77398  Biso   1.000  C
  N77      1.0000 0.96039  0.35791  0.70278  Biso   1.000  N
  H616     1.0000 0.97812  0.40422  0.68710  Biso   1.000  H
  C583     1.0000 0.09240  0.39870  0.69149  Biso   1.000  C
  C584     1.0000 0.18997  0.55888  0.68525  Biso   1.000  C
  H617     1.0000 0.13720  0.63997  0.69020  Biso   1.000  H
  H618     1.0000 0.07601  0.56736  0.68110  Biso   1.000  H
  C585     1.0000 0.36938  0.16920  0.76092  Biso   1.000  C
  H619     1.0000 0.36952  0.28792  0.76270  Biso   1.000  H
  H620     1.0000 0.45149  0.30521  0.76170  Biso   1.000  H
  H621     1.0000 0.28745  0.22216  0.76200  Biso   1.000  H
  H622     1.0000 0.36949  0.05377  0.75640  Biso   1.000  H
  H623     1.0000 0.28648  0.03628  0.75710  Biso   1.000  H
  H624     1.0000 0.45389  0.11778  0.75730  Biso   1.000  H
  H625     1.0000 0.42610  0.02187  0.68710  Biso   1.000  H
  C586     1.0000 0.30631  0.90759  0.69149  Biso   1.000  C
  C587     1.0000 0.46094  0.94771  0.69692  Biso   1.000  C
  C588     1.0000 0.70339  0.61050  0.77761  Biso   1.000  C
  C589     1.0000 0.84731  0.62322  0.78113  Biso   1.000  C
  C590     1.0000 0.88258  0.29276  0.69994  Biso   1.000  C
  H626     1.0000 0.06679  0.33442  0.68960  Biso   1.000  H
  H627     1.0000 0.12984  0.41122  0.69820  Biso   1.000  H
  C591     1.0000 0.15241  0.45752  0.68187  Biso   1.000  C
  H628     1.0000 0.22898  0.57301  0.69180  Biso   1.000  H
  H629     1.0000 0.22691  0.59872  0.67920  Biso   1.000  H
  C592     1.0000 0.36951  0.15769  0.77398  Biso   1.000  C
  H630     1.0000 0.26766  0.93324  0.68960  Biso   1.000  H
  H631     1.0000 0.28136  0.87017  0.69820  Biso   1.000  H
  C593     1.0000 0.30517  0.84763  0.68187  Biso   1.000  C
  N78      1.0000 0.55479  0.01999  0.69882  Biso   1.000  N
  C594     1.0000 0.46445  0.88781  0.68783  Biso   1.000  C
  H632     1.0000 0.43728  0.91123  0.70380  Biso   1.000  H
  C595     1.0000 0.67757  0.58297  0.78838  Biso   1.000  C
  H633     1.0000 0.66287  0.61548  0.77270  Biso   1.000  H
  H634     1.0000 0.90526  0.63688  0.77870  Biso   1.000  H
  C596     1.0000 0.82157  0.59576  0.79191  Biso   1.000  C
  C597     1.0000 0.82159  0.22580  0.70809  Biso   1.000  C
  H635     1.0000 0.86397  0.28772  0.69250  Biso   1.000  H
  H636     1.0000 0.11659  0.44359  0.67500  Biso   1.000  H
  H637     1.0000 0.20268  0.44581  0.68060  Biso   1.000  H
  C598     1.0000 0.38951  0.09288  0.77761  Biso   1.000  C
  C599     1.0000 0.37679  0.22412  0.78113  Biso   1.000  C
  H638     1.0000 0.32704  0.88343  0.67500  Biso   1.000  H
  H639     1.0000 0.24311  0.79729  0.68060  Biso   1.000  H
  C600     1.0000 0.36895  0.81001  0.68525  Biso   1.000  C
  C601     1.0000 0.58629  0.02181  0.70837  Biso   1.000  C
  H640     1.0000 0.50279  0.86284  0.69020  Biso   1.000  H
  H641     1.0000 0.49135  0.92402  0.68110  Biso   1.000  H
  C602     1.0000 0.58625  0.56446  0.79163  Biso   1.000  C
  C603     1.0000 0.73671  0.57570  0.79554  Biso   1.000  C
  C604     1.0000 0.88257  0.58977  0.80006  Biso   1.000  C
  C605     1.0000 0.84727  0.22412  0.71887  Biso   1.000  C
  C606     1.0000 0.73667  0.16099  0.70446  Biso   1.000  C
  C607     1.0000 0.41702  0.09463  0.78838  Biso   1.000  C
  H642     1.0000 0.38448  0.04738  0.77270  Biso   1.000  H
  H643     1.0000 0.36309  0.26840  0.77870  Biso   1.000  H
  C608     1.0000 0.40421  0.22580  0.79191  Biso   1.000  C
  H644     1.0000 0.34405  0.77104  0.69180  Biso   1.000  H
  H645     1.0000 0.37179  0.77312  0.67920  Biso   1.000  H
  C609     1.0000 0.67761  0.09463  0.71162  Biso   1.000  C
  H646     1.0000 0.55063  0.97577  0.71350  Biso   1.000  H
  N79      1.0000 0.55480  0.53478  0.80118  Biso   1.000  N
  H647     1.0000 0.55066  0.57489  0.78650  Biso   1.000  H
  H648     1.0000 0.71906  0.55686  0.80290  Biso   1.000  H
  N80      1.0000 0.96039  0.60249  0.79722  Biso   1.000  N
  H649     1.0000 0.86401  0.57631  0.80750  Biso   1.000  H
  C610     1.0000 0.78818  0.15769  0.72602  Biso   1.000  C
  H650     1.0000 0.90526  0.26840  0.72130  Biso   1.000  H
  H651     1.0000 0.71909  0.16220  0.69710  Biso   1.000  H
  C611     1.0000 0.43551  0.02181  0.79163  Biso   1.000  C
  C612     1.0000 0.42426  0.16099  0.79554  Biso   1.000  C
  C613     1.0000 0.41018  0.29276  0.80006  Biso   1.000  C
  C614     1.0000 0.70337  0.09288  0.72239  Biso   1.000  C
  C615     1.0000 0.46088  0.51318  0.80308  Biso   1.000  C
  C616     1.0000 0.01599  0.59852  0.80614  Biso   1.000  C
  C617     1.0000 0.79976  0.16920  0.73908  Biso   1.000  C
  N81      1.0000 0.46520  0.01999  0.80118  Biso   1.000  N
  H652     1.0000 0.42514  0.97577  0.78650  Biso   1.000  H
  H653     1.0000 0.44311  0.16220  0.80290  Biso   1.000  H
  N82      1.0000 0.39753  0.35791  0.79722  Biso   1.000  N
  H654     1.0000 0.42369  0.28772  0.80750  Biso   1.000  H
  H655     1.0000 0.66285  0.04738  0.72730  Biso   1.000  H
  C618     1.0000 0.40149  0.41747  0.80614  Biso   1.000  C
  C619     1.0000 0.46449  0.57671  0.81217  Biso   1.000  C
  H656     1.0000 0.43732  0.52610  0.79620  Biso   1.000  H
  H657     1.0000 0.97809  0.57388  0.81290  Biso   1.000  H
  C620     1.0000 0.09243  0.69368  0.80851  Biso   1.000  C
  C621     1.0000 0.05232  0.53909  0.80308  Biso   1.000  C
  C622     1.0000 0.73639  0.10587  0.74620  Biso   1.000  C
  C623     1.0000 0.87726  0.24680  0.74260  Biso   1.000  C
  C624     1.0000 0.77607  0.09570  0.74580  Biso   1.000  C
  C625     1.0000 0.72312  0.14403  0.74560  Biso   1.000  C
  C626     1.0000 0.83858  0.25709  0.74330  Biso   1.000  C
  C627     1.0000 0.88650  0.20722  0.74300  Biso   1.000  C
  C628     1.0000 0.48676  0.94771  0.80308  Biso   1.000  C
  H658     1.0000 0.42610  0.40422  0.81290  Biso   1.000  H
  C629     1.0000 0.30630  0.39870  0.80851  Biso   1.000  C
  C630     1.0000 0.36891  0.55888  0.81475  Biso   1.000  C
  H659     1.0000 0.50277  0.63997  0.80980  Biso   1.000  H
  H660     1.0000 0.49135  0.56736  0.81890  Biso   1.000  H
  H661     1.0000 0.06678  0.73238  0.81040  Biso   1.000  H
  H662     1.0000 0.12982  0.71858  0.80180  Biso   1.000  H
  C631     1.0000 0.15242  0.69489  0.81813  Biso   1.000  C
  N83      1.0000 0.97996  0.44520  0.80118  Biso   1.000  N
  C632     1.0000 0.11216  0.53545  0.81217  Biso   1.000  C
  H663     1.0000 0.08878  0.56271  0.79620  Biso   1.000  H
  H664     1.0000 0.68429  0.05377  0.74360  Biso   1.000  H
  C633     1.0000 0.75319  0.12269  0.75740  Biso   1.000  C
  C634     1.0000 0.74287  0.16139  0.75670  Biso   1.000  C
  C635     1.0000 0.79276  0.11347  0.75700  Biso   1.000  C
  C636     1.0000 0.89407  0.26362  0.75380  Biso   1.000  C
  H665     1.0000 0.91840  0.28792  0.73730  Biso   1.000  H
  C637     1.0000 0.90429  0.22391  0.75420  Biso   1.000  C
  C638     1.0000 0.85599  0.27688  0.75440  Biso   1.000  C
  H666     1.0000 0.74979  0.03628  0.74290  Biso   1.000  H
  H667     1.0000 0.66389  0.11778  0.74270  Biso   1.000  H
  H668     1.0000 0.85366  0.30521  0.73830  Biso   1.000  H
  H669     1.0000 0.93465  0.22216  0.73800  Biso   1.000  H
  C639     1.0000 0.58254  0.98398  0.80614  Biso   1.000  C
  C640     1.0000 0.42336  0.88781  0.81217  Biso   1.000  C
  H670     1.0000 0.47395  0.91123  0.79620  Biso   1.000  H
  H671     1.0000 0.26764  0.33442  0.81040  Biso   1.000  H
  H672     1.0000 0.28138  0.41122  0.80180  Biso   1.000  H
  C641     1.0000 0.30511  0.45752  0.81813  Biso   1.000  C
  H673     1.0000 0.34403  0.57301  0.80820  Biso   1.000  H
  H674     1.0000 0.37181  0.59872  0.82080  Biso   1.000  H
  H675     1.0000 0.11657  0.67295  0.82500  Biso   1.000  H
  H676     1.0000 0.20271  0.75688  0.81940  Biso   1.000  H
  C642     1.0000 0.19000  0.63109  0.81475  Biso   1.000  C
  C643     1.0000 0.97820  0.41371  0.79163  Biso   1.000  C
  H677     1.0000 0.13720  0.49716  0.80980  Biso   1.000  H
  H678     1.0000 0.07601  0.50860  0.81890  Biso   1.000  H
  C644     1.0000 0.83078  0.20022  0.76092  Biso   1.000  C
  H679     1.0000 0.71206  0.08157  0.76270  Biso   1.000  H
  H680     1.0000 0.69477  0.14631  0.76170  Biso   1.000  H
  H681     1.0000 0.77776  0.06528  0.76200  Biso   1.000  H
  H682     1.0000 0.94616  0.31571  0.75640  Biso   1.000  H
  H683     1.0000 0.96369  0.25016  0.75710  Biso   1.000  H
  H684     1.0000 0.88216  0.33611  0.75730  Biso   1.000  H
  N84      1.0000 0.64210  0.03957  0.79722  Biso   1.000  N
  H685     1.0000 0.59577  0.02187  0.81290  Biso   1.000  H
  C645     1.0000 0.60135  0.90759  0.80851  Biso   1.000  C
  C646     1.0000 0.44105  0.81001  0.81475  Biso   1.000  C
  H686     1.0000 0.36005  0.86284  0.80980  Biso   1.000  H
  H687     1.0000 0.43266  0.92402  0.81890  Biso   1.000  H
  H688     1.0000 0.32700  0.44359  0.82500  Biso   1.000  H
  H689     1.0000 0.24313  0.44581  0.81940  Biso   1.000  H
  H690     1.0000 0.22897  0.65599  0.80820  Biso   1.000  H
  H691     1.0000 0.22690  0.62820  0.82080  Biso   1.000  H
  C647     1.0000 0.90537  0.32238  0.78838  Biso   1.000  C
  H692     1.0000 0.02421  0.44931  0.78650  Biso   1.000  H
  C648     1.0000 0.84228  0.21180  0.77398  Biso   1.000  C
  C649     1.0000 0.70717  0.11737  0.80006  Biso   1.000  C
  H693     1.0000 0.66557  0.93324  0.81040  Biso   1.000  H
  H694     1.0000 0.58881  0.87017  0.80180  Biso   1.000  H
  C650     1.0000 0.54245  0.84763  0.81813  Biso   1.000  C
  H695     1.0000 0.42699  0.77104  0.80820  Biso   1.000  H
  H696     1.0000 0.40134  0.77312  0.82080  Biso   1.000  H
  C651     1.0000 0.90706  0.29660  0.77761  Biso   1.000  C
  C652     1.0000 0.83899  0.26329  0.79554  Biso   1.000  C
  C653     1.0000 0.77589  0.15271  0.78113  Biso   1.000  C
  C654     1.0000 0.77418  0.17842  0.79191  Biso   1.000  C
  H697     1.0000 0.71229  0.13602  0.80750  Biso   1.000  H
  H698     1.0000 0.55639  0.88343  0.82500  Biso   1.000  H
  H699     1.0000 0.55424  0.79729  0.81940  Biso   1.000  H
  H700     1.0000 0.95261  0.33712  0.77270  Biso   1.000  H
  H701     1.0000 0.83778  0.28092  0.80290  Biso   1.000  H
  H702     1.0000 0.73156  0.09469  0.77870  Biso   1.000  H
  C655     1.0000 0.82118  0.81658  0.18699  Biso   1.000  C
  C656     1.0000 0.76090  0.75069  0.17806  Biso   1.000  C
  C657     1.0000 0.85617  0.91349  0.18242  Biso   1.000  C
  H703     1.0000 0.87226  0.80695  0.18860  Biso   1.000  H
  H704     1.0000 0.78638  0.80735  0.19380  Biso   1.000  H
  C658     1.0000 0.68336  0.76697  0.17516  Biso   1.000  C
  H705     1.0000 0.79714  0.75836  0.17140  Biso   1.000  H
  H706     1.0000 0.73619  0.68810  0.18070  Biso   1.000  H
  C659     1.0000 0.78101  0.92648  0.17976  Biso   1.000  C
  H707     1.0000 0.89487  0.95825  0.18800  Biso   1.000  H
  H708     1.0000 0.89277  0.92258  0.17580  Biso   1.000  H
  N85      1.0000 0.63107  0.70378  0.16631  Biso   1.000  N
  C660     1.0000 0.72259  0.86571  0.17129  Biso   1.000  C
  H709     1.0000 0.64415  0.75547  0.18170  Biso   1.000  H
  H710     1.0000 0.80460  0.98927  0.17730  Biso   1.000  H
  H711     1.0000 0.74498  0.91760  0.18650  Biso   1.000  H
  C661     1.0000 0.55519  0.63849  0.16906  Biso   1.000  C
  N86      1.0000 0.64432  0.87890  0.16971  Biso   1.000  N
  H712     1.0000 0.75639  0.87607  0.16420  Biso   1.000  H
  C662     1.0000 0.49788  0.56911  0.16087  Biso   1.000  C
  H713     1.0000 0.53476  0.63378  0.17640  Biso   1.000  H
  C663     1.0000 0.63837  0.90407  0.15979  Biso   1.000  C
  C664     1.0000 0.41581  0.50160  0.16379  Biso   1.000  C
  C665     1.0000 0.52738  0.57099  0.14981  Biso   1.000  C
  C666     1.0000 0.56719  0.92560  0.15677  Biso   1.000  C
  H714     1.0000 0.68036  0.90878  0.15440  Biso   1.000  H
  C667     1.0000 0.35839  0.43282  0.15677  Biso   1.000  C
  H715     1.0000 0.39590  0.50106  0.17110  Biso   1.000  H
  C668     1.0000 0.47369  0.50429  0.14273  Biso   1.000  C
  H716     1.0000 0.58416  0.61857  0.14740  Biso   1.000  H
  C669     1.0000 0.49841  0.91416  0.16379  Biso   1.000  C
  C670     1.0000 0.56446  0.95185  0.14616  Biso   1.000  C
  C671     1.0000 0.26573  0.36161  0.15979  Biso   1.000  C
  C672     1.0000 0.38742  0.43551  0.14616  Biso   1.000  C
  C673     1.0000 0.50818  0.50577  0.13138  Biso   1.000  C
  C674     1.0000 0.43087  0.92877  0.16087  Biso   1.000  C
  H717     1.0000 0.49891  0.89478  0.17110  Biso   1.000  H
  C675     1.0000 0.49569  0.96935  0.14273  Biso   1.000  C
  H718     1.0000 0.60927  0.95825  0.14110  Biso   1.000  H
  N87      1.0000 0.23462  0.35569  0.16971  Biso   1.000  N
  H719     1.0000 0.22841  0.31962  0.15440  Biso   1.000  H
  H720     1.0000 0.34898  0.39069  0.14110  Biso   1.000  H
  N88      1.0000 0.47256  0.44736  0.12411  Biso   1.000  N
  H721     1.0000 0.56375  0.55746  0.12950  Biso   1.000  H
  C676     1.0000 0.36146  0.91665  0.16906  Biso   1.000  C
  C677     1.0000 0.42899  0.95636  0.14981  Biso   1.000  C
  C678     1.0000 0.49420  0.00240  0.13138  Biso   1.000  C
  C679     1.0000 0.14308  0.27742  0.17129  Biso   1.000  C
  C680     1.0000 0.52202  0.45792  0.11393  Biso   1.000  C
  N89      1.0000 0.29619  0.92729  0.16631  Biso   1.000  N
  H722     1.0000 0.36621  0.90097  0.17640  Biso   1.000  H
  H723     1.0000 0.38137  0.96558  0.14740  Biso   1.000  H
  N90      1.0000 0.55256  0.02514  0.12411  Biso   1.000  N
  H724     1.0000 0.44253  0.00630  0.12950  Biso   1.000  H
  C681     1.0000 0.14552  0.21900  0.17976  Biso   1.000  C
  H725     1.0000 0.11968  0.24357  0.16420  Biso   1.000  H
  C682     1.0000 0.08357  0.31659  0.17516  Biso   1.000  C
  C683     1.0000 0.46378  0.45860  0.10466  Biso   1.000  C
  C684     1.0000 0.54149  0.38578  0.11224  Biso   1.000  C
  H726     1.0000 0.57967  0.51681  0.11410  Biso   1.000  H
  C685     1.0000 0.23298  0.91638  0.17516  Biso   1.000  C
  C686     1.0000 0.54205  0.06404  0.11393  Biso   1.000  C
  H727     1.0000 0.18471  0.19538  0.17730  Biso   1.000  H
  H728     1.0000 0.17262  0.25501  0.18650  Biso   1.000  H
  C687     1.0000 0.05734  0.14382  0.18242  Biso   1.000  C
  N91      1.0000 0.07271  0.36888  0.16631  Biso   1.000  N
  H729     1.0000 0.11126  0.35576  0.18170  Biso   1.000  H
  C688     1.0000 0.98982  0.23912  0.17806  Biso   1.000  C
  N92      1.0000 0.45481  0.53869  0.10542  Biso   1.000  N
  H730     1.0000 0.40330  0.40280  0.10480  Biso   1.000  H
  C689     1.0000 0.51241  0.46761  0.09330  Biso   1.000  C
  C690     1.0000 0.58698  0.38968  0.10060  Biso   1.000  C
  H731     1.0000 0.48478  0.32749  0.11290  Biso   1.000  H
  H732     1.0000 0.58228  0.38820  0.11810  Biso   1.000  H
  C691     1.0000 0.13428  0.85689  0.17129  Biso   1.000  C
  H733     1.0000 0.24447  0.88866  0.18170  Biso   1.000  H
  C692     1.0000 0.24935  0.01020  0.17806  Biso   1.000  C
  C693     1.0000 0.54134  0.00516  0.10466  Biso   1.000  C
  C694     1.0000 0.61419  0.15564  0.11224  Biso   1.000  C
  H734     1.0000 0.48313  0.06290  0.11410  Biso   1.000  H
  H735     1.0000 0.06340  0.10513  0.18800  Biso   1.000  H
  H736     1.0000 0.02983  0.10721  0.17580  Biso   1.000  H
  C695     1.0000 0.99540  0.17882  0.18699  Biso   1.000  C
  C696     1.0000 0.08333  0.44480  0.16906  Biso   1.000  C
  H737     1.0000 0.96116  0.20278  0.17140  Biso   1.000  H
  H738     1.0000 0.95187  0.26382  0.18070  Biso   1.000  H
  C697     1.0000 0.37587  0.52489  0.10448  Biso   1.000  C
  H739     1.0000 0.47496  0.46977  0.08720  Biso   1.000  H
  H740     1.0000 0.57100  0.52442  0.09320  Biso   1.000  H
  C698     1.0000 0.52721  0.39008  0.09165  Biso   1.000  C
  H741     1.0000 0.64688  0.44466  0.10010  Biso   1.000  H
  H742     1.0000 0.59510  0.33678  0.09980  Biso   1.000  H
  N93      1.0000 0.12110  0.76536  0.16971  Biso   1.000  N
  H743     1.0000 0.12390  0.88031  0.16420  Biso   1.000  H
  C699     1.0000 0.07350  0.85447  0.17976  Biso   1.000  C
  C700     1.0000 0.18340  0.00455  0.18699  Biso   1.000  C
  H744     1.0000 0.24158  0.03874  0.17140  Biso   1.000  H
  H745     1.0000 0.31195  0.04809  0.18070  Biso   1.000  H
  N94      1.0000 0.46129  0.91605  0.10542  Biso   1.000  N
  H746     1.0000 0.59715  0.00044  0.10480  Biso   1.000  H
  C701     1.0000 0.53242  0.04480  0.09330  Biso   1.000  C
  C702     1.0000 0.61027  0.19724  0.10060  Biso   1.000  C
  H747     1.0000 0.67241  0.15726  0.11290  Biso   1.000  H
  H748     1.0000 0.61178  0.19407  0.11810  Biso   1.000  H
  H749     1.0000 0.02101  0.21362  0.19380  Biso   1.000  H
  H750     1.0000 0.93468  0.12767  0.18860  Biso   1.000  H
  C703     1.0000 0.07117  0.50207  0.16087  Biso   1.000  C
  H751     1.0000 0.09901  0.46519  0.17640  Biso   1.000  H
  C704     1.0000 0.35232  0.59670  0.10436  Biso   1.000  C
  H752     1.0000 0.32836  0.46438  0.10380  Biso   1.000  H
  H753     1.0000 0.55559  0.39520  0.08440  Biso   1.000  H
  H754     1.0000 0.46882  0.33321  0.09180  Biso   1.000  H
  C705     1.0000 0.09587  0.73426  0.15979  Biso   1.000  C
  H755     1.0000 0.01073  0.81530  0.17730  Biso   1.000  H
  H756     1.0000 0.08241  0.82741  0.18650  Biso   1.000  H
  C706     1.0000 0.08649  0.94270  0.18242  Biso   1.000  C
  H757     1.0000 0.19258  0.97897  0.19380  Biso   1.000  H
  H758     1.0000 0.19300  0.06526  0.18860  Biso   1.000  H
  C707     1.0000 0.47508  0.85097  0.10448  Biso   1.000  C
  H759     1.0000 0.53015  0.00516  0.08720  Biso   1.000  H
  H760     1.0000 0.47554  0.04655  0.09320  Biso   1.000  H
  C708     1.0000 0.60992  0.13707  0.09165  Biso   1.000  C
  H761     1.0000 0.55532  0.20215  0.10010  Biso   1.000  H
  H762     1.0000 0.66318  0.25828  0.09980  Biso   1.000  H
  C709     1.0000 0.04361  0.47259  0.14981  Biso   1.000  C
  C710     1.0000 0.08582  0.58418  0.16379  Biso   1.000  C
  C711     1.0000 0.26300  0.57927  0.10426  Biso   1.000  C
  C712     1.0000 0.42069  0.68365  0.10426  Biso   1.000  C
  C713     1.0000 0.07442  0.64159  0.15677  Biso   1.000  C
  H763     1.0000 0.09120  0.77155  0.15440  Biso   1.000  H
  H764     1.0000 0.04170  0.93657  0.18800  Biso   1.000  H
  H765     1.0000 0.07737  0.97016  0.17580  Biso   1.000  H
  C714     1.0000 0.40327  0.75560  0.10436  Biso   1.000  C
  H766     1.0000 0.53555  0.86396  0.10380  Biso   1.000  H
  H767     1.0000 0.60472  0.16035  0.08440  Biso   1.000  H
  H768     1.0000 0.66676  0.13559  0.09180  Biso   1.000  H
  C715     1.0000 0.03059  0.52630  0.14273  Biso   1.000  C
  H769     1.0000 0.03438  0.41579  0.14740  Biso   1.000  H
  H770     1.0000 0.10522  0.60410  0.17110  Biso   1.000  H
  C716     1.0000 0.24441  0.64771  0.10436  Biso   1.000  C
  H771     1.0000 0.21491  0.51876  0.10410  Biso   1.000  H
  H772     1.0000 0.48118  0.69610  0.10410  Biso   1.000  H
  C717     1.0000 0.04809  0.61258  0.14616  Biso   1.000  C
  C718     1.0000 0.31625  0.73696  0.10426  Biso   1.000  C
  C719     1.0000 0.99759  0.49178  0.13138  Biso   1.000  C
  C720     1.0000 0.14902  0.62409  0.10448  Biso   1.000  C
  H773     1.0000 0.04172  0.65101  0.14110  Biso   1.000  H
  H774     1.0000 0.30389  0.78508  0.10410  Biso   1.000  H
  N95      1.0000 0.97477  0.52738  0.12411  Biso   1.000  N
  H775     1.0000 0.99369  0.43618  0.12950  Biso   1.000  H
  N96      1.0000 0.08394  0.54521  0.10542  Biso   1.000  N
  H776     1.0000 0.13600  0.67161  0.10380  Biso   1.000  H
  C721     1.0000 0.93585  0.47798  0.11393  Biso   1.000  C
  C722     1.0000 0.99480  0.53620  0.10466  Biso   1.000  C
  C723     1.0000 0.84426  0.45846  0.11224  Biso   1.000  C
  H777     1.0000 0.93708  0.42030  0.11410  Biso   1.000  H
  H778     1.0000 0.99946  0.59670  0.10480  Biso   1.000  H
  C724     1.0000 0.95517  0.48760  0.09330  Biso   1.000  C
  C725     1.0000 0.80268  0.41297  0.10060  Biso   1.000  C
  H779     1.0000 0.84267  0.51520  0.11290  Biso   1.000  H
  H780     1.0000 0.80585  0.41768  0.11810  Biso   1.000  H
  H781     1.0000 0.99477  0.52496  0.08720  Biso   1.000  H
  H782     1.0000 0.95337  0.42898  0.09320  Biso   1.000  H
  C726     1.0000 0.86291  0.47280  0.09165  Biso   1.000  C
  H783     1.0000 0.79780  0.35307  0.10010  Biso   1.000  H
  H784     1.0000 0.74170  0.40489  0.09980  Biso   1.000  H
  H785     1.0000 0.83955  0.44440  0.08440  Biso   1.000  H
  H786     1.0000 0.86437  0.53121  0.09180  Biso   1.000  H
  C727     1.0000 0.78395  0.61447  0.15578  Biso   1.000  C
  C728     1.0000 0.74589  0.51318  0.15558  Biso   1.000  C
  H787     1.0000 0.73498  0.62739  0.15740  Biso   1.000  H
  H788     1.0000 0.82934  0.64125  0.16170  Biso   1.000  H
  C729     1.0000 0.82712  0.65720  0.14492  Biso   1.000  C
  C730     1.0000 0.68337  0.47172  0.14592  Biso   1.000  C
  H789     1.0000 0.79579  0.50012  0.15510  Biso   1.000  H
  H790     1.0000 0.71266  0.48646  0.16250  Biso   1.000  H
  C731     1.0000 0.76095  0.61346  0.13533  Biso   1.000  C
  N97      1.0000 0.85081  0.75378  0.14532  Biso   1.000  N
  H791     1.0000 0.88227  0.65269  0.14370  Biso   1.000  H
  C732     1.0000 0.72930  0.51392  0.13533  Biso   1.000  C
  H792     1.0000 0.66189  0.40637  0.14570  Biso   1.000  H
  H793     1.0000 0.63027  0.47939  0.14690  Biso   1.000  H
  N98      1.0000 0.80888  0.65162  0.12487  Biso   1.000  N
  H794     1.0000 0.70874  0.62376  0.13610  Biso   1.000  H
  C733     1.0000 0.93481  0.81011  0.14639  Biso   1.000  C
  H795     1.0000 0.68709  0.48451  0.12920  Biso   1.000  H
  H796     1.0000 0.78151  0.50490  0.13430  Biso   1.000  H
  C734     1.0000 0.76880  0.67719  0.11794  Biso   1.000  C
  H797     1.0000 0.97635  0.78898  0.14690  Biso   1.000  H
  C735     1.0000 0.96779  0.90918  0.14686  Biso   1.000  C
  C736     1.0000 0.80398  0.70687  0.10692  Biso   1.000  C
  H798     1.0000 0.71527  0.67645  0.12010  Biso   1.000  H
  C737     1.0000 0.90609  0.94176  0.14676  Biso   1.000  C
  C738     1.0000 0.05818  0.96430  0.14676  Biso   1.000  C
  C739     1.0000 0.88097  0.70768  0.10293  Biso   1.000  C
  C740     1.0000 0.75596  0.73218  0.09945  Biso   1.000  C
  H799     1.0000 0.84289  0.90185  0.14660  Biso   1.000  H
  C741     1.0000 0.94132  0.03214  0.14686  Biso   1.000  C
  H800     1.0000 0.09809  0.94095  0.14660  Biso   1.000  H
  C742     1.0000 0.09076  0.05859  0.14686  Biso   1.000  C
  C743     1.0000 0.90905  0.73097  0.09235  Biso   1.000  C
  H801     1.0000 0.91449  0.69160  0.10770  Biso   1.000  H
  C744     1.0000 0.79019  0.76159  0.08865  Biso   1.000  C
  H802     1.0000 0.70156  0.72935  0.10170  Biso   1.000  H
  C745     1.0000 0.87531  0.06519  0.14639  Biso   1.000  C
  C746     1.0000 0.03571  0.09386  0.14676  Biso   1.000  C
  C747     1.0000 0.18990  0.12468  0.14639  Biso   1.000  C
  C748     1.0000 0.86478  0.75876  0.08547  Biso   1.000  C
  C749     1.0000 0.99097  0.72787  0.08856  Biso   1.000  C
  C750     1.0000 0.74078  0.78750  0.08100  Biso   1.000  C
  N99      1.0000 0.90303  0.14918  0.14532  Biso   1.000  N
  H803     1.0000 0.81255  0.02360  0.14690  Biso   1.000  H
  H804     1.0000 0.05897  0.15706  0.14660  Biso   1.000  H
  N100     1.0000 0.24615  0.09696  0.14532  Biso   1.000  N
  H805     1.0000 0.21097  0.18734  0.14690  Biso   1.000  H
  H806     1.0000 0.88667  0.77667  0.07820  Biso   1.000  H
  N101     1.0000 0.02089  0.74261  0.07888  Biso   1.000  N
  H807     1.0000 0.02251  0.71367  0.09390  Biso   1.000  H
  N102     1.0000 0.67362  0.79551  0.08347  Biso   1.000  N
  H808     1.0000 0.76087  0.79901  0.07360  Biso   1.000  H
  C751     1.0000 0.83013  0.17287  0.14492  Biso   1.000  C
  C752     1.0000 0.34275  0.16984  0.14492  Biso   1.000  C
  C753     1.0000 0.09658  0.72740  0.07709  Biso   1.000  C
  C754     1.0000 0.63350  0.81866  0.07450  Biso   1.000  C
  C755     1.0000 0.85251  0.23896  0.13533  Biso   1.000  C
  C756     1.0000 0.83045  0.21595  0.15578  Biso   1.000  C
  H809     1.0000 0.77042  0.11768  0.14370  Biso   1.000  H
  C757     1.0000 0.38648  0.14750  0.13533  Biso   1.000  C
  C758     1.0000 0.38550  0.16944  0.15578  Biso   1.000  C
  H810     1.0000 0.34730  0.22954  0.14370  Biso   1.000  H
  H811     1.0000 0.10672  0.70129  0.08390  Biso   1.000  H
  C759     1.0000 0.07371  0.66010  0.06769  Biso   1.000  C
  C760     1.0000 0.18129  0.81476  0.07450  Biso   1.000  C
  C761     1.0000 0.63081  0.90339  0.07709  Biso   1.000  C
  C762     1.0000 0.53946  0.73958  0.07227  Biso   1.000  C
  H812     1.0000 0.67107  0.82970  0.06780  Biso   1.000  H
  N103     1.0000 0.84265  0.19104  0.12487  Biso   1.000  N
  H813     1.0000 0.91499  0.29119  0.13610  Biso   1.000  H
  C763     1.0000 0.78460  0.27066  0.13533  Biso   1.000  C
  C764     1.0000 0.76725  0.25404  0.15558  Biso   1.000  C
  H814     1.0000 0.89231  0.26494  0.15740  Biso   1.000  H
  H815     1.0000 0.81190  0.17058  0.16170  Biso   1.000  H
  N104     1.0000 0.34840  0.15726  0.12487  Biso   1.000  N
  H816     1.0000 0.37614  0.08498  0.13610  Biso   1.000  H
  C765     1.0000 0.48603  0.21534  0.13533  Biso   1.000  C
  C766     1.0000 0.48675  0.23264  0.15558  Biso   1.000  C
  H817     1.0000 0.37264  0.10759  0.15740  Biso   1.000  H
  H818     1.0000 0.35863  0.18808  0.16170  Biso   1.000  H
  H819     1.0000 0.05998  0.68359  0.06100  Biso   1.000  H
  H820     1.0000 0.01968  0.60229  0.06960  Biso   1.000  H
  C767     1.0000 0.15279  0.64469  0.06547  Biso   1.000  C
  N105     1.0000 0.20450  0.87809  0.08347  Biso   1.000  N
  C768     1.0000 0.26041  0.79988  0.07227  Biso   1.000  C
  H821     1.0000 0.17031  0.84141  0.06780  Biso   1.000  H
  N106     1.0000 0.72170  0.97911  0.07888  Biso   1.000  N
  H822     1.0000 0.59458  0.89330  0.08390  Biso   1.000  H
  C769     1.0000 0.58641  0.92628  0.06769  Biso   1.000  C
  C770     1.0000 0.49367  0.76260  0.06319  Biso   1.000  C
  H823     1.0000 0.54400  0.68641  0.07010  Biso   1.000  H
  H824     1.0000 0.50300  0.72437  0.07900  Biso   1.000  H
  C771     1.0000 0.90840  0.23116  0.11794  Biso   1.000  C
  H825     1.0000 0.79736  0.31286  0.12920  Biso   1.000  H
  H826     1.0000 0.72334  0.21844  0.13430  Biso   1.000  H
  C772     1.0000 0.78832  0.31656  0.14592  Biso   1.000  C
  H827     1.0000 0.70432  0.20417  0.15510  Biso   1.000  H
  H828     1.0000 0.77374  0.28729  0.16250  Biso   1.000  H
  C773     1.0000 0.32279  0.09157  0.11794  Biso   1.000  C
  H829     1.0000 0.51542  0.20255  0.12920  Biso   1.000  H
  H830     1.0000 0.49509  0.27658  0.13430  Biso   1.000  H
  C774     1.0000 0.52824  0.21164  0.14592  Biso   1.000  C
  H831     1.0000 0.49986  0.29570  0.15510  Biso   1.000  H
  H832     1.0000 0.51348  0.22618  0.16250  Biso   1.000  H
  H833     1.0000 0.16201  0.61521  0.07190  Biso   1.000  H
  H834     1.0000 0.13840  0.60390  0.05910  Biso   1.000  H
  C775     1.0000 0.23738  0.73110  0.06319  Biso   1.000  C
  C776     1.0000 0.21248  0.95327  0.08100  Biso   1.000  C
  H835     1.0000 0.31361  0.85756  0.07010  Biso   1.000  H
  H836     1.0000 0.27556  0.77855  0.07900  Biso   1.000  H
  C777     1.0000 0.73682  0.00899  0.08856  Biso   1.000  C
  H837     1.0000 0.62359  0.94001  0.06100  Biso   1.000  H
  H838     1.0000 0.58257  0.98025  0.06960  Biso   1.000  H
  C778     1.0000 0.49191  0.84720  0.06547  Biso   1.000  C
  H839     1.0000 0.52581  0.76940  0.05620  Biso   1.000  H
  H840     1.0000 0.43120  0.71226  0.06230  Biso   1.000  H
  C779     1.0000 0.90287  0.19596  0.10692  Biso   1.000  C
  H841     1.0000 0.96121  0.28466  0.12010  Biso   1.000  H
  H842     1.0000 0.74447  0.33810  0.14570  Biso   1.000  H
  H843     1.0000 0.84902  0.36966  0.14690  Biso   1.000  H
  C780     1.0000 0.29308  0.09709  0.10692  Biso   1.000  C
  H844     1.0000 0.32347  0.03874  0.12010  Biso   1.000  H
  H845     1.0000 0.59351  0.25545  0.14570  Biso   1.000  H
  H846     1.0000 0.52053  0.15086  0.14690  Biso   1.000  H
  H847     1.0000 0.23063  0.75641  0.05620  Biso   1.000  H
  H848     1.0000 0.28768  0.71885  0.06230  Biso   1.000  H
  H849     1.0000 0.20100  0.96188  0.07360  Biso   1.000  H
  C781     1.0000 0.23842  0.02858  0.08865  Biso   1.000  C
  H850     1.0000 0.69117  0.97749  0.09390  Biso   1.000  H
  C782     1.0000 0.82184  0.09090  0.09235  Biso   1.000  C
  H851     1.0000 0.45320  0.83798  0.07190  Biso   1.000  H
  H852     1.0000 0.46548  0.86160  0.05910  Biso   1.000  H
  C783     1.0000 0.82672  0.11896  0.10293  Biso   1.000  C
  C784     1.0000 0.97617  0.24394  0.09945  Biso   1.000  C
  C785     1.0000 0.29230  0.17328  0.10293  Biso   1.000  C
  C786     1.0000 0.26780  0.02380  0.09945  Biso   1.000  C
  C787     1.0000 0.24116  0.10597  0.08547  Biso   1.000  C
  C788     1.0000 0.89393  0.13518  0.08547  Biso   1.000  C
  H853     1.0000 0.77709  0.08545  0.10770  Biso   1.000  H
  C789     1.0000 0.97132  0.20975  0.08865  Biso   1.000  C
  H854     1.0000 0.02776  0.29839  0.10170  Biso   1.000  H
  C790     1.0000 0.26892  0.17805  0.09235  Biso   1.000  C
  H855     1.0000 0.30836  0.22288  0.10770  Biso   1.000  H
  H856     1.0000 0.27061  0.97218  0.10170  Biso   1.000  H
  H857     1.0000 0.22327  0.10994  0.07820  Biso   1.000  H
  H858     1.0000 0.88990  0.11324  0.07820  Biso   1.000  H
  C791     1.0000 0.04672  0.25915  0.08100  Biso   1.000  C
  C792     1.0000 0.27202  0.26306  0.08856  Biso   1.000  C
  N107     1.0000 0.12190  0.32639  0.08347  Biso   1.000  N
  H859     1.0000 0.03809  0.23910  0.07360  Biso   1.000  H
  N108     1.0000 0.25737  0.27827  0.07888  Biso   1.000  N
  H860     1.0000 0.28625  0.30875  0.09390  Biso   1.000  H
  C793     1.0000 0.18511  0.36643  0.07450  Biso   1.000  C
  C794     1.0000 0.27258  0.36919  0.07709  Biso   1.000  C
  C795     1.0000 0.20012  0.46045  0.07227  Biso   1.000  C
  H861     1.0000 0.15864  0.32888  0.06780  Biso   1.000  H
  H862     1.0000 0.29869  0.40533  0.08390  Biso   1.000  H
  C796     1.0000 0.33992  0.41354  0.06769  Biso   1.000  C
  C797     1.0000 0.26885  0.50629  0.06319  Biso   1.000  C
  H863     1.0000 0.14232  0.45594  0.07010  Biso   1.000  H
  H864     1.0000 0.22139  0.49693  0.07900  Biso   1.000  H
  H865     1.0000 0.31634  0.37639  0.06100  Biso   1.000  H
  H866     1.0000 0.39774  0.41738  0.06960  Biso   1.000  H
  C798     1.0000 0.35529  0.50804  0.06547  Biso   1.000  C
  H867     1.0000 0.24365  0.47418  0.05620  Biso   1.000  H
  H868     1.0000 0.28102  0.56874  0.06230  Biso   1.000  H
  H869     1.0000 0.38472  0.54673  0.07190  Biso   1.000  H
  H870     1.0000 0.39614  0.53449  0.05910  Biso   1.000  H
  C799     1.0000 0.81659  0.82115  0.81301  Biso   1.000  C
  C800     1.0000 0.75065  0.76085  0.82194  Biso   1.000  C
  C801     1.0000 0.91347  0.85615  0.81758  Biso   1.000  C
  H871     1.0000 0.80702  0.87230  0.81140  Biso   1.000  H
  H872     1.0000 0.80735  0.78636  0.80620  Biso   1.000  H
  C802     1.0000 0.76700  0.68338  0.82484  Biso   1.000  C
  H873     1.0000 0.75839  0.79719  0.82860  Biso   1.000  H
  H874     1.0000 0.68806  0.73615  0.81930  Biso   1.000  H
  C803     1.0000 0.92648  0.78097  0.82024  Biso   1.000  C
  H875     1.0000 0.95824  0.89485  0.81200  Biso   1.000  H
  H876     1.0000 0.92257  0.89276  0.82420  Biso   1.000  H
  N109     1.0000 0.70378  0.63109  0.83369  Biso   1.000  N
  C804     1.0000 0.86568  0.72255  0.82871  Biso   1.000  C
  H877     1.0000 0.75552  0.64421  0.81830  Biso   1.000  H
  H878     1.0000 0.98929  0.80460  0.82270  Biso   1.000  H
  H879     1.0000 0.91757  0.74497  0.81350  Biso   1.000  H
  C805     1.0000 0.63849  0.55517  0.83094  Biso   1.000  C
  N110     1.0000 0.87888  0.64428  0.83029  Biso   1.000  N
  H880     1.0000 0.87608  0.75641  0.83580  Biso   1.000  H
  C806     1.0000 0.56911  0.49790  0.83913  Biso   1.000  C
  H881     1.0000 0.63377  0.53478  0.82360  Biso   1.000  H
  C807     1.0000 0.90407  0.63836  0.84021  Biso   1.000  C
  C808     1.0000 0.50160  0.41579  0.83621  Biso   1.000  C
  C809     1.0000 0.57097  0.52738  0.85019  Biso   1.000  C
  C810     1.0000 0.92559  0.56715  0.84323  Biso   1.000  C
  H882     1.0000 0.90875  0.68036  0.84560  Biso   1.000  H
  C811     1.0000 0.43279  0.35838  0.84323  Biso   1.000  C
  H883     1.0000 0.50108  0.39587  0.82890  Biso   1.000  H
  C812     1.0000 0.50431  0.47367  0.85727  Biso   1.000  C
  H884     1.0000 0.61860  0.58418  0.85260  Biso   1.000  H
  C813     1.0000 0.91416  0.49837  0.83621  Biso   1.000  C
  C814     1.0000 0.95187  0.56446  0.85384  Biso   1.000  C
  C815     1.0000 0.36162  0.26571  0.84021  Biso   1.000  C
  C816     1.0000 0.43546  0.38739  0.85384  Biso   1.000  C
  C817     1.0000 0.50577  0.50820  0.86862  Biso   1.000  C
  C818     1.0000 0.92879  0.43087  0.83913  Biso   1.000  C
  H885     1.0000 0.89479  0.49891  0.82890  Biso   1.000  H
  C819     1.0000 0.96935  0.49568  0.85727  Biso   1.000  C
  H886     1.0000 0.95825  0.60929  0.85890  Biso   1.000  H
  N111     1.0000 0.35569  0.23461  0.83029  Biso   1.000  N
  H887     1.0000 0.31961  0.22842  0.84560  Biso   1.000  H
  H888     1.0000 0.39066  0.34896  0.85890  Biso   1.000  H
  N112     1.0000 0.44741  0.47259  0.87589  Biso   1.000  N
  H889     1.0000 0.55747  0.56379  0.87050  Biso   1.000  H
  C820     1.0000 0.91665  0.36148  0.83094  Biso   1.000  C
  C821     1.0000 0.95635  0.42898  0.85019  Biso   1.000  C
  C822     1.0000 0.00242  0.49420  0.86862  Biso   1.000  C
  C823     1.0000 0.27741  0.14308  0.82871  Biso   1.000  C
  C824     1.0000 0.45788  0.52199  0.88607  Biso   1.000  C
  N113     1.0000 0.92726  0.29620  0.83369  Biso   1.000  N
  H890     1.0000 0.90099  0.36619  0.82360  Biso   1.000  H
  H891     1.0000 0.96560  0.38140  0.85260  Biso   1.000  H
  N114     1.0000 0.02522  0.55262  0.87589  Biso   1.000  N
  H892     1.0000 0.00630  0.44251  0.87050  Biso   1.000  H
  C825     1.0000 0.21899  0.14551  0.82024  Biso   1.000  C
  H893     1.0000 0.24364  0.11973  0.83580  Biso   1.000  H
  C826     1.0000 0.31661  0.08359  0.82484  Biso   1.000  C
  C827     1.0000 0.45856  0.46378  0.89534  Biso   1.000  C
  C828     1.0000 0.38581  0.54151  0.88776  Biso   1.000  C
  H894     1.0000 0.51680  0.57967  0.88590  Biso   1.000  H
  C829     1.0000 0.91641  0.23300  0.82484  Biso   1.000  C
  C830     1.0000 0.06409  0.54212  0.88607  Biso   1.000  C
  C831     1.0000 0.14381  0.05727  0.81758  Biso   1.000  C
  H895     1.0000 0.19539  0.18468  0.82270  Biso   1.000  H
  H896     1.0000 0.25496  0.17256  0.81350  Biso   1.000  H
  C832     1.0000 0.23904  0.98977  0.82194  Biso   1.000  C
  N115     1.0000 0.36886  0.07269  0.83369  Biso   1.000  N
  H897     1.0000 0.35583  0.11132  0.81830  Biso   1.000  H
  N116     1.0000 0.53868  0.45476  0.89458  Biso   1.000  N
  H898     1.0000 0.40278  0.40327  0.89520  Biso   1.000  H
  C833     1.0000 0.46759  0.51237  0.90670  Biso   1.000  C
  C834     1.0000 0.38967  0.58701  0.89940  Biso   1.000  C
  H899     1.0000 0.32748  0.48478  0.88710  Biso   1.000  H
  H900     1.0000 0.38819  0.58230  0.88190  Biso   1.000  H
  C835     1.0000 0.85684  0.13427  0.82871  Biso   1.000  C
  H901     1.0000 0.88871  0.24451  0.81830  Biso   1.000  H
  C836     1.0000 0.01017  0.24929  0.82194  Biso   1.000  C
  C837     1.0000 0.00520  0.54138  0.89534  Biso   1.000  C
  C838     1.0000 0.15567  0.61420  0.88776  Biso   1.000  C
  H902     1.0000 0.06288  0.48316  0.88590  Biso   1.000  H
  H903     1.0000 0.10508  0.06340  0.81200  Biso   1.000  H
  H904     1.0000 0.10723  0.02981  0.82420  Biso   1.000  H
  C839     1.0000 0.17880  0.99542  0.81301  Biso   1.000  C
  H905     1.0000 0.20280  0.96123  0.82860  Biso   1.000  H
  H906     1.0000 0.26381  0.95188  0.81930  Biso   1.000  H
  C840     1.0000 0.44482  0.08332  0.83094  Biso   1.000  C
  C841     1.0000 0.52489  0.37588  0.89552  Biso   1.000  C
  H907     1.0000 0.46978  0.47502  0.91280  Biso   1.000  H
  H908     1.0000 0.52441  0.57099  0.90680  Biso   1.000  H
  C842     1.0000 0.39007  0.52718  0.90835  Biso   1.000  C
  H909     1.0000 0.44469  0.64691  0.89990  Biso   1.000  H
  H910     1.0000 0.33677  0.59508  0.90020  Biso   1.000  H
  N117     1.0000 0.76538  0.12108  0.83029  Biso   1.000  N
  H911     1.0000 0.88028  0.12390  0.83580  Biso   1.000  H
  C843     1.0000 0.85449  0.07349  0.82024  Biso   1.000  C
  C844     1.0000 0.00462  0.18340  0.81301  Biso   1.000  C
  H912     1.0000 0.03880  0.24161  0.82860  Biso   1.000  H
  H913     1.0000 0.04811  0.31188  0.81930  Biso   1.000  H
  N118     1.0000 0.91608  0.46129  0.89458  Biso   1.000  N
  H914     1.0000 0.00051  0.59717  0.89520  Biso   1.000  H
  C845     1.0000 0.04481  0.53236  0.90670  Biso   1.000  C
  C846     1.0000 0.19732  0.61029  0.89940  Biso   1.000  C
  H915     1.0000 0.15731  0.67248  0.88710  Biso   1.000  H
  H916     1.0000 0.19410  0.61178  0.88190  Biso   1.000  H
  H917     1.0000 0.21362  0.02100  0.80620  Biso   1.000  H
  H918     1.0000 0.12776  0.93472  0.81140  Biso   1.000  H
  C847     1.0000 0.50212  0.07121  0.83913  Biso   1.000  C
  H919     1.0000 0.46519  0.09900  0.82360  Biso   1.000  H
  C848     1.0000 0.59666  0.35226  0.89564  Biso   1.000  C
  H920     1.0000 0.46435  0.32837  0.89620  Biso   1.000  H
  H921     1.0000 0.39518  0.55558  0.91560  Biso   1.000  H
  H922     1.0000 0.33317  0.46876  0.90820  Biso   1.000  H
  C849     1.0000 0.73426  0.09591  0.84021  Biso   1.000  C
  H923     1.0000 0.81528  0.01070  0.82270  Biso   1.000  H
  H924     1.0000 0.82740  0.08238  0.81350  Biso   1.000  H
  C850     1.0000 0.94270  0.08648  0.81758  Biso   1.000  C
  H925     1.0000 0.97898  0.19262  0.80620  Biso   1.000  H
  H926     1.0000 0.06533  0.19302  0.81140  Biso   1.000  H
  C851     1.0000 0.85099  0.47508  0.89552  Biso   1.000  C
  H927     1.0000 0.00521  0.53021  0.91280  Biso   1.000  H
  H928     1.0000 0.04660  0.47556  0.90680  Biso   1.000  H
  C852     1.0000 0.13708  0.60989  0.90835  Biso   1.000  C
  H929     1.0000 0.20223  0.55531  0.89990  Biso   1.000  H
  H930     1.0000 0.25827  0.66319  0.90020  Biso   1.000  H
  C853     1.0000 0.47258  0.04361  0.85019  Biso   1.000  C
  C854     1.0000 0.58420  0.08581  0.83621  Biso   1.000  C
  C855     1.0000 0.68369  0.42070  0.89574  Biso   1.000  C
  C856     1.0000 0.57931  0.26302  0.89574  Biso   1.000  C
  C857     1.0000 0.64154  0.07437  0.84323  Biso   1.000  C
  H931     1.0000 0.77160  0.09119  0.84560  Biso   1.000  H
  H932     1.0000 0.93658  0.04173  0.81200  Biso   1.000  H
  H933     1.0000 0.97016  0.07740  0.82420  Biso   1.000  H
  C858     1.0000 0.75558  0.40327  0.89564  Biso   1.000  C
  H934     1.0000 0.86399  0.53559  0.89620  Biso   1.000  H
  H935     1.0000 0.16041  0.60478  0.91560  Biso   1.000  H
  H936     1.0000 0.13556  0.66676  0.90820  Biso   1.000  H
  C859     1.0000 0.52630  0.03062  0.85727  Biso   1.000  C
  H937     1.0000 0.41581  0.03439  0.85260  Biso   1.000  H
  H938     1.0000 0.60409  0.10519  0.82890  Biso   1.000  H
  H939     1.0000 0.69610  0.48121  0.89590  Biso   1.000  H
  C860     1.0000 0.64769  0.24437  0.89564  Biso   1.000  C
  H940     1.0000 0.51877  0.21490  0.89590  Biso   1.000  H
  C861     1.0000 0.61262  0.04812  0.85384  Biso   1.000  C
  C862     1.0000 0.73699  0.31632  0.89574  Biso   1.000  C
  C863     1.0000 0.49182  0.99758  0.86862  Biso   1.000  C
  C864     1.0000 0.62407  0.14901  0.89552  Biso   1.000  C
  H941     1.0000 0.65099  0.04173  0.85890  Biso   1.000  H
  H942     1.0000 0.78509  0.30387  0.89590  Biso   1.000  H
  N119     1.0000 0.52737  0.97483  0.87589  Biso   1.000  N
  H943     1.0000 0.43613  0.99367  0.87050  Biso   1.000  H
  N120     1.0000 0.54520  0.08393  0.89458  Biso   1.000  N
  H944     1.0000 0.67161  0.13602  0.89620  Biso   1.000  H
  C865     1.0000 0.47802  0.93593  0.88607  Biso   1.000  C
  C866     1.0000 0.53626  0.99482  0.89534  Biso   1.000  C
  C867     1.0000 0.45856  0.84433  0.88776  Biso   1.000  C
  H945     1.0000 0.42025  0.93707  0.88590  Biso   1.000  H
  H946     1.0000 0.59672  0.99953  0.89520  Biso   1.000  H
  C868     1.0000 0.48764  0.95518  0.90670  Biso   1.000  C
  C869     1.0000 0.41300  0.80274  0.89940  Biso   1.000  C
  H947     1.0000 0.51517  0.84272  0.88710  Biso   1.000  H
  H948     1.0000 0.41773  0.80590  0.88190  Biso   1.000  H
  H949     1.0000 0.52507  0.99482  0.91280  Biso   1.000  H
  H950     1.0000 0.42907  0.95343  0.90680  Biso   1.000  H
  C870     1.0000 0.47275  0.86291  0.90835  Biso   1.000  C
  H951     1.0000 0.35313  0.79782  0.89990  Biso   1.000  H
  H952     1.0000 0.40486  0.74169  0.90020  Biso   1.000  H
  H953     1.0000 0.44444  0.83962  0.91560  Biso   1.000  H
  H954     1.0000 0.53119  0.86439  0.90820  Biso   1.000  H
  C871     1.0000 0.70159  0.49218  0.06669  Biso   1.000  C
  C872     1.0000 0.78010  0.54360  0.05774  Biso   1.000  C
  H955     1.0000 0.69196  0.43107  0.06800  Biso   1.000  H
  H956     1.0000 0.71870  0.52570  0.07370  Biso   1.000  H
  C873     1.0000 0.61429  0.48579  0.06223  Biso   1.000  C
  C874     1.0000 0.79286  0.63997  0.05598  Biso   1.000  C
  H957     1.0000 0.83687  0.54838  0.06040  Biso   1.000  H
  H958     1.0000 0.76330  0.50988  0.05070  Biso   1.000  H
  H959     1.0000 0.56440  0.45200  0.06750  Biso   1.000  H
  H960     1.0000 0.59787  0.45308  0.05510  Biso   1.000  H
  C875     1.0000 0.62890  0.58250  0.06056  Biso   1.000  C
  N121     1.0000 0.86018  0.68312  0.04756  Biso   1.000  N
  H961     1.0000 0.81272  0.67551  0.06290  Biso   1.000  H
  C876     1.0000 0.70336  0.63129  0.05188  Biso   1.000  C
  H962     1.0000 0.57229  0.57886  0.05800  Biso   1.000  H
  H963     1.0000 0.64697  0.61608  0.06760  Biso   1.000  H
  C877     1.0000 0.93859  0.74389  0.05005  Biso   1.000  C
  N122     1.0000 0.72280  0.72437  0.05061  Biso   1.000  N
  H964     1.0000 0.68509  0.59872  0.04470  Biso   1.000  H
  H965     1.0000 0.95405  0.75486  0.05760  Biso   1.000  H
  C878     1.0000 0.00459  0.79638  0.04219  Biso   1.000  C
  C879     1.0000 0.72739  0.74860  0.04077  Biso   1.000  C
  C880     1.0000 0.98206  0.79107  0.03099  Biso   1.000  C
  C881     1.0000 0.09301  0.85689  0.04510  Biso   1.000  C
  C882     1.0000 0.75306  0.84249  0.03732  Biso   1.000  C
  H966     1.0000 0.71380  0.70485  0.03520  Biso   1.000  H
  H967     1.0000 0.92141  0.75311  0.02880  Biso   1.000  H
  C883     1.0000 0.04743  0.84080  0.02306  Biso   1.000  C
  C884     1.0000 0.15752  0.91060  0.03732  Biso   1.000  C
  H968     1.0000 0.11007  0.86187  0.05260  Biso   1.000  H
  C885     1.0000 0.76300  0.86389  0.02655  Biso   1.000  C
  C886     1.0000 0.76385  0.90696  0.04510  Biso   1.000  C
  C887     1.0000 0.02467  0.83165  0.01110  Biso   1.000  C
  C888     1.0000 0.13609  0.89909  0.02655  Biso   1.000  C
  C889     1.0000 0.25141  0.97877  0.04077  Biso   1.000  C
  C890     1.0000 0.79337  0.95259  0.02306  Biso   1.000  C
  H969     1.0000 0.74917  0.81826  0.02120  Biso   1.000  H
  H970     1.0000 0.75181  0.88987  0.05260  Biso   1.000  H
  C891     1.0000 0.79181  0.99540  0.04219  Biso   1.000  C
  C892     1.0000 0.95399  0.74927  0.00720  Biso   1.000  C
  C893     1.0000 0.95630  0.84679  0.00712  Biso   1.000  C
  C894     1.0000 0.07088  0.80668  0.00368  Biso   1.000  C
  C895     1.0000 0.06787  0.90696  0.00383  Biso   1.000  C
  H971     1.0000 0.18169  0.93085  0.02120  Biso   1.000  H
  N123     1.0000 0.27560  0.99836  0.05061  Biso   1.000  N
  H972     1.0000 0.29513  0.00886  0.03520  Biso   1.000  H
  C896     1.0000 0.80698  0.97527  0.01110  Biso   1.000  C
  C897     1.0000 0.80893  0.01788  0.03099  Biso   1.000  C
  C898     1.0000 0.80532  0.06135  0.05005  Biso   1.000  C
  H973     1.0000 0.92234  0.70135  0.01230  Biso   1.000  H
  C899     1.0000 0.92908  0.73581  0.99632  Biso   1.000  C
  H974     1.0000 0.92513  0.86315  0.01220  Biso   1.000  H
  C900     1.0000 0.93209  0.83905  0.99617  Biso   1.000  C
  C901     1.0000 0.04602  0.79531  0.99280  Biso   1.000  C
  H975     1.0000 0.11849  0.79780  0.00610  Biso   1.000  H
  C902     1.0000 0.04371  0.89047  0.99288  Biso   1.000  C
  H976     1.0000 0.11079  0.96518  0.00640  Biso   1.000  H
  C903     1.0000 0.36869  0.07205  0.05188  Biso   1.000  C
  C904     1.0000 0.73581  0.92910  0.00368  Biso   1.000  C
  C905     1.0000 0.83906  0.93207  0.00383  Biso   1.000  C
  C906     1.0000 0.79522  0.04594  0.00720  Biso   1.000  C
  C907     1.0000 0.89042  0.04365  0.00712  Biso   1.000  C
  H977     1.0000 0.83165  0.07858  0.02880  Biso   1.000  H
  N124     1.0000 0.82284  0.13976  0.04756  Biso   1.000  N
  H978     1.0000 0.80072  0.04587  0.05760  Biso   1.000  H
  H979     1.0000 0.88146  0.67928  0.99390  Biso   1.000  H
  C908     1.0000 0.97525  0.80695  0.98890  Biso   1.000  C
  H980     1.0000 0.88917  0.85440  0.99360  Biso   1.000  H
  H981     1.0000 0.07759  0.77895  0.98770  Biso   1.000  H
  H982     1.0000 0.07481  0.93799  0.98780  Biso   1.000  H
  C909     1.0000 0.36003  0.15288  0.05598  Biso   1.000  C
  C910     1.0000 0.41750  0.04634  0.06056  Biso   1.000  C
  H983     1.0000 0.40133  0.08639  0.04470  Biso   1.000  H
  H984     1.0000 0.67929  0.88145  0.00610  Biso   1.000  H
  C911     1.0000 0.74931  0.95401  0.99280  Biso   1.000  C
  H985     1.0000 0.85440  0.88919  0.00640  Biso   1.000  H
  C912     1.0000 0.84680  0.95629  0.99288  Biso   1.000  C
  C913     1.0000 0.80668  0.07084  0.99632  Biso   1.000  C
  H986     1.0000 0.77892  0.07757  0.01230  Biso   1.000  H
  C914     1.0000 0.90702  0.06788  0.99617  Biso   1.000  C
  H987     1.0000 0.93791  0.07475  0.01220  Biso   1.000  H
  C915     1.0000 0.84705  0.20706  0.05598  Biso   1.000  C
  C916     1.0000 0.95254  0.79336  0.97694  Biso   1.000  C
  N125     1.0000 0.31685  0.17704  0.04756  Biso   1.000  N
  H988     1.0000 0.32450  0.13720  0.06290  Biso   1.000  H
  C917     1.0000 0.45638  0.23647  0.05774  Biso   1.000  C
  H989     1.0000 0.42109  0.99338  0.05800  Biso   1.000  H
  C918     1.0000 0.51422  0.12845  0.06223  Biso   1.000  C
  H990     1.0000 0.38382  0.03086  0.06760  Biso   1.000  H
  H991     1.0000 0.70138  0.92237  0.98770  Biso   1.000  H
  C919     1.0000 0.83168  0.02467  0.98890  Biso   1.000  C
  H992     1.0000 0.86319  0.92520  0.98780  Biso   1.000  H
  H993     1.0000 0.79781  0.11849  0.99390  Biso   1.000  H
  H994     1.0000 0.96512  0.11075  0.99360  Biso   1.000  H
  H995     1.0000 0.86274  0.18727  0.06290  Biso   1.000  H
  C920     1.0000 0.76351  0.21985  0.05774  Biso   1.000  C
  C921     1.0000 0.92782  0.29657  0.05188  Biso   1.000  C
  C922     1.0000 0.86387  0.76300  0.97345  Biso   1.000  C
  C923     1.0000 0.01788  0.80897  0.96901  Biso   1.000  C
  C924     1.0000 0.25614  0.19468  0.05005  Biso   1.000  C
  H996     1.0000 0.45156  0.28850  0.06040  Biso   1.000  H
  H997     1.0000 0.49006  0.25337  0.05070  Biso   1.000  H
  C925     1.0000 0.50780  0.20935  0.06669  Biso   1.000  C
  H998     1.0000 0.54802  0.11237  0.06750  Biso   1.000  H
  H999     1.0000 0.54690  0.14474  0.05510  Biso   1.000  H
  C926     1.0000 0.84081  0.04735  0.97694  Biso   1.000  C
  H1000    1.0000 0.71144  0.16305  0.06040  Biso   1.000  H
  H1001    1.0000 0.74656  0.23667  0.05070  Biso   1.000  H
  C927     1.0000 0.79054  0.29839  0.06669  Biso   1.000  C
  C928     1.0000 0.95353  0.37108  0.06056  Biso   1.000  C
  H1002    1.0000 0.91355  0.31488  0.04470  Biso   1.000  H
  N126     1.0000 0.00165  0.27719  0.05061  Biso   1.000  N
  H1003    1.0000 0.81827  0.74921  0.97880  Biso   1.000  H
  C929     1.0000 0.84249  0.75311  0.96268  Biso   1.000  C
  C930     1.0000 0.99537  0.79181  0.95781  Biso   1.000  C
  H1004    1.0000 0.07859  0.83165  0.97120  Biso   1.000  H
  C931     1.0000 0.20359  0.20814  0.04219  Biso   1.000  C
  H1005    1.0000 0.24510  0.19919  0.05760  Biso   1.000  H
  H1006    1.0000 0.56887  0.26084  0.06800  Biso   1.000  H
  H1007    1.0000 0.47427  0.19300  0.07370  Biso   1.000  H
  C932     1.0000 0.79109  0.98207  0.96901  Biso   1.000  C
  C933     1.0000 0.89903  0.13606  0.97345  Biso   1.000  C
  H1008    1.0000 0.73907  0.30795  0.06800  Biso   1.000  H
  H1009    1.0000 0.80694  0.28130  0.07370  Biso   1.000  H
  C934     1.0000 0.87143  0.38568  0.06223  Biso   1.000  C
  H1010    1.0000 0.96902  0.35297  0.06760  Biso   1.000  H
  H1011    1.0000 0.00655  0.42768  0.05800  Biso   1.000  H
  C935     1.0000 0.02119  0.27255  0.04077  Biso   1.000  C
  C936     1.0000 0.90697  0.76388  0.95490  Biso   1.000  C
  C937     1.0000 0.74862  0.72740  0.95923  Biso   1.000  C
  C938     1.0000 0.06137  0.80527  0.94995  Biso   1.000  C
  C939     1.0000 0.14307  0.23607  0.04510  Biso   1.000  C
  C940     1.0000 0.20888  0.19098  0.03099  Biso   1.000  C
  H1012    1.0000 0.75310  0.92136  0.97120  Biso   1.000  H
  C941     1.0000 0.79632  0.00455  0.95781  Biso   1.000  C
  H1013    1.0000 0.93082  0.18169  0.97880  Biso   1.000  H
  C942     1.0000 0.91061  0.15746  0.96268  Biso   1.000  C
  H1014    1.0000 0.88756  0.43555  0.06750  Biso   1.000  H
  H1015    1.0000 0.85512  0.40204  0.05510  Biso   1.000  H
  H1016    1.0000 0.99109  0.28614  0.03520  Biso   1.000  H
  C943     1.0000 0.08941  0.24684  0.03732  Biso   1.000  C
  H1017    1.0000 0.88984  0.75176  0.94740  Biso   1.000  H
  N127     1.0000 0.72438  0.72276  0.94939  Biso   1.000  N
  H1018    1.0000 0.70487  0.71381  0.96480  Biso   1.000  H
  N128     1.0000 0.13978  0.82290  0.95244  Biso   1.000  N
  H1019    1.0000 0.04589  0.80076  0.94240  Biso   1.000  H
  H1020    1.0000 0.13811  0.24818  0.05260  Biso   1.000  H
  C944     1.0000 0.15916  0.20659  0.02306  Biso   1.000  C
  H1021    1.0000 0.24685  0.16830  0.02880  Biso   1.000  H
  C945     1.0000 0.74388  0.93859  0.94995  Biso   1.000  C
  C946     1.0000 0.85686  0.09298  0.95490  Biso   1.000  C
  C947     1.0000 0.97877  0.25135  0.95923  Biso   1.000  C
  C948     1.0000 0.10090  0.23694  0.02655  Biso   1.000  C
  C949     1.0000 0.63128  0.70337  0.94812  Biso   1.000  C
  C950     1.0000 0.20706  0.84706  0.94402  Biso   1.000  C
  C951     1.0000 0.16828  0.19300  0.01110  Biso   1.000  C
  N129     1.0000 0.68311  0.86019  0.95244  Biso   1.000  N
  H1022    1.0000 0.75488  0.95407  0.94240  Biso   1.000  H
  H1023    1.0000 0.86185  0.11008  0.94740  Biso   1.000  H
  N130     1.0000 0.99834  0.27557  0.94939  Biso   1.000  N
  H1024    1.0000 0.00886  0.29509  0.96480  Biso   1.000  H
  H1025    1.0000 0.06904  0.25074  0.02120  Biso   1.000  H
  C952     1.0000 0.63996  0.79288  0.94402  Biso   1.000  C
  C953     1.0000 0.58249  0.62887  0.93944  Biso   1.000  C
  H1026    1.0000 0.59870  0.68507  0.95530  Biso   1.000  H
  H1027    1.0000 0.18731  0.86281  0.93710  Biso   1.000  H
  C954     1.0000 0.21988  0.76347  0.94226  Biso   1.000  C
  C955     1.0000 0.29661  0.92789  0.94812  Biso   1.000  C
  C956     1.0000 0.25063  0.20464  0.00720  Biso   1.000  C
  C957     1.0000 0.19330  0.26413  0.00368  Biso   1.000  C
  C958     1.0000 0.15321  0.10947  0.00712  Biso   1.000  C
  C959     1.0000 0.09295  0.16089  0.00383  Biso   1.000  C
  C960     1.0000 0.07204  0.36865  0.94812  Biso   1.000  C
  H1028    1.0000 0.67550  0.81267  0.93710  Biso   1.000  H
  C961     1.0000 0.54357  0.78010  0.94226  Biso   1.000  C
  C962     1.0000 0.48578  0.61427  0.93777  Biso   1.000  C
  H1029    1.0000 0.57890  0.57227  0.94200  Biso   1.000  H
  H1030    1.0000 0.61608  0.64697  0.93240  Biso   1.000  H
  H1031    1.0000 0.16313  0.71152  0.93960  Biso   1.000  H
  H1032    1.0000 0.23667  0.74658  0.94930  Biso   1.000  H
  C963     1.0000 0.29843  0.79060  0.93331  Biso   1.000  C
  C964     1.0000 0.37113  0.95360  0.93944  Biso   1.000  C
  H1033    1.0000 0.31485  0.91356  0.95530  Biso   1.000  H
  N131     1.0000 0.27715  0.00159  0.94939  Biso   1.000  N
  C965     1.0000 0.26423  0.19326  0.99632  Biso   1.000  C
  H1034    1.0000 0.29861  0.22099  0.01230  Biso   1.000  H
  C966     1.0000 0.20469  0.25067  0.99280  Biso   1.000  C
  H1035    1.0000 0.20215  0.32067  0.00610  Biso   1.000  H
  C967     1.0000 0.16088  0.09298  0.99617  Biso   1.000  C
  H1036    1.0000 0.13674  0.06196  0.01220  Biso   1.000  H
  C968     1.0000 0.10948  0.15315  0.99288  Biso   1.000  C
  H1037    1.0000 0.03474  0.14555  0.00640  Biso   1.000  H
  C969     1.0000 0.15291  0.35997  0.94402  Biso   1.000  C
  C970     1.0000 0.04637  0.41745  0.93944  Biso   1.000  C
  H1038    1.0000 0.08644  0.40130  0.95530  Biso   1.000  H
  H1039    1.0000 0.54843  0.83690  0.93960  Biso   1.000  H
  H1040    1.0000 0.50986  0.76327  0.94930  Biso   1.000  H
  C971     1.0000 0.49218  0.70156  0.93331  Biso   1.000  C
  H1041    1.0000 0.45198  0.56439  0.93250  Biso   1.000  H
  H1042    1.0000 0.45312  0.59791  0.94490  Biso   1.000  H
  H1043    1.0000 0.30801  0.73911  0.93200  Biso   1.000  H
  H1044    1.0000 0.28125  0.80695  0.92630  Biso   1.000  H
  C972     1.0000 0.38568  0.87149  0.93777  Biso   1.000  C
  H1045    1.0000 0.35299  0.96908  0.93240  Biso   1.000  H
  H1046    1.0000 0.42769  0.00657  0.94200  Biso   1.000  H
  C973     1.0000 0.27255  0.02117  0.95923  Biso   1.000  C
  H1047    1.0000 0.32072  0.20215  0.99390  Biso   1.000  H
  C974     1.0000 0.19294  0.16830  0.98890  Biso   1.000  C
  H1048    1.0000 0.22102  0.29859  0.98770  Biso   1.000  H
  H1049    1.0000 0.14552  0.03477  0.99360  Biso   1.000  H
  H1050    1.0000 0.06202  0.13680  0.98780  Biso   1.000  H
  N132     1.0000 0.17713  0.31690  0.95244  Biso   1.000  N
  H1051    1.0000 0.13718  0.32444  0.93710  Biso   1.000  H
  C975     1.0000 0.23642  0.45635  0.94226  Biso   1.000  C
  H1052    1.0000 0.99340  0.42108  0.94200  Biso   1.000  H
  C976     1.0000 0.12847  0.51416  0.93777  Biso   1.000  C
  H1053    1.0000 0.03092  0.38386  0.93240  Biso   1.000  H
  H1054    1.0000 0.43110  0.69200  0.93200  Biso   1.000  H
  H1055    1.0000 0.52567  0.71865  0.92630  Biso   1.000  H
  H1056    1.0000 0.43557  0.88758  0.93250  Biso   1.000  H
  H1057    1.0000 0.40213  0.85521  0.94490  Biso   1.000  H
  H1058    1.0000 0.28618  0.99109  0.96480  Biso   1.000  H
  C977     1.0000 0.24684  0.08935  0.96268  Biso   1.000  C
  C978     1.0000 0.20660  0.15914  0.97694  Biso   1.000  C
  C979     1.0000 0.19468  0.25606  0.94995  Biso   1.000  C
  H1059    1.0000 0.28853  0.45157  0.93960  Biso   1.000  H
  H1060    1.0000 0.25340  0.49007  0.94930  Biso   1.000  H
  C980     1.0000 0.20944  0.50777  0.93331  Biso   1.000  C
  H1061    1.0000 0.11238  0.54795  0.93250  Biso   1.000  H
  H1062    1.0000 0.14483  0.54687  0.94490  Biso   1.000  H
  C981     1.0000 0.23703  0.10086  0.97345  Biso   1.000  C
  C982     1.0000 0.23610  0.14306  0.95490  Biso   1.000  C
  C983     1.0000 0.19096  0.20888  0.96901  Biso   1.000  C
  C984     1.0000 0.20812  0.20356  0.95781  Biso   1.000  C
  H1063    1.0000 0.19916  0.24509  0.94240  Biso   1.000  H
  H1064    1.0000 0.26092  0.56888  0.93200  Biso   1.000  H
  H1065    1.0000 0.19303  0.47425  0.92630  Biso   1.000  H
  H1066    1.0000 0.25081  0.06909  0.97880  Biso   1.000  H
  H1067    1.0000 0.24818  0.13808  0.94740  Biso   1.000  H
  H1068    1.0000 0.16827  0.24684  0.97120  Biso   1.000  H
  C985     1.0000 0.61448  0.78400  0.84422  Biso   1.000  C
  C986     1.0000 0.51319  0.74591  0.84442  Biso   1.000  C
  H1069    1.0000 0.62740  0.73501  0.84260  Biso   1.000  H
  H1070    1.0000 0.64129  0.82936  0.83830  Biso   1.000  H
  C987     1.0000 0.65717  0.82707  0.85508  Biso   1.000  C
  C988     1.0000 0.47167  0.68338  0.85408  Biso   1.000  C
  H1071    1.0000 0.50006  0.79578  0.84490  Biso   1.000  H
  H1072    1.0000 0.48648  0.71266  0.83750  Biso   1.000  H
  C989     1.0000 0.61346  0.76098  0.86467  Biso   1.000  C
  N133     1.0000 0.75376  0.85076  0.85468  Biso   1.000  N
  H1073    1.0000 0.65265  0.88226  0.85630  Biso   1.000  H
  C990     1.0000 0.51391  0.72928  0.86467  Biso   1.000  C
  H1074    1.0000 0.40638  0.66192  0.85430  Biso   1.000  H
  H1075    1.0000 0.47939  0.63028  0.85310  Biso   1.000  H
  N134     1.0000 0.65158  0.80890  0.87513  Biso   1.000  N
  H1076    1.0000 0.62377  0.70876  0.86390  Biso   1.000  H
  C991     1.0000 0.81010  0.93476  0.85361  Biso   1.000  C
  H1077    1.0000 0.48448  0.68709  0.87080  Biso   1.000  H
  H1078    1.0000 0.50488  0.78151  0.86570  Biso   1.000  H
  C992     1.0000 0.67716  0.76879  0.88206  Biso   1.000  C
  H1079    1.0000 0.78899  0.97635  0.85310  Biso   1.000  H
  C993     1.0000 0.90921  0.96780  0.85314  Biso   1.000  C
  C994     1.0000 0.70689  0.80399  0.89308  Biso   1.000  C
  H1080    1.0000 0.67646  0.71529  0.87990  Biso   1.000  H
  C995     1.0000 0.94177  0.90609  0.85324  Biso   1.000  C
  C996     1.0000 0.96425  0.05819  0.85324  Biso   1.000  C
  C997     1.0000 0.70767  0.88098  0.89707  Biso   1.000  C
  C998     1.0000 0.73220  0.75600  0.90055  Biso   1.000  C
  H1081    1.0000 0.90189  0.84289  0.85340  Biso   1.000  H
  C999     1.0000 0.03220  0.94135  0.85314  Biso   1.000  C
  H1082    1.0000 0.94096  0.09810  0.85340  Biso   1.000  H
  C1000    1.0000 0.05858  0.09076  0.85314  Biso   1.000  C
  C1001    1.0000 0.73097  0.90905  0.90765  Biso   1.000  C
  H1083    1.0000 0.69161  0.91450  0.89230  Biso   1.000  H
  C1002    1.0000 0.76159  0.79019  0.91135  Biso   1.000  C
  H1084    1.0000 0.72934  0.70156  0.89830  Biso   1.000  H
  C1003    1.0000 0.06519  0.87526  0.85361  Biso   1.000  C
  C1004    1.0000 0.09385  0.03564  0.85324  Biso   1.000  C
  C1005    1.0000 0.12465  0.18990  0.85361  Biso   1.000  C
  C1006    1.0000 0.75878  0.86476  0.91453  Biso   1.000  C
  C1007    1.0000 0.72786  0.99095  0.91144  Biso   1.000  C
  C1008    1.0000 0.78749  0.74079  0.91900  Biso   1.000  C
  N135     1.0000 0.14923  0.90299  0.85468  Biso   1.000  N
  H1085    1.0000 0.02360  0.81260  0.85310  Biso   1.000  H
  H1086    1.0000 0.15711  0.05900  0.85340  Biso   1.000  H
  N136     1.0000 0.09694  0.24616  0.85468  Biso   1.000  N
  H1087    1.0000 0.18734  0.21097  0.85310  Biso   1.000  H
  H1088    1.0000 0.77669  0.88670  0.92180  Biso   1.000  H
  N137     1.0000 0.74254  0.02090  0.92112  Biso   1.000  N
  H1089    1.0000 0.71371  0.02245  0.90610  Biso   1.000  H
  N138     1.0000 0.79548  0.67356  0.91653  Biso   1.000  N
  H1090    1.0000 0.79897  0.76085  0.92640  Biso   1.000  H
  C1009    1.0000 0.17293  0.83010  0.85508  Biso   1.000  C
  C1010    1.0000 0.16988  0.34274  0.85508  Biso   1.000  C
  C1011    1.0000 0.72733  0.09655  0.92291  Biso   1.000  C
  C1012    1.0000 0.81871  0.63351  0.92550  Biso   1.000  C
  C1013    1.0000 0.23895  0.85245  0.86467  Biso   1.000  C
  C1014    1.0000 0.21603  0.83051  0.84422  Biso   1.000  C
  H1091    1.0000 0.11773  0.77041  0.85630  Biso   1.000  H
  C1015    1.0000 0.14746  0.38649  0.86467  Biso   1.000  C
  C1016    1.0000 0.16951  0.38548  0.84422  Biso   1.000  C
  H1092    1.0000 0.22961  0.34725  0.85630  Biso   1.000  H
  H1093    1.0000 0.70125  0.10665  0.91610  Biso   1.000  H
  C1017    1.0000 0.66011  0.07367  0.93231  Biso   1.000  C
  C1018    1.0000 0.81475  0.18128  0.92550  Biso   1.000  C
  C1019    1.0000 0.90336  0.63075  0.92291  Biso   1.000  C
  C1020    1.0000 0.73958  0.53949  0.92773  Biso   1.000  C
  H1094    1.0000 0.82968  0.67107  0.93220  Biso   1.000  H
  N139     1.0000 0.19112  0.84269  0.87513  Biso   1.000  N
  H1095    1.0000 0.29120  0.91497  0.86390  Biso   1.000  H
  C1021    1.0000 0.27072  0.78461  0.86467  Biso   1.000  C
  C1022    1.0000 0.25409  0.76731  0.84442  Biso   1.000  C
  H1096    1.0000 0.26497  0.89236  0.84260  Biso   1.000  H
  H1097    1.0000 0.17058  0.81186  0.83830  Biso   1.000  H
  N140     1.0000 0.15732  0.34840  0.87513  Biso   1.000  N
  H1098    1.0000 0.08496  0.37619  0.86390  Biso   1.000  H
  C1023    1.0000 0.21536  0.48603  0.86467  Biso   1.000  C
  C1024    1.0000 0.23269  0.48677  0.84442  Biso   1.000  C
  H1099    1.0000 0.10762  0.37256  0.84260  Biso   1.000  H
  H1100    1.0000 0.18812  0.35869  0.83830  Biso   1.000  H
  H1101    1.0000 0.68355  0.05994  0.93900  Biso   1.000  H
  H1102    1.0000 0.60223  0.01969  0.93040  Biso   1.000  H
  C1025    1.0000 0.64463  0.15275  0.93453  Biso   1.000  C
  N141     1.0000 0.87802  0.20444  0.91653  Biso   1.000  N
  C1026    1.0000 0.79991  0.26036  0.92773  Biso   1.000  C
  H1103    1.0000 0.84135  0.17025  0.93220  Biso   1.000  H
  N142     1.0000 0.97907  0.72168  0.92112  Biso   1.000  N
  H1104    1.0000 0.89327  0.59461  0.91610  Biso   1.000  H
  C1027    1.0000 0.92630  0.58640  0.93231  Biso   1.000  C
  C1028    1.0000 0.76260  0.49366  0.93681  Biso   1.000  C
  H1105    1.0000 0.68641  0.54400  0.92990  Biso   1.000  H
  H1106    1.0000 0.72438  0.50302  0.92100  Biso   1.000  H
  C1029    1.0000 0.23119  0.90838  0.88206  Biso   1.000  C
  H1107    1.0000 0.31290  0.79739  0.87080  Biso   1.000  H
  H1108    1.0000 0.21847  0.72336  0.86570  Biso   1.000  H
  C1030    1.0000 0.31663  0.78831  0.85408  Biso   1.000  C
  H1109    1.0000 0.20423  0.70432  0.84490  Biso   1.000  H
  H1110    1.0000 0.28728  0.77377  0.83750  Biso   1.000  H
  C1031    1.0000 0.09152  0.32275  0.88206  Biso   1.000  C
  H1111    1.0000 0.20261  0.51544  0.87080  Biso   1.000  H
  H1112    1.0000 0.27652  0.49505  0.86570  Biso   1.000  H
  C1032    1.0000 0.21166  0.52829  0.85408  Biso   1.000  C
  H1113    1.0000 0.29573  0.49989  0.84490  Biso   1.000  H
  H1114    1.0000 0.22623  0.51349  0.83750  Biso   1.000  H
  H1115    1.0000 0.61520  0.16197  0.92810  Biso   1.000  H
  H1116    1.0000 0.60391  0.13835  0.94090  Biso   1.000  H
  C1033    1.0000 0.73111  0.23735  0.93681  Biso   1.000  C
  C1034    1.0000 0.95325  0.21245  0.91900  Biso   1.000  C
  H1117    1.0000 0.85756  0.31353  0.92990  Biso   1.000  H
  H1118    1.0000 0.77860  0.27557  0.92100  Biso   1.000  H
  C1035    1.0000 0.00900  0.73689  0.91144  Biso   1.000  C
  H1119    1.0000 0.93997  0.62355  0.93900  Biso   1.000  H
  H1120    1.0000 0.98027  0.58257  0.93040  Biso   1.000  H
  C1036    1.0000 0.84717  0.49191  0.93453  Biso   1.000  C
  H1121    1.0000 0.76938  0.52576  0.94380  Biso   1.000  H
  H1122    1.0000 0.71231  0.43120  0.93770  Biso   1.000  H
  C1037    1.0000 0.19596  0.90286  0.89308  Biso   1.000  C
  H1123    1.0000 0.28471  0.96121  0.87990  Biso   1.000  H
  H1124    1.0000 0.33809  0.74449  0.85430  Biso   1.000  H
  H1125    1.0000 0.36969  0.84908  0.85310  Biso   1.000  H
  C1038    1.0000 0.09714  0.29307  0.89308  Biso   1.000  C
  H1126    1.0000 0.03885  0.32349  0.87990  Biso   1.000  H
  H1127    1.0000 0.25549  0.59358  0.85430  Biso   1.000  H
  H1128    1.0000 0.15090  0.52055  0.85310  Biso   1.000  H
  H1129    1.0000 0.75638  0.23055  0.94380  Biso   1.000  H
  H1130    1.0000 0.71892  0.28769  0.93770  Biso   1.000  H
  H1131    1.0000 0.96184  0.20094  0.92640  Biso   1.000  H
  C1039    1.0000 0.02857  0.23836  0.91135  Biso   1.000  C
  H1132    1.0000 0.97747  0.69119  0.90610  Biso   1.000  H
  C1040    1.0000 0.09090  0.82189  0.90765  Biso   1.000  C
  H1133    1.0000 0.83802  0.45321  0.92810  Biso   1.000  H
  H1134    1.0000 0.86157  0.46546  0.94090  Biso   1.000  H
  C1041    1.0000 0.11899  0.82667  0.89707  Biso   1.000  C
  C1042    1.0000 0.24398  0.97615  0.90055  Biso   1.000  C
  C1043    1.0000 0.17326  0.29227  0.89707  Biso   1.000  C
  C1044    1.0000 0.02375  0.26777  0.90055  Biso   1.000  C
  C1045    1.0000 0.10605  0.24118  0.91453  Biso   1.000  C
  C1046    1.0000 0.13522  0.89397  0.91453  Biso   1.000  C
  H1135    1.0000 0.08551  0.77707  0.89230  Biso   1.000  H
  C1047    1.0000 0.20976  0.97137  0.91135  Biso   1.000  C
  H1136    1.0000 0.29840  0.02777  0.89830  Biso   1.000  H
  C1048    1.0000 0.17806  0.26898  0.90765  Biso   1.000  C
  H1137    1.0000 0.22292  0.30835  0.89230  Biso   1.000  H
  H1138    1.0000 0.97213  0.27059  0.89830  Biso   1.000  H
  H1139    1.0000 0.10998  0.22328  0.92180  Biso   1.000  H
  H1140    1.0000 0.11330  0.89000  0.92180  Biso   1.000  H
  C1049    1.0000 0.25913  0.04668  0.91900  Biso   1.000  C
  C1050    1.0000 0.26307  0.27208  0.91144  Biso   1.000  C
  N143     1.0000 0.32639  0.12186  0.91653  Biso   1.000  N
  H1141    1.0000 0.23909  0.03807  0.92640  Biso   1.000  H
  N144     1.0000 0.27832  0.25734  0.92112  Biso   1.000  N
  H1142    1.0000 0.30881  0.28628  0.90610  Biso   1.000  H
  C1051    1.0000 0.36645  0.18519  0.92550  Biso   1.000  C
  C1052    1.0000 0.36921  0.27255  0.92291  Biso   1.000  C
  C1053    1.0000 0.46044  0.20006  0.92773  Biso   1.000  C
  H1143    1.0000 0.32887  0.15854  0.93220  Biso   1.000  H
  H1144    1.0000 0.40541  0.29866  0.91610  Biso   1.000  H
  C1054    1.0000 0.41353  0.33985  0.93231  Biso   1.000  C
  C1055    1.0000 0.50631  0.26884  0.93681  Biso   1.000  C
  H1145    1.0000 0.45602  0.14238  0.92990  Biso   1.000  H
  H1146    1.0000 0.49704  0.22140  0.92100  Biso   1.000  H
  H1147    1.0000 0.37637  0.31636  0.93900  Biso   1.000  H
  H1148    1.0000 0.41743  0.39766  0.93040  Biso   1.000  H
  C1056    1.0000 0.50808  0.35526  0.93453  Biso   1.000  C
  H1149    1.0000 0.47413  0.24354  0.94380  Biso   1.000  H
  H1150    1.0000 0.56874  0.28109  0.93770  Biso   1.000  H
  H1151    1.0000 0.54677  0.38474  0.92810  Biso   1.000  H
  H1152    1.0000 0.53447  0.39605  0.94090  Biso   1.000  H
  Ne1      1.0000 0.33332  0.66665  0.25000  Biso   1.000  Ne
  He1      1.0000 0.33334  0.66664  0.29662  Biso   1.000  He
  He2      1.0000 0.11270  0.56971  0.24508  Biso   1.000  He
  He3      1.0000 0.43573  0.83211  0.22347  Biso   1.000  He
  He4      1.0000 0.41878  0.56174  0.24571  Biso   1.000  He
  He5      1.0000 0.33329  0.66663  0.20331  Biso   1.000  He
  Ar1      1.0000 0.33332  0.66664  0.25000  Biso   1.000  Ar
  Ne2      1.0000 0.33332  0.66665  0.35897  Biso   1.000  Ne
  He6      1.0000 0.50390  0.76796  0.36723  Biso   1.000  He
  He7      1.0000 0.25603  0.47610  0.36807  Biso   1.000  He
  He8      1.0000 0.22229  0.74243  0.36791  Biso   1.000  He
  He9      1.0000 0.33331  0.66665  0.33521  Biso   1.000  He
  Ar2      1.0000 0.33332  0.66663  0.35897  Biso   1.000  Ar
  Ne3      1.0000 0.33332  0.66665  0.14103  Biso   1.000  Ne
  He10     1.0000 0.33334  0.66665  0.16495  Biso   1.000  He
  He11     1.0000 0.50828  0.73769  0.13258  Biso   1.000  He
  He12     1.0000 0.23290  0.49753  0.13283  Biso   1.000  He
  He13     1.0000 0.26200  0.77098  0.13255  Biso   1.000  He
  Ar3      1.0000 0.33331  0.66663  0.14103  Biso   1.000  Ar
  Ne4      1.0000 0.99998  0.99997  0.10816  Biso   1.000  Ne
  He14     1.0000 0.06915  0.89930  0.11783  Biso   1.000  He
  He15     1.0000 0.11245  0.18847  0.11857  Biso   1.000  He
  He16     1.0000 0.83359  0.93207  0.11769  Biso   1.000  He
  He17     1.0000 0.99995  0.99998  0.08414  Biso   1.000  He
  Ar4      1.0000 0.99834  0.99885  0.11196  Biso   1.000  Ar
  Ne5      1.0000 0.99998  0.99997  0.39184  Biso   1.000  Ne
  He18     1.0000 0.99993  0.99995  0.41575  Biso   1.000  He
  He19     1.0000 0.08985  0.93712  0.38286  Biso   1.000  He
  He20     1.0000 0.84104  0.90618  0.38261  Biso   1.000  He
  He21     1.0000 0.06990  0.17196  0.38209  Biso   1.000  He
  Ar5      1.0000 0.99996  0.99997  0.39184  Biso   1.000  Ar
  Ne6      1.0000 0.99998  0.99997  0.00000  Biso   1.000  Ne
  He22     1.0000 0.99998  0.00001  0.00780  Biso   1.000  He
  He23     1.0000 0.99999  0.99995  0.99214  Biso   1.000  He
  Ar6      1.0000 0.99999  0.99996  0.00000  Biso   1.000  Ar
  Ne7      1.0000 0.99998  0.99997  0.50000  Biso   1.000  Ne
  He24     1.0000 0.99997  0.99996  0.50803  Biso   1.000  He
  He25     1.0000 0.99998  0.99999  0.49200  Biso   1.000  He
  Ar7      1.0000 0.00000  0.99998  0.50000  Biso   1.000  Ar
  Ne8      1.0000 0.99999  0.99997  0.60816  Biso   1.000  Ne
  He26     1.0000 0.90790  0.84378  0.61728  Biso   1.000  He
  He27     1.0000 0.91763  0.12322  0.61925  Biso   1.000  He
  He28     1.0000 0.16227  0.06633  0.61752  Biso   1.000  He
  He29     1.0000 0.99997  0.99997  0.58426  Biso   1.000  He
  Ar8      1.0000 0.99998  0.99996  0.60816  Biso   1.000  Ar
  Ne9      1.0000 0.66666  0.33332  0.64103  Biso   1.000  Ne
  He30     1.0000 0.66667  0.33335  0.66525  Biso   1.000  He
  He31     1.0000 0.77490  0.51549  0.63228  Biso   1.000  He
  He32     1.0000 0.74145  0.22376  0.63219  Biso   1.000  He
  He33     1.0000 0.49123  0.26213  0.63256  Biso   1.000  He
  Ar9      1.0000 0.66665  0.33334  0.63965  Biso   1.000  Ar
  Ne10     1.0000 0.66666  0.33333  0.75000  Biso   1.000  Ne
  He34     1.0000 0.66664  0.33331  0.79697  Biso   1.000  He
  He35     1.0000 0.54506  0.11615  0.74514  Biso   1.000  He
  He36     1.0000 0.85391  0.41765  0.74578  Biso   1.000  He
  He37     1.0000 0.60775  0.42853  0.72350  Biso   1.000  He
  He38     1.0000 0.66666  0.33334  0.70305  Biso   1.000  He
  Ar10     1.0000 0.66665  0.33332  0.75000  Biso   1.000  Ar
  Ne11     1.0000 0.66666  0.33332  0.85897  Biso   1.000  Ne
  He39     1.0000 0.49689  0.23253  0.86720  Biso   1.000  He
  He40     1.0000 0.73936  0.51246  0.86759  Biso   1.000  He
  He41     1.0000 0.76926  0.26319  0.86733  Biso   1.000  He
  He42     1.0000 0.66665  0.33332  0.83470  Biso   1.000  He
  Ar11     1.0000 0.66665  0.33332  0.85897  Biso   1.000  Ar
  Ne12     1.0000 0.99998  0.99997  0.89184  Biso   1.000  Ne
  He43     1.0000 1.00000  0.99996  0.91585  Biso   1.000  He
  He44     1.0000 0.90398  0.06638  0.88247  Biso   1.000  He
  He45     1.0000 0.19894  0.11902  0.88101  Biso   1.000  He
  He46     1.0000 0.91865  0.79710  0.88086  Biso   1.000  He
  Ar12     1.0000 0.99997  0.99996  0.89184  Biso   1.000  Ar
