data_image0
_cell_length_a       19.55
_cell_length_b       19.55
_cell_length_c       26.329
_cell_angle_alpha    90
_cell_angle_beta     90
_cell_angle_gamma    120

_symmetry_space_group_name_H-M    "P 1"
_symmetry_int_tables_number       1

loop_
  _symmetry_equiv_pos_as_xyz
  'x, y, z'

loop_
  _atom_site_label
  _atom_site_occupancy
  _atom_site_fract_x
  _atom_site_fract_y
  _atom_site_fract_z
  _atom_site_thermal_displace_type
  _atom_site_B_iso_or_equiv
  _atom_site_type_symbol
  C1       1.0000 0.54397  0.49838  0.54229  Biso   1.000  C
  C2       1.0000 0.51131  0.44062  0.49360  Biso   1.000  C
  C3       1.0000 0.56097  0.47877  0.49550  Biso   1.000  C
  C4       1.0000 0.48231  0.51551  0.54917  Biso   1.000  C
  H1       1.0000 0.57481  0.50051  0.57078  Biso   1.000  H
  C5       1.0000 0.51548  0.48232  0.45080  Biso   1.000  C
  C6       1.0000 0.49149  0.45786  0.54058  Biso   1.000  C
  H2       1.0000 0.52220  0.39856  0.49109  Biso   1.000  H
  H3       1.0000 0.59988  0.46359  0.49178  Biso   1.000  H
  C7       1.0000 0.44062  0.51132  0.50640  Biso   1.000  C
  C8       1.0000 0.47881  0.56099  0.50450  Biso   1.000  C
  C9       1.0000 0.46438  0.53807  0.59964  Biso   1.000  C
  C10      1.0000 0.53809  0.46442  0.40032  Biso   1.000  C
  C11      1.0000 0.45786  0.49147  0.45938  Biso   1.000  C
  C12      1.0000 0.49838  0.54398  0.45771  Biso   1.000  C
  H4       1.0000 0.48448  0.42349  0.56800  Biso   1.000  H
  H5       1.0000 0.39859  0.52218  0.50891  Biso   1.000  H
  H6       1.0000 0.46359  0.59991  0.50818  Biso   1.000  H
  C13      1.0000 0.50227  0.53028  0.64294  Biso   1.000  C
  C14      1.0000 0.41272  0.56601  0.60545  Biso   1.000  C
  C15      1.0000 0.53027  0.50228  0.35706  Biso   1.000  C
  C16      1.0000 0.56598  0.41268  0.39451  Biso   1.000  C
  H7       1.0000 0.42348  0.48450  0.43200  Biso   1.000  H
  H8       1.0000 0.50050  0.57481  0.42918  Biso   1.000  H
  H9       1.0000 0.53771  0.51061  0.63948  Biso   1.000  H
  C17      1.0000 0.48807  0.55148  0.69103  Biso   1.000  C
  C18      1.0000 0.39890  0.58840  0.65331  Biso   1.000  C
  H10      1.0000 0.38591  0.57009  0.57659  Biso   1.000  H
  C19      1.0000 0.55152  0.48810  0.30894  Biso   1.000  C
  H11      1.0000 0.51060  0.53772  0.36048  Biso   1.000  H
  C20      1.0000 0.58841  0.39892  0.34669  Biso   1.000  C
  H12      1.0000 0.57007  0.38586  0.42341  Biso   1.000  H
  C21      1.0000 0.43708  0.58107  0.69558  Biso   1.000  C
  C22      1.0000 0.52909  0.54197  0.73489  Biso   1.000  C
  C23      1.0000 0.34543  0.62200  0.65924  Biso   1.000  C
  C24      1.0000 0.58109  0.43707  0.30438  Biso   1.000  C
  C25      1.0000 0.54199  0.52910  0.26511  Biso   1.000  C
  C26      1.0000 0.62201  0.34541  0.34073  Biso   1.000  C
  H13      1.0000 0.42817  0.59661  0.72798  Biso   1.000  H
  N1       1.0000 0.51668  0.55437  0.77994  Biso   1.000  N
  H14      1.0000 0.56667  0.52567  0.72889  Biso   1.000  H
  N2       1.0000 0.30187  0.62165  0.62456  Biso   1.000  N
  H15      1.0000 0.34460  0.64480  0.69099  Biso   1.000  H
  H16      1.0000 0.59661  0.42821  0.27198  Biso   1.000  H
  N3       1.0000 0.55441  0.51669  0.22006  Biso   1.000  N
  H17      1.0000 0.52568  0.56666  0.27111  Biso   1.000  H
  N4       1.0000 0.62168  0.30188  0.37544  Biso   1.000  N
  H18      1.0000 0.64477  0.34458  0.30901  Biso   1.000  H
  C27      1.0000 0.56076  0.54097  0.81967  Biso   1.000  C
  C28      1.0000 0.25932  0.66412  0.63402  Biso   1.000  C
  C29      1.0000 0.54102  0.56081  0.18033  Biso   1.000  C
  C30      1.0000 0.66407  0.25929  0.36595  Biso   1.000  C
  C31      1.0000 0.62838  0.61870  0.83885  Biso   1.000  C
  C32      1.0000 0.50375  0.49466  0.86312  Biso   1.000  C
  H19      1.0000 0.58289  0.50860  0.80527  Biso   1.000  H
  H20      1.0000 0.27628  0.69170  0.66759  Biso   1.000  H
  C33      1.0000 0.16949  0.60741  0.63489  Biso   1.000  C
  C34      1.0000 0.27958  0.72489  0.59273  Biso   1.000  C
  C35      1.0000 0.61869  0.62838  0.16112  Biso   1.000  C
  C36      1.0000 0.49472  0.50382  0.13688  Biso   1.000  C
  H21      1.0000 0.50859  0.58290  0.19469  Biso   1.000  H
  H22      1.0000 0.69171  0.27630  0.33241  Biso   1.000  H
  C37      1.0000 0.60742  0.16951  0.36511  Biso   1.000  C
  C38      1.0000 0.72487  0.27961  0.40727  Biso   1.000  C
  N5       1.0000 0.68379  0.65679  0.79760  Biso   1.000  N
  H23      1.0000 0.60740  0.65337  0.85039  Biso   1.000  H
  C39      1.0000 0.67019  0.60381  0.88336  Biso   1.000  C
  C40      1.0000 0.54556  0.47936  0.90664  Biso   1.000  C
  H24      1.0000 0.47907  0.52490  0.87599  Biso   1.000  H
  H25      1.0000 0.46117  0.44357  0.84990  Biso   1.000  H
  H26      1.0000 0.15263  0.57841  0.60230  Biso   1.000  H
  H27      1.0000 0.15612  0.56820  0.66250  Biso   1.000  H
  C41      1.0000 0.12578  0.65177  0.64313  Biso   1.000  C
  N6       1.0000 0.36560  0.78041  0.59372  Biso   1.000  N
  C42      1.0000 0.23597  0.77108  0.60078  Biso   1.000  C
  H28      1.0000 0.26449  0.69778  0.55900  Biso   1.000  H
  N7       1.0000 0.65678  0.68378  0.20236  Biso   1.000  N
  H29      1.0000 0.65337  0.60741  0.14961  Biso   1.000  H
  C43      1.0000 0.60380  0.67020  0.11660  Biso   1.000  C
  C44      1.0000 0.47939  0.54557  0.09332  Biso   1.000  C
  H30      1.0000 0.52485  0.47907  0.12401  Biso   1.000  H
  H31      1.0000 0.44358  0.46117  0.15010  Biso   1.000  H
  H32      1.0000 0.57841  0.15262  0.39770  Biso   1.000  H
  H33      1.0000 0.56818  0.15611  0.33750  Biso   1.000  H
  C45      1.0000 0.65180  0.12581  0.35687  Biso   1.000  C
  N8       1.0000 0.78040  0.36561  0.40628  Biso   1.000  N
  C46      1.0000 0.77110  0.23602  0.39918  Biso   1.000  C
  H34      1.0000 0.69777  0.26449  0.44100  Biso   1.000  H
  C47      1.0000 0.70639  0.72838  0.78700  Biso   1.000  C
  H35      1.0000 0.69487  0.57327  0.87098  Biso   1.000  H
  H36      1.0000 0.71270  0.65496  0.89639  Biso   1.000  H
  C48      1.0000 0.61417  0.55928  0.92571  Biso   1.000  C
  H37      1.0000 0.56648  0.44528  0.89487  Biso   1.000  H
  H38      1.0000 0.50790  0.45202  0.93467  Biso   1.000  H
  H39      1.0000 0.13860  0.67628  0.67728  Biso   1.000  H
  H40      1.0000 0.06821  0.61427  0.64180  Biso   1.000  H
  C49      1.0000 0.14772  0.71580  0.60306  Biso   1.000  C
  C50      1.0000 0.40380  0.77988  0.55562  Biso   1.000  C
  H41      1.0000 0.25409  0.80138  0.63288  Biso   1.000  H
  H42      1.0000 0.24859  0.80900  0.57260  Biso   1.000  H
  C51      1.0000 0.72839  0.70641  0.21300  Biso   1.000  C
  H43      1.0000 0.57327  0.69489  0.12898  Biso   1.000  H
  H44      1.0000 0.65495  0.71267  0.10361  Biso   1.000  H
  C52      1.0000 0.55928  0.61421  0.07425  Biso   1.000  C
  H45      1.0000 0.44529  0.56648  0.10509  Biso   1.000  H
  H46      1.0000 0.45200  0.50789  0.06529  Biso   1.000  H
  H47      1.0000 0.67632  0.13862  0.32269  Biso   1.000  H
  H48      1.0000 0.61431  0.06822  0.35820  Biso   1.000  H
  C53      1.0000 0.71580  0.14772  0.39694  Biso   1.000  C
  C54      1.0000 0.77992  0.40382  0.44434  Biso   1.000  C
  H49      1.0000 0.80137  0.25409  0.36709  Biso   1.000  H
  H50      1.0000 0.80901  0.24860  0.42740  Biso   1.000  H
  C55      1.0000 0.75848  0.77108  0.74492  Biso   1.000  C
  H51      1.0000 0.68806  0.75566  0.80778  Biso   1.000  H
  H52      1.0000 0.59258  0.59141  0.93988  Biso   1.000  H
  H53      1.0000 0.64298  0.54959  0.95317  Biso   1.000  H
  H54      1.0000 0.12872  0.69069  0.56941  Biso   1.000  H
  H55      1.0000 0.12117  0.74627  0.61108  Biso   1.000  H
  C56      1.0000 0.49139  0.83209  0.55122  Biso   1.000  C
  H56      1.0000 0.37606  0.74486  0.52850  Biso   1.000  H
  C57      1.0000 0.77112  0.75850  0.25504  Biso   1.000  C
  H57      1.0000 0.75571  0.68810  0.19218  Biso   1.000  H
  H58      1.0000 0.59138  0.59259  0.06009  Biso   1.000  H
  H59      1.0000 0.54957  0.64297  0.04679  Biso   1.000  H
  H60      1.0000 0.69069  0.12870  0.43059  Biso   1.000  H
  H61      1.0000 0.74628  0.12120  0.38889  Biso   1.000  H
  C58      1.0000 0.83210  0.49141  0.44874  Biso   1.000  C
  H62      1.0000 0.74489  0.37612  0.47150  Biso   1.000  H
  C59      1.0000 0.78277  0.73239  0.70994  Biso   1.000  C
  C60      1.0000 0.78178  0.84899  0.73626  Biso   1.000  C
  C61      1.0000 0.52780  0.82890  0.50613  Biso   1.000  C
  C62      1.0000 0.53612  0.88431  0.58889  Biso   1.000  C
  C63      1.0000 0.73236  0.78277  0.29006  Biso   1.000  C
  C64      1.0000 0.84899  0.78177  0.26370  Biso   1.000  C
  C65      1.0000 0.82891  0.52780  0.49387  Biso   1.000  C
  C66      1.0000 0.88425  0.53606  0.41107  Biso   1.000  C
  C67      1.0000 0.82900  0.76960  0.66911  Biso   1.000  C
  H63      1.0000 0.76609  0.67817  0.71529  Biso   1.000  H
  C68      1.0000 0.82951  0.88921  0.69456  Biso   1.000  C
  H64      1.0000 0.76530  0.87586  0.75890  Biso   1.000  H
  C69      1.0000 0.60886  0.87745  0.50006  Biso   1.000  C
  H65      1.0000 0.49721  0.79370  0.47978  Biso   1.000  H
  C70      1.0000 0.61610  0.93256  0.58354  Biso   1.000  C
  H66      1.0000 0.51110  0.88696  0.61920  Biso   1.000  H
  H67      1.0000 0.67817  0.76606  0.28471  Biso   1.000  H
  C71      1.0000 0.76957  0.82896  0.33089  Biso   1.000  C
  C72      1.0000 0.88917  0.82949  0.30544  Biso   1.000  C
  H68      1.0000 0.87589  0.76529  0.24110  Biso   1.000  H
  C73      1.0000 0.87749  0.60889  0.49991  Biso   1.000  C
  H69      1.0000 0.79366  0.49720  0.52019  Biso   1.000  H
  H70      1.0000 0.88700  0.51108  0.38080  Biso   1.000  H
  C74      1.0000 0.93260  0.61610  0.41642  Biso   1.000  C
  C75      1.0000 0.84630  0.72708  0.62904  Biso   1.000  C
  C76      1.0000 0.85449  0.85046  0.66224  Biso   1.000  C
  C77      1.0000 0.84939  0.97089  0.68282  Biso   1.000  C
  C78      1.0000 0.64918  0.86859  0.45342  Biso   1.000  C
  C79      1.0000 0.65400  0.92978  0.53838  Biso   1.000  C
  C80      1.0000 0.66051  0.98619  0.62551  Biso   1.000  C
  C81      1.0000 0.72707  0.84627  0.37092  Biso   1.000  C
  C82      1.0000 0.85046  0.85448  0.33776  Biso   1.000  C
  C83      1.0000 0.97089  0.84940  0.31714  Biso   1.000  C
  C84      1.0000 0.86858  0.64917  0.54658  Biso   1.000  C
  C85      1.0000 0.92977  0.65402  0.46162  Biso   1.000  C
  C86      1.0000 0.98622  0.66051  0.37445  Biso   1.000  C
  C87      1.0000 0.78489  0.65366  0.61244  Biso   1.000  C
  C88      1.0000 0.92040  0.75956  0.60462  Biso   1.000  C
  H71      1.0000 0.88936  0.87858  0.63508  Biso   1.000  H
  H72      1.0000 0.88967  0.99960  0.65848  Biso   1.000  H
  N9       1.0000 0.81581  0.00462  0.70341  Biso   1.000  N
  C89      1.0000 0.61517  0.79689  0.42751  Biso   1.000  C
  C90      1.0000 0.71967  0.93008  0.43549  Biso   1.000  C
  H73      1.0000 0.70937  0.96310  0.53428  Biso   1.000  H
  H74      1.0000 0.63226  0.98206  0.65578  Biso   1.000  H
  N10      1.0000 0.73380  0.03793  0.62463  Biso   1.000  N
  C91      1.0000 0.65368  0.78490  0.38752  Biso   1.000  C
  C92      1.0000 0.75958  0.92039  0.39538  Biso   1.000  C
  H75      1.0000 0.87861  0.88939  0.36488  Biso   1.000  H
  H76      1.0000 0.99957  0.88968  0.34149  Biso   1.000  H
  N11      1.0000 0.00462  0.81579  0.29659  Biso   1.000  N
  C93      1.0000 0.79691  0.61521  0.57249  Biso   1.000  C
  C94      1.0000 0.93008  0.71969  0.56447  Biso   1.000  C
  H77      1.0000 0.96307  0.70936  0.46568  Biso   1.000  H
  H78      1.0000 0.98207  0.63228  0.34418  Biso   1.000  H
  N12      1.0000 0.03790  0.73381  0.37537  Biso   1.000  N
  H79      1.0000 0.73479  0.63051  0.62877  Biso   1.000  H
  H80      1.0000 0.96327  0.80859  0.61571  Biso   1.000  H
  C95      1.0000 0.83928  0.08542  0.68764  Biso   1.000  C
  H81      1.0000 0.56460  0.75549  0.43750  Biso   1.000  H
  H82      1.0000 0.74138  0.98046  0.45118  Biso   1.000  H
  C96      1.0000 0.76607  0.08672  0.66896  Biso   1.000  C
  H83      1.0000 0.63045  0.73476  0.37119  Biso   1.000  H
  H84      1.0000 0.80859  0.96327  0.38429  Biso   1.000  H
  C97      1.0000 0.08543  0.83930  0.31236  Biso   1.000  C
  H85      1.0000 0.75549  0.56459  0.56250  Biso   1.000  H
  H86      1.0000 0.98046  0.74137  0.54879  Biso   1.000  H
  C98      1.0000 0.08666  0.76606  0.33104  Biso   1.000  C
  C99      1.0000 0.87610  0.13952  0.73269  Biso   1.000  C
  H87      1.0000 0.87878  0.10202  0.65950  Biso   1.000  H
  H88      1.0000 0.72539  0.06581  0.69649  Biso   1.000  H
  C100     1.0000 0.78738  0.17159  0.65688  Biso   1.000  C
  C101     1.0000 0.13948  0.87610  0.26731  Biso   1.000  C
  H89      1.0000 0.10199  0.87875  0.34050  Biso   1.000  H
  H90      1.0000 0.06580  0.72536  0.30351  Biso   1.000  H
  C102     1.0000 0.17159  0.78738  0.34308  Biso   1.000  C
  C103     1.0000 0.89550  0.22292  0.72137  Biso   1.000  C
  H91      1.0000 0.83921  0.11903  0.76178  Biso   1.000  H
  H92      1.0000 0.92509  0.13970  0.74249  Biso   1.000  H
  H93      1.0000 0.73930  0.17272  0.64647  Biso   1.000  H
  H94      1.0000 0.82536  0.19179  0.62828  Biso   1.000  H
  C104     1.0000 0.82437  0.22481  0.70409  Biso   1.000  C
  C105     1.0000 0.22288  0.89547  0.27859  Biso   1.000  C
  H95      1.0000 0.11898  0.83918  0.23818  Biso   1.000  H
  H96      1.0000 0.13967  0.92506  0.25751  Biso   1.000  H
  H97      1.0000 0.17272  0.73930  0.35349  Biso   1.000  H
  H98      1.0000 0.19176  0.82536  0.37168  Biso   1.000  H
  C106     1.0000 0.22476  0.82436  0.29591  Biso   1.000  C
  H99      1.0000 0.91669  0.25558  0.75240  Biso   1.000  H
  H100     1.0000 0.93667  0.24572  0.69479  Biso   1.000  H
  H101     1.0000 0.83898  0.27980  0.69558  Biso   1.000  H
  H102     1.0000 0.78509  0.20650  0.73189  Biso   1.000  H
  H103     1.0000 0.25557  0.91667  0.24760  Biso   1.000  H
  H104     1.0000 0.24569  0.93670  0.30518  Biso   1.000  H
  H105     1.0000 0.27981  0.83900  0.30438  Biso   1.000  H
  H106     1.0000 0.20650  0.78508  0.26811  Biso   1.000  H
  C107     1.0000 0.93379  0.45438  0.57332  Biso   1.000  C
  C108     1.0000 0.99086  0.49620  0.52980  Biso   1.000  C
  C109     1.0000 0.94508  0.38581  0.59239  Biso   1.000  C
  H107     1.0000 0.87878  0.43347  0.56155  Biso   1.000  H
  H108     1.0000 0.94409  0.49206  0.60135  Biso   1.000  H
  C110     1.0000 0.98016  0.43920  0.48631  Biso   1.000  C
  H109     1.0000 0.98238  0.53878  0.51654  Biso   1.000  H
  H110     1.0000 0.04581  0.52089  0.54267  Biso   1.000  H
  C111     1.0000 0.93360  0.32981  0.55004  Biso   1.000  C
  H111     1.0000 0.99877  0.40736  0.60656  Biso   1.000  H
  H112     1.0000 0.90657  0.35698  0.61985  Biso   1.000  H
  N13      1.0000 0.03769  0.48326  0.44662  Biso   1.000  N
  C112     1.0000 0.99029  0.37157  0.50553  Biso   1.000  C
  H113     1.0000 0.92569  0.41711  0.47195  Biso   1.000  H
  H114     1.0000 0.87836  0.30507  0.53766  Biso   1.000  H
  H115     1.0000 0.94226  0.28729  0.56307  Biso   1.000  H
  C113     1.0000 0.01290  0.47092  0.40153  Biso   1.000  C
  N14      1.0000 0.97297  0.31617  0.46428  Biso   1.000  N
  H116     1.0000 0.04602  0.39260  0.51707  Biso   1.000  H
  C114     1.0000 0.06342  0.51191  0.35770  Biso   1.000  C
  H117     1.0000 0.95900  0.43329  0.39557  Biso   1.000  H
  C115     1.0000 0.02200  0.29361  0.45368  Biso   1.000  C
  C116     1.0000 0.02797  0.49767  0.30962  Biso   1.000  C
  C117     1.0000 0.14400  0.56288  0.36226  Biso   1.000  C
  C118     1.0000 0.01262  0.24151  0.41160  Biso   1.000  C
  H118     1.0000 0.06762  0.31192  0.47446  Biso   1.000  H
  C119     1.0000 0.07368  0.53559  0.26632  Biso   1.000  C
  H119     1.0000 0.97289  0.46229  0.30616  Biso   1.000  H
  C120     1.0000 0.18950  0.60109  0.31999  Biso   1.000  C
  H120     1.0000 0.16841  0.57180  0.39466  Biso   1.000  H
  C121     1.0000 0.94956  0.21718  0.37662  Biso   1.000  C
  C122     1.0000 0.06720  0.21818  0.40294  Biso   1.000  C
  C123     1.0000 0.03322  0.51770  0.21585  Biso   1.000  C
  C124     1.0000 0.15328  0.58727  0.27213  Biso   1.000  C
  C125     1.0000 0.27661  0.65461  0.32591  Biso   1.000  C
  C126     1.0000 0.94058  0.17099  0.33579  Biso   1.000  C
  H121     1.0000 0.91209  0.23389  0.38197  Biso   1.000  H
  C127     1.0000 0.05973  0.17052  0.36124  Biso   1.000  C
  H122     1.0000 0.11061  0.23472  0.42558  Biso   1.000  H
  C128     1.0000 0.96636  0.50848  0.20726  Biso   1.000  C
  C129     1.0000 0.95438  0.45597  0.20897  Biso   1.000  C
  C130     1.0000 0.07069  0.55939  0.17308  Biso   1.000  C
  C131     1.0000 0.08218  0.52118  0.17118  Biso   1.000  C
  H123     1.0000 0.18418  0.61409  0.24327  Biso   1.000  H
  N15      1.0000 0.31978  0.69808  0.29120  Biso   1.000  N
  H124     1.0000 0.30017  0.65537  0.35767  Biso   1.000  H
  C132     1.0000 0.88078  0.15368  0.29572  Biso   1.000  C
  C133     1.0000 0.99596  0.14547  0.32891  Biso   1.000  C
  C134     1.0000 0.12150  0.15061  0.34950  Biso   1.000  C
  C135     1.0000 0.92926  0.48870  0.16028  Biso   1.000  C
  C136     1.0000 0.91774  0.43896  0.16218  Biso   1.000  C
  H125     1.0000 0.93898  0.51551  0.23465  Biso   1.000  H
  H126     1.0000 0.92570  0.42520  0.23746  Biso   1.000  H
  C137     1.0000 0.03360  0.54209  0.12606  Biso   1.000  C
  C138     1.0000 0.04557  0.50157  0.12435  Biso   1.000  C
  H127     1.0000 0.12361  0.60139  0.17555  Biso   1.000  H
  H128     1.0000 0.13626  0.53636  0.17486  Biso   1.000  H
  C139     1.0000 0.40476  0.74066  0.30070  Biso   1.000  C
  C140     1.0000 0.86878  0.21511  0.27912  Biso   1.000  C
  C141     1.0000 0.83920  0.07962  0.27130  Biso   1.000  C
  H129     1.0000 0.98918  0.11063  0.30176  Biso   1.000  H
  N16      1.0000 0.18879  0.18422  0.37009  Biso   1.000  N
  H130     1.0000 0.10987  0.11027  0.32515  Biso   1.000  H
  C142     1.0000 0.96680  0.48450  0.11748  Biso   1.000  C
  H131     1.0000 0.87638  0.47777  0.15777  Biso   1.000  H
  H132     1.0000 0.86368  0.40010  0.15846  Biso   1.000  H
  H133     1.0000 0.06097  0.57646  0.09867  Biso   1.000  H
  H134     1.0000 0.07430  0.49950  0.09586  Biso   1.000  H
  H135     1.0000 0.41541  0.72371  0.33427  Biso   1.000  H
  C143     1.0000 0.43791  0.83050  0.30157  Biso   1.000  C
  C144     1.0000 0.44532  0.72040  0.25941  Biso   1.000  C
  C145     1.0000 0.81829  0.20312  0.23917  Biso   1.000  C
  H136     1.0000 0.89567  0.26520  0.29545  Biso   1.000  H
  C146     1.0000 0.78957  0.06987  0.23115  Biso   1.000  C
  H137     1.0000 0.84530  0.03668  0.28235  Biso   1.000  H
  C147     1.0000 0.24609  0.16071  0.35429  Biso   1.000  C
  C148     1.0000 0.92629  0.46188  0.06700  Biso   1.000  C
  H138     1.0000 0.42579  0.84739  0.26898  Biso   1.000  H
  H139     1.0000 0.41208  0.84391  0.32914  Biso   1.000  H
  C149     1.0000 0.52600  0.87421  0.30981  Biso   1.000  C
  N17      1.0000 0.41482  0.63435  0.26040  Biso   1.000  N
  C150     1.0000 0.53509  0.76399  0.26746  Biso   1.000  C
  H140     1.0000 0.43326  0.73546  0.22564  Biso   1.000  H
  C151     1.0000 0.78059  0.13142  0.21326  Biso   1.000  C
  H141     1.0000 0.80909  0.24447  0.22918  Biso   1.000  H
  H142     1.0000 0.76090  0.01949  0.21547  Biso   1.000  H
  C152     1.0000 0.32058  0.23389  0.33564  Biso   1.000  C
  C153     1.0000 0.26339  0.12392  0.39937  Biso   1.000  C
  H143     1.0000 0.22321  0.12120  0.32618  Biso   1.000  H
  C154     1.0000 0.84667  0.43400  0.06119  Biso   1.000  C
  C155     1.0000 0.97197  0.46968  0.02370  Biso   1.000  C
  H144     1.0000 0.53770  0.86139  0.34396  Biso   1.000  H
  H145     1.0000 0.54610  0.93179  0.30844  Biso   1.000  H
  C156     1.0000 0.56809  0.85229  0.26974  Biso   1.000  C
  C157     1.0000 0.37610  0.59619  0.22230  Biso   1.000  C
  H146     1.0000 0.54725  0.74586  0.29956  Biso   1.000  H
  H147     1.0000 0.56041  0.75141  0.23928  Biso   1.000  H
  C158     1.0000 0.73138  0.12250  0.16658  Biso   1.000  C
  N18      1.0000 0.30410  0.26620  0.29131  Biso   1.000  N
  H148     1.0000 0.34041  0.27459  0.36317  Biso   1.000  H
  C159     1.0000 0.38419  0.21257  0.32356  Biso   1.000  C
  C160     1.0000 0.32738  0.10448  0.38805  Biso   1.000  C
  H149     1.0000 0.27977  0.16077  0.42846  Biso   1.000  H
  H150     1.0000 0.21458  0.07489  0.40917  Biso   1.000  H
  C161     1.0000 0.81051  0.41162  0.01337  Biso   1.000  C
  H151     1.0000 0.81575  0.42987  0.09005  Biso   1.000  H
  C162     1.0000 0.93656  0.44847  0.97562  Biso   1.000  C
  H152     1.0000 0.02711  0.48940  0.02716  Biso   1.000  H
  H153     1.0000 0.56200  0.87131  0.23605  Biso   1.000  H
  H154     1.0000 0.62505  0.87875  0.27775  Biso   1.000  H
  C163     1.0000 0.34069  0.50860  0.21790  Biso   1.000  C
  H155     1.0000 0.36877  0.62389  0.19515  Biso   1.000  H
  C164     1.0000 0.69890  0.17111  0.16051  Biso   1.000  C
  C165     1.0000 0.72422  0.07023  0.12830  Biso   1.000  C
  C166     1.0000 0.32571  0.33950  0.29219  Biso   1.000  C
  H156     1.0000 0.43342  0.26071  0.31315  Biso   1.000  H
  H157     1.0000 0.36638  0.17459  0.29496  Biso   1.000  H
  C167     1.0000 0.40038  0.17560  0.37077  Biso   1.000  C
  H158     1.0000 0.33888  0.08328  0.41904  Biso   1.000  H
  H159     1.0000 0.30900  0.06332  0.36146  Biso   1.000  H
  C168     1.0000 0.72338  0.37801  0.00741  Biso   1.000  C
  C169     1.0000 0.85599  0.41888  0.97106  Biso   1.000  C
  C170     1.0000 0.98710  0.45798  0.93175  Biso   1.000  C
  C171     1.0000 0.34821  0.46389  0.25557  Biso   1.000  C
  C172     1.0000 0.30112  0.47222  0.17281  Biso   1.000  C
  C173     1.0000 0.65930  0.16792  0.11542  Biso   1.000  C
  H160     1.0000 0.70351  0.20631  0.18687  Biso   1.000  H
  C174     1.0000 0.68347  0.06739  0.08310  Biso   1.000  C
  H161     1.0000 0.74628  0.03691  0.13236  Biso   1.000  H
  C175     1.0000 0.31651  0.38392  0.25022  Biso   1.000  C
  H162     1.0000 0.34977  0.36767  0.32246  Biso   1.000  H
  H163     1.0000 0.44081  0.16101  0.36226  Biso   1.000  H
  H164     1.0000 0.42140  0.21487  0.39857  Biso   1.000  H
  N19      1.0000 0.68020  0.37830  0.04212  Biso   1.000  N
  H165     1.0000 0.69980  0.35521  0.97565  Biso   1.000  H
  H166     1.0000 0.83158  0.40341  0.93866  Biso   1.000  H
  N20      1.0000 0.96228  0.44558  0.88670  Biso   1.000  N
  H167     1.0000 0.04098  0.47428  0.93775  Biso   1.000  H
  H168     1.0000 0.37589  0.48887  0.28584  Biso   1.000  H
  C176     1.0000 0.26857  0.39106  0.16674  Biso   1.000  C
  H169     1.0000 0.29652  0.50281  0.14645  Biso   1.000  H
  C177     1.0000 0.62390  0.22007  0.11102  Biso   1.000  C
  C178     1.0000 0.65177  0.11571  0.07775  Biso   1.000  C
  C179     1.0000 0.67428  0.01382  0.04113  Biso   1.000  C
  C180     1.0000 0.27581  0.34600  0.20506  Biso   1.000  C
  C181     1.0000 0.59521  0.33590  0.03263  Biso   1.000  C
  C182     1.0000 0.01977  0.45899  0.84697  Biso   1.000  C
  C183     1.0000 0.21938  0.35078  0.12006  Biso   1.000  C
  N21      1.0000 0.58517  0.21954  0.07296  Biso   1.000  N
  H170     1.0000 0.63118  0.25510  0.13817  Biso   1.000  H
  H171     1.0000 0.62407  0.11299  0.04748  Biso   1.000  H
  H172     1.0000 0.65018  0.01790  0.01086  Biso   1.000  H
  N22      1.0000 0.69587  0.96208  0.04204  Biso   1.000  N
  H173     1.0000 0.25369  0.29059  0.20096  Biso   1.000  H
  C184     1.0000 0.56208  0.39260  0.03175  Biso   1.000  C
  C185     1.0000 0.55470  0.27512  0.07395  Biso   1.000  C
  H174     1.0000 0.58459  0.30831  0.99905  Biso   1.000  H
  C186     1.0000 0.00969  0.38132  0.82779  Biso   1.000  C
  C187     1.0000 0.00912  0.50529  0.80352  Biso   1.000  C
  H175     1.0000 0.07430  0.49141  0.86137  Biso   1.000  H
  C188     1.0000 0.18171  0.38480  0.09419  Biso   1.000  C
  C189     1.0000 0.21039  0.28032  0.10217  Biso   1.000  C
  C190     1.0000 0.67941  0.91329  0.99768  Biso   1.000  C
  C191     1.0000 0.47399  0.34818  0.02351  Biso   1.000  C
  H176     1.0000 0.57418  0.42160  0.06438  Biso   1.000  H
  H177     1.0000 0.58788  0.43182  0.00418  Biso   1.000  H
  C192     1.0000 0.46487  0.22887  0.06586  Biso   1.000  C
  H178     1.0000 0.56669  0.30217  0.10768  Biso   1.000  H
  H179     1.0000 0.95396  0.34659  0.81625  Biso   1.000  H
  N23      1.0000 0.02701  0.34322  0.86904  Biso   1.000  N
  C193     1.0000 0.06639  0.39620  0.78328  Biso   1.000  C
  H180     1.0000 0.95418  0.47511  0.79065  Biso   1.000  H
  C194     1.0000 0.06618  0.52059  0.76000  Biso   1.000  C
  H181     1.0000 0.01758  0.55638  0.81674  Biso   1.000  H
  C195     1.0000 0.13120  0.34629  0.05420  Biso   1.000  C
  H182     1.0000 0.19091  0.43542  0.10418  Biso   1.000  H
  C196     1.0000 0.16081  0.24039  0.06206  Biso   1.000  C
  H183     1.0000 0.23911  0.25858  0.11785  Biso   1.000  H
  H184     1.0000 0.65955  0.93414  0.97015  Biso   1.000  H
  C197     1.0000 0.75387  0.91459  0.97900  Biso   1.000  C
  C198     1.0000 0.61577  0.82836  0.00976  Biso   1.000  C
  C199     1.0000 0.43188  0.28422  0.06362  Biso   1.000  C
  H185     1.0000 0.45387  0.38569  0.02488  Biso   1.000  H
  H186     1.0000 0.46230  0.32367  0.98937  Biso   1.000  H
  H187     1.0000 0.45269  0.19857  0.03377  Biso   1.000  H
  H188     1.0000 0.43960  0.19101  0.09408  Biso   1.000  H
  C200     1.0000 0.97799  0.27158  0.87964  Biso   1.000  C
  H189     1.0000 0.12157  0.42668  0.79566  Biso   1.000  H
  H190     1.0000 0.05771  0.34499  0.77025  Biso   1.000  H
  C201     1.0000 0.05492  0.44068  0.74093  Biso   1.000  C
  H191     1.0000 0.12117  0.55467  0.77177  Biso   1.000  H
  H192     1.0000 0.05589  0.54800  0.73197  Biso   1.000  H
  C202     1.0000 0.11920  0.27288  0.03760  Biso   1.000  C
  H193     1.0000 0.10429  0.36950  0.03787  Biso   1.000  H
  H194     1.0000 0.15466  0.19137  0.05097  Biso   1.000  H
  N24      1.0000 0.81120  0.99539  0.96323  Biso   1.000  N
  C203     1.0000 0.73659  0.86049  0.93395  Biso   1.000  C
  H195     1.0000 0.77677  0.89800  0.00718  Biso   1.000  H
  C204     1.0000 0.59959  0.77514  0.96255  Biso   1.000  C
  H196     1.0000 0.56659  0.82730  0.02017  Biso   1.000  H
  H197     1.0000 0.63359  0.80816  0.03836  Biso   1.000  H
  H198     1.0000 0.43798  0.30932  0.09727  Biso   1.000  H
  H199     1.0000 0.37487  0.25368  0.05557  Biso   1.000  H
  C205     1.0000 0.98738  0.22887  0.92172  Biso   1.000  C
  H200     1.0000 0.93237  0.24429  0.85886  Biso   1.000  H
  H201     1.0000 0.00118  0.40860  0.72677  Biso   1.000  H
  H202     1.0000 0.09337  0.45036  0.71347  Biso   1.000  H
  C206     1.0000 0.05940  0.23041  0.99753  Biso   1.000  C
  C207     1.0000 0.87850  0.02912  0.98382  Biso   1.000  C
  C208     1.0000 0.67259  0.77709  0.94527  Biso   1.000  C
  H203     1.0000 0.72019  0.88099  0.90486  Biso   1.000  H
  H204     1.0000 0.78537  0.86025  0.92415  Biso   1.000  H
  H205     1.0000 0.55916  0.72015  0.97106  Biso   1.000  H
  H206     1.0000 0.57857  0.79345  0.93475  Biso   1.000  H
  C209     1.0000 0.93277  0.15097  0.93038  Biso   1.000  C
  C210     1.0000 0.05043  0.26762  0.95670  Biso   1.000  C
  C211     1.0000 0.00400  0.14949  0.00444  Biso   1.000  C
  H207     1.0000 0.89008  0.00041  0.00817  Biso   1.000  H
  C212     1.0000 0.94026  0.11080  0.97208  Biso   1.000  C
  H208     1.0000 0.66109  0.74437  0.91424  Biso   1.000  H
  H209     1.0000 0.69101  0.75429  0.97186  Biso   1.000  H
  H210     1.0000 0.88936  0.12409  0.90774  Biso   1.000  H
  H211     1.0000 0.08790  0.32178  0.95135  Biso   1.000  H
  H212     1.0000 0.01076  0.12138  0.03156  Biso   1.000  H
  C213     1.0000 0.45442  0.93380  0.42664  Biso   1.000  C
  C214     1.0000 0.38579  0.94508  0.40761  Biso   1.000  C
  H213     1.0000 0.43349  0.87875  0.43841  Biso   1.000  H
  H214     1.0000 0.49209  0.94408  0.39861  Biso   1.000  H
  C215     1.0000 0.49620  0.99086  0.47020  Biso   1.000  C
  C216     1.0000 0.32980  0.93357  0.44996  Biso   1.000  C
  H215     1.0000 0.40737  0.99877  0.39344  Biso   1.000  H
  H216     1.0000 0.35697  0.90657  0.38011  Biso   1.000  H
  H217     1.0000 0.53880  0.98235  0.48342  Biso   1.000  H
  C217     1.0000 0.43919  0.98017  0.51365  Biso   1.000  C
  H218     1.0000 0.52090  0.04579  0.45733  Biso   1.000  H
  C218     1.0000 0.37160  0.99027  0.49447  Biso   1.000  C
  H219     1.0000 0.30508  0.87840  0.46234  Biso   1.000  H
  H220     1.0000 0.28732  0.94231  0.43693  Biso   1.000  H
  H221     1.0000 0.41713  0.92571  0.52801  Biso   1.000  H
  N25      1.0000 0.48330  0.03769  0.55338  Biso   1.000  N
  N26      1.0000 0.31620  0.97296  0.53568  Biso   1.000  N
  H222     1.0000 0.39263  0.04602  0.48293  Biso   1.000  H
  C219     1.0000 0.47089  0.01289  0.59843  Biso   1.000  C
  C220     1.0000 0.29360  0.02198  0.54632  Biso   1.000  C
  H223     1.0000 0.43329  0.95896  0.60443  Biso   1.000  H
  C221     1.0000 0.51190  0.06339  0.64226  Biso   1.000  C
  C222     1.0000 0.24149  0.01259  0.58840  Biso   1.000  C
  H224     1.0000 0.31190  0.06758  0.52554  Biso   1.000  H
  C223     1.0000 0.49769  0.02801  0.69038  Biso   1.000  C
  C224     1.0000 0.56290  0.14401  0.63774  Biso   1.000  C
  C225     1.0000 0.21719  0.94957  0.62338  Biso   1.000  C
  C226     1.0000 0.21822  0.06723  0.59702  Biso   1.000  C
  H225     1.0000 0.46231  0.97290  0.69384  Biso   1.000  H
  C227     1.0000 0.53558  0.07372  0.73368  Biso   1.000  C
  H226     1.0000 0.57177  0.16840  0.60534  Biso   1.000  H
  C228     1.0000 0.60109  0.18949  0.68001  Biso   1.000  C
  H227     1.0000 0.23388  0.91207  0.61803  Biso   1.000  H
  C229     1.0000 0.17101  0.94059  0.66421  Biso   1.000  C
  C230     1.0000 0.17053  0.05973  0.63876  Biso   1.000  C
  H228     1.0000 0.23471  0.11064  0.57442  Biso   1.000  H
  C231     1.0000 0.51768  0.03321  0.78412  Biso   1.000  C
  C232     1.0000 0.58728  0.15328  0.72783  Biso   1.000  C
  C233     1.0000 0.65457  0.27661  0.67409  Biso   1.000  C
  C234     1.0000 0.15368  0.88076  0.70428  Biso   1.000  C
  C235     1.0000 0.14552  0.99600  0.67109  Biso   1.000  C
  C236     1.0000 0.15063  0.12151  0.65046  Biso   1.000  C
  C237     1.0000 0.50852  0.96640  0.79274  Biso   1.000  C
  C238     1.0000 0.45600  0.95436  0.79103  Biso   1.000  C
  C239     1.0000 0.55940  0.07071  0.82692  Biso   1.000  C
  C240     1.0000 0.52122  0.08223  0.82882  Biso   1.000  C
  H229     1.0000 0.61411  0.18423  0.75673  Biso   1.000  H
  N27      1.0000 0.69810  0.31978  0.70876  Biso   1.000  N
  H230     1.0000 0.65539  0.30023  0.64233  Biso   1.000  H
  C241     1.0000 0.21510  0.86877  0.72084  Biso   1.000  C
  C242     1.0000 0.07959  0.83918  0.72870  Biso   1.000  C
  H231     1.0000 0.11061  0.98920  0.69824  Biso   1.000  H
  N28      1.0000 0.18421  0.18878  0.62991  Biso   1.000  N
  H232     1.0000 0.11031  0.10993  0.67481  Biso   1.000  H
  H233     1.0000 0.51548  0.93900  0.76532  Biso   1.000  H
  C243     1.0000 0.48867  0.92925  0.83972  Biso   1.000  C
  C244     1.0000 0.43900  0.91779  0.83782  Biso   1.000  C
  H234     1.0000 0.42521  0.92571  0.76251  Biso   1.000  H
  C245     1.0000 0.54208  0.03362  0.87390  Biso   1.000  C
  H235     1.0000 0.60141  0.12363  0.82441  Biso   1.000  H
  C246     1.0000 0.50158  0.04561  0.87561  Biso   1.000  C
  H236     1.0000 0.53640  0.13633  0.82514  Biso   1.000  H
  C247     1.0000 0.74070  0.40478  0.69927  Biso   1.000  C
  H237     1.0000 0.26519  0.89571  0.70451  Biso   1.000  H
  C248     1.0000 0.20310  0.81827  0.76083  Biso   1.000  C
  C249     1.0000 0.06987  0.78957  0.76881  Biso   1.000  C
  H238     1.0000 0.03670  0.84526  0.71761  Biso   1.000  H
  C250     1.0000 0.16071  0.24613  0.64568  Biso   1.000  C
  C251     1.0000 0.48450  0.96676  0.88252  Biso   1.000  C
  H239     1.0000 0.47779  0.87639  0.84223  Biso   1.000  H
  H240     1.0000 0.40008  0.86369  0.84151  Biso   1.000  H
  H241     1.0000 0.57650  0.06103  0.90133  Biso   1.000  H
  H242     1.0000 0.49951  0.07431  0.90414  Biso   1.000  H
  H243     1.0000 0.72371  0.41541  0.66573  Biso   1.000  H
  C252     1.0000 0.83052  0.43791  0.69843  Biso   1.000  C
  C253     1.0000 0.72040  0.44530  0.74059  Biso   1.000  C
  H244     1.0000 0.24448  0.80906  0.77082  Biso   1.000  H
  C254     1.0000 0.13142  0.78059  0.78674  Biso   1.000  C
  H245     1.0000 0.01951  0.76086  0.78453  Biso   1.000  H
  C255     1.0000 0.23391  0.32061  0.66436  Biso   1.000  C
  C256     1.0000 0.12391  0.26338  0.60063  Biso   1.000  C
  H246     1.0000 0.12122  0.22321  0.67382  Biso   1.000  H
  C257     1.0000 0.46192  0.92630  0.93296  Biso   1.000  C
  H247     1.0000 0.84738  0.42580  0.73102  Biso   1.000  H
  H248     1.0000 0.84390  0.41210  0.67082  Biso   1.000  H
  C258     1.0000 0.87419  0.52598  0.69019  Biso   1.000  C
  N29      1.0000 0.63437  0.41482  0.73960  Biso   1.000  N
  C259     1.0000 0.76396  0.53507  0.73250  Biso   1.000  C
  H249     1.0000 0.73548  0.43331  0.77432  Biso   1.000  H
  C260     1.0000 0.12252  0.73139  0.83338  Biso   1.000  C
  N30      1.0000 0.26623  0.30413  0.70869  Biso   1.000  N
  H250     1.0000 0.27460  0.34040  0.63683  Biso   1.000  H
  C261     1.0000 0.21262  0.38422  0.67644  Biso   1.000  C
  C262     1.0000 0.10452  0.32740  0.61191  Biso   1.000  C
  H251     1.0000 0.16082  0.27980  0.57154  Biso   1.000  H
  H252     1.0000 0.07492  0.21459  0.59083  Biso   1.000  H
  C263     1.0000 0.46966  0.97196  0.97626  Biso   1.000  C
  C264     1.0000 0.43398  0.84668  0.93881  Biso   1.000  C
  H253     1.0000 0.86140  0.53773  0.65601  Biso   1.000  H
  H254     1.0000 0.93178  0.54612  0.69152  Biso   1.000  H
  C265     1.0000 0.85228  0.56809  0.73026  Biso   1.000  C
  C266     1.0000 0.59620  0.37613  0.77766  Biso   1.000  C
  H255     1.0000 0.74587  0.54730  0.70041  Biso   1.000  H
  H256     1.0000 0.75141  0.56041  0.76072  Biso   1.000  H
  C267     1.0000 0.17109  0.69890  0.83945  Biso   1.000  C
  C268     1.0000 0.07017  0.72418  0.87170  Biso   1.000  C
  C269     1.0000 0.33947  0.32569  0.70777  Biso   1.000  C
  H257     1.0000 0.26070  0.43342  0.68681  Biso   1.000  H
  H258     1.0000 0.17460  0.36639  0.70504  Biso   1.000  H
  C270     1.0000 0.17560  0.40041  0.62923  Biso   1.000  C
  H259     1.0000 0.08332  0.33892  0.58092  Biso   1.000  H
  H260     1.0000 0.06332  0.30903  0.63854  Biso   1.000  H
  C271     1.0000 0.44849  0.93658  0.02438  Biso   1.000  C
  H261     1.0000 0.48942  0.02712  0.97281  Biso   1.000  H
  C272     1.0000 0.41158  0.81048  0.98663  Biso   1.000  C
  H262     1.0000 0.42989  0.81579  0.90991  Biso   1.000  H
  H263     1.0000 0.87128  0.56201  0.76391  Biso   1.000  H
  H264     1.0000 0.87878  0.62509  0.72221  Biso   1.000  H
  C273     1.0000 0.50861  0.34069  0.78207  Biso   1.000  C
  H265     1.0000 0.62389  0.36881  0.80482  Biso   1.000  H
  H266     1.0000 0.20633  0.70351  0.81313  Biso   1.000  H
  C274     1.0000 0.16790  0.65927  0.88458  Biso   1.000  C
  C275     1.0000 0.06742  0.68349  0.91690  Biso   1.000  C
  H267     1.0000 0.03687  0.74627  0.86764  Biso   1.000  H
  C276     1.0000 0.38386  0.31648  0.74974  Biso   1.000  C
  H268     1.0000 0.36768  0.34979  0.67754  Biso   1.000  H
  H269     1.0000 0.16102  0.44081  0.63774  Biso   1.000  H
  H270     1.0000 0.21488  0.42137  0.60143  Biso   1.000  H
  C277     1.0000 0.41887  0.85595  0.02894  Biso   1.000  C
  C278     1.0000 0.45799  0.98708  0.06821  Biso   1.000  C
  C279     1.0000 0.37800  0.72336  0.99256  Biso   1.000  C
  C280     1.0000 0.47220  0.30112  0.82719  Biso   1.000  C
  C281     1.0000 0.46387  0.34819  0.74439  Biso   1.000  C
  C282     1.0000 0.11571  0.65177  0.92225  Biso   1.000  C
  C283     1.0000 0.22008  0.62389  0.88898  Biso   1.000  C
  C284     1.0000 0.01381  0.67427  0.95887  Biso   1.000  C
  C285     1.0000 0.34597  0.27578  0.79494  Biso   1.000  C
  H271     1.0000 0.40340  0.83156  0.06134  Biso   1.000  H
  N31      1.0000 0.44559  0.96227  0.11330  Biso   1.000  N
  H272     1.0000 0.47431  0.04100  0.06225  Biso   1.000  H
  N32      1.0000 0.37830  0.68018  0.95788  Biso   1.000  N
  H273     1.0000 0.35521  0.69979  0.02435  Biso   1.000  H
  C286     1.0000 0.39109  0.26863  0.83326  Biso   1.000  C
  H274     1.0000 0.50278  0.29651  0.85351  Biso   1.000  H
  H275     1.0000 0.48887  0.37590  0.71412  Biso   1.000  H
  H276     1.0000 0.11301  0.62407  0.95252  Biso   1.000  H
  N33      1.0000 0.21953  0.58515  0.92704  Biso   1.000  N
  H277     1.0000 0.25510  0.63122  0.86183  Biso   1.000  H
  H278     1.0000 0.01788  0.65018  0.98910  Biso   1.000  H
  N34      1.0000 0.96206  0.69589  0.95796  Biso   1.000  N
  H279     1.0000 0.29058  0.25369  0.79900  Biso   1.000  H
  C287     1.0000 0.45900  0.01980  0.15299  Biso   1.000  C
  C288     1.0000 0.33591  0.59519  0.96737  Biso   1.000  C
  C289     1.0000 0.35079  0.21943  0.87990  Biso   1.000  C
  C290     1.0000 0.27508  0.55467  0.92605  Biso   1.000  C
  C291     1.0000 0.91331  0.67941  0.00232  Biso   1.000  C
  C292     1.0000 0.38127  0.00970  0.17221  Biso   1.000  C
  C293     1.0000 0.50527  0.00911  0.19648  Biso   1.000  C
  H280     1.0000 0.49138  0.07431  0.13863  Biso   1.000  H
  C294     1.0000 0.39262  0.56211  0.96821  Biso   1.000  C
  H281     1.0000 0.30832  0.58462  0.00095  Biso   1.000  H
  C295     1.0000 0.38481  0.18169  0.90581  Biso   1.000  C
  C296     1.0000 0.28029  0.21040  0.89783  Biso   1.000  C
  C297     1.0000 0.22892  0.46489  0.93414  Biso   1.000  C
  H282     1.0000 0.30220  0.56666  0.89232  Biso   1.000  H
  C298     1.0000 0.82841  0.61580  0.99020  Biso   1.000  C
  H283     1.0000 0.93418  0.65957  0.02982  Biso   1.000  H
  C299     1.0000 0.91459  0.75389  0.02097  Biso   1.000  C
  H284     1.0000 0.34662  0.95400  0.18371  Biso   1.000  H
  N35      1.0000 0.34322  0.02700  0.13096  Biso   1.000  N
  C300     1.0000 0.39622  0.06640  0.21672  Biso   1.000  C
  H285     1.0000 0.47509  0.95418  0.20931  Biso   1.000  H
  C301     1.0000 0.52058  0.06622  0.24000  Biso   1.000  C
  H286     1.0000 0.55638  0.01761  0.18322  Biso   1.000  H
  H287     1.0000 0.42156  0.57416  0.93562  Biso   1.000  H
  H288     1.0000 0.43178  0.58786  0.99582  Biso   1.000  H
  C302     1.0000 0.34820  0.47399  0.97645  Biso   1.000  C
  C303     1.0000 0.34631  0.13119  0.94580  Biso   1.000  C
  H289     1.0000 0.43540  0.19091  0.89582  Biso   1.000  H
  H290     1.0000 0.25858  0.23910  0.88211  Biso   1.000  H
  C304     1.0000 0.24039  0.16078  0.93794  Biso   1.000  C
  C305     1.0000 0.28417  0.43188  0.93638  Biso   1.000  C
  H291     1.0000 0.19856  0.45267  0.96623  Biso   1.000  H
  H292     1.0000 0.19101  0.43961  0.90592  Biso   1.000  H
  H293     1.0000 0.82729  0.56660  0.97983  Biso   1.000  H
  H294     1.0000 0.80820  0.63358  0.96160  Biso   1.000  H
  C306     1.0000 0.77518  0.59956  0.03745  Biso   1.000  C
  H295     1.0000 0.89797  0.77681  0.99282  Biso   1.000  H
  N36      1.0000 0.99536  0.81118  0.03673  Biso   1.000  N
  C307     1.0000 0.86047  0.73659  0.06605  Biso   1.000  C
  C308     1.0000 0.27160  0.97798  0.12032  Biso   1.000  C
  H296     1.0000 0.42669  0.12162  0.20434  Biso   1.000  H
  H297     1.0000 0.34502  0.05772  0.22975  Biso   1.000  H
  C309     1.0000 0.44069  0.05488  0.25907  Biso   1.000  C
  H298     1.0000 0.55467  0.12121  0.22823  Biso   1.000  H
  H299     1.0000 0.54799  0.05589  0.26803  Biso   1.000  H
  H300     1.0000 0.38567  0.45391  0.97512  Biso   1.000  H
  H301     1.0000 0.32368  0.46229  0.01063  Biso   1.000  H
  C310     1.0000 0.27290  0.11920  0.96236  Biso   1.000  C
  H302     1.0000 0.36950  0.10432  0.96213  Biso   1.000  H
  H303     1.0000 0.19142  0.15470  0.94903  Biso   1.000  H
  H304     1.0000 0.30929  0.43802  0.90273  Biso   1.000  H
  H305     1.0000 0.25368  0.37488  0.94443  Biso   1.000  H
  H306     1.0000 0.72022  0.55922  0.02894  Biso   1.000  H
  H307     1.0000 0.79349  0.57859  0.06525  Biso   1.000  H
  C311     1.0000 0.77705  0.67256  0.05473  Biso   1.000  C
  C312     1.0000 0.02910  0.87846  0.01618  Biso   1.000  C
  H308     1.0000 0.88095  0.72017  0.09514  Biso   1.000  H
  H309     1.0000 0.86026  0.78537  0.07585  Biso   1.000  H
  C313     1.0000 0.22888  0.98737  0.07828  Biso   1.000  C
  H310     1.0000 0.24430  0.93238  0.14114  Biso   1.000  H
  H311     1.0000 0.40858  0.00119  0.27323  Biso   1.000  H
  H312     1.0000 0.45038  0.09339  0.28653  Biso   1.000  H
  C314     1.0000 0.23043  0.05943  0.00247  Biso   1.000  C
  H313     1.0000 0.74441  0.66110  0.08572  Biso   1.000  H
  H314     1.0000 0.75429  0.69099  0.02814  Biso   1.000  H
  H315     1.0000 0.00039  0.89009  0.99183  Biso   1.000  H
  C315     1.0000 0.11081  0.94030  0.02792  Biso   1.000  C
  C316     1.0000 0.15100  0.93280  0.06962  Biso   1.000  C
  C317     1.0000 0.26760  0.05039  0.04330  Biso   1.000  C
  C318     1.0000 0.14953  0.00403  0.99556  Biso   1.000  C
  H316     1.0000 0.12408  0.88939  0.09222  Biso   1.000  H
  H317     1.0000 0.32180  0.08790  0.04862  Biso   1.000  H
  H318     1.0000 0.12142  0.01082  0.96840  Biso   1.000  H
  Ne1      1.0000 0.66948  0.66948  0.49999  Biso   1.000  Ne
  He1      1.0000 0.60635  0.76805  0.65607  Biso   1.000  He
  He2      1.0000 0.63416  0.59471  0.60453  Biso   1.000  He
  He3      1.0000 0.65072  0.73150  0.57171  Biso   1.000  He
  He4      1.0000 0.58318  0.63348  0.38936  Biso   1.000  He
  He5      1.0000 0.77414  0.60020  0.33425  Biso   1.000  He
  Ar1      1.0000 0.69259  0.69564  0.50315  Biso   1.000  Ar
  Ne2      1.0000 0.99999  0.33050  0.16666  Biso   1.000  Ne
  He6      1.0000 0.18015  0.40287  0.33729  Biso   1.000  He
  He7      1.0000 0.83261  0.29197  0.16423  Biso   1.000  He
  He8      1.0000 0.08909  0.34867  0.24880  Biso   1.000  He
  He9      1.0000 0.05278  0.41941  0.05470  Biso   1.000  He
  He10     1.0000 0.80337  0.21452  0.98304  Biso   1.000  He
  Ar2      1.0000 0.00426  0.30768  0.17110  Biso   1.000  Ar
  Ne3      1.0000 0.33050  0.99999  0.83332  Biso   1.000  Ne
  He11     1.0000 0.21370  0.80172  0.01827  Biso   1.000  He
  He12     1.0000 0.45163  0.16234  0.82871  Biso   1.000  He
  He13     1.0000 0.26325  0.91441  0.91004  Biso   1.000  He
  He14     1.0000 0.36655  0.94833  0.72196  Biso   1.000  He
  He15     1.0000 0.40143  0.17723  0.66498  Biso   1.000  He
  Ar3      1.0000 0.30750  0.00340  0.82978  Biso   1.000  Ar
