data_image0
_cell_length_a       22.593
_cell_length_b       22.593
_cell_length_c       31.714
_cell_angle_alpha    90
_cell_angle_beta     90
_cell_angle_gamma    120

_symmetry_space_group_name_H-M    "P 1"
_symmetry_int_tables_number       1

loop_
  _symmetry_equiv_pos_as_xyz
  'x, y, z'

loop_
  _atom_site_label
  _atom_site_occupancy
  _atom_site_fract_x
  _atom_site_fract_y
  _atom_site_fract_z
  _atom_site_thermal_displace_type
  _atom_site_B_iso_or_equiv
  _atom_site_type_symbol
  C1       1.0000 0.58205  0.41848  0.46724  Biso   1.000  C
  C2       1.0000 0.54964  0.36798  0.49729  Biso   1.000  C
  C3       1.0000 0.56585  0.40519  0.42467  Biso   1.000  C
  H1       1.0000 0.61593  0.46294  0.47575  Biso   1.000  H
  C4       1.0000 0.50062  0.30226  0.48430  Biso   1.000  C
  C5       1.0000 0.57014  0.38367  0.54257  Biso   1.000  C
  C6       1.0000 0.51933  0.33916  0.41206  Biso   1.000  C
  C7       1.0000 0.60022  0.45906  0.39355  Biso   1.000  C
  C8       1.0000 0.48511  0.28815  0.44154  Biso   1.000  C
  H2       1.0000 0.47784  0.26715  0.50467  Biso   1.000  H
  C9       1.0000 0.52413  0.37478  0.57394  Biso   1.000  C
  C10      1.0000 0.63816  0.40959  0.55408  Biso   1.000  C
  H3       1.0000 0.51083  0.32888  0.38286  Biso   1.000  H
  N1       1.0000 0.63385  0.52208  0.40329  Biso   1.000  N
  H4       1.0000 0.59766  0.44669  0.36467  Biso   1.000  H
  C11      1.0000 0.43702  0.21675  0.42795  Biso   1.000  C
  C12      1.0000 0.54503  0.39374  0.61522  Biso   1.000  C
  H5       1.0000 0.47715  0.35526  0.56707  Biso   1.000  H
  H6       1.0000 0.67082  0.41587  0.53317  Biso   1.000  H
  C13      1.0000 0.65912  0.42655  0.59579  Biso   1.000  C
  C14      1.0000 0.66823  0.57109  0.36927  Biso   1.000  C
  N2       1.0000 0.42665  0.20009  0.38948  Biso   1.000  N
  H7       1.0000 0.41343  0.18276  0.44876  Biso   1.000  H
  C15      1.0000 0.61321  0.42006  0.62704  Biso   1.000  C
  H8       1.0000 0.51236  0.38868  0.63587  Biso   1.000  H
  H9       1.0000 0.70552  0.44286  0.60295  Biso   1.000  H
  H10      1.0000 0.66542  0.54538  0.34297  Biso   1.000  H
  C16      1.0000 0.63381  0.61325  0.36117  Biso   1.000  C
  C17      1.0000 0.74335  0.61688  0.38072  Biso   1.000  C
  C18      1.0000 0.38314  0.12644  0.38072  Biso   1.000  C
  C19      1.0000 0.63484  0.44005  0.67188  Biso   1.000  C
  H11      1.0000 0.58546  0.58269  0.35325  Biso   1.000  H
  H12      1.0000 0.63501  0.63814  0.38718  Biso   1.000  H
  C20      1.0000 0.67075  0.66385  0.32572  Biso   1.000  C
  N3       1.0000 0.77344  0.57339  0.38948  Biso   1.000  N
  C21      1.0000 0.78025  0.66677  0.34464  Biso   1.000  C
  H13      1.0000 0.74655  0.64346  0.40667  Biso   1.000  H
  C22      1.0000 0.33323  0.11346  0.34464  Biso   1.000  C
  C23      1.0000 0.42892  0.09716  0.36927  Biso   1.000  C
  H14      1.0000 0.35655  0.10309  0.40667  Biso   1.000  H
  C24      1.0000 0.58596  0.41628  0.70360  Biso   1.000  C
  C25      1.0000 0.70313  0.48446  0.68314  Biso   1.000  C
  H15      1.0000 0.66513  0.63845  0.29917  Biso   1.000  H
  H16      1.0000 0.64976  0.69278  0.32166  Biso   1.000  H
  C26      1.0000 0.74612  0.70908  0.33480  Biso   1.000  C
  C27      1.0000 0.77973  0.56296  0.42795  Biso   1.000  C
  H17      1.0000 0.77934  0.64106  0.31917  Biso   1.000  H
  H18      1.0000 0.82855  0.69769  0.35246  Biso   1.000  H
  C28      1.0000 0.29091  0.03705  0.33480  Biso   1.000  C
  H19      1.0000 0.35890  0.13825  0.31917  Biso   1.000  H
  H20      1.0000 0.30233  0.13089  0.35246  Biso   1.000  H
  C29      1.0000 0.38672  0.02055  0.36117  Biso   1.000  C
  N4       1.0000 0.47792  0.11177  0.40329  Biso   1.000  N
  H21      1.0000 0.45462  0.12005  0.34297  Biso   1.000  H
  C30      1.0000 0.60393  0.43708  0.74541  Biso   1.000  C
  H22      1.0000 0.53951  0.38536  0.69676  Biso   1.000  H
  H23      1.0000 0.73753  0.50087  0.66198  Biso   1.000  H
  C31      1.0000 0.72142  0.50485  0.72495  Biso   1.000  C
  H24      1.0000 0.75205  0.73908  0.35905  Biso   1.000  H
  H25      1.0000 0.76866  0.73857  0.31005  Biso   1.000  H
  C32      1.0000 0.80305  0.51487  0.44154  Biso   1.000  C
  H26      1.0000 0.76932  0.58658  0.44876  Biso   1.000  H
  C33      1.0000 0.33614  0.00685  0.32572  Biso   1.000  C
  H27      1.0000 0.26095  0.01298  0.35905  Biso   1.000  H
  H28      1.0000 0.26143  0.03005  0.31005  Biso   1.000  H
  H29      1.0000 0.41735  0.00276  0.35325  Biso   1.000  H
  H30      1.0000 0.36183  0.99688  0.38718  Biso   1.000  H
  C34      1.0000 0.54095  0.14116  0.39355  Biso   1.000  C
  C35      1.0000 0.54854  0.40785  0.77729  Biso   1.000  C
  C36      1.0000 0.67173  0.47966  0.75623  Biso   1.000  C
  C37      1.0000 0.79426  0.55218  0.73586  Biso   1.000  C
  C38      1.0000 0.80163  0.49938  0.48430  Biso   1.000  C
  C39      1.0000 0.81985  0.48068  0.41206  Biso   1.000  C
  H31      1.0000 0.36154  0.02668  0.29917  Biso   1.000  H
  H32      1.0000 0.30726  0.95697  0.32166  Biso   1.000  H
  C40      1.0000 0.59484  0.16069  0.42467  Biso   1.000  C
  H33      1.0000 0.55333  0.15098  0.36467  Biso   1.000  H
  N5       1.0000 0.48695  0.38337  0.76657  Biso   1.000  N
  H34      1.0000 0.55951  0.40764  0.80617  Biso   1.000  H
  H35      1.0000 0.68433  0.49156  0.78486  Biso   1.000  H
  N6       1.0000 0.81303  0.57078  0.77379  Biso   1.000  N
  H36      1.0000 0.82753  0.56889  0.71407  Biso   1.000  H
  C41      1.0000 0.81833  0.45037  0.49729  Biso   1.000  C
  H37      1.0000 0.78935  0.52218  0.50467  Biso   1.000  H
  C42      1.0000 0.83931  0.43417  0.42467  Biso   1.000  C
  H38      1.0000 0.81803  0.48916  0.38286  Biso   1.000  H
  C43      1.0000 0.66083  0.18016  0.41206  Biso   1.000  C
  C44      1.0000 0.58153  0.16355  0.46724  Biso   1.000  C
  C45      1.0000 0.43392  0.34698  0.79798  Biso   1.000  C
  C46      1.0000 0.88684  0.61208  0.78044  Biso   1.000  C
  C47      1.0000 0.83643  0.41797  0.46724  Biso   1.000  C
  C48      1.0000 0.81353  0.42988  0.54257  Biso   1.000  C
  C49      1.0000 0.85885  0.39977  0.39355  Biso   1.000  C
  C50      1.0000 0.71182  0.19697  0.44154  Biso   1.000  C
  H39      1.0000 0.67111  0.18195  0.38286  Biso   1.000  H
  C51      1.0000 0.63203  0.18169  0.49729  Biso   1.000  C
  H40      1.0000 0.53703  0.15297  0.47575  Biso   1.000  H
  C52      1.0000 0.38794  0.27476  0.78044  Biso   1.000  C
  C53      1.0000 0.39313  0.38286  0.80589  Biso   1.000  C
  H41      1.0000 0.45531  0.34417  0.82497  Biso   1.000  H
  H42      1.0000 0.90962  0.63135  0.75276  Biso   1.000  H
  C54      1.0000 0.90394  0.67044  0.81084  Biso   1.000  C
  C55      1.0000 0.91306  0.56608  0.79798  Biso   1.000  C
  H43      1.0000 0.84702  0.38408  0.47575  Biso   1.000  H
  C56      1.0000 0.85065  0.47587  0.57394  Biso   1.000  C
  C57      1.0000 0.77142  0.36185  0.55408  Biso   1.000  C
  N7       1.0000 0.88820  0.36614  0.40329  Biso   1.000  N
  H44      1.0000 0.84905  0.40238  0.36467  Biso   1.000  H
  C58      1.0000 0.69772  0.19835  0.48430  Biso   1.000  C
  C59      1.0000 0.78322  0.22028  0.42795  Biso   1.000  C
  C60      1.0000 0.61630  0.18644  0.54257  Biso   1.000  C
  N8       1.0000 0.42923  0.24226  0.77379  Biso   1.000  N
  H45      1.0000 0.36864  0.27829  0.75276  Biso   1.000  H
  C61      1.0000 0.32954  0.23346  0.81084  Biso   1.000  C
  C62      1.0000 0.33414  0.34136  0.83597  Biso   1.000  C
  H46      1.0000 0.42342  0.42865  0.81806  Biso   1.000  H
  H47      1.0000 0.37504  0.38899  0.77877  Biso   1.000  H
  H48      1.0000 0.87910  0.65184  0.83767  Biso   1.000  H
  H49      1.0000 0.88884  0.70106  0.79867  Biso   1.000  H
  C63      1.0000 0.98144  0.71169  0.81967  Biso   1.000  C
  N9       1.0000 0.89643  0.51308  0.76657  Biso   1.000  N
  C64      1.0000 0.98975  0.60687  0.80589  Biso   1.000  C
  H50      1.0000 0.88885  0.54467  0.82497  Biso   1.000  H
  C65      1.0000 0.84874  0.45497  0.61522  Biso   1.000  C
  H51      1.0000 0.87812  0.52284  0.56707  Biso   1.000  H
  H52      1.0000 0.74504  0.32919  0.53317  Biso   1.000  H
  C66      1.0000 0.76742  0.34084  0.59579  Biso   1.000  C
  C67      1.0000 0.90283  0.33175  0.36927  Biso   1.000  C
  H53      1.0000 0.73283  0.21067  0.50467  Biso   1.000  H
  N10      1.0000 0.79991  0.22657  0.38948  Biso   1.000  N
  H54      1.0000 0.81723  0.23065  0.44876  Biso   1.000  H
  C68      1.0000 0.62526  0.14939  0.57394  Biso   1.000  C
  C69      1.0000 0.59044  0.22856  0.55408  Biso   1.000  C
  C70      1.0000 0.44781  0.24205  0.73586  Biso   1.000  C
  H55      1.0000 0.34814  0.22728  0.83767  Biso   1.000  H
  H56      1.0000 0.29895  0.18777  0.79867  Biso   1.000  H
  C71      1.0000 0.28833  0.26975  0.81967  Biso   1.000  C
  H57      1.0000 0.35251  0.33916  0.86388  Biso   1.000  H
  H58      1.0000 0.30705  0.36446  0.83957  Biso   1.000  H
  H59      1.0000 0.99084  0.74767  0.84076  Biso   1.000  H
  H60      1.0000 0.00593  0.73438  0.79337  Biso   1.000  H
  C72      1.0000 0.00720  0.66585  0.83597  Biso   1.000  C
  C73      1.0000 0.85933  0.45144  0.77729  Biso   1.000  C
  H61      1.0000 0.00523  0.57656  0.81806  Biso   1.000  H
  H62      1.0000 0.01394  0.62496  0.77877  Biso   1.000  H
  C74      1.0000 0.80686  0.38679  0.62704  Biso   1.000  C
  H63      1.0000 0.87634  0.48768  0.63587  Biso   1.000  H
  H64      1.0000 0.73734  0.29449  0.60295  Biso   1.000  H
  C75      1.0000 0.87352  0.25667  0.38072  Biso   1.000  C
  H65      1.0000 0.87993  0.33456  0.34297  Biso   1.000  H
  C76      1.0000 0.97942  0.36614  0.36117  Biso   1.000  C
  C77      1.0000 0.60625  0.15128  0.61522  Biso   1.000  C
  H66      1.0000 0.64473  0.12184  0.56707  Biso   1.000  H
  H67      1.0000 0.58414  0.25498  0.53317  Biso   1.000  H
  C78      1.0000 0.57341  0.23254  0.59579  Biso   1.000  C
  C79      1.0000 0.49512  0.21655  0.72495  Biso   1.000  C
  H68      1.0000 0.43115  0.25866  0.71407  Biso   1.000  H
  H69      1.0000 0.26566  0.27159  0.79337  Biso   1.000  H
  H70      1.0000 0.25234  0.24318  0.84076  Biso   1.000  H
  H71      1.0000 0.98663  0.64745  0.86388  Biso   1.000  H
  H72      1.0000 0.05742  0.69298  0.83957  Biso   1.000  H
  H73      1.0000 0.84812  0.44046  0.80617  Biso   1.000  H
  C80      1.0000 0.83313  0.39604  0.74541  Biso   1.000  C
  C81      1.0000 0.80526  0.36517  0.67188  Biso   1.000  C
  C82      1.0000 0.88654  0.21977  0.34464  Biso   1.000  C
  H74      1.0000 0.89692  0.25345  0.40667  Biso   1.000  H
  H75      1.0000 0.99721  0.41454  0.35325  Biso   1.000  H
  C83      1.0000 0.99311  0.32924  0.32572  Biso   1.000  C
  H76      1.0000 0.00314  0.36497  0.38718  Biso   1.000  H
  C84      1.0000 0.57993  0.19319  0.62704  Biso   1.000  C
  H77      1.0000 0.61135  0.12368  0.63587  Biso   1.000  H
  H78      1.0000 0.55712  0.26265  0.60295  Biso   1.000  H
  C85      1.0000 0.51551  0.21864  0.68314  Biso   1.000  C
  C86      1.0000 0.52032  0.19207  0.75623  Biso   1.000  C
  C87      1.0000 0.83033  0.41408  0.70360  Biso   1.000  C
  C88      1.0000 0.80792  0.32827  0.75623  Biso   1.000  C
  C89      1.0000 0.78134  0.29689  0.68314  Biso   1.000  C
  C90      1.0000 0.96294  0.25386  0.33480  Biso   1.000  C
  H79      1.0000 0.86173  0.22069  0.31917  Biso   1.000  H
  H80      1.0000 0.86912  0.17147  0.35246  Biso   1.000  H
  H81      1.0000 0.97335  0.33486  0.29917  Biso   1.000  H
  H82      1.0000 0.04300  0.35025  0.32166  Biso   1.000  H
  C91      1.0000 0.55992  0.19478  0.67188  Biso   1.000  C
  H83      1.0000 0.49912  0.23668  0.66198  Biso   1.000  H
  C92      1.0000 0.56292  0.16687  0.74541  Biso   1.000  C
  H84      1.0000 0.50842  0.19278  0.78486  Biso   1.000  H
  H85      1.0000 0.84583  0.46049  0.69676  Biso   1.000  H
  C93      1.0000 0.78341  0.27854  0.72495  Biso   1.000  C
  H86      1.0000 0.80723  0.31565  0.78486  Biso   1.000  H
  H87      1.0000 0.76332  0.26244  0.66198  Biso   1.000  H
  H88      1.0000 0.98704  0.24798  0.35905  Biso   1.000  H
  H89      1.0000 0.96993  0.23137  0.31005  Biso   1.000  H
  C94      1.0000 0.58376  0.16968  0.70360  Biso   1.000  C
  C95      1.0000 0.59212  0.14065  0.77729  Biso   1.000  C
  C96      1.0000 0.75795  0.20576  0.73586  Biso   1.000  C
  H90      1.0000 0.61463  0.15414  0.69676  Biso   1.000  H
  N11      1.0000 0.61664  0.10355  0.76657  Biso   1.000  N
  H91      1.0000 0.59232  0.15184  0.80617  Biso   1.000  H
  N12      1.0000 0.75771  0.18696  0.77379  Biso   1.000  N
  H92      1.0000 0.74136  0.17249  0.71407  Biso   1.000  H
  C97      1.0000 0.65306  0.08699  0.79798  Biso   1.000  C
  C98      1.0000 0.72524  0.11315  0.78044  Biso   1.000  C
  C99      1.0000 0.61714  0.01027  0.80589  Biso   1.000  C
  H93      1.0000 0.65581  0.11116  0.82497  Biso   1.000  H
  H94      1.0000 0.72172  0.09036  0.75276  Biso   1.000  H
  C100     1.0000 0.76654  0.09608  0.81084  Biso   1.000  C
  C101     1.0000 0.65868  0.99279  0.83597  Biso   1.000  C
  H95      1.0000 0.57133  0.99479  0.81806  Biso   1.000  H
  H96      1.0000 0.61105  0.98605  0.77877  Biso   1.000  H
  H97      1.0000 0.77274  0.12087  0.83767  Biso   1.000  H
  H98      1.0000 0.81223  0.11116  0.79867  Biso   1.000  H
  C102     1.0000 0.73021  0.01855  0.81967  Biso   1.000  C
  H99      1.0000 0.66084  0.01339  0.86388  Biso   1.000  H
  H100     1.0000 0.63555  0.94255  0.83957  Biso   1.000  H
  H101     1.0000 0.75684  0.00915  0.84076  Biso   1.000  H
  H102     1.0000 0.72841  0.99407  0.79337  Biso   1.000  H
  C103     1.0000 0.95047  0.67694  0.47254  Biso   1.000  C
  C104     1.0000 0.98639  0.75365  0.46465  Biso   1.000  C
  C105     1.0000 0.99197  0.65946  0.50265  Biso   1.000  C
  H103     1.0000 0.90466  0.66145  0.48474  Biso   1.000  H
  H104     1.0000 0.94433  0.65271  0.44542  Biso   1.000  H
  N13      1.0000 0.94997  0.77021  0.43322  Biso   1.000  N
  H105     1.0000 0.98914  0.77782  0.49164  Biso   1.000  H
  C106     1.0000 0.05857  0.77982  0.44709  Biso   1.000  C
  H106     1.0000 0.99417  0.68005  0.53052  Biso   1.000  H
  H107     1.0000 0.96884  0.60922  0.50624  Biso   1.000  H
  C107     1.0000 0.06354  0.68522  0.48635  Biso   1.000  C
  C108     1.0000 0.92546  0.80731  0.44397  Biso   1.000  C
  N14      1.0000 0.09104  0.85362  0.44044  Biso   1.000  N
  H108     1.0000 0.05505  0.75702  0.41944  Biso   1.000  H
  C109     1.0000 0.09987  0.76275  0.47749  Biso   1.000  C
  H109     1.0000 0.06179  0.66073  0.46002  Biso   1.000  H
  H110     1.0000 0.09017  0.67581  0.50744  Biso   1.000  H
  C110     1.0000 0.89625  0.83353  0.41209  Biso   1.000  C
  H111     1.0000 0.92568  0.81856  0.47282  Biso   1.000  H
  C111     1.0000 0.09128  0.87243  0.40254  Biso   1.000  C
  H112     1.0000 0.10607  0.78754  0.50432  Biso   1.000  H
  H113     1.0000 0.14556  0.77782  0.46535  Biso   1.000  H
  C112     1.0000 0.91709  0.83634  0.37025  Biso   1.000  C
  C113     1.0000 0.85366  0.85873  0.42290  Biso   1.000  C
  C114     1.0000 0.11677  0.94526  0.39163  Biso   1.000  C
  H114     1.0000 0.07469  0.83915  0.38075  Biso   1.000  H
  C115     1.0000 0.89325  0.86144  0.33856  Biso   1.000  C
  H115     1.0000 0.94798  0.82086  0.36344  Biso   1.000  H
  C116     1.0000 0.82845  0.88321  0.39163  Biso   1.000  C
  H116     1.0000 0.84175  0.85945  0.45154  Biso   1.000  H
  C117     1.0000 0.14125  0.99493  0.42290  Biso   1.000  C
  C118     1.0000 0.11467  0.96355  0.34981  Biso   1.000  C
  C119     1.0000 0.91326  0.85985  0.29372  Biso   1.000  C
  C120     1.0000 0.84887  0.88536  0.34981  Biso   1.000  C
  C121     1.0000 0.78114  0.90871  0.40254  Biso   1.000  C
  C122     1.0000 0.16642  0.06270  0.41209  Biso   1.000  C
  H117     1.0000 0.14056  0.98231  0.45154  Biso   1.000  H
  C123     1.0000 0.13859  0.03184  0.33856  Biso   1.000  C
  H118     1.0000 0.09668  0.92916  0.32862  Biso   1.000  H
  C124     1.0000 0.93958  0.81794  0.28189  Biso   1.000  C
  C125     1.0000 0.90676  0.89926  0.26244  Biso   1.000  C
  H119     1.0000 0.83246  0.90335  0.32862  Biso   1.000  H
  N15      1.0000 0.76256  0.90892  0.44044  Biso   1.000  N
  H120     1.0000 0.76448  0.92532  0.38075  Biso   1.000  H
  C126     1.0000 0.19266  0.11811  0.44397  Biso   1.000  C
  C127     1.0000 0.16366  0.08075  0.37025  Biso   1.000  C
  C128     1.0000 0.14017  0.05340  0.29372  Biso   1.000  C
  C129     1.0000 0.95860  0.81605  0.24062  Biso   1.000  C
  H121     1.0000 0.94468  0.79035  0.30255  Biso   1.000  H
  C130     1.0000 0.92378  0.89522  0.22075  Biso   1.000  C
  H122     1.0000 0.89045  0.92931  0.26963  Biso   1.000  H
  C131     1.0000 0.72128  0.94142  0.44709  Biso   1.000  C
  N16      1.0000 0.22976  0.17974  0.43322  Biso   1.000  N
  H123     1.0000 0.18150  0.10712  0.47282  Biso   1.000  H
  H124     1.0000 0.17921  0.12715  0.36344  Biso   1.000  H
  C132     1.0000 0.18207  0.12163  0.28189  Biso   1.000  C
  C133     1.0000 0.10080  0.00751  0.26244  Biso   1.000  C
  C134     1.0000 0.94966  0.85316  0.20925  Biso   1.000  C
  H125     1.0000 0.97809  0.78856  0.23375  Biso   1.000  H
  H126     1.0000 0.91747  0.92164  0.19985  Biso   1.000  H
  C135     1.0000 0.76730  0.01364  0.46465  Biso   1.000  C
  H127     1.0000 0.70197  0.94495  0.41944  Biso   1.000  H
  C136     1.0000 0.66287  0.90013  0.47749  Biso   1.000  C
  C137     1.0000 0.24635  0.23274  0.46465  Biso   1.000  C
  C138     1.0000 0.18394  0.14254  0.24062  Biso   1.000  C
  H128     1.0000 0.20967  0.15434  0.30255  Biso   1.000  H
  C139     1.0000 0.10475  0.02851  0.22075  Biso   1.000  C
  H129     1.0000 0.07067  0.96115  0.26963  Biso   1.000  H
  C140     1.0000 0.96536  0.84835  0.16393  Biso   1.000  C
  N17      1.0000 0.82024  0.05003  0.43322  Biso   1.000  N
  C141     1.0000 0.72650  0.04952  0.47254  Biso   1.000  C
  H130     1.0000 0.78864  0.01083  0.49164  Biso   1.000  H
  H131     1.0000 0.68147  0.89394  0.50432  Biso   1.000  H
  H132     1.0000 0.63228  0.85444  0.46535  Biso   1.000  H
  C142     1.0000 0.62166  0.93641  0.48635  Biso   1.000  C
  C143     1.0000 0.22021  0.27874  0.44709  Biso   1.000  C
  C144     1.0000 0.32304  0.27353  0.47254  Biso   1.000  C
  H133     1.0000 0.22214  0.21133  0.49164  Biso   1.000  H
  C145     1.0000 0.14686  0.09654  0.20925  Biso   1.000  C
  H134     1.0000 0.21149  0.18951  0.23375  Biso   1.000  H
  H135     1.0000 0.07837  0.99585  0.19985  Biso   1.000  H
  C146     1.0000 0.91486  0.83021  0.13392  Biso   1.000  C
  C147     1.0000 0.03106  0.86502  0.15097  Biso   1.000  C
  C148     1.0000 0.88183  0.07451  0.44397  Biso   1.000  C
  C149     1.0000 0.66742  0.00802  0.50265  Biso   1.000  C
  H136     1.0000 0.75675  0.09531  0.48474  Biso   1.000  H
  H137     1.0000 0.70841  0.05565  0.44542  Biso   1.000  H
  H138     1.0000 0.59899  0.93825  0.46002  Biso   1.000  H
  H139     1.0000 0.58567  0.90984  0.50744  Biso   1.000  H
  N18      1.0000 0.14636  0.23745  0.44044  Biso   1.000  N
  H140     1.0000 0.24295  0.29801  0.41944  Biso   1.000  H
  C150     1.0000 0.23723  0.33711  0.47749  Biso   1.000  C
  C151     1.0000 0.34058  0.33251  0.50265  Biso   1.000  C
  H141     1.0000 0.33856  0.24322  0.48474  Biso   1.000  H
  H142     1.0000 0.34727  0.29162  0.44542  Biso   1.000  H
  C152     1.0000 0.15171  0.11703  0.16393  Biso   1.000  C
  C153     1.0000 0.92817  0.82735  0.09135  Biso   1.000  C
  H143     1.0000 0.87036  0.81963  0.14243  Biso   1.000  H
  C154     1.0000 0.04515  0.86364  0.10822  Biso   1.000  C
  H144     1.0000 0.06616  0.87733  0.17134  Biso   1.000  H
  C155     1.0000 0.93726  0.10375  0.41209  Biso   1.000  C
  H145     1.0000 0.89288  0.07431  0.47282  Biso   1.000  H
  H146     1.0000 0.68584  0.00582  0.53052  Biso   1.000  H
  H147     1.0000 0.64038  0.03112  0.50624  Biso   1.000  H
  C156     1.0000 0.12759  0.21884  0.40254  Biso   1.000  C
  H148     1.0000 0.21243  0.31850  0.50432  Biso   1.000  H
  H149     1.0000 0.22217  0.36772  0.46535  Biso   1.000  H
  C157     1.0000 0.31477  0.37835  0.48635  Biso   1.000  C
  H150     1.0000 0.31991  0.31411  0.53052  Biso   1.000  H
  H151     1.0000 0.39075  0.35965  0.50624  Biso   1.000  H
  C158     1.0000 0.13496  0.16605  0.15097  Biso   1.000  C
  C159     1.0000 0.16972  0.08463  0.13392  Biso   1.000  C
  C160     1.0000 0.87428  0.80783  0.06023  Biso   1.000  C
  C161     1.0000 0.99416  0.84682  0.07870  Biso   1.000  C
  C162     1.0000 0.11656  0.88694  0.09460  Biso   1.000  C
  C163     1.0000 0.91929  0.08294  0.37025  Biso   1.000  C
  C164     1.0000 0.00506  0.14632  0.42290  Biso   1.000  C
  C165     1.0000 0.05480  0.17152  0.39163  Biso   1.000  C
  H152     1.0000 0.16088  0.23550  0.38075  Biso   1.000  H
  H153     1.0000 0.33926  0.40104  0.46002  Biso   1.000  H
  H154     1.0000 0.32417  0.41433  0.50744  Biso   1.000  H
  C166     1.0000 0.13633  0.18153  0.10822  Biso   1.000  C
  H155     1.0000 0.12264  0.18884  0.17134  Biso   1.000  H
  C167     1.0000 0.17269  0.10083  0.09135  Biso   1.000  C
  H156     1.0000 0.18040  0.05075  0.14243  Biso   1.000  H
  N19      1.0000 0.81125  0.77844  0.06997  Biso   1.000  N
  H157     1.0000 0.88667  0.81764  0.03134  Biso   1.000  H
  H158     1.0000 0.00444  0.84861  0.04954  Biso   1.000  H
  N20      1.0000 0.13324  0.89323  0.05616  Biso   1.000  N
  H159     1.0000 0.15056  0.89732  0.11544  Biso   1.000  H
  C168     1.0000 0.96813  0.10671  0.33856  Biso   1.000  C
  H160     1.0000 0.87289  0.05202  0.36344  Biso   1.000  H
  H161     1.0000 0.01770  0.15823  0.45154  Biso   1.000  H
  C169     1.0000 0.03650  0.15112  0.34981  Biso   1.000  C
  C170     1.0000 0.11306  0.22963  0.09460  Biso   1.000  C
  C171     1.0000 0.15314  0.14734  0.07870  Biso   1.000  C
  C172     1.0000 0.19214  0.06644  0.06023  Biso   1.000  C
  C173     1.0000 0.76225  0.76382  0.03595  Biso   1.000  C
  C174     1.0000 0.20685  0.92333  0.04736  Biso   1.000  C
  C175     1.0000 0.94659  0.08673  0.29372  Biso   1.000  C
  H162     1.0000 0.07086  0.16753  0.32862  Biso   1.000  H
  N21      1.0000 0.10681  0.24005  0.05616  Biso   1.000  N
  H163     1.0000 0.10265  0.25324  0.11544  Biso   1.000  H
  H164     1.0000 0.15136  0.15582  0.04954  Biso   1.000  H
  N22      1.0000 0.22153  0.03281  0.06997  Biso   1.000  N
  H165     1.0000 0.18233  0.06904  0.03134  Biso   1.000  H
  C176     1.0000 0.71650  0.79316  0.04736  Biso   1.000  C
  C177     1.0000 0.72005  0.68721  0.02784  Biso   1.000  C
  H166     1.0000 0.78795  0.78672  0.00965  Biso   1.000  H
  C178     1.0000 0.23616  0.99841  0.03595  Biso   1.000  C
  C179     1.0000 0.21987  0.88643  0.01129  Biso   1.000  C
  H167     1.0000 0.23025  0.92011  0.07334  Biso   1.000  H
  C180     1.0000 0.87832  0.06040  0.28189  Biso   1.000  C
  C181     1.0000 0.99245  0.09322  0.26244  Biso   1.000  C
  C182     1.0000 0.07664  0.28355  0.04736  Biso   1.000  C
  C183     1.0000 0.66656  0.78012  0.01129  Biso   1.000  C
  N23      1.0000 0.75998  0.86675  0.05616  Biso   1.000  N
  H168     1.0000 0.68988  0.76975  0.07334  Biso   1.000  H
  C184     1.0000 0.66947  0.67351  0.99240  Biso   1.000  C
  H169     1.0000 0.75068  0.66942  0.01993  Biso   1.000  H
  H170     1.0000 0.69516  0.66355  0.05382  Biso   1.000  H
  H171     1.0000 0.21326  0.00122  0.00965  Biso   1.000  H
  C185     1.0000 0.31271  0.03281  0.02784  Biso   1.000  C
  H172     1.0000 0.19506  0.88735  0.98584  Biso   1.000  H
  C186     1.0000 0.29627  0.92052  0.00148  Biso   1.000  C
  H173     1.0000 0.20245  0.83813  0.01914  Biso   1.000  H
  C187     1.0000 0.85751  0.04144  0.24062  Biso   1.000  C
  H174     1.0000 0.84565  0.05535  0.30255  Biso   1.000  H
  C188     1.0000 0.97144  0.07625  0.22075  Biso   1.000  C
  H175     1.0000 0.03889  0.10952  0.26963  Biso   1.000  H
  C189     1.0000 0.00156  0.23775  0.03595  Biso   1.000  C
  C190     1.0000 0.11353  0.33343  0.01129  Biso   1.000  C
  H176     1.0000 0.07988  0.31012  0.07334  Biso   1.000  H
  C191     1.0000 0.62424  0.70372  0.00148  Biso   1.000  C
  H177     1.0000 0.63566  0.79755  0.01914  Biso   1.000  H
  H178     1.0000 0.69224  0.80491  0.98584  Biso   1.000  H
  C192     1.0000 0.77035  0.88342  0.09460  Biso   1.000  C
  H179     1.0000 0.69488  0.69334  0.96582  Biso   1.000  H
  H180     1.0000 0.64054  0.62363  0.98833  Biso   1.000  H
  C193     1.0000 0.32647  0.99596  0.99240  Biso   1.000  C
  H181     1.0000 0.33058  0.08121  0.01993  Biso   1.000  H
  H182     1.0000 0.33647  0.03163  0.05382  Biso   1.000  H
  H183     1.0000 0.30326  0.89803  0.97673  Biso   1.000  H
  H184     1.0000 0.32038  0.91464  0.02573  Biso   1.000  H
  C194     1.0000 0.90343  0.05034  0.20925  Biso   1.000  C
  H185     1.0000 0.81043  0.02192  0.23375  Biso   1.000  H
  H186     1.0000 0.00420  0.08253  0.19985  Biso   1.000  H
  N24      1.0000 0.96714  0.18874  0.06997  Biso   1.000  N
  H187     1.0000 0.99875  0.21204  0.00965  Biso   1.000  H
  C195     1.0000 0.96718  0.27992  0.02784  Biso   1.000  C
  C196     1.0000 0.07950  0.37575  0.00148  Biso   1.000  C
  H188     1.0000 0.11267  0.30772  0.98584  Biso   1.000  H
  H189     1.0000 0.16188  0.36435  0.01914  Biso   1.000  H
  H190     1.0000 0.59428  0.67964  0.02573  Biso   1.000  H
  H191     1.0000 0.59476  0.69671  0.97673  Biso   1.000  H
  C197     1.0000 0.81844  0.95481  0.10822  Biso   1.000  C
  H192     1.0000 0.74676  0.84943  0.11544  Biso   1.000  H
  H193     1.0000 0.30663  0.00153  0.96582  Biso   1.000  H
  H194     1.0000 0.37634  0.01691  0.98833  Biso   1.000  H
  C198     1.0000 0.88297  0.03465  0.16393  Biso   1.000  C
  C199     1.0000 0.93360  0.12572  0.06023  Biso   1.000  C
  H195     1.0000 0.91872  0.24930  0.01993  Biso   1.000  H
  H196     1.0000 0.96834  0.30481  0.05382  Biso   1.000  H
  C200     1.0000 0.00403  0.33051  0.99240  Biso   1.000  C
  H197     1.0000 0.10199  0.40524  0.97673  Biso   1.000  H
  H198     1.0000 0.08538  0.40575  0.02573  Biso   1.000  H
  C201     1.0000 0.83395  0.96892  0.15097  Biso   1.000  C
  C202     1.0000 0.85266  0.00582  0.07870  Biso   1.000  C
  C203     1.0000 0.91534  0.08514  0.13392  Biso   1.000  C
  C204     1.0000 0.89916  0.07180  0.09135  Biso   1.000  C
  H199     1.0000 0.93097  0.11330  0.03134  Biso   1.000  H
  H200     1.0000 0.99842  0.30511  0.96582  Biso   1.000  H
  H201     1.0000 0.98309  0.35944  0.98833  Biso   1.000  H
  H202     1.0000 0.81117  0.93381  0.17134  Biso   1.000  H
  H203     1.0000 0.84416  0.99555  0.04954  Biso   1.000  H
  H204     1.0000 0.94921  0.12961  0.14243  Biso   1.000  H
  C205     1.0000 0.62958  0.58719  0.66813  Biso   1.000  C
  C206     1.0000 0.55318  0.55310  0.67797  Biso   1.000  C
  C207     1.0000 0.65982  0.66263  0.65908  Biso   1.000  C
  H205     1.0000 0.65369  0.58131  0.69241  Biso   1.000  H
  H206     1.0000 0.63662  0.56470  0.64341  Biso   1.000  H
  C208     1.0000 0.54021  0.59000  0.71404  Biso   1.000  C
  H207     1.0000 0.52841  0.55402  0.65249  Biso   1.000  H
  H208     1.0000 0.53581  0.50480  0.68579  Biso   1.000  H
  C209     1.0000 0.64607  0.69947  0.69449  Biso   1.000  C
  H209     1.0000 0.63999  0.66820  0.63250  Biso   1.000  H
  H210     1.0000 0.70969  0.68358  0.65501  Biso   1.000  H
  N25      1.0000 0.46660  0.55990  0.72280  Biso   1.000  N
  C210     1.0000 0.56947  0.66508  0.70259  Biso   1.000  C
  H211     1.0000 0.56361  0.58678  0.73999  Biso   1.000  H
  H212     1.0000 0.66389  0.74787  0.68661  Biso   1.000  H
  H213     1.0000 0.66978  0.69830  0.72050  Biso   1.000  H
  C211     1.0000 0.44991  0.55361  0.76127  Biso   1.000  C
  N26      1.0000 0.55489  0.69947  0.73661  Biso   1.000  N
  H214     1.0000 0.54658  0.66789  0.67629  Biso   1.000  H
  C212     1.0000 0.37851  0.53030  0.77489  Biso   1.000  C
  H215     1.0000 0.48391  0.56399  0.78212  Biso   1.000  H
  C213     1.0000 0.52550  0.73310  0.72687  Biso   1.000  C
  C214     1.0000 0.32747  0.51349  0.74538  Biso   1.000  C
  C215     1.0000 0.36441  0.53168  0.81762  Biso   1.000  C
  C216     1.0000 0.50600  0.76750  0.75802  Biso   1.000  C
  H216     1.0000 0.51569  0.73571  0.69799  Biso   1.000  H
  C217     1.0000 0.26153  0.49402  0.75802  Biso   1.000  C
  H217     1.0000 0.33780  0.51528  0.71621  Biso   1.000  H
  C218     1.0000 0.29872  0.51502  0.83061  Biso   1.000  C
  H218     1.0000 0.39952  0.54400  0.83799  Biso   1.000  H
  C219     1.0000 0.48650  0.81401  0.74538  Biso   1.000  C
  C220     1.0000 0.50308  0.75130  0.80059  Biso   1.000  C
  C221     1.0000 0.20759  0.47449  0.72687  Biso   1.000  C
  C222     1.0000 0.24817  0.49688  0.80059  Biso   1.000  C
  C223     1.0000 0.28299  0.51978  0.87589  Biso   1.000  C
  C224     1.0000 0.46969  0.84820  0.77489  Biso   1.000  C
  H219     1.0000 0.48468  0.82249  0.71621  Biso   1.000  H
  C225     1.0000 0.48502  0.78370  0.83061  Biso   1.000  C
  H220     1.0000 0.51371  0.71741  0.80911  Biso   1.000  H
  N27      1.0000 0.14461  0.44511  0.73661  Biso   1.000  N
  H221     1.0000 0.22002  0.48431  0.69799  Biso   1.000  H
  H222     1.0000 0.20371  0.48630  0.80911  Biso   1.000  H
  C226     1.0000 0.29191  0.48272  0.90726  Biso   1.000  C
  C227     1.0000 0.25709  0.56189  0.88740  Biso   1.000  C
  C228     1.0000 0.44638  0.89629  0.76127  Biso   1.000  C
  C229     1.0000 0.46832  0.83272  0.81762  Biso   1.000  C
  C230     1.0000 0.48022  0.76321  0.87589  Biso   1.000  C
  C231     1.0000 0.09561  0.43049  0.70259  Biso   1.000  C
  C232     1.0000 0.27289  0.48461  0.94857  Biso   1.000  C
  H223     1.0000 0.31137  0.45517  0.90039  Biso   1.000  H
  H224     1.0000 0.25082  0.58831  0.86649  Biso   1.000  H
  C233     1.0000 0.24009  0.56588  0.92912  Biso   1.000  C
  N28      1.0000 0.44013  0.90672  0.72280  Biso   1.000  N
  H225     1.0000 0.43601  0.91991  0.78212  Biso   1.000  H
  H226     1.0000 0.45599  0.85551  0.83799  Biso   1.000  H
  C234     1.0000 0.51729  0.80921  0.90726  Biso   1.000  C
  C235     1.0000 0.43811  0.69518  0.88740  Biso   1.000  C
  C236     1.0000 0.05340  0.35388  0.69449  Biso   1.000  C
  H227     1.0000 0.12131  0.45339  0.67629  Biso   1.000  H
  C237     1.0000 0.04979  0.45977  0.71404  Biso   1.000  C
  C238     1.0000 0.24662  0.52652  0.96036  Biso   1.000  C
  H228     1.0000 0.27799  0.45701  0.96919  Biso   1.000  H
  H229     1.0000 0.22381  0.59598  0.93631  Biso   1.000  H
  C239     1.0000 0.41000  0.95021  0.71404  Biso   1.000  C
  C240     1.0000 0.51538  0.78830  0.94857  Biso   1.000  C
  H230     1.0000 0.54483  0.85623  0.90039  Biso   1.000  H
  H231     1.0000 0.41173  0.66252  0.86649  Biso   1.000  H
  C241     1.0000 0.43411  0.67418  0.92912  Biso   1.000  C
  C242     1.0000 0.00278  0.34018  0.65908  Biso   1.000  C
  H232     1.0000 0.08399  0.33609  0.68661  Biso   1.000  H
  H233     1.0000 0.02852  0.33021  0.72050  Biso   1.000  H
  C243     1.0000 0.99988  0.44679  0.67797  Biso   1.000  C
  N29      1.0000 0.09329  0.53342  0.72280  Biso   1.000  N
  H234     1.0000 0.02319  0.43642  0.73999  Biso   1.000  H
  C244     1.0000 0.22661  0.52811  0.00523  Biso   1.000  C
  C245     1.0000 0.33492  0.90442  0.70259  Biso   1.000  C
  H235     1.0000 0.41320  0.97679  0.73999  Biso   1.000  H
  C246     1.0000 0.44693  0.00010  0.67797  Biso   1.000  C
  C247     1.0000 0.47350  0.72012  0.96036  Biso   1.000  C
  H236     1.0000 0.54302  0.82101  0.96919  Biso   1.000  H
  H237     1.0000 0.40403  0.62782  0.93631  Biso   1.000  H
  H238     1.0000 0.02819  0.36001  0.63250  Biso   1.000  H
  H239     1.0000 0.97390  0.29030  0.65501  Biso   1.000  H
  C248     1.0000 0.95760  0.37039  0.66813  Biso   1.000  C
  H240     1.0000 0.02559  0.47158  0.65249  Biso   1.000  H
  H241     1.0000 0.96902  0.46422  0.68579  Biso   1.000  H
  C249     1.0000 0.10371  0.55008  0.76127  Biso   1.000  C
  C250     1.0000 0.25040  0.50301  0.03692  Biso   1.000  C
  C251     1.0000 0.18220  0.55197  0.01646  Biso   1.000  C
  N30      1.0000 0.30050  0.85541  0.73661  Biso   1.000  N
  H242     1.0000 0.33211  0.87871  0.67629  Biso   1.000  H
  C252     1.0000 0.30050  0.94659  0.69449  Biso   1.000  C
  C253     1.0000 0.41277  0.04241  0.66813  Biso   1.000  C
  H243     1.0000 0.44599  0.97439  0.65249  Biso   1.000  H
  H244     1.0000 0.49519  0.03102  0.68579  Biso   1.000  H
  C254     1.0000 0.47190  0.69850  0.00523  Biso   1.000  C
  H245     1.0000 0.92759  0.34631  0.69241  Biso   1.000  H
  H246     1.0000 0.92807  0.36338  0.64341  Biso   1.000  H
  C255     1.0000 0.15180  0.62148  0.77489  Biso   1.000  C
  H247     1.0000 0.08012  0.51610  0.78212  Biso   1.000  H
  C256     1.0000 0.22961  0.50020  0.07873  Biso   1.000  C
  H248     1.0000 0.28127  0.48748  0.03011  Biso   1.000  H
  H249     1.0000 0.16581  0.57002  0.99530  Biso   1.000  H
  C257     1.0000 0.16181  0.54988  0.05827  Biso   1.000  C
  C258     1.0000 0.26691  0.79239  0.72687  Biso   1.000  C
  H250     1.0000 0.25211  0.91602  0.68661  Biso   1.000  H
  H251     1.0000 0.30170  0.97148  0.72050  Biso   1.000  H
  C259     1.0000 0.33739  0.99718  0.65908  Biso   1.000  C
  H252     1.0000 0.41869  0.07242  0.69241  Biso   1.000  H
  H253     1.0000 0.43535  0.07190  0.64341  Biso   1.000  H
  C260     1.0000 0.49702  0.74741  0.03692  Biso   1.000  C
  C261     1.0000 0.44803  0.63022  0.01646  Biso   1.000  C
  C262     1.0000 0.16731  0.63559  0.81762  Biso   1.000  C
  C263     1.0000 0.18598  0.67249  0.74538  Biso   1.000  C
  C264     1.0000 0.25881  0.47398  0.11061  Biso   1.000  C
  C265     1.0000 0.18701  0.52540  0.08958  Biso   1.000  C
  C266     1.0000 0.11450  0.57538  0.06921  Biso   1.000  C
  C267     1.0000 0.23249  0.73852  0.75802  Biso   1.000  C
  H254     1.0000 0.26431  0.78002  0.69799  Biso   1.000  H
  H255     1.0000 0.33177  0.97178  0.63250  Biso   1.000  H
  H256     1.0000 0.31645  0.02611  0.65501  Biso   1.000  H
  C268     1.0000 0.49980  0.72942  0.07873  Biso   1.000  C
  H257     1.0000 0.51252  0.79382  0.03011  Biso   1.000  H
  C269     1.0000 0.45012  0.61193  0.05827  Biso   1.000  C
  H258     1.0000 0.43001  0.59577  0.99530  Biso   1.000  H
  C270     1.0000 0.21632  0.70131  0.83061  Biso   1.000  C
  H259     1.0000 0.14448  0.60048  0.83799  Biso   1.000  H
  H260     1.0000 0.17752  0.66222  0.71621  Biso   1.000  H
  N31      1.0000 0.28328  0.43688  0.09989  Biso   1.000  N
  H261     1.0000 0.25901  0.48518  0.13950  Biso   1.000  H
  H262     1.0000 0.17511  0.52611  0.11821  Biso   1.000  H
  N32      1.0000 0.09588  0.57559  0.10711  Biso   1.000  N
  H263     1.0000 0.09779  0.59199  0.04739  Biso   1.000  H
  C271     1.0000 0.24870  0.75181  0.80059  Biso   1.000  C
  C272     1.0000 0.52597  0.78478  0.11061  Biso   1.000  C
  C273     1.0000 0.47461  0.66160  0.08958  Biso   1.000  C
  C274     1.0000 0.42460  0.53910  0.06921  Biso   1.000  C
  C275     1.0000 0.23678  0.71700  0.87589  Biso   1.000  C
  C276     1.0000 0.31971  0.42032  0.13130  Biso   1.000  C
  C277     1.0000 0.05459  0.60809  0.11377  Biso   1.000  C
  H264     1.0000 0.28257  0.79627  0.80911  Biso   1.000  H
  N33      1.0000 0.56312  0.84641  0.09989  Biso   1.000  N
  H265     1.0000 0.51481  0.77379  0.13950  Biso   1.000  H
  H266     1.0000 0.47387  0.64898  0.11821  Biso   1.000  H
  N34      1.0000 0.42440  0.52029  0.10711  Biso   1.000  N
  H267     1.0000 0.40800  0.50582  0.04739  Biso   1.000  H
  C278     1.0000 0.19082  0.70811  0.90726  Biso   1.000  C
  C279     1.0000 0.30480  0.74292  0.88740  Biso   1.000  C
  C280     1.0000 0.39188  0.44649  0.11377  Biso   1.000  C
  C281     1.0000 0.28378  0.34360  0.13921  Biso   1.000  C
  H268     1.0000 0.32250  0.44449  0.15829  Biso   1.000  H
  C282     1.0000 0.99619  0.56680  0.14416  Biso   1.000  C
  H269     1.0000 0.03533  0.61162  0.08611  Biso   1.000  H
  C283     1.0000 0.10061  0.68031  0.13130  Biso   1.000  C
  C284     1.0000 0.57970  0.89941  0.13130  Biso   1.000  C
  C285     1.0000 0.21170  0.72712  0.94857  Biso   1.000  C
  H270     1.0000 0.14379  0.68859  0.90039  Biso   1.000  H
  H271     1.0000 0.33751  0.74920  0.86649  Biso   1.000  H
  C286     1.0000 0.32581  0.75989  0.92912  Biso   1.000  C
  H272     1.0000 0.38840  0.42369  0.08611  Biso   1.000  H
  C287     1.0000 0.43323  0.42942  0.14416  Biso   1.000  C
  C288     1.0000 0.32533  0.32613  0.16929  Biso   1.000  C
  H273     1.0000 0.23802  0.32812  0.15138  Biso   1.000  H
  H274     1.0000 0.27769  0.31938  0.11210  Biso   1.000  H
  H275     1.0000 0.96559  0.52111  0.13199  Biso   1.000  H
  C289     1.0000 0.95497  0.60308  0.15299  Biso   1.000  C
  H276     1.0000 0.01483  0.56061  0.17100  Biso   1.000  H
  N35      1.0000 0.15360  0.71670  0.09989  Biso   1.000  N
  C290     1.0000 0.05982  0.71619  0.13921  Biso   1.000  C
  H277     1.0000 0.12200  0.67750  0.15829  Biso   1.000  H
  C291     1.0000 0.55353  0.94541  0.11377  Biso   1.000  C
  C292     1.0000 0.65640  0.94020  0.13921  Biso   1.000  C
  H278     1.0000 0.55550  0.87800  0.15829  Biso   1.000  H
  C293     1.0000 0.27990  0.75339  0.96036  Biso   1.000  C
  H279     1.0000 0.17900  0.72201  0.96919  Biso   1.000  H
  H280     1.0000 0.37220  0.77619  0.93631  Biso   1.000  H
  H281     1.0000 0.43938  0.45420  0.17100  Biso   1.000  H
  H282     1.0000 0.47887  0.44449  0.13199  Biso   1.000  H
  C294     1.0000 0.39690  0.35188  0.15299  Biso   1.000  C
  H283     1.0000 0.32752  0.34672  0.19720  Biso   1.000  H
  H284     1.0000 0.30220  0.27589  0.17289  Biso   1.000  H
  H285     1.0000 0.93230  0.60492  0.12669  Biso   1.000  H
  H286     1.0000 0.91902  0.57651  0.17409  Biso   1.000  H
  C295     1.0000 0.00078  0.67469  0.16929  Biso   1.000  C
  C296     1.0000 0.21519  0.74118  0.11061  Biso   1.000  C
  H287     1.0000 0.09010  0.76198  0.15138  Biso   1.000  H
  H288     1.0000 0.04172  0.72232  0.11210  Biso   1.000  H
  N36      1.0000 0.47972  0.90411  0.10711  Biso   1.000  N
  H289     1.0000 0.57631  0.96468  0.08611  Biso   1.000  H
  C297     1.0000 0.57058  0.00378  0.14416  Biso   1.000  C
  C298     1.0000 0.67389  0.99918  0.16929  Biso   1.000  C
  H290     1.0000 0.67191  0.90989  0.15138  Biso   1.000  H
  H291     1.0000 0.68058  0.95829  0.11210  Biso   1.000  H
  C299     1.0000 0.30149  0.77338  0.00523  Biso   1.000  C
  H292     1.0000 0.39510  0.32740  0.12669  Biso   1.000  H
  H293     1.0000 0.42349  0.34248  0.17409  Biso   1.000  H
  H294     1.0000 0.97369  0.69779  0.17289  Biso   1.000  H
  H295     1.0000 0.01920  0.67249  0.19720  Biso   1.000  H
  C300     1.0000 0.27061  0.77041  0.07873  Biso   1.000  C
  H296     1.0000 0.22620  0.74098  0.13950  Biso   1.000  H
  C301     1.0000 0.46090  0.88551  0.06921  Biso   1.000  C
  H297     1.0000 0.54581  0.98522  0.17100  Biso   1.000  H
  H298     1.0000 0.55553  0.03439  0.13199  Biso   1.000  H
  C302     1.0000 0.64805  0.04497  0.15299  Biso   1.000  C
  H299     1.0000 0.65327  0.98078  0.19720  Biso   1.000  H
  H300     1.0000 0.72411  0.02632  0.17289  Biso   1.000  H
  C303     1.0000 0.25260  0.74961  0.03692  Biso   1.000  C
  C304     1.0000 0.36981  0.81779  0.01646  Biso   1.000  C
  C305     1.0000 0.33838  0.81299  0.08958  Biso   1.000  C
  C306     1.0000 0.38811  0.83818  0.05827  Biso   1.000  C
  H301     1.0000 0.49422  0.90222  0.04739  Biso   1.000  H
  H302     1.0000 0.67262  0.06771  0.12669  Biso   1.000  H
  H303     1.0000 0.65748  0.08100  0.17409  Biso   1.000  H
  H304     1.0000 0.20620  0.71869  0.03011  Biso   1.000  H
  H305     1.0000 0.40422  0.83420  0.99530  Biso   1.000  H
  H306     1.0000 0.35101  0.82490  0.11821  Biso   1.000  H
  C307     1.0000 0.47584  0.62521  0.42606  Biso   1.000  C
  C308     1.0000 0.45499  0.60625  0.38478  Biso   1.000  C
  H307     1.0000 0.52287  0.64474  0.43293  Biso   1.000  H
  C309     1.0000 0.42988  0.61632  0.45743  Biso   1.000  C
  C310     1.0000 0.38677  0.57993  0.37296  Biso   1.000  C
  H308     1.0000 0.48766  0.61131  0.36413  Biso   1.000  H
  C311     1.0000 0.36186  0.59041  0.44592  Biso   1.000  C
  C312     1.0000 0.45034  0.63201  0.50271  Biso   1.000  C
  C313     1.0000 0.36518  0.55995  0.32812  Biso   1.000  C
  C314     1.0000 0.34085  0.57344  0.40421  Biso   1.000  C
  H309     1.0000 0.32915  0.58412  0.46683  Biso   1.000  H
  C315     1.0000 0.49936  0.69774  0.51570  Biso   1.000  C
  C316     1.0000 0.41797  0.58152  0.53276  Biso   1.000  C
  C317     1.0000 0.29685  0.51553  0.31686  Biso   1.000  C
  C318     1.0000 0.41406  0.58371  0.29640  Biso   1.000  C
  H310     1.0000 0.29446  0.55714  0.39705  Biso   1.000  H
  H311     1.0000 0.52218  0.73285  0.49533  Biso   1.000  H
  C319     1.0000 0.51486  0.71184  0.55846  Biso   1.000  C
  C320     1.0000 0.43420  0.59486  0.57533  Biso   1.000  C
  H312     1.0000 0.38409  0.53705  0.52425  Biso   1.000  H
  C321     1.0000 0.27855  0.49514  0.27505  Biso   1.000  C
  H313     1.0000 0.26244  0.49913  0.33802  Biso   1.000  H
  C322     1.0000 0.39605  0.56291  0.25459  Biso   1.000  C
  H314     1.0000 0.46046  0.61463  0.30324  Biso   1.000  H
  C323     1.0000 0.48069  0.66084  0.58794  Biso   1.000  C
  C324     1.0000 0.56296  0.78324  0.57205  Biso   1.000  C
  C325     1.0000 0.39976  0.54094  0.60645  Biso   1.000  C
  C326     1.0000 0.20576  0.44782  0.26414  Biso   1.000  C
  C327     1.0000 0.32829  0.52034  0.24377  Biso   1.000  C
  C328     1.0000 0.45148  0.59215  0.22271  Biso   1.000  C
  H315     1.0000 0.48914  0.67111  0.61714  Biso   1.000  H
  N37      1.0000 0.57339  0.79995  0.61052  Biso   1.000  N
  H316     1.0000 0.58655  0.81723  0.55124  Biso   1.000  H
  N38      1.0000 0.36617  0.47792  0.59671  Biso   1.000  N
  H317     1.0000 0.40238  0.55335  0.63533  Biso   1.000  H
  N39      1.0000 0.18694  0.42921  0.22621  Biso   1.000  N
  H318     1.0000 0.17247  0.43115  0.28593  Biso   1.000  H
  H319     1.0000 0.31565  0.50843  0.21514  Biso   1.000  H
  N40      1.0000 0.51307  0.61663  0.23343  Biso   1.000  N
  H320     1.0000 0.44047  0.59235  0.19383  Biso   1.000  H
  C329     1.0000 0.61688  0.87355  0.61928  Biso   1.000  C
  C330     1.0000 0.33177  0.42896  0.63073  Biso   1.000  C
  C331     1.0000 0.11314  0.38792  0.21956  Biso   1.000  C
  C332     1.0000 0.56605  0.65302  0.20202  Biso   1.000  C
  C333     1.0000 0.57106  0.90284  0.63073  Biso   1.000  C
  C334     1.0000 0.66679  0.88653  0.65536  Biso   1.000  C
  H321     1.0000 0.64347  0.89691  0.59333  Biso   1.000  H
  H322     1.0000 0.33455  0.45461  0.65703  Biso   1.000  H
  C335     1.0000 0.36617  0.38674  0.63883  Biso   1.000  C
  C336     1.0000 0.25666  0.38311  0.61928  Biso   1.000  C
  H323     1.0000 0.09036  0.36865  0.24724  Biso   1.000  H
  C337     1.0000 0.09608  0.32955  0.18916  Biso   1.000  C
  C338     1.0000 0.08696  0.43391  0.20202  Biso   1.000  C
  C339     1.0000 0.61207  0.72523  0.21956  Biso   1.000  C
  C340     1.0000 0.60685  0.61714  0.19411  Biso   1.000  C
  H324     1.0000 0.54466  0.65583  0.17503  Biso   1.000  H
  N41      1.0000 0.52205  0.88822  0.59671  Biso   1.000  N
  H325     1.0000 0.54536  0.87994  0.65703  Biso   1.000  H
  C341     1.0000 0.61326  0.97945  0.63883  Biso   1.000  C
  C342     1.0000 0.70906  0.96294  0.66520  Biso   1.000  C
  H326     1.0000 0.64107  0.86175  0.68083  Biso   1.000  H
  H327     1.0000 0.69767  0.86916  0.64754  Biso   1.000  H
  H328     1.0000 0.41458  0.41735  0.64675  Biso   1.000  H
  H329     1.0000 0.36496  0.36185  0.61282  Biso   1.000  H
  C343     1.0000 0.32927  0.33614  0.67428  Biso   1.000  C
  N42      1.0000 0.22656  0.42666  0.61052  Biso   1.000  N
  C344     1.0000 0.21977  0.33323  0.65536  Biso   1.000  C
  H330     1.0000 0.25347  0.35653  0.59333  Biso   1.000  H
  H331     1.0000 0.12087  0.34815  0.16233  Biso   1.000  H
  H332     1.0000 0.11118  0.29894  0.20133  Biso   1.000  H
  C345     1.0000 0.01856  0.28836  0.18033  Biso   1.000  C
  N43      1.0000 0.10355  0.48691  0.23343  Biso   1.000  N
  C346     1.0000 0.01027  0.39313  0.19411  Biso   1.000  C
  H333     1.0000 0.11117  0.45533  0.17503  Biso   1.000  H
  N44      1.0000 0.57079  0.75774  0.22621  Biso   1.000  N
  H334     1.0000 0.63136  0.72176  0.24724  Biso   1.000  H
  C347     1.0000 0.67048  0.76653  0.18916  Biso   1.000  C
  C348     1.0000 0.66588  0.65864  0.16403  Biso   1.000  C
  H335     1.0000 0.57656  0.57134  0.18194  Biso   1.000  H
  H336     1.0000 0.62496  0.61106  0.22123  Biso   1.000  H
  C349     1.0000 0.45907  0.85883  0.60645  Biso   1.000  C
  H337     1.0000 0.58267  0.99723  0.64675  Biso   1.000  H
  C350     1.0000 0.66388  0.99315  0.67428  Biso   1.000  C
  H338     1.0000 0.63819  0.00311  0.61282  Biso   1.000  H
  H339     1.0000 0.73907  0.98701  0.64095  Biso   1.000  H
  H340     1.0000 0.73859  0.96994  0.68995  Biso   1.000  H
  H341     1.0000 0.33489  0.36154  0.70083  Biso   1.000  H
  H342     1.0000 0.35026  0.30721  0.67834  Biso   1.000  H
  C351     1.0000 0.25385  0.29091  0.66520  Biso   1.000  C
  C352     1.0000 0.22029  0.43703  0.57205  Biso   1.000  C
  H343     1.0000 0.22068  0.35894  0.68083  Biso   1.000  H
  H344     1.0000 0.17147  0.30231  0.64754  Biso   1.000  H
  H345     1.0000 0.00918  0.25232  0.15924  Biso   1.000  H
  H346     1.0000 0.99405  0.26561  0.20663  Biso   1.000  H
  C353     1.0000 0.99277  0.33415  0.16403  Biso   1.000  C
  C354     1.0000 0.14069  0.54855  0.22271  Biso   1.000  C
  H347     1.0000 0.99475  0.42344  0.18194  Biso   1.000  H
  H348     1.0000 0.98608  0.37504  0.22123  Biso   1.000  H
  C355     1.0000 0.55217  0.75794  0.26414  Biso   1.000  C
  H349     1.0000 0.65184  0.77271  0.16233  Biso   1.000  H
  H350     1.0000 0.70107  0.81222  0.20133  Biso   1.000  H
  C356     1.0000 0.71169  0.73024  0.18033  Biso   1.000  C
  H351     1.0000 0.64746  0.66084  0.13612  Biso   1.000  H
  H352     1.0000 0.69297  0.63554  0.16043  Biso   1.000  H
  C357     1.0000 0.40514  0.83931  0.57533  Biso   1.000  C
  H353     1.0000 0.44664  0.84902  0.63533  Biso   1.000  H
  H354     1.0000 0.63847  0.97332  0.70083  Biso   1.000  H
  H355     1.0000 0.69276  0.04303  0.67834  Biso   1.000  H
  H356     1.0000 0.24797  0.26091  0.64095  Biso   1.000  H
  H357     1.0000 0.23136  0.26142  0.68995  Biso   1.000  H
  C358     1.0000 0.19697  0.48512  0.55846  Biso   1.000  C
  H358     1.0000 0.23065  0.41342  0.55124  Biso   1.000  H
  H359     1.0000 0.01339  0.35255  0.13612  Biso   1.000  H
  H360     1.0000 0.94255  0.30701  0.16043  Biso   1.000  H
  H361     1.0000 0.15185  0.55954  0.19383  Biso   1.000  H
  C359     1.0000 0.16689  0.60395  0.25459  Biso   1.000  C
  C360     1.0000 0.50486  0.78345  0.27505  Biso   1.000  C
  H362     1.0000 0.56887  0.74133  0.28593  Biso   1.000  H
  H363     1.0000 0.73439  0.72845  0.20663  Biso   1.000  H
  H364     1.0000 0.74764  0.75682  0.15924  Biso   1.000  H
  C361     1.0000 0.33919  0.81984  0.58794  Biso   1.000  C
  C362     1.0000 0.41849  0.83645  0.53276  Biso   1.000  C
  C363     1.0000 0.19834  0.50061  0.51570  Biso   1.000  C
  C364     1.0000 0.18016  0.51932  0.58794  Biso   1.000  C
  C365     1.0000 0.16964  0.58591  0.29640  Biso   1.000  C
  C366     1.0000 0.19206  0.67172  0.24377  Biso   1.000  C
  C367     1.0000 0.48447  0.78135  0.31686  Biso   1.000  C
  C368     1.0000 0.47965  0.80793  0.24377  Biso   1.000  C
  C369     1.0000 0.28816  0.80302  0.55846  Biso   1.000  C
  H365     1.0000 0.32887  0.81805  0.61714  Biso   1.000  H
  C370     1.0000 0.36797  0.81835  0.50271  Biso   1.000  C
  H366     1.0000 0.46295  0.84703  0.52425  Biso   1.000  H
  C371     1.0000 0.18164  0.54962  0.50271  Biso   1.000  C
  H367     1.0000 0.21067  0.47782  0.49533  Biso   1.000  H
  C372     1.0000 0.16066  0.56583  0.57533  Biso   1.000  C
  H368     1.0000 0.18199  0.51083  0.61714  Biso   1.000  H
  H369     1.0000 0.15417  0.53956  0.30324  Biso   1.000  H
  C373     1.0000 0.19476  0.63482  0.32812  Biso   1.000  C
  C374     1.0000 0.21657  0.72145  0.27505  Biso   1.000  C
  H370     1.0000 0.19279  0.68435  0.21514  Biso   1.000  H
  C375     1.0000 0.44005  0.80522  0.32812  Biso   1.000  C
  H371     1.0000 0.50085  0.76331  0.33802  Biso   1.000  H
  C376     1.0000 0.43706  0.83312  0.25459  Biso   1.000  C
  H372     1.0000 0.49155  0.80721  0.21514  Biso   1.000  H
  C377     1.0000 0.30225  0.80164  0.51570  Biso   1.000  C
  C378     1.0000 0.21675  0.77972  0.57205  Biso   1.000  C
  C379     1.0000 0.38367  0.81355  0.45743  Biso   1.000  C
  C380     1.0000 0.18644  0.57012  0.45743  Biso   1.000  C
  C381     1.0000 0.16358  0.58203  0.53276  Biso   1.000  C
  C382     1.0000 0.14117  0.60022  0.60645  Biso   1.000  C
  C383     1.0000 0.21866  0.70315  0.31686  Biso   1.000  C
  C384     1.0000 0.19318  0.61325  0.37296  Biso   1.000  C
  C385     1.0000 0.24207  0.79423  0.26414  Biso   1.000  C
  C386     1.0000 0.41626  0.83031  0.29640  Biso   1.000  C
  C387     1.0000 0.42007  0.80685  0.37296  Biso   1.000  C
  C388     1.0000 0.40785  0.85934  0.22271  Biso   1.000  C
  H373     1.0000 0.26714  0.78932  0.49533  Biso   1.000  H
  N45      1.0000 0.20006  0.77343  0.61052  Biso   1.000  N
  H374     1.0000 0.18275  0.76934  0.55124  Biso   1.000  H
  C389     1.0000 0.37478  0.85065  0.42606  Biso   1.000  C
  C390     1.0000 0.40957  0.77144  0.44592  Biso   1.000  C
  C391     1.0000 0.14937  0.52412  0.42606  Biso   1.000  C
  C392     1.0000 0.22856  0.63814  0.44592  Biso   1.000  C
  H375     1.0000 0.15295  0.61591  0.52425  Biso   1.000  H
  N46      1.0000 0.11177  0.63385  0.59671  Biso   1.000  N
  H376     1.0000 0.15097  0.59761  0.63533  Biso   1.000  H
  H377     1.0000 0.23665  0.73755  0.33802  Biso   1.000  H
  C393     1.0000 0.15128  0.54502  0.38478  Biso   1.000  C
  C394     1.0000 0.23255  0.65915  0.40421  Biso   1.000  C
  N47      1.0000 0.24226  0.81304  0.22621  Biso   1.000  N
  H378     1.0000 0.25868  0.82755  0.28593  Biso   1.000  H
  H379     1.0000 0.38539  0.84585  0.30324  Biso   1.000  H
  C395     1.0000 0.39377  0.84871  0.38478  Biso   1.000  C
  C396     1.0000 0.42657  0.76745  0.40421  Biso   1.000  C
  N48      1.0000 0.38338  0.89645  0.23343  Biso   1.000  N
  H380     1.0000 0.40765  0.84815  0.19383  Biso   1.000  H
  C397     1.0000 0.12645  0.74333  0.61928  Biso   1.000  C
  H381     1.0000 0.35529  0.87815  0.43293  Biso   1.000  H
  H382     1.0000 0.41584  0.74501  0.46683  Biso   1.000  H
  H383     1.0000 0.12186  0.47715  0.43293  Biso   1.000  H
  H384     1.0000 0.25496  0.67085  0.46683  Biso   1.000  H
  C398     1.0000 0.09719  0.66825  0.63073  Biso   1.000  C
  H385     1.0000 0.12364  0.51231  0.36413  Biso   1.000  H
  H386     1.0000 0.26266  0.70556  0.39705  Biso   1.000  H
  C399     1.0000 0.27478  0.88684  0.21956  Biso   1.000  C
  H387     1.0000 0.38867  0.87631  0.36413  Biso   1.000  H
  H388     1.0000 0.44286  0.73735  0.39705  Biso   1.000  H
  C400     1.0000 0.34698  0.91306  0.20202  Biso   1.000  C
  C401     1.0000 0.11348  0.78023  0.65536  Biso   1.000  C
  H389     1.0000 0.10306  0.74655  0.59333  Biso   1.000  H
  H390     1.0000 0.12009  0.66544  0.65703  Biso   1.000  H
  C402     1.0000 0.02059  0.63385  0.63883  Biso   1.000  C
  H391     1.0000 0.27826  0.90963  0.24724  Biso   1.000  H
  C403     1.0000 0.23344  0.90391  0.18916  Biso   1.000  C
  C404     1.0000 0.38288  0.98972  0.19411  Biso   1.000  C
  H392     1.0000 0.34416  0.88883  0.17503  Biso   1.000  H
  C405     1.0000 0.03708  0.74614  0.66520  Biso   1.000  C
  H393     1.0000 0.13827  0.77936  0.68083  Biso   1.000  H
  H394     1.0000 0.13086  0.82852  0.64754  Biso   1.000  H
  H395     1.0000 0.00277  0.58545  0.64675  Biso   1.000  H
  C406     1.0000 0.00687  0.67075  0.67428  Biso   1.000  C
  H396     1.0000 0.99688  0.63503  0.61282  Biso   1.000  H
  H397     1.0000 0.22728  0.87912  0.16233  Biso   1.000  H
  H398     1.0000 0.18779  0.88883  0.20133  Biso   1.000  H
  C407     1.0000 0.26977  0.98144  0.18033  Biso   1.000  C
  C408     1.0000 0.34136  0.00725  0.16403  Biso   1.000  C
  H399     1.0000 0.42864  0.00521  0.18194  Biso   1.000  H
  H400     1.0000 0.38897  0.01395  0.22123  Biso   1.000  H
  H401     1.0000 0.01297  0.75201  0.64095  Biso   1.000  H
  H402     1.0000 0.03004  0.76862  0.68995  Biso   1.000  H
  H403     1.0000 0.02667  0.66513  0.70083  Biso   1.000  H
  H404     1.0000 0.95697  0.64975  0.67834  Biso   1.000  H
  H405     1.0000 0.24318  0.99085  0.15924  Biso   1.000  H
  H406     1.0000 0.27152  0.00592  0.20663  Biso   1.000  H
  H407     1.0000 0.33916  0.98665  0.13612  Biso   1.000  H
  H408     1.0000 0.36447  0.05744  0.16043  Biso   1.000  H
  C409     1.0000 0.44679  0.44690  0.32203  Biso   1.000  C
  C410     1.0000 0.45981  0.40999  0.28596  Biso   1.000  C
  C411     1.0000 0.37039  0.41281  0.33187  Biso   1.000  C
  H409     1.0000 0.47160  0.44598  0.34751  Biso   1.000  H
  H410     1.0000 0.46421  0.49519  0.31421  Biso   1.000  H
  C412     1.0000 0.43050  0.33492  0.29741  Biso   1.000  C
  N49      1.0000 0.53342  0.44010  0.27720  Biso   1.000  N
  H411     1.0000 0.43641  0.41321  0.26001  Biso   1.000  H
  C413     1.0000 0.34022  0.33742  0.34092  Biso   1.000  C
  H412     1.0000 0.34629  0.41868  0.30759  Biso   1.000  H
  H413     1.0000 0.36340  0.43529  0.35659  Biso   1.000  H
  C414     1.0000 0.35391  0.30052  0.30551  Biso   1.000  C
  N50      1.0000 0.44513  0.30052  0.26339  Biso   1.000  N
  H414     1.0000 0.45340  0.33210  0.32371  Biso   1.000  H
  C415     1.0000 0.55011  0.44638  0.23873  Biso   1.000  C
  H415     1.0000 0.35999  0.33180  0.36750  Biso   1.000  H
  H416     1.0000 0.29033  0.31641  0.34499  Biso   1.000  H
  H417     1.0000 0.33612  0.25212  0.31339  Biso   1.000  H
  H418     1.0000 0.33020  0.30170  0.27950  Biso   1.000  H
  C416     1.0000 0.47448  0.26689  0.27313  Biso   1.000  C
  C417     1.0000 0.62151  0.46969  0.22511  Biso   1.000  C
  H419     1.0000 0.51611  0.43601  0.21788  Biso   1.000  H
  C418     1.0000 0.49402  0.23249  0.24198  Biso   1.000  C
  H420     1.0000 0.48429  0.26428  0.30201  Biso   1.000  H
  C419     1.0000 0.63561  0.46831  0.18238  Biso   1.000  C
  C420     1.0000 0.67250  0.48650  0.25462  Biso   1.000  C
  C421     1.0000 0.51348  0.18598  0.25462  Biso   1.000  C
  C422     1.0000 0.49690  0.24870  0.19941  Biso   1.000  C
  C423     1.0000 0.70133  0.48502  0.16939  Biso   1.000  C
  H421     1.0000 0.60050  0.45599  0.16201  Biso   1.000  H
  H422     1.0000 0.66222  0.48472  0.28379  Biso   1.000  H
  C424     1.0000 0.73849  0.50598  0.24198  Biso   1.000  C
  C425     1.0000 0.53029  0.15179  0.22511  Biso   1.000  C
  H423     1.0000 0.51530  0.17750  0.28379  Biso   1.000  H
  C426     1.0000 0.51500  0.21629  0.16939  Biso   1.000  C
  H424     1.0000 0.48631  0.28258  0.19089  Biso   1.000  H
  C427     1.0000 0.71703  0.48022  0.12411  Biso   1.000  C
  C428     1.0000 0.75180  0.50311  0.19941  Biso   1.000  C
  C429     1.0000 0.79238  0.52550  0.27313  Biso   1.000  C
  C430     1.0000 0.53170  0.16728  0.18238  Biso   1.000  C
  C431     1.0000 0.55360  0.10370  0.23873  Biso   1.000  C
  C432     1.0000 0.51980  0.23679  0.12411  Biso   1.000  C
  C433     1.0000 0.70809  0.51732  0.09274  Biso   1.000  C
  C434     1.0000 0.74289  0.43810  0.11260  Biso   1.000  C
  H425     1.0000 0.79631  0.51369  0.19089  Biso   1.000  H
  N51      1.0000 0.85541  0.55489  0.26339  Biso   1.000  N
  H426     1.0000 0.78000  0.51569  0.30201  Biso   1.000  H
  H427     1.0000 0.54398  0.14448  0.16201  Biso   1.000  H
  N52      1.0000 0.55992  0.09332  0.27720  Biso   1.000  N
  H428     1.0000 0.56401  0.08009  0.21788  Biso   1.000  H
  C435     1.0000 0.48268  0.19079  0.09274  Biso   1.000  C
  C436     1.0000 0.56191  0.30481  0.11260  Biso   1.000  C
  C437     1.0000 0.72708  0.51538  0.05143  Biso   1.000  C
  H429     1.0000 0.68860  0.54482  0.09961  Biso   1.000  H
  H430     1.0000 0.74919  0.41168  0.13351  Biso   1.000  H
  C438     1.0000 0.75993  0.43412  0.07088  Biso   1.000  C
  C439     1.0000 0.90441  0.56951  0.29741  Biso   1.000  C
  C440     1.0000 0.58998  0.04978  0.28596  Biso   1.000  C
  C441     1.0000 0.48459  0.21169  0.05143  Biso   1.000  C
  H431     1.0000 0.45521  0.14382  0.09961  Biso   1.000  H
  H432     1.0000 0.58832  0.33752  0.13351  Biso   1.000  H
  C442     1.0000 0.56591  0.32582  0.07088  Biso   1.000  C
  C443     1.0000 0.75343  0.47352  0.03964  Biso   1.000  C
  H433     1.0000 0.72198  0.54298  0.03081  Biso   1.000  H
  H434     1.0000 0.77621  0.40401  0.06369  Biso   1.000  H
  H435     1.0000 0.87871  0.54661  0.32371  Biso   1.000  H
  C444     1.0000 0.94661  0.64612  0.30551  Biso   1.000  C
  C445     1.0000 0.95019  0.54022  0.28596  Biso   1.000  C
  C446     1.0000 0.66513  0.09562  0.29741  Biso   1.000  C
  H436     1.0000 0.58678  0.02320  0.26001  Biso   1.000  H
  C447     1.0000 0.55313  0.99990  0.32203  Biso   1.000  C
  C448     1.0000 0.52650  0.27992  0.03964  Biso   1.000  C
  H437     1.0000 0.45699  0.17898  0.03081  Biso   1.000  H
  H438     1.0000 0.59602  0.37223  0.06369  Biso   1.000  H
  C449     1.0000 0.77341  0.47189  0.99477  Biso   1.000  C
  H439     1.0000 0.91598  0.66390  0.31339  Biso   1.000  H
  H440     1.0000 0.97150  0.66978  0.27950  Biso   1.000  H
  C450     1.0000 0.99719  0.65981  0.34092  Biso   1.000  C
  N53      1.0000 0.90671  0.46662  0.27720  Biso   1.000  N
  H441     1.0000 0.97678  0.56358  0.26001  Biso   1.000  H
  C451     1.0000 0.00010  0.55320  0.32203  Biso   1.000  C
  N54      1.0000 0.69948  0.14459  0.26339  Biso   1.000  N
  H442     1.0000 0.66791  0.12128  0.32371  Biso   1.000  H
  C452     1.0000 0.69952  0.05341  0.30551  Biso   1.000  C
  H443     1.0000 0.55399  0.02561  0.34751  Biso   1.000  H
  C453     1.0000 0.58719  0.95763  0.33187  Biso   1.000  C
  H444     1.0000 0.50481  0.96903  0.31421  Biso   1.000  H
  C454     1.0000 0.52807  0.30149  0.99477  Biso   1.000  C
  C455     1.0000 0.74958  0.49698  0.96308  Biso   1.000  C
  C456     1.0000 0.81782  0.44802  0.98354  Biso   1.000  C
  H445     1.0000 0.97179  0.63998  0.36750  Biso   1.000  H
  H446     1.0000 0.02612  0.70970  0.34499  Biso   1.000  H
  C457     1.0000 0.04242  0.62961  0.33187  Biso   1.000  C
  C458     1.0000 0.89631  0.44991  0.23873  Biso   1.000  C
  H447     1.0000 0.97443  0.52841  0.34751  Biso   1.000  H
  H448     1.0000 0.03102  0.53582  0.31421  Biso   1.000  H
  C459     1.0000 0.73311  0.20760  0.27313  Biso   1.000  C
  H449     1.0000 0.74789  0.08402  0.31339  Biso   1.000  H
  H450     1.0000 0.69832  0.02852  0.27950  Biso   1.000  H
  C460     1.0000 0.66258  0.00281  0.34092  Biso   1.000  C
  H451     1.0000 0.58131  0.92763  0.30759  Biso   1.000  H
  H452     1.0000 0.56467  0.92809  0.35659  Biso   1.000  H
  C461     1.0000 0.50300  0.25258  0.96308  Biso   1.000  C
  C462     1.0000 0.55202  0.36982  0.98354  Biso   1.000  C
  C463     1.0000 0.77041  0.49979  0.92127  Biso   1.000  C
  H453     1.0000 0.71870  0.51252  0.96989  Biso   1.000  H
  H454     1.0000 0.83421  0.42998  0.00470  Biso   1.000  H
  C464     1.0000 0.83821  0.45011  0.94173  Biso   1.000  C
  H455     1.0000 0.07238  0.65368  0.30759  Biso   1.000  H
  H456     1.0000 0.07190  0.63661  0.35659  Biso   1.000  H
  C465     1.0000 0.84822  0.37851  0.22511  Biso   1.000  C
  H457     1.0000 0.91990  0.48390  0.21788  Biso   1.000  H
  C466     1.0000 0.76751  0.26152  0.24198  Biso   1.000  C
  H458     1.0000 0.73569  0.22002  0.30201  Biso   1.000  H
  H459     1.0000 0.66820  0.02821  0.36750  Biso   1.000  H
  H460     1.0000 0.68357  0.97388  0.34499  Biso   1.000  H
  C467     1.0000 0.50020  0.27062  0.92127  Biso   1.000  C
  H461     1.0000 0.48752  0.20622  0.96989  Biso   1.000  H
  H462     1.0000 0.57001  0.40422  0.00470  Biso   1.000  H
  C468     1.0000 0.54992  0.38812  0.94173  Biso   1.000  C
  C469     1.0000 0.74121  0.52601  0.88939  Biso   1.000  C
  C470     1.0000 0.81301  0.47460  0.91042  Biso   1.000  C
  C471     1.0000 0.88552  0.42461  0.93079  Biso   1.000  C
  C472     1.0000 0.81400  0.32751  0.25462  Biso   1.000  C
  C473     1.0000 0.83271  0.36441  0.18238  Biso   1.000  C
  C474     1.0000 0.75128  0.24818  0.19941  Biso   1.000  C
  C475     1.0000 0.47401  0.21522  0.88939  Biso   1.000  C
  C476     1.0000 0.52541  0.33839  0.91042  Biso   1.000  C
  C477     1.0000 0.57538  0.46090  0.93079  Biso   1.000  C
  N55      1.0000 0.71669  0.56312  0.90011  Biso   1.000  N
  H463     1.0000 0.74101  0.51482  0.86050  Biso   1.000  H
  H464     1.0000 0.82491  0.47388  0.88179  Biso   1.000  H
  N56      1.0000 0.90410  0.42441  0.89289  Biso   1.000  N
  H465     1.0000 0.90218  0.40800  0.95261  Biso   1.000  H
  H466     1.0000 0.82250  0.33778  0.28379  Biso   1.000  H
  C478     1.0000 0.78370  0.29868  0.16939  Biso   1.000  C
  H467     1.0000 0.85549  0.39952  0.16201  Biso   1.000  H
  H468     1.0000 0.71740  0.20372  0.19089  Biso   1.000  H
  N57      1.0000 0.43690  0.15358  0.90011  Biso   1.000  N
  H469     1.0000 0.48521  0.22621  0.86050  Biso   1.000  H
  H470     1.0000 0.52610  0.35102  0.88179  Biso   1.000  H
  N58      1.0000 0.57562  0.47971  0.89289  Biso   1.000  N
  H471     1.0000 0.59200  0.49422  0.95261  Biso   1.000  H
  C479     1.0000 0.68027  0.57968  0.86870  Biso   1.000  C
  C480     1.0000 0.94539  0.39190  0.88623  Biso   1.000  C
  C481     1.0000 0.76319  0.28299  0.12411  Biso   1.000  C
  C482     1.0000 0.42027  0.10058  0.86870  Biso   1.000  C
  C483     1.0000 0.60810  0.55351  0.88623  Biso   1.000  C
  C484     1.0000 0.71619  0.65639  0.86079  Biso   1.000  C
  H472     1.0000 0.67752  0.55550  0.84171  Biso   1.000  H
  H473     1.0000 0.96469  0.38838  0.91389  Biso   1.000  H
  C485     1.0000 0.89941  0.31969  0.86870  Biso   1.000  C
  C486     1.0000 0.00379  0.43320  0.85584  Biso   1.000  C
  C487     1.0000 0.80920  0.29188  0.09274  Biso   1.000  C
  C488     1.0000 0.69517  0.25708  0.11260  Biso   1.000  C
  C489     1.0000 0.44649  0.05458  0.88623  Biso   1.000  C
  C490     1.0000 0.34358  0.05980  0.86079  Biso   1.000  C
  H474     1.0000 0.44448  0.12200  0.84171  Biso   1.000  H
  H475     1.0000 0.61161  0.57630  0.91389  Biso   1.000  H
  C491     1.0000 0.56679  0.57058  0.85584  Biso   1.000  C
  C492     1.0000 0.67472  0.67392  0.83071  Biso   1.000  C
  H476     1.0000 0.76200  0.67188  0.84862  Biso   1.000  H
  H477     1.0000 0.72233  0.68062  0.88790  Biso   1.000  H
  N59      1.0000 0.84638  0.28330  0.90011  Biso   1.000  N
  C493     1.0000 0.94020  0.28381  0.86079  Biso   1.000  C
  H478     1.0000 0.87802  0.32250  0.84171  Biso   1.000  H
  H479     1.0000 0.98519  0.43938  0.82900  Biso   1.000  H
  H480     1.0000 0.03438  0.47889  0.86801  Biso   1.000  H
  C494     1.0000 0.04500  0.39691  0.84701  Biso   1.000  C
  C495     1.0000 0.78830  0.27292  0.05143  Biso   1.000  C
  H481     1.0000 0.85619  0.31141  0.09961  Biso   1.000  H
  H482     1.0000 0.66251  0.25079  0.13351  Biso   1.000  H
  C496     1.0000 0.67421  0.24011  0.07088  Biso   1.000  C
  C497     1.0000 0.42944  0.99622  0.85584  Biso   1.000  C
  N60      1.0000 0.52030  0.09588  0.89289  Biso   1.000  N
  H483     1.0000 0.42371  0.03532  0.91389  Biso   1.000  H
  C498     1.0000 0.32613  0.00082  0.83071  Biso   1.000  C
  H484     1.0000 0.32810  0.09010  0.84862  Biso   1.000  H
  H485     1.0000 0.31940  0.04170  0.88790  Biso   1.000  H
  H486     1.0000 0.56060  0.54579  0.82900  Biso   1.000  H
  H487     1.0000 0.52110  0.55550  0.86801  Biso   1.000  H
  C499     1.0000 0.60312  0.64811  0.84701  Biso   1.000  C
  H488     1.0000 0.67252  0.65332  0.80280  Biso   1.000  H
  H489     1.0000 0.69782  0.72411  0.82711  Biso   1.000  H
  C500     1.0000 0.78479  0.25881  0.88939  Biso   1.000  C
  C501     1.0000 0.99920  0.32531  0.83071  Biso   1.000  C
  H490     1.0000 0.90992  0.23801  0.84862  Biso   1.000  H
  H491     1.0000 0.95832  0.27773  0.88790  Biso   1.000  H
  H492     1.0000 0.06770  0.39512  0.87331  Biso   1.000  H
  H493     1.0000 0.08100  0.42349  0.82591  Biso   1.000  H
  C502     1.0000 0.72012  0.24660  0.03964  Biso   1.000  C
  H494     1.0000 0.82097  0.27798  0.03081  Biso   1.000  H
  H495     1.0000 0.62781  0.22381  0.06369  Biso   1.000  H
  H496     1.0000 0.44449  0.96560  0.86801  Biso   1.000  H
  C503     1.0000 0.35192  0.95502  0.84701  Biso   1.000  C
  H497     1.0000 0.45423  0.01482  0.82900  Biso   1.000  H
  C504     1.0000 0.53907  0.11448  0.93079  Biso   1.000  C
  H498     1.0000 0.27589  0.97373  0.82711  Biso   1.000  H
  H499     1.0000 0.34670  0.01922  0.80280  Biso   1.000  H
  H500     1.0000 0.60487  0.67259  0.87331  Biso   1.000  H
  H501     1.0000 0.57649  0.65751  0.82591  Biso   1.000  H
  H502     1.0000 0.77382  0.25902  0.86050  Biso   1.000  H
  C505     1.0000 0.72941  0.22958  0.92127  Biso   1.000  C
  H503     1.0000 0.98082  0.32751  0.80280  Biso   1.000  H
  H504     1.0000 0.02629  0.30221  0.82711  Biso   1.000  H
  C506     1.0000 0.69849  0.22662  0.99477  Biso   1.000  C
  H505     1.0000 0.32740  0.93228  0.87331  Biso   1.000  H
  H506     1.0000 0.34249  0.91899  0.82591  Biso   1.000  H
  C507     1.0000 0.61191  0.16181  0.94173  Biso   1.000  C
  H507     1.0000 0.50582  0.09782  0.95261  Biso   1.000  H
  C508     1.0000 0.74737  0.25038  0.96308  Biso   1.000  C
  C509     1.0000 0.66160  0.18701  0.91042  Biso   1.000  C
  C510     1.0000 0.63021  0.18220  0.98354  Biso   1.000  C
  H508     1.0000 0.79382  0.28130  0.96989  Biso   1.000  H
  H509     1.0000 0.64901  0.17510  0.88179  Biso   1.000  H
  H510     1.0000 0.59580  0.16580  0.00470  Biso   1.000  H
  C511     1.0000 0.93644  0.31478  0.51365  Biso   1.000  C
  C512     1.0000 0.90010  0.23725  0.52251  Biso   1.000  C
  H511     1.0000 0.93823  0.33926  0.53998  Biso   1.000  H
  H512     1.0000 0.90985  0.32418  0.49256  Biso   1.000  H
  C513     1.0000 0.00803  0.34059  0.49735  Biso   1.000  C
  C514     1.0000 0.94145  0.22018  0.55291  Biso   1.000  C
  H513     1.0000 0.89395  0.21246  0.49568  Biso   1.000  H
  H514     1.0000 0.85446  0.22217  0.53465  Biso   1.000  H
  H515     1.0000 0.00583  0.31999  0.46948  Biso   1.000  H
  H516     1.0000 0.03113  0.39078  0.49376  Biso   1.000  H
  C515     1.0000 0.04955  0.32306  0.52746  Biso   1.000  C
  N61      1.0000 0.90893  0.14638  0.55956  Biso   1.000  N
  H517     1.0000 0.94493  0.24297  0.58056  Biso   1.000  H
  C516     1.0000 0.01362  0.24634  0.53535  Biso   1.000  C
  H518     1.0000 0.09531  0.33854  0.51526  Biso   1.000  H
  H519     1.0000 0.05564  0.34728  0.55458  Biso   1.000  H
  C517     1.0000 0.90874  0.12757  0.59746  Biso   1.000  C
  N62      1.0000 0.05005  0.22979  0.56678  Biso   1.000  N
  H520     1.0000 0.01083  0.22217  0.50836  Biso   1.000  H
  C518     1.0000 0.88323  0.05479  0.60837  Biso   1.000  C
  H521     1.0000 0.92535  0.16089  0.61925  Biso   1.000  H
  C519     1.0000 0.07452  0.19268  0.55603  Biso   1.000  C
  C520     1.0000 0.88533  0.03649  0.65019  Biso   1.000  C
  C521     1.0000 0.85872  0.00506  0.57710  Biso   1.000  C
  H522     1.0000 0.07432  0.18149  0.52718  Biso   1.000  H
  C522     1.0000 0.10372  0.16646  0.58791  Biso   1.000  C
  H523     1.0000 0.90332  0.07089  0.67138  Biso   1.000  H
  C523     1.0000 0.86143  0.96816  0.66144  Biso   1.000  C
  H524     1.0000 0.85946  0.01768  0.54846  Biso   1.000  H
  C524     1.0000 0.83356  0.93729  0.58791  Biso   1.000  C
  C525     1.0000 0.08293  0.16365  0.62975  Biso   1.000  C
  C526     1.0000 0.14632  0.14126  0.57710  Biso   1.000  C
  C527     1.0000 0.83636  0.91925  0.62975  Biso   1.000  C
  C528     1.0000 0.85981  0.94659  0.70628  Biso   1.000  C
  C529     1.0000 0.80736  0.88189  0.55603  Biso   1.000  C
  H525     1.0000 0.05206  0.17919  0.63656  Biso   1.000  H
  C530     1.0000 0.10672  0.13856  0.66144  Biso   1.000  C
  C531     1.0000 0.17152  0.11678  0.60837  Biso   1.000  C
  H526     1.0000 0.15822  0.14055  0.54846  Biso   1.000  H
  H527     1.0000 0.82088  0.87289  0.63656  Biso   1.000  H
  C532     1.0000 0.81795  0.87836  0.71811  Biso   1.000  C
  C533     1.0000 0.89922  0.99249  0.73756  Biso   1.000  C
  N63      1.0000 0.77026  0.82025  0.56678  Biso   1.000  N
  H528     1.0000 0.81852  0.89288  0.52718  Biso   1.000  H
  C534     1.0000 0.15113  0.11469  0.65019  Biso   1.000  C
  C535     1.0000 0.08674  0.14019  0.70628  Biso   1.000  C
  C536     1.0000 0.21884  0.09128  0.59746  Biso   1.000  C
  H529     1.0000 0.79031  0.84565  0.69745  Biso   1.000  H
  C537     1.0000 0.81604  0.85746  0.75938  Biso   1.000  C
  H530     1.0000 0.92930  0.03884  0.73037  Biso   1.000  H
  C538     1.0000 0.89527  0.97148  0.77925  Biso   1.000  C
  C539     1.0000 0.75359  0.76725  0.53535  Biso   1.000  C
  H531     1.0000 0.16752  0.09665  0.67138  Biso   1.000  H
  C540     1.0000 0.06044  0.18205  0.71811  Biso   1.000  C
  C541     1.0000 0.09324  0.10079  0.73756  Biso   1.000  C
  N64      1.0000 0.23746  0.09108  0.55956  Biso   1.000  N
  H532     1.0000 0.23554  0.07467  0.61925  Biso   1.000  H
  H533     1.0000 0.78853  0.81049  0.76625  Biso   1.000  H
  C542     1.0000 0.85316  0.90346  0.79075  Biso   1.000  C
  H534     1.0000 0.92163  0.00419  0.80015  Biso   1.000  H
  C543     1.0000 0.77980  0.72125  0.55291  Biso   1.000  C
  C544     1.0000 0.67694  0.72647  0.52746  Biso   1.000  C
  H535     1.0000 0.77779  0.78867  0.50836  Biso   1.000  H
  H536     1.0000 0.05534  0.20965  0.69745  Biso   1.000  H
  C545     1.0000 0.04145  0.18399  0.75938  Biso   1.000  C
  C546     1.0000 0.07624  0.10477  0.77925  Biso   1.000  C
  H537     1.0000 0.10952  0.07068  0.73037  Biso   1.000  H
  C547     1.0000 0.27874  0.05857  0.55291  Biso   1.000  C
  C548     1.0000 0.84831  0.88296  0.83607  Biso   1.000  C
  N65      1.0000 0.85361  0.76255  0.55956  Biso   1.000  N
  H538     1.0000 0.75707  0.70198  0.58056  Biso   1.000  H
  C549     1.0000 0.76275  0.66289  0.52251  Biso   1.000  C
  C550     1.0000 0.65944  0.66749  0.49735  Biso   1.000  C
  H539     1.0000 0.66146  0.75677  0.51526  Biso   1.000  H
  H540     1.0000 0.65271  0.70837  0.55458  Biso   1.000  H
  H541     1.0000 0.02196  0.21149  0.76625  Biso   1.000  H
  C551     1.0000 0.05034  0.14689  0.79075  Biso   1.000  C
  H542     1.0000 0.08251  0.07835  0.80015  Biso   1.000  H
  C552     1.0000 0.23276  0.98635  0.53535  Biso   1.000  C
  H543     1.0000 0.29800  0.05504  0.58056  Biso   1.000  H
  C553     1.0000 0.33715  0.09987  0.52251  Biso   1.000  C
  C554     1.0000 0.86501  0.83395  0.84903  Biso   1.000  C
  C555     1.0000 0.83021  0.91536  0.86608  Biso   1.000  C
  C556     1.0000 0.87243  0.78115  0.59746  Biso   1.000  C
  H544     1.0000 0.78759  0.68149  0.49568  Biso   1.000  H
  H545     1.0000 0.77781  0.63227  0.53465  Biso   1.000  H
  C557     1.0000 0.68528  0.62169  0.51365  Biso   1.000  C
  H546     1.0000 0.68006  0.68589  0.46948  Biso   1.000  H
  H547     1.0000 0.60927  0.64035  0.49376  Biso   1.000  H
  C558     1.0000 0.03464  0.15169  0.83607  Biso   1.000  C
  N66      1.0000 0.17969  0.94996  0.56678  Biso   1.000  N
  C559     1.0000 0.27352  0.95048  0.52746  Biso   1.000  C
  H548     1.0000 0.21138  0.98916  0.50836  Biso   1.000  H
  H549     1.0000 0.31851  0.10605  0.49568  Biso   1.000  H
  H550     1.0000 0.36774  0.14556  0.53465  Biso   1.000  H
  C560     1.0000 0.37836  0.06358  0.51365  Biso   1.000  C
  H551     1.0000 0.87729  0.81115  0.82866  Biso   1.000  H
  C561     1.0000 0.86360  0.81846  0.89178  Biso   1.000  C
  C562     1.0000 0.82733  0.89916  0.90865  Biso   1.000  C
  H552     1.0000 0.81962  0.94925  0.85757  Biso   1.000  H
  C563     1.0000 0.94527  0.82848  0.60837  Biso   1.000  C
  H553     1.0000 0.83913  0.76449  0.61925  Biso   1.000  H
  H554     1.0000 0.66076  0.59895  0.53998  Biso   1.000  H
  H555     1.0000 0.67585  0.58566  0.49256  Biso   1.000  H
  C564     1.0000 0.96892  0.13498  0.84903  Biso   1.000  C
  C565     1.0000 0.08516  0.16978  0.86608  Biso   1.000  C
  C566     1.0000 0.11814  0.92548  0.55603  Biso   1.000  C
  C567     1.0000 0.33255  0.99198  0.49735  Biso   1.000  C
  H556     1.0000 0.24327  0.90468  0.51526  Biso   1.000  H
  H557     1.0000 0.29168  0.94439  0.55458  Biso   1.000  H
  H558     1.0000 0.40105  0.06179  0.53998  Biso   1.000  H
  H559     1.0000 0.41431  0.09016  0.49256  Biso   1.000  H
  C568     1.0000 0.84683  0.85265  0.92130  Biso   1.000  C
  C569     1.0000 0.88695  0.77037  0.90540  Biso   1.000  C
  C570     1.0000 0.80784  0.93356  0.93977  Biso   1.000  C
  C571     1.0000 0.96356  0.84887  0.65019  Biso   1.000  C
  C572     1.0000 0.99491  0.85368  0.57710  Biso   1.000  C
  H560     1.0000 0.93381  0.12266  0.82866  Biso   1.000  H
  C573     1.0000 0.95483  0.13636  0.89178  Biso   1.000  C
  C574     1.0000 0.07180  0.17265  0.90865  Biso   1.000  C
  H561     1.0000 0.12962  0.18036  0.85757  Biso   1.000  H
  H562     1.0000 0.10718  0.92569  0.52718  Biso   1.000  H
  C575     1.0000 0.06276  0.89625  0.58791  Biso   1.000  C
  H563     1.0000 0.31413  0.99417  0.46948  Biso   1.000  H
  H564     1.0000 0.35964  0.96887  0.49376  Biso   1.000  H
  H565     1.0000 0.84861  0.84417  0.95046  Biso   1.000  H
  N67      1.0000 0.89323  0.75999  0.94384  Biso   1.000  N
  H566     1.0000 0.89732  0.74676  0.88456  Biso   1.000  H
  N68      1.0000 0.77849  0.96719  0.93003  Biso   1.000  N
  H567     1.0000 0.81764  0.93095  0.96866  Biso   1.000  H
  H568     1.0000 0.92911  0.83247  0.67138  Biso   1.000  H
  C576     1.0000 0.03180  0.89328  0.66144  Biso   1.000  C
  H569     1.0000 0.98236  0.84177  0.54846  Biso   1.000  H
  C577     1.0000 0.88342  0.11305  0.90540  Biso   1.000  C
  C578     1.0000 0.00586  0.15317  0.92130  Biso   1.000  C
  C579     1.0000 0.12574  0.19217  0.93977  Biso   1.000  C
  C580     1.0000 0.08073  0.91705  0.62975  Biso   1.000  C
  C581     1.0000 0.92333  0.71645  0.95264  Biso   1.000  C
  C582     1.0000 0.76386  0.00158  0.96405  Biso   1.000  C
  C583     1.0000 0.05343  0.91327  0.70628  Biso   1.000  C
  N69      1.0000 0.86673  0.10677  0.94384  Biso   1.000  N
  H570     1.0000 0.84942  0.10268  0.88456  Biso   1.000  H
  H571     1.0000 0.99553  0.15138  0.95046  Biso   1.000  H
  N70      1.0000 0.18872  0.22156  0.93003  Biso   1.000  N
  H572     1.0000 0.11331  0.18236  0.96866  Biso   1.000  H
  H573     1.0000 0.12713  0.94797  0.63656  Biso   1.000  H
  C584     1.0000 0.99848  0.76229  0.96405  Biso   1.000  C
  C585     1.0000 0.88644  0.66657  0.98871  Biso   1.000  C
  H574     1.0000 0.92009  0.68987  0.92666  Biso   1.000  H
  C586     1.0000 0.79312  0.07666  0.95264  Biso   1.000  C
  H575     1.0000 0.78671  0.99877  0.99035  Biso   1.000  H
  C587     1.0000 0.68726  0.96719  0.97216  Biso   1.000  C
  C588     1.0000 0.12161  0.93959  0.71811  Biso   1.000  C
  C589     1.0000 0.00756  0.90678  0.73756  Biso   1.000  C
  C590     1.0000 0.23773  0.23617  0.96405  Biso   1.000  C
  N71      1.0000 0.03279  0.81126  0.93003  Biso   1.000  N
  H576     1.0000 0.00126  0.78795  0.99035  Biso   1.000  H
  C591     1.0000 0.03284  0.72008  0.97216  Biso   1.000  C
  C592     1.0000 0.92056  0.62425  0.99852  Biso   1.000  C
  H577     1.0000 0.83816  0.63570  0.98086  Biso   1.000  H
  H578     1.0000 0.88730  0.69227  0.01416  Biso   1.000  H
  C593     1.0000 0.78015  0.11356  0.98871  Biso   1.000  C
  H579     1.0000 0.76973  0.07988  0.92666  Biso   1.000  H
  H580     1.0000 0.66948  0.91879  0.98007  Biso   1.000  H
  H581     1.0000 0.66351  0.96836  0.94618  Biso   1.000  H
  C594     1.0000 0.67354  0.00409  0.00760  Biso   1.000  C
  H582     1.0000 0.15428  0.94465  0.69745  Biso   1.000  H
  C595     1.0000 0.14256  0.95855  0.75938  Biso   1.000  C
  H583     1.0000 0.96117  0.89047  0.73037  Biso   1.000  H
  C596     1.0000 0.02856  0.92380  0.77925  Biso   1.000  C
  H584     1.0000 0.21203  0.21328  0.99035  Biso   1.000  H
  C597     1.0000 0.27993  0.31279  0.97216  Biso   1.000  C
  C598     1.0000 0.28354  0.20689  0.95264  Biso   1.000  C
  C599     1.0000 0.06647  0.87427  0.93977  Biso   1.000  C
  C600     1.0000 0.99594  0.66948  0.00760  Biso   1.000  C
  H585     1.0000 0.08121  0.75069  0.98007  Biso   1.000  H
  H586     1.0000 0.03168  0.69519  0.94618  Biso   1.000  H
  H587     1.0000 0.91459  0.59425  0.97427  Biso   1.000  H
  H588     1.0000 0.89799  0.59476  0.02327  Biso   1.000  H
  C601     1.0000 0.70375  0.07947  0.99852  Biso   1.000  C
  H589     1.0000 0.79752  0.16186  0.98086  Biso   1.000  H
  H590     1.0000 0.80492  0.11264  0.01416  Biso   1.000  H
  H591     1.0000 0.69330  0.99847  0.03418  Biso   1.000  H
  H592     1.0000 0.62364  0.98308  0.01167  Biso   1.000  H
  H593     1.0000 0.18950  0.97807  0.76625  Biso   1.000  H
  C602     1.0000 0.09655  0.94966  0.79075  Biso   1.000  C
  H594     1.0000 0.99582  0.91746  0.80015  Biso   1.000  H
  H595     1.0000 0.24934  0.33057  0.98007  Biso   1.000  H
  H596     1.0000 0.30482  0.33645  0.94618  Biso   1.000  H
  C603     1.0000 0.33055  0.32648  0.00760  Biso   1.000  C
  N72      1.0000 0.24006  0.13329  0.94384  Biso   1.000  N
  C604     1.0000 0.33346  0.21987  0.98871  Biso   1.000  C
  H597     1.0000 0.31014  0.23025  0.92666  Biso   1.000  H
  C605     1.0000 0.10086  0.92819  0.90865  Biso   1.000  C
  H598     1.0000 0.06905  0.88669  0.96866  Biso   1.000  H
  H599     1.0000 0.00156  0.69488  0.03418  Biso   1.000  H
  H600     1.0000 0.01689  0.64055  0.01167  Biso   1.000  H
  H601     1.0000 0.67964  0.08535  0.97427  Biso   1.000  H
  H602     1.0000 0.69671  0.10196  0.02327  Biso   1.000  H
  C606     1.0000 0.11701  0.96535  0.83607  Biso   1.000  C
  C607     1.0000 0.37573  0.29628  0.99852  Biso   1.000  C
  H603     1.0000 0.30514  0.30665  0.03418  Biso   1.000  H
  H604     1.0000 0.35943  0.37637  0.01167  Biso   1.000  H
  C608     1.0000 0.22963  0.11658  0.90540  Biso   1.000  C
  H605     1.0000 0.36431  0.20244  0.98086  Biso   1.000  H
  H606     1.0000 0.30774  0.19508  0.01416  Biso   1.000  H
  C609     1.0000 0.14735  0.99417  0.92130  Biso   1.000  C
  C610     1.0000 0.08459  0.91485  0.86608  Biso   1.000  C
  C611     1.0000 0.16603  0.03107  0.84903  Biso   1.000  C
  H607     1.0000 0.40574  0.32035  0.97427  Biso   1.000  H
  H608     1.0000 0.40526  0.30328  0.02327  Biso   1.000  H
  C612     1.0000 0.18153  0.04518  0.89178  Biso   1.000  C
  H609     1.0000 0.25321  0.15057  0.88456  Biso   1.000  H
  H610     1.0000 0.15581  0.00445  0.95046  Biso   1.000  H
  H611     1.0000 0.05072  0.87039  0.85757  Biso   1.000  H
  H612     1.0000 0.18885  0.06619  0.82866  Biso   1.000  H
  Ne1      1.0000 0.66667  0.33334  0.08371  Biso   1.000  Ne
  He1      1.0000 0.66667  0.33333  0.11493  Biso   1.000  He
  He2      1.0000 0.66668  0.33335  0.06870  Biso   1.000  He
  Ar1      1.0000 0.66668  0.33335  0.08371  Biso   1.000  Ar
  Ne2      1.0000 0.66667  0.33333  0.58296  Biso   1.000  Ne
  He3      1.0000 0.66665  0.33331  0.59919  Biso   1.000  He
  He4      1.0000 0.66666  0.33333  0.55102  Biso   1.000  He
  Ar2      1.0000 0.66665  0.33331  0.57892  Biso   1.000  Ar
  Ne3      1.0000 0.33333  0.66667  0.41704  Biso   1.000  Ne
  He5      1.0000 0.33333  0.66666  0.44826  Biso   1.000  He
  He6      1.0000 0.33333  0.66668  0.40202  Biso   1.000  He
  Ar3      1.0000 0.33333  0.66666  0.42115  Biso   1.000  Ar
  Ne4      1.0000 1.00000  1.00000  0.24963  Biso   1.000  Ne
  He7      1.0000 0.00004  0.00001  0.26583  Biso   1.000  He
  He8      1.0000 0.99998  0.00001  0.21770  Biso   1.000  He
  Ar4      1.0000 0.00003  0.00000  0.24561  Biso   1.000  Ar
  Ne5      1.0000 0.33333  0.66667  0.91629  Biso   1.000  Ne
  He9      1.0000 0.33334  0.66664  0.93251  Biso   1.000  He
  He10     1.0000 0.33333  0.66667  0.88434  Biso   1.000  He
  Ar5      1.0000 0.33340  0.66690  0.91215  Biso   1.000  Ar
  Ne6      1.0000 0.00000  0.00000  0.75037  Biso   1.000  Ne
  He11     1.0000 0.00003  0.00002  0.78158  Biso   1.000  He
  He12     1.0000 0.99999  0.00001  0.73538  Biso   1.000  He
  Ar6      1.0000 0.99999  0.00000  0.75037  Biso   1.000  Ar
