data_image0
_cell_length_a       22.553
_cell_length_b       22.553
_cell_length_c       83.972
_cell_angle_alpha    90
_cell_angle_beta     90
_cell_angle_gamma    120

_symmetry_space_group_name_H-M    "P 1"
_symmetry_int_tables_number       1

loop_
  _symmetry_equiv_pos_as_xyz
  'x, y, z'

loop_
  _atom_site_label
  _atom_site_occupancy
  _atom_site_fract_x
  _atom_site_fract_y
  _atom_site_fract_z
  _atom_site_thermal_displace_type
  _atom_site_B_iso_or_equiv
  _atom_site_type_symbol
  C1       1.0000 0.51738  0.64440  0.49469  Biso   1.000  C
  C2       1.0000 0.49979  0.63262  0.47827  Biso   1.000  C
  C3       1.0000 0.53110  0.65418  0.50873  Biso   1.000  C
  C4       1.0000 0.45068  0.56509  0.47317  Biso   1.000  C
  C5       1.0000 0.52672  0.68551  0.46745  Biso   1.000  C
  C6       1.0000 0.54340  0.66672  0.52575  Biso   1.000  C
  C7       1.0000 0.43021  0.55500  0.45715  Biso   1.000  C
  H1       1.0000 0.43241  0.52792  0.48051  Biso   1.000  H
  C8       1.0000 0.50571  0.67460  0.45136  Biso   1.000  C
  H2       1.0000 0.55989  0.73021  0.47090  Biso   1.000  H
  C9       1.0000 0.52608  0.61470  0.53596  Biso   1.000  C
  C10      1.0000 0.57280  0.73261  0.53120  Biso   1.000  C
  C11      1.0000 0.37699  0.48430  0.45222  Biso   1.000  C
  C12      1.0000 0.45650  0.60820  0.44649  Biso   1.000  C
  C13      1.0000 0.53510  0.72949  0.43968  Biso   1.000  C
  C14      1.0000 0.53400  0.62602  0.55187  Biso   1.000  C
  H3       1.0000 0.50799  0.56939  0.53200  Biso   1.000  H
  H4       1.0000 0.58739  0.76968  0.52390  Biso   1.000  H
  C15      1.0000 0.58100  0.74459  0.54752  Biso   1.000  C
  N1       1.0000 0.35508  0.46878  0.43834  Biso   1.000  N
  H5       1.0000 0.35908  0.44927  0.46011  Biso   1.000  H
  H6       1.0000 0.44150  0.60011  0.43570  Biso   1.000  H
  H7       1.0000 0.52179  0.71920  0.42880  Biso   1.000  H
  N2       1.0000 0.57919  0.79231  0.44364  Biso   1.000  N
  C16      1.0000 0.55949  0.69181  0.55833  Biso   1.000  C
  H8       1.0000 0.52197  0.58849  0.55881  Biso   1.000  H
  H9       1.0000 0.60192  0.79042  0.55130  Biso   1.000  H
  C17      1.0000 0.30411  0.39859  0.43568  Biso   1.000  C
  C18      1.0000 0.60577  0.84228  0.43108  Biso   1.000  C
  C19      1.0000 0.55921  0.70189  0.57526  Biso   1.000  C
  C20      1.0000 0.32689  0.36700  0.42252  Biso   1.000  C
  C21      1.0000 0.23651  0.39418  0.43108  Biso   1.000  C
  H10      1.0000 0.29733  0.37242  0.44580  Biso   1.000  H
  C22      1.0000 0.60143  0.90551  0.43568  Biso   1.000  C
  C23      1.0000 0.67839  0.86061  0.42818  Biso   1.000  C
  H11      1.0000 0.57851  0.82190  0.42120  Biso   1.000  H
  C24      1.0000 0.55450  0.70968  0.58907  Biso   1.000  C
  C25      1.0000 0.27492  0.29312  0.42024  Biso   1.000  C
  H12      1.0000 0.33300  0.39198  0.41240  Biso   1.000  H
  H13      1.0000 0.37148  0.37140  0.42540  Biso   1.000  H
  C26      1.0000 0.18221  0.32158  0.42818  Biso   1.000  C
  H14      1.0000 0.24340  0.42152  0.42120  Biso   1.000  H
  N3       1.0000 0.21311  0.42081  0.44364  Biso   1.000  N
  H15      1.0000 0.62763  0.92492  0.44580  Biso   1.000  H
  C27      1.0000 0.63301  0.95989  0.42252  Biso   1.000  C
  N4       1.0000 0.53122  0.88631  0.43834  Biso   1.000  N
  C28      1.0000 0.71319  0.91852  0.41596  Biso   1.000  C
  H16      1.0000 0.67939  0.81970  0.42430  Biso   1.000  H
  H17      1.0000 0.70412  0.87500  0.43830  Biso   1.000  H
  C29      1.0000 0.54519  0.72130  0.60573  Biso   1.000  C
  C30      1.0000 0.20531  0.28682  0.41596  Biso   1.000  C
  H18      1.0000 0.27040  0.26731  0.43010  Biso   1.000  H
  H19      1.0000 0.28959  0.27351  0.41160  Biso   1.000  H
  H20      1.0000 0.14031  0.32061  0.42430  Biso   1.000  H
  H21      1.0000 0.17091  0.29588  0.43830  Biso   1.000  H
  C31      1.0000 0.19440  0.46489  0.43968  Biso   1.000  C
  H22      1.0000 0.60800  0.94099  0.41240  Biso   1.000  H
  C32      1.0000 0.70688  0.98180  0.42024  Biso   1.000  C
  H23      1.0000 0.62854  0.00008  0.42540  Biso   1.000  H
  C33      1.0000 0.51570  0.89271  0.45222  Biso   1.000  C
  H24      1.0000 0.69231  0.90131  0.40540  Biso   1.000  H
  H25      1.0000 0.76230  0.93239  0.41520  Biso   1.000  H
  C34      1.0000 0.52211  0.66769  0.61711  Biso   1.000  C
  C35      1.0000 0.55450  0.78320  0.61058  Biso   1.000  C
  H26      1.0000 0.20901  0.30771  0.40540  Biso   1.000  H
  H27      1.0000 0.17012  0.23772  0.41520  Biso   1.000  H
  C36      1.0000 0.16888  0.49428  0.45136  Biso   1.000  C
  H28      1.0000 0.19742  0.47820  0.42880  Biso   1.000  H
  H29      1.0000 0.73269  0.00310  0.43010  Biso   1.000  H
  H30      1.0000 0.72647  0.01610  0.41160  Biso   1.000  H
  C37      1.0000 0.44501  0.87520  0.45715  Biso   1.000  C
  H31      1.0000 0.55073  0.90981  0.46011  Biso   1.000  H
  C38      1.0000 0.50851  0.67640  0.63237  Biso   1.000  C
  H32      1.0000 0.51608  0.62458  0.61390  Biso   1.000  H
  C39      1.0000 0.54298  0.79579  0.62649  Biso   1.000  C
  H33      1.0000 0.56921  0.81909  0.60300  Biso   1.000  H
  C40      1.0000 0.15171  0.54348  0.44649  Biso   1.000  C
  C41      1.0000 0.15878  0.47329  0.46745  Biso   1.000  C
  C42      1.0000 0.39179  0.84832  0.44649  Biso   1.000  C
  C43      1.0000 0.43491  0.88560  0.47317  Biso   1.000  C
  C44      1.0000 0.52092  0.74121  0.63678  Biso   1.000  C
  C45      1.0000 0.48430  0.62151  0.64393  Biso   1.000  C
  C46      1.0000 0.55242  0.86061  0.63087  Biso   1.000  C
  C47      1.0000 0.12479  0.56980  0.45715  Biso   1.000  C
  H34      1.0000 0.15859  0.55848  0.43570  Biso   1.000  H
  C48      1.0000 0.13283  0.50022  0.47827  Biso   1.000  C
  H35      1.0000 0.17031  0.44011  0.47090  Biso   1.000  H
  C49      1.0000 0.32542  0.83112  0.45136  Biso   1.000  C
  H36      1.0000 0.39991  0.84141  0.43570  Biso   1.000  H
  C50      1.0000 0.36741  0.86722  0.47827  Biso   1.000  C
  H37      1.0000 0.47211  0.90449  0.48051  Biso   1.000  H
  H38      1.0000 0.51358  0.74818  0.64760  Biso   1.000  H
  H39      1.0000 0.47911  0.63108  0.65469  Biso   1.000  H
  N5       1.0000 0.46957  0.56048  0.64028  Biso   1.000  N
  H40      1.0000 0.56299  0.89399  0.62280  Biso   1.000  H
  N6       1.0000 0.54690  0.87592  0.64552  Biso   1.000  N
  C51      1.0000 0.11441  0.54932  0.47317  Biso   1.000  C
  C52      1.0000 0.10731  0.62299  0.45222  Biso   1.000  C
  C53      1.0000 0.12699  0.48261  0.49469  Biso   1.000  C
  C54      1.0000 0.27050  0.80562  0.43968  Biso   1.000  C
  C55      1.0000 0.31450  0.84121  0.46745  Biso   1.000  C
  C56      1.0000 0.35558  0.87300  0.49469  Biso   1.000  C
  C57      1.0000 0.44949  0.51020  0.65324  Biso   1.000  C
  C58      1.0000 0.55648  0.94448  0.64847  Biso   1.000  C
  H41      1.0000 0.09549  0.56760  0.48051  Biso   1.000  H
  H42      1.0000 0.09020  0.64091  0.46011  Biso   1.000  H
  N7       1.0000 0.11370  0.64491  0.43834  Biso   1.000  N
  C59      1.0000 0.12310  0.46888  0.50873  Biso   1.000  C
  N8       1.0000 0.20770  0.78688  0.44364  Biso   1.000  N
  H43      1.0000 0.28078  0.80260  0.42880  Biso   1.000  H
  H44      1.0000 0.26981  0.82969  0.47090  Biso   1.000  H
  C60      1.0000 0.34578  0.87689  0.50873  Biso   1.000  C
  C61      1.0000 0.38798  0.44349  0.64847  Biso   1.000  C
  H45      1.0000 0.43809  0.52838  0.66290  Biso   1.000  H
  C62      1.0000 0.51003  0.50022  0.65691  Biso   1.000  C
  C63      1.0000 0.48978  0.93930  0.65324  Biso   1.000  C
  C64      1.0000 0.60887  0.97857  0.66157  Biso   1.000  C
  H46      1.0000 0.57368  0.97248  0.63850  Biso   1.000  H
  C65      1.0000 0.09450  0.69590  0.43568  Biso   1.000  C
  C66      1.0000 0.12330  0.45660  0.52575  Biso   1.000  C
  C67      1.0000 0.15769  0.76349  0.43108  Biso   1.000  C
  C68      1.0000 0.33330  0.87669  0.52575  Biso   1.000  C
  N9       1.0000 0.32903  0.45311  0.64552  Biso   1.000  N
  C69      1.0000 0.36972  0.39111  0.66157  Biso   1.000  C
  H47      1.0000 0.39879  0.42629  0.63850  Biso   1.000  H
  H48      1.0000 0.54949  0.54420  0.66040  Biso   1.000  H
  H49      1.0000 0.52350  0.48522  0.64720  Biso   1.000  H
  C70      1.0000 0.49109  0.44620  0.67009  Biso   1.000  C
  H50      1.0000 0.47162  0.90971  0.66290  Biso   1.000  H
  N10      1.0000 0.43952  0.90910  0.64028  Biso   1.000  N
  C71      1.0000 0.49976  0.00981  0.65691  Biso   1.000  C
  H51      1.0000 0.59269  0.95021  0.67130  Biso   1.000  H
  H52      1.0000 0.65261  0.98180  0.65830  Biso   1.000  H
  C72      1.0000 0.62095  0.04902  0.66513  Biso   1.000  C
  H53      1.0000 0.07512  0.70271  0.44580  Biso   1.000  H
  C73      1.0000 0.04010  0.67312  0.42252  Biso   1.000  C
  C74      1.0000 0.08859  0.47390  0.53596  Biso   1.000  C
  C75      1.0000 0.15982  0.42721  0.53120  Biso   1.000  C
  C76      1.0000 0.13941  0.81781  0.42818  Biso   1.000  C
  H54      1.0000 0.17812  0.75663  0.42120  Biso   1.000  H
  C77      1.0000 0.38529  0.91140  0.53596  Biso   1.000  C
  C78      1.0000 0.26738  0.84018  0.53120  Biso   1.000  C
  C79      1.0000 0.30817  0.44759  0.63087  Biso   1.000  C
  C80      1.0000 0.42799  0.37898  0.66513  Biso   1.000  C
  H55      1.0000 0.35751  0.40729  0.67130  Biso   1.000  H
  H56      1.0000 0.32919  0.34739  0.65830  Biso   1.000  H
  H57      1.0000 0.53003  0.43832  0.67200  Biso   1.000  H
  H58      1.0000 0.48148  0.46289  0.68010  Biso   1.000  H
  C81      1.0000 0.37851  0.86281  0.64393  Biso   1.000  C
  H59      1.0000 0.45574  0.00530  0.66040  Biso   1.000  H
  H60      1.0000 0.51477  0.03832  0.64720  Biso   1.000  H
  C82      1.0000 0.55379  0.04488  0.67009  Biso   1.000  C
  H61      1.0000 0.63954  0.07831  0.65560  Biso   1.000  H
  H62      1.0000 0.65498  0.06981  0.67380  Biso   1.000  H
  H63      1.0000 0.05898  0.66697  0.41240  Biso   1.000  H
  C83      1.0000 0.01820  0.72509  0.42024  Biso   1.000  C
  H64      1.0000 0.99989  0.62852  0.42540  Biso   1.000  H
  C84      1.0000 0.09201  0.46602  0.55187  Biso   1.000  C
  H65      1.0000 0.06140  0.49198  0.53200  Biso   1.000  H
  H66      1.0000 0.18232  0.41262  0.52390  Biso   1.000  H
  C85      1.0000 0.16362  0.41902  0.54752  Biso   1.000  C
  C86      1.0000 0.08152  0.79472  0.41596  Biso   1.000  C
  H67      1.0000 0.18030  0.85969  0.42430  Biso   1.000  H
  H68      1.0000 0.12502  0.82912  0.43830  Biso   1.000  H
  C87      1.0000 0.37402  0.90802  0.55187  Biso   1.000  C
  H69      1.0000 0.43059  0.93859  0.53200  Biso   1.000  H
  H70      1.0000 0.23030  0.81771  0.52390  Biso   1.000  H
  C88      1.0000 0.25538  0.83639  0.54752  Biso   1.000  C
  C89      1.0000 0.25280  0.45701  0.62649  Biso   1.000  C
  H71      1.0000 0.33098  0.43699  0.62280  Biso   1.000  H
  H72      1.0000 0.43870  0.36039  0.65560  Biso   1.000  H
  H73      1.0000 0.41481  0.34498  0.67380  Biso   1.000  H
  C90      1.0000 0.32360  0.83209  0.63237  Biso   1.000  C
  H74      1.0000 0.36889  0.84802  0.65469  Biso   1.000  H
  H75      1.0000 0.56165  0.09173  0.67200  Biso   1.000  H
  H76      1.0000 0.53706  0.01861  0.68010  Biso   1.000  H
  H77      1.0000 0.99691  0.72959  0.43010  Biso   1.000  H
  H78      1.0000 0.98389  0.71039  0.41160  Biso   1.000  H
  C91      1.0000 0.13229  0.44052  0.55833  Biso   1.000  C
  H79      1.0000 0.06652  0.47800  0.55881  Biso   1.000  H
  H80      1.0000 0.18848  0.39808  0.55130  Biso   1.000  H
  H81      1.0000 0.09868  0.79098  0.40540  Biso   1.000  H
  H82      1.0000 0.06759  0.82989  0.41520  Biso   1.000  H
  C92      1.0000 0.30818  0.86768  0.55833  Biso   1.000  C
  H83      1.0000 0.41151  0.93352  0.55881  Biso   1.000  H
  H84      1.0000 0.20960  0.81151  0.55130  Biso   1.000  H
  C93      1.0000 0.22868  0.44549  0.61058  Biso   1.000  C
  C94      1.0000 0.22032  0.47912  0.63678  Biso   1.000  C
  C95      1.0000 0.33232  0.85442  0.61711  Biso   1.000  C
  C96      1.0000 0.25879  0.77972  0.63678  Biso   1.000  C
  C97      1.0000 0.14270  0.44078  0.57526  Biso   1.000  C
  C98      1.0000 0.29810  0.85728  0.57526  Biso   1.000  C
  C99      1.0000 0.17610  0.45480  0.60573  Biso   1.000  C
  H85      1.0000 0.24989  0.43079  0.60300  Biso   1.000  H
  C100     1.0000 0.16790  0.49151  0.63237  Biso   1.000  C
  H86      1.0000 0.23460  0.48639  0.64760  Biso   1.000  H
  C101     1.0000 0.27871  0.82390  0.60573  Biso   1.000  C
  H87      1.0000 0.37537  0.89148  0.61390  Biso   1.000  H
  C102     1.0000 0.20422  0.74720  0.62649  Biso   1.000  C
  H88      1.0000 0.25180  0.76538  0.64760  Biso   1.000  H
  C103     1.0000 0.15521  0.44549  0.58907  Biso   1.000  C
  C104     1.0000 0.29031  0.84479  0.58907  Biso   1.000  C
  C105     1.0000 0.14561  0.47790  0.61711  Biso   1.000  C
  C106     1.0000 0.13719  0.51568  0.64393  Biso   1.000  C
  C107     1.0000 0.21681  0.77132  0.61058  Biso   1.000  C
  C108     1.0000 0.13941  0.69181  0.63087  Biso   1.000  C
  H89      1.0000 0.10848  0.48389  0.61390  Biso   1.000  H
  H90      1.0000 0.15200  0.52090  0.65469  Biso   1.000  H
  N11      1.0000 0.09089  0.53037  0.64028  Biso   1.000  N
  H91      1.0000 0.18090  0.75012  0.60300  Biso   1.000  H
  N12      1.0000 0.12410  0.67102  0.64552  Biso   1.000  N
  H92      1.0000 0.10603  0.66902  0.62280  Biso   1.000  H
  C109     1.0000 0.06069  0.55050  0.65324  Biso   1.000  C
  C110     1.0000 0.05547  0.61199  0.64847  Biso   1.000  C
  H93      1.0000 0.09029  0.56191  0.66290  Biso   1.000  H
  C111     1.0000 0.99017  0.48998  0.65691  Biso   1.000  C
  C112     1.0000 0.02141  0.63032  0.66157  Biso   1.000  C
  H94      1.0000 0.02750  0.60118  0.63850  Biso   1.000  H
  H95      1.0000 0.99468  0.45050  0.66040  Biso   1.000  H
  H96      1.0000 0.96171  0.47651  0.64720  Biso   1.000  H
  C113     1.0000 0.95512  0.50892  0.67009  Biso   1.000  C
  H97      1.0000 0.04980  0.64250  0.67130  Biso   1.000  H
  H98      1.0000 0.01820  0.67081  0.65830  Biso   1.000  H
  C114     1.0000 0.95101  0.57200  0.66513  Biso   1.000  C
  H99      1.0000 0.90831  0.47001  0.67200  Biso   1.000  H
  H100     1.0000 0.98141  0.51850  0.68010  Biso   1.000  H
  H101     1.0000 0.92172  0.56130  0.65560  Biso   1.000  H
  H102     1.0000 0.93021  0.58521  0.67380  Biso   1.000  H
  C115     1.0000 0.54928  0.43489  0.52683  Biso   1.000  C
  C116     1.0000 0.50020  0.36741  0.52173  Biso   1.000  C
  H103     1.0000 0.56759  0.47211  0.51949  Biso   1.000  H
  C117     1.0000 0.56983  0.44503  0.54285  Biso   1.000  C
  C118     1.0000 0.48258  0.35558  0.50531  Biso   1.000  C
  C119     1.0000 0.47331  0.31452  0.53255  Biso   1.000  C
  C120     1.0000 0.54347  0.39178  0.55351  Biso   1.000  C
  C121     1.0000 0.62298  0.51568  0.54778  Biso   1.000  C
  C122     1.0000 0.46891  0.34580  0.49127  Biso   1.000  C
  C123     1.0000 0.49433  0.32542  0.54864  Biso   1.000  C
  H104     1.0000 0.44010  0.26982  0.52910  Biso   1.000  H
  H105     1.0000 0.55849  0.39992  0.56430  Biso   1.000  H
  H106     1.0000 0.64089  0.55070  0.53989  Biso   1.000  H
  N13      1.0000 0.64488  0.53119  0.56166  Biso   1.000  N
  C124     1.0000 0.45659  0.33331  0.47425  Biso   1.000  C
  C125     1.0000 0.46491  0.27049  0.56032  Biso   1.000  C
  C126     1.0000 0.69590  0.60139  0.56432  Biso   1.000  C
  C127     1.0000 0.47389  0.38528  0.46404  Biso   1.000  C
  C128     1.0000 0.42719  0.26741  0.46880  Biso   1.000  C
  H107     1.0000 0.47817  0.28078  0.57120  Biso   1.000  H
  N14      1.0000 0.42080  0.20772  0.55636  Biso   1.000  N
  C129     1.0000 0.76350  0.60579  0.56892  Biso   1.000  C
  H108     1.0000 0.70271  0.62760  0.55420  Biso   1.000  H
  C130     1.0000 0.67307  0.63298  0.57748  Biso   1.000  C
  C131     1.0000 0.46599  0.37401  0.44813  Biso   1.000  C
  H109     1.0000 0.49198  0.43059  0.46800  Biso   1.000  H
  C132     1.0000 0.41901  0.25538  0.45248  Biso   1.000  C
  H110     1.0000 0.41258  0.23029  0.47610  Biso   1.000  H
  C133     1.0000 0.39419  0.15769  0.56892  Biso   1.000  C
  N15      1.0000 0.78693  0.57922  0.55636  Biso   1.000  N
  C134     1.0000 0.81780  0.67839  0.57182  Biso   1.000  C
  H111     1.0000 0.75659  0.57850  0.57880  Biso   1.000  H
  H112     1.0000 0.66701  0.60799  0.58760  Biso   1.000  H
  H113     1.0000 0.62848  0.62858  0.57460  Biso   1.000  H
  C135     1.0000 0.72511  0.70691  0.57976  Biso   1.000  C
  C136     1.0000 0.44050  0.30822  0.44167  Biso   1.000  C
  H114     1.0000 0.47799  0.41149  0.44119  Biso   1.000  H
  H115     1.0000 0.39811  0.20961  0.44870  Biso   1.000  H
  C137     1.0000 0.39861  0.09451  0.56432  Biso   1.000  C
  C138     1.0000 0.32160  0.13942  0.57182  Biso   1.000  C
  H116     1.0000 0.42152  0.17812  0.57880  Biso   1.000  H
  C139     1.0000 0.80561  0.53509  0.56032  Biso   1.000  C
  C140     1.0000 0.79468  0.71321  0.58404  Biso   1.000  C
  H117     1.0000 0.85973  0.67942  0.57570  Biso   1.000  H
  H118     1.0000 0.82910  0.70409  0.56170  Biso   1.000  H
  H119     1.0000 0.72959  0.73271  0.56990  Biso   1.000  H
  H120     1.0000 0.71040  0.72652  0.58840  Biso   1.000  H
  C141     1.0000 0.44080  0.29808  0.42474  Biso   1.000  C
  H121     1.0000 0.37241  0.07511  0.55420  Biso   1.000  H
  C142     1.0000 0.36701  0.04009  0.57748  Biso   1.000  C
  N16      1.0000 0.46882  0.11371  0.56166  Biso   1.000  N
  C143     1.0000 0.28680  0.08151  0.58404  Biso   1.000  C
  H122     1.0000 0.32060  0.18032  0.57570  Biso   1.000  H
  H123     1.0000 0.29589  0.12498  0.56170  Biso   1.000  H
  C144     1.0000 0.83109  0.50570  0.54864  Biso   1.000  C
  H124     1.0000 0.80261  0.52182  0.57120  Biso   1.000  H
  H125     1.0000 0.79102  0.69232  0.59460  Biso   1.000  H
  H126     1.0000 0.82992  0.76231  0.58480  Biso   1.000  H
  C145     1.0000 0.44551  0.29030  0.41093  Biso   1.000  C
  H127     1.0000 0.39197  0.05898  0.58760  Biso   1.000  H
  C146     1.0000 0.29309  0.01818  0.57976  Biso   1.000  C
  H128     1.0000 0.37138  0.99990  0.57460  Biso   1.000  H
  C147     1.0000 0.48429  0.10731  0.54778  Biso   1.000  C
  H129     1.0000 0.30773  0.09871  0.59460  Biso   1.000  H
  H130     1.0000 0.23771  0.06758  0.58480  Biso   1.000  H
  C148     1.0000 0.84118  0.52669  0.53255  Biso   1.000  C
  C149     1.0000 0.84830  0.45649  0.55351  Biso   1.000  C
  C150     1.0000 0.45477  0.27868  0.39427  Biso   1.000  C
  H131     1.0000 0.26732  0.99688  0.56990  Biso   1.000  H
  H132     1.0000 0.27357  0.98392  0.58840  Biso   1.000  H
  C151     1.0000 0.55503  0.12482  0.54285  Biso   1.000  C
  H133     1.0000 0.44931  0.09021  0.53989  Biso   1.000  H
  C152     1.0000 0.86721  0.49981  0.52173  Biso   1.000  C
  H134     1.0000 0.82973  0.55992  0.52910  Biso   1.000  H
  C153     1.0000 0.87518  0.43018  0.54285  Biso   1.000  C
  H135     1.0000 0.84142  0.44149  0.56430  Biso   1.000  H
  C154     1.0000 0.47790  0.33228  0.38289  Biso   1.000  C
  C155     1.0000 0.44551  0.21678  0.38942  Biso   1.000  C
  C156     1.0000 0.56510  0.11438  0.52683  Biso   1.000  C
  C157     1.0000 0.60820  0.15170  0.55351  Biso   1.000  C
  C158     1.0000 0.87300  0.51742  0.50531  Biso   1.000  C
  C159     1.0000 0.88562  0.45071  0.52683  Biso   1.000  C
  C160     1.0000 0.89270  0.37698  0.54778  Biso   1.000  C
  C161     1.0000 0.49150  0.32358  0.36763  Biso   1.000  C
  H136     1.0000 0.48389  0.37539  0.38610  Biso   1.000  H
  C162     1.0000 0.45699  0.20418  0.37351  Biso   1.000  C
  H137     1.0000 0.43080  0.18089  0.39700  Biso   1.000  H
  C163     1.0000 0.63263  0.13281  0.52173  Biso   1.000  C
  H138     1.0000 0.52790  0.09549  0.51949  Biso   1.000  H
  C164     1.0000 0.67462  0.16891  0.54864  Biso   1.000  C
  H139     1.0000 0.60013  0.15862  0.56430  Biso   1.000  H
  C165     1.0000 0.87691  0.53109  0.49127  Biso   1.000  C
  H140     1.0000 0.90448  0.43238  0.51949  Biso   1.000  H
  H141     1.0000 0.90979  0.35911  0.53989  Biso   1.000  H
  N17      1.0000 0.88629  0.35512  0.56166  Biso   1.000  N
  C166     1.0000 0.51569  0.37852  0.35607  Biso   1.000  C
  C167     1.0000 0.47912  0.25881  0.36322  Biso   1.000  C
  C168     1.0000 0.44762  0.13942  0.36913  Biso   1.000  C
  C169     1.0000 0.64439  0.12697  0.50531  Biso   1.000  C
  C170     1.0000 0.68549  0.15882  0.53255  Biso   1.000  C
  C171     1.0000 0.72949  0.19440  0.56032  Biso   1.000  C
  C172     1.0000 0.87671  0.54338  0.47425  Biso   1.000  C
  C173     1.0000 0.90553  0.30412  0.56432  Biso   1.000  C
  N18      1.0000 0.53039  0.43950  0.35972  Biso   1.000  N
  H142     1.0000 0.52090  0.36889  0.34531  Biso   1.000  H
  H143     1.0000 0.48638  0.25180  0.35240  Biso   1.000  H
  H144     1.0000 0.43698  0.10598  0.37720  Biso   1.000  H
  N19      1.0000 0.45309  0.12411  0.35448  Biso   1.000  N
  C174     1.0000 0.65419  0.12308  0.49127  Biso   1.000  C
  H145     1.0000 0.73020  0.17029  0.52910  Biso   1.000  H
  N20      1.0000 0.79231  0.21309  0.55636  Biso   1.000  N
  H146     1.0000 0.71921  0.19742  0.57120  Biso   1.000  H
  C175     1.0000 0.91140  0.52613  0.46404  Biso   1.000  C
  C176     1.0000 0.84022  0.57282  0.46880  Biso   1.000  C
  H147     1.0000 0.92492  0.29732  0.55420  Biso   1.000  H
  C177     1.0000 0.95989  0.32691  0.57748  Biso   1.000  C
  C178     1.0000 0.84227  0.23649  0.56892  Biso   1.000  C
  C179     1.0000 0.55050  0.48982  0.34676  Biso   1.000  C
  C180     1.0000 0.44348  0.05550  0.35153  Biso   1.000  C
  C181     1.0000 0.66671  0.12329  0.47425  Biso   1.000  C
  C182     1.0000 0.90798  0.53401  0.44813  Biso   1.000  C
  H148     1.0000 0.93861  0.50800  0.46800  Biso   1.000  H
  C183     1.0000 0.83642  0.58101  0.45248  Biso   1.000  C
  H149     1.0000 0.81772  0.58741  0.47610  Biso   1.000  H
  H150     1.0000 0.94099  0.33300  0.58760  Biso   1.000  H
  C184     1.0000 0.98181  0.27489  0.57976  Biso   1.000  C
  H151     1.0000 0.00010  0.37150  0.57460  Biso   1.000  H
  C185     1.0000 0.86063  0.18222  0.57182  Biso   1.000  C
  H152     1.0000 0.82192  0.24340  0.57880  Biso   1.000  H
  C186     1.0000 0.49001  0.49981  0.34309  Biso   1.000  C
  H153     1.0000 0.56192  0.47160  0.33710  Biso   1.000  H
  C187     1.0000 0.61199  0.55649  0.35153  Biso   1.000  C
  C188     1.0000 0.51021  0.06072  0.34676  Biso   1.000  C
  C189     1.0000 0.39109  0.02140  0.33843  Biso   1.000  C
  H154     1.0000 0.42629  0.02749  0.36150  Biso   1.000  H
  C190     1.0000 0.61468  0.08857  0.46404  Biso   1.000  C
  C191     1.0000 0.73258  0.15979  0.46880  Biso   1.000  C
  C192     1.0000 0.86770  0.55951  0.44167  Biso   1.000  C
  H155     1.0000 0.93349  0.52198  0.44119  Biso   1.000  H
  H156     1.0000 0.81148  0.60190  0.44870  Biso   1.000  H
  C193     1.0000 0.91851  0.20531  0.58404  Biso   1.000  C
  H157     1.0000 0.00310  0.27038  0.56990  Biso   1.000  H
  H158     1.0000 0.01607  0.28958  0.58840  Biso   1.000  H
  H159     1.0000 0.81971  0.14029  0.57570  Biso   1.000  H
  H160     1.0000 0.87501  0.17090  0.56170  Biso   1.000  H
  C194     1.0000 0.50890  0.55382  0.32991  Biso   1.000  C
  H161     1.0000 0.45048  0.45578  0.33960  Biso   1.000  H
  H162     1.0000 0.47649  0.51481  0.35280  Biso   1.000  H
  C195     1.0000 0.63031  0.60891  0.33843  Biso   1.000  C
  H163     1.0000 0.60122  0.57369  0.36150  Biso   1.000  H
  N21      1.0000 0.67101  0.54691  0.35448  Biso   1.000  N
  H164     1.0000 0.52842  0.09032  0.33710  Biso   1.000  H
  N22      1.0000 0.56049  0.09088  0.35972  Biso   1.000  N
  C196     1.0000 0.50028  0.99022  0.34309  Biso   1.000  C
  H165     1.0000 0.40730  0.04982  0.32870  Biso   1.000  H
  H166     1.0000 0.34740  0.01818  0.34170  Biso   1.000  H
  C197     1.0000 0.37904  0.95100  0.33487  Biso   1.000  C
  C198     1.0000 0.62601  0.09201  0.44813  Biso   1.000  C
  H167     1.0000 0.56938  0.06139  0.46800  Biso   1.000  H
  C199     1.0000 0.74459  0.16358  0.45248  Biso   1.000  C
  H168     1.0000 0.76970  0.18232  0.47610  Biso   1.000  H
  C200     1.0000 0.85731  0.55920  0.42474  Biso   1.000  C
  H169     1.0000 0.90129  0.20900  0.59460  Biso   1.000  H
  H170     1.0000 0.93238  0.17008  0.58480  Biso   1.000  H
  H171     1.0000 0.47001  0.56171  0.32800  Biso   1.000  H
  H172     1.0000 0.51849  0.53708  0.31990  Biso   1.000  H
  C201     1.0000 0.57202  0.62100  0.33487  Biso   1.000  C
  H173     1.0000 0.64250  0.59268  0.32870  Biso   1.000  H
  H174     1.0000 0.67082  0.65259  0.34170  Biso   1.000  H
  C202     1.0000 0.69179  0.55239  0.36913  Biso   1.000  C
  C203     1.0000 0.62153  0.13721  0.35607  Biso   1.000  C
  H175     1.0000 0.54423  0.99468  0.33960  Biso   1.000  H
  H176     1.0000 0.48526  0.96170  0.35280  Biso   1.000  H
  C204     1.0000 0.44618  0.95510  0.32991  Biso   1.000  C
  H177     1.0000 0.36041  0.92172  0.34440  Biso   1.000  H
  H178     1.0000 0.34506  0.93022  0.32620  Biso   1.000  H
  C205     1.0000 0.69179  0.13230  0.44167  Biso   1.000  C
  H179     1.0000 0.58852  0.06651  0.44119  Biso   1.000  H
  H180     1.0000 0.79040  0.18852  0.44870  Biso   1.000  H
  C206     1.0000 0.84480  0.55449  0.41093  Biso   1.000  C
  H181     1.0000 0.56131  0.63958  0.34440  Biso   1.000  H
  H182     1.0000 0.58520  0.65499  0.32620  Biso   1.000  H
  C207     1.0000 0.74719  0.54302  0.37351  Biso   1.000  C
  H183     1.0000 0.66898  0.56299  0.37720  Biso   1.000  H
  C208     1.0000 0.67641  0.16788  0.36763  Biso   1.000  C
  H184     1.0000 0.63110  0.15201  0.34531  Biso   1.000  H
  H185     1.0000 0.43830  0.90830  0.32800  Biso   1.000  H
  H186     1.0000 0.46293  0.98141  0.31990  Biso   1.000  H
  C209     1.0000 0.70191  0.14269  0.42474  Biso   1.000  C
  C210     1.0000 0.82389  0.54522  0.39427  Biso   1.000  C
  C211     1.0000 0.77972  0.52090  0.36322  Biso   1.000  C
  C212     1.0000 0.77128  0.55449  0.38942  Biso   1.000  C
  C213     1.0000 0.74120  0.22031  0.36322  Biso   1.000  C
  C214     1.0000 0.66772  0.14561  0.38289  Biso   1.000  C
  C215     1.0000 0.70970  0.15519  0.41093  Biso   1.000  C
  C216     1.0000 0.85440  0.52208  0.38289  Biso   1.000  C
  H187     1.0000 0.76537  0.51358  0.35240  Biso   1.000  H
  C217     1.0000 0.83210  0.50851  0.36763  Biso   1.000  C
  H188     1.0000 0.75007  0.56918  0.39700  Biso   1.000  H
  C218     1.0000 0.79581  0.25282  0.37351  Biso   1.000  C
  H189     1.0000 0.74821  0.23460  0.35240  Biso   1.000  H
  H190     1.0000 0.62459  0.10849  0.38610  Biso   1.000  H
  C219     1.0000 0.72130  0.17607  0.39427  Biso   1.000  C
  H191     1.0000 0.89149  0.51609  0.38610  Biso   1.000  H
  C220     1.0000 0.86282  0.48430  0.35607  Biso   1.000  C
  C221     1.0000 0.86062  0.30822  0.36913  Biso   1.000  C
  C222     1.0000 0.78322  0.22871  0.38942  Biso   1.000  C
  H192     1.0000 0.84800  0.47912  0.34531  Biso   1.000  H
  N23      1.0000 0.90908  0.46960  0.35972  Biso   1.000  N
  N24      1.0000 0.87589  0.32901  0.35448  Biso   1.000  N
  H193     1.0000 0.89401  0.33100  0.37720  Biso   1.000  H
  H194     1.0000 0.81909  0.24990  0.39700  Biso   1.000  H
  C223     1.0000 0.93928  0.44948  0.34676  Biso   1.000  C
  C224     1.0000 0.94449  0.38799  0.35153  Biso   1.000  C
  H195     1.0000 0.90970  0.43811  0.33710  Biso   1.000  H
  C225     1.0000 0.00980  0.51000  0.34309  Biso   1.000  C
  C226     1.0000 0.97859  0.36971  0.33843  Biso   1.000  C
  H196     1.0000 0.97251  0.39879  0.36150  Biso   1.000  H
  H197     1.0000 0.00531  0.54952  0.33960  Biso   1.000  H
  H198     1.0000 0.03833  0.52351  0.35280  Biso   1.000  H
  C227     1.0000 0.04491  0.49110  0.32991  Biso   1.000  C
  H199     1.0000 0.95023  0.35753  0.32870  Biso   1.000  H
  H200     1.0000 0.98179  0.32921  0.34170  Biso   1.000  H
  C228     1.0000 0.04900  0.42798  0.33487  Biso   1.000  C
  H201     1.0000 0.09173  0.53002  0.32800  Biso   1.000  H
  H202     1.0000 0.01860  0.48148  0.31990  Biso   1.000  H
  H203     1.0000 0.07829  0.43868  0.34440  Biso   1.000  H
  H204     1.0000 0.06982  0.41482  0.32620  Biso   1.000  H
  C229     1.0000 0.61322  0.64434  0.41160  Biso   1.000  C
  C230     1.0000 0.56114  0.62187  0.39797  Biso   1.000  C
  C231     1.0000 0.63171  0.59105  0.41571  Biso   1.000  C
  H205     1.0000 0.65523  0.68705  0.40856  Biso   1.000  H
  H206     1.0000 0.59394  0.65438  0.42116  Biso   1.000  H
  C232     1.0000 0.49432  0.55367  0.40216  Biso   1.000  C
  H207     1.0000 0.58190  0.61434  0.38817  Biso   1.000  H
  N25      1.0000 0.54373  0.67465  0.39463  Biso   1.000  N
  C233     1.0000 0.56753  0.52387  0.41921  Biso   1.000  C
  H208     1.0000 0.66212  0.60584  0.42517  Biso   1.000  H
  H209     1.0000 0.65651  0.58506  0.40667  Biso   1.000  H
  N26      1.0000 0.44621  0.53114  0.38925  Biso   1.000  N
  H210     1.0000 0.47274  0.56115  0.41177  Biso   1.000  H
  C234     1.0000 0.51282  0.49986  0.40581  Biso   1.000  C
  C235     1.0000 0.56431  0.70456  0.38140  Biso   1.000  C
  H211     1.0000 0.54705  0.52858  0.42926  Biso   1.000  H
  H212     1.0000 0.58015  0.48819  0.42096  Biso   1.000  H
  C236     1.0000 0.38543  0.51706  0.39290  Biso   1.000  C
  H213     1.0000 0.53092  0.48967  0.39607  Biso   1.000  H
  H214     1.0000 0.47135  0.45726  0.40917  Biso   1.000  H
  C237     1.0000 0.55262  0.76098  0.37601  Biso   1.000  C
  H215     1.0000 0.58844  0.69037  0.37457  Biso   1.000  H
  C238     1.0000 0.32766  0.48798  0.38154  Biso   1.000  C
  H216     1.0000 0.37715  0.52577  0.40347  Biso   1.000  H
  C239     1.0000 0.52053  0.78576  0.38677  Biso   1.000  C
  C240     1.0000 0.57013  0.78617  0.36074  Biso   1.000  C
  C241     1.0000 0.33615  0.47047  0.36542  Biso   1.000  C
  C242     1.0000 0.26524  0.47948  0.38677  Biso   1.000  C
  C243     1.0000 0.51202  0.83967  0.38154  Biso   1.000  C
  H217     1.0000 0.50563  0.76615  0.39706  Biso   1.000  H
  H218     1.0000 0.59172  0.76948  0.35376  Biso   1.000  H
  C244     1.0000 0.55532  0.83767  0.35543  Biso   1.000  C
  C245     1.0000 0.28233  0.44467  0.35543  Biso   1.000  C
  H219     1.0000 0.37924  0.47728  0.36197  Biso   1.000  H
  C246     1.0000 0.20835  0.44738  0.37601  Biso   1.000  C
  H220     1.0000 0.26054  0.49438  0.39706  Biso   1.000  H
  C247     1.0000 0.52955  0.86568  0.36542  Biso   1.000  C
  C248     1.0000 0.48290  0.86834  0.39290  Biso   1.000  C
  C249     1.0000 0.56902  0.85887  0.33905  Biso   1.000  C
  C250     1.0000 0.28983  0.43095  0.33905  Biso   1.000  C
  C251     1.0000 0.21604  0.42987  0.36074  Biso   1.000  C
  C252     1.0000 0.14023  0.43566  0.38140  Biso   1.000  C
  H221     1.0000 0.52273  0.90198  0.36197  Biso   1.000  H
  H222     1.0000 0.47422  0.85134  0.40347  Biso   1.000  H
  N27      1.0000 0.46885  0.91509  0.38925  Biso   1.000  N
  C253     1.0000 0.57152  0.87044  0.32467  Biso   1.000  C
  C254     1.0000 0.29893  0.42849  0.32467  Biso   1.000  C
  H223     1.0000 0.17775  0.40826  0.35376  Biso   1.000  H
  N28      1.0000 0.13095  0.45629  0.39463  Biso   1.000  N
  H224     1.0000 0.10195  0.41159  0.37457  Biso   1.000  H
  C255     1.0000 0.44636  0.94069  0.40216  Biso   1.000  C
  C256     1.0000 0.56985  0.87889  0.30794  Biso   1.000  C
  C257     1.0000 0.30905  0.43018  0.30794  Biso   1.000  C
  C258     1.0000 0.06075  0.43888  0.39797  Biso   1.000  C
  C259     1.0000 0.37811  0.93925  0.39797  Biso   1.000  C
  H225     1.0000 0.43884  0.91155  0.41177  Biso   1.000  H
  C260     1.0000 0.50015  0.01298  0.40581  Biso   1.000  C
  C261     1.0000 0.57561  0.83214  0.29797  Biso   1.000  C
  C262     1.0000 0.55953  0.92866  0.30171  Biso   1.000  C
  C263     1.0000 0.25654  0.42439  0.29797  Biso   1.000  C
  C264     1.0000 0.36913  0.44047  0.30171  Biso   1.000  C
  C265     1.0000 0.05932  0.50565  0.40216  Biso   1.000  C
  C266     1.0000 0.03114  0.38676  0.41160  Biso   1.000  C
  H226     1.0000 0.03242  0.41804  0.38817  Biso   1.000  H
  N29      1.0000 0.32532  0.86906  0.39463  Biso   1.000  N
  C267     1.0000 0.35562  0.96885  0.41160  Biso   1.000  C
  H227     1.0000 0.38561  0.96757  0.38817  Biso   1.000  H
  H228     1.0000 0.51029  0.04124  0.39607  Biso   1.000  H
  H229     1.0000 0.54268  0.01406  0.40917  Biso   1.000  H
  C268     1.0000 0.47607  0.04365  0.41921  Biso   1.000  C
  C269     1.0000 0.56925  0.83557  0.28168  Biso   1.000  C
  H230     1.0000 0.58393  0.79815  0.30236  Biso   1.000  H
  C270     1.0000 0.55264  0.93209  0.28495  Biso   1.000  C
  H231     1.0000 0.55683  0.96096  0.30847  Biso   1.000  H
  C271     1.0000 0.26634  0.43079  0.28168  Biso   1.000  C
  H232     1.0000 0.21423  0.41605  0.30236  Biso   1.000  H
  C272     1.0000 0.37946  0.44738  0.28495  Biso   1.000  C
  H233     1.0000 0.40414  0.44318  0.30847  Biso   1.000  H
  H234     1.0000 0.08844  0.52725  0.41177  Biso   1.000  H
  N30      1.0000 0.08494  0.55377  0.38925  Biso   1.000  N
  C273     1.0000 0.98703  0.48716  0.40581  Biso   1.000  C
  H235     1.0000 0.03183  0.34478  0.40856  Biso   1.000  H
  H236     1.0000 0.06043  0.40606  0.42116  Biso   1.000  H
  C274     1.0000 0.95933  0.36828  0.41571  Biso   1.000  C
  C275     1.0000 0.29546  0.85979  0.38140  Biso   1.000  C
  H237     1.0000 0.31294  0.96818  0.40856  Biso   1.000  H
  H238     1.0000 0.34563  0.93956  0.42116  Biso   1.000  H
  C276     1.0000 0.40891  0.04068  0.41571  Biso   1.000  C
  H239     1.0000 0.47136  0.01846  0.42926  Biso   1.000  H
  H240     1.0000 0.51185  0.09198  0.42096  Biso   1.000  H
  C277     1.0000 0.55552  0.88544  0.27502  Biso   1.000  C
  H241     1.0000 0.57400  0.80455  0.27487  Biso   1.000  H
  H242     1.0000 0.54601  0.96716  0.28057  Biso   1.000  H
  C278     1.0000 0.32993  0.44446  0.27502  Biso   1.000  C
  H243     1.0000 0.23055  0.42598  0.27487  Biso   1.000  H
  H244     1.0000 0.42116  0.45399  0.28057  Biso   1.000  H
  C279     1.0000 0.13164  0.61455  0.39290  Biso   1.000  C
  H245     1.0000 0.95875  0.46909  0.39607  Biso   1.000  H
  H246     1.0000 0.98593  0.52869  0.40917  Biso   1.000  H
  C280     1.0000 0.95632  0.43248  0.41921  Biso   1.000  C
  H247     1.0000 0.94373  0.33786  0.42517  Biso   1.000  H
  H248     1.0000 0.92852  0.34345  0.40667  Biso   1.000  H
  C281     1.0000 0.23904  0.79165  0.37601  Biso   1.000  C
  H249     1.0000 0.30964  0.89809  0.37457  Biso   1.000  H
  H250     1.0000 0.39413  0.05624  0.42517  Biso   1.000  H
  H251     1.0000 0.41494  0.07145  0.40667  Biso   1.000  H
  C282     1.0000 0.54144  0.88467  0.25782  Biso   1.000  C
  C283     1.0000 0.34322  0.45854  0.25782  Biso   1.000  C
  C284     1.0000 0.16032  0.67235  0.38154  Biso   1.000  C
  H252     1.0000 0.14863  0.62289  0.40347  Biso   1.000  H
  H253     1.0000 0.98155  0.45296  0.42926  Biso   1.000  H
  H254     1.0000 0.90803  0.41989  0.42096  Biso   1.000  H
  C285     1.0000 0.21423  0.73476  0.38677  Biso   1.000  C
  C286     1.0000 0.21382  0.78397  0.36074  Biso   1.000  C
  C287     1.0000 0.52793  0.88135  0.24455  Biso   1.000  C
  C288     1.0000 0.35344  0.47206  0.24455  Biso   1.000  C
  C289     1.0000 0.13435  0.66385  0.36542  Biso   1.000  C
  H255     1.0000 0.23383  0.73947  0.39706  Biso   1.000  H
  C290     1.0000 0.16232  0.71766  0.35543  Biso   1.000  C
  H256     1.0000 0.23053  0.82226  0.35376  Biso   1.000  H
  C291     1.0000 0.50706  0.87249  0.22789  Biso   1.000  C
  C292     1.0000 0.36544  0.49295  0.22789  Biso   1.000  C
  H257     1.0000 0.09803  0.62074  0.36197  Biso   1.000  H
  C293     1.0000 0.14115  0.71019  0.33905  Biso   1.000  C
  C294     1.0000 0.53233  0.84377  0.21683  Biso   1.000  C
  C295     1.0000 0.45884  0.88974  0.22287  Biso   1.000  C
  C296     1.0000 0.31142  0.46766  0.21683  Biso   1.000  C
  C297     1.0000 0.43092  0.54118  0.22287  Biso   1.000  C
  C298     1.0000 0.12955  0.70107  0.32467  Biso   1.000  C
  C299     1.0000 0.50883  0.83214  0.20132  Biso   1.000  C
  H258     1.0000 0.56582  0.83235  0.22006  Biso   1.000  H
  C300     1.0000 0.43611  0.87904  0.20707  Biso   1.000  C
  H259     1.0000 0.44113  0.90894  0.23027  Biso   1.000  H
  H260     1.0000 0.26652  0.43417  0.22006  Biso   1.000  H
  C301     1.0000 0.32331  0.49116  0.20132  Biso   1.000  C
  C302     1.0000 0.44293  0.56386  0.20707  Biso   1.000  C
  H261     1.0000 0.46782  0.55884  0.23027  Biso   1.000  H
  C303     1.0000 0.12113  0.69099  0.30794  Biso   1.000  C
  C304     1.0000 0.53594  0.80168  0.19003  Biso   1.000  C
  C305     1.0000 0.46305  0.85027  0.19663  Biso   1.000  C
  C306     1.0000 0.38534  0.89625  0.20220  Biso   1.000  C
  C307     1.0000 0.38723  0.53698  0.19663  Biso   1.000  C
  C308     1.0000 0.26573  0.46407  0.19003  Biso   1.000  C
  C309     1.0000 0.51093  0.61465  0.20220  Biso   1.000  C
  C310     1.0000 0.16781  0.74347  0.29797  Biso   1.000  C
  C311     1.0000 0.07135  0.63088  0.30171  Biso   1.000  C
  N31      1.0000 0.58014  0.78525  0.19354  Biso   1.000  N
  H262     1.0000 0.51904  0.79385  0.17946  Biso   1.000  H
  H263     1.0000 0.44841  0.84325  0.18587  Biso   1.000  H
  H264     1.0000 0.37036  0.91719  0.20977  Biso   1.000  H
  N32      1.0000 0.35923  0.88508  0.18824  Biso   1.000  N
  H265     1.0000 0.39484  0.55157  0.18587  Biso   1.000  H
  H266     1.0000 0.27485  0.48097  0.17946  Biso   1.000  H
  N33      1.0000 0.20515  0.41989  0.19354  Biso   1.000  N
  N34      1.0000 0.52585  0.64076  0.18824  Biso   1.000  N
  H267     1.0000 0.54681  0.62965  0.20977  Biso   1.000  H
  C312     1.0000 0.16443  0.73369  0.28168  Biso   1.000  C
  H268     1.0000 0.20182  0.78576  0.30236  Biso   1.000  H
  C313     1.0000 0.06793  0.62059  0.28495  Biso   1.000  C
  H269     1.0000 0.03903  0.59586  0.30847  Biso   1.000  H
  C314     1.0000 0.60666  0.76159  0.18068  Biso   1.000  C
  C315     1.0000 0.30794  0.90587  0.18530  Biso   1.000  C
  C316     1.0000 0.15491  0.39337  0.18068  Biso   1.000  C
  C317     1.0000 0.59793  0.69206  0.18530  Biso   1.000  C
  C318     1.0000 0.11452  0.67005  0.27502  Biso   1.000  C
  H270     1.0000 0.19545  0.76948  0.27487  Biso   1.000  H
  H271     1.0000 0.03283  0.57886  0.28057  Biso   1.000  H
  H272     1.0000 0.58015  0.75637  0.17077  Biso   1.000  H
  C319     1.0000 0.68154  0.81166  0.17776  Biso   1.000  C
  C320     1.0000 0.23842  0.84505  0.18068  Biso   1.000  C
  C321     1.0000 0.33406  0.95978  0.17218  Biso   1.000  C
  H273     1.0000 0.30211  0.92666  0.19527  Biso   1.000  H
  H274     1.0000 0.17624  0.41989  0.17077  Biso   1.000  H
  C322     1.0000 0.13014  0.31846  0.17776  Biso   1.000  C
  C323     1.0000 0.09413  0.40207  0.18530  Biso   1.000  C
  C324     1.0000 0.62571  0.66595  0.17218  Biso   1.000  C
  H275     1.0000 0.62454  0.69785  0.19527  Biso   1.000  H
  C325     1.0000 0.11534  0.65679  0.25782  Biso   1.000  C
  H276     1.0000 0.70724  0.81837  0.18776  Biso   1.000  H
  H277     1.0000 0.68682  0.85646  0.17467  Biso   1.000  H
  C326     1.0000 0.71294  0.78765  0.16464  Biso   1.000  C
  N35      1.0000 0.21475  0.79487  0.19354  Biso   1.000  N
  H278     1.0000 0.24360  0.82375  0.17077  Biso   1.000  H
  C327     1.0000 0.18832  0.86988  0.17776  Biso   1.000  C
  C328     1.0000 0.28205  0.98426  0.16918  Biso   1.000  C
  H279     1.0000 0.34074  0.94007  0.16227  Biso   1.000  H
  H280     1.0000 0.37861  0.99905  0.17537  Biso   1.000  H
  H281     1.0000 0.11113  0.29276  0.18776  Biso   1.000  H
  H282     1.0000 0.16963  0.31319  0.17467  Biso   1.000  H
  C329     1.0000 0.07472  0.28708  0.16464  Biso   1.000  C
  C330     1.0000 0.04024  0.37427  0.17218  Biso   1.000  C
  H283     1.0000 0.07333  0.37545  0.19527  Biso   1.000  H
  N36      1.0000 0.11492  0.47416  0.18824  Biso   1.000  N
  C331     1.0000 0.70222  0.71797  0.16918  Biso   1.000  C
  H284     1.0000 0.59934  0.65924  0.16227  Biso   1.000  H
  H285     1.0000 0.62044  0.62136  0.17537  Biso   1.000  H
  C332     1.0000 0.11864  0.64655  0.24455  Biso   1.000  C
  H286     1.0000 0.69062  0.78478  0.15427  Biso   1.000  H
  H287     1.0000 0.76246  0.82088  0.16357  Biso   1.000  H
  C333     1.0000 0.19832  0.73425  0.19003  Biso   1.000  C
  H288     1.0000 0.18163  0.88887  0.18776  Biso   1.000  H
  H289     1.0000 0.14350  0.83035  0.17467  Biso   1.000  H
  C334     1.0000 0.21234  0.92528  0.16464  Biso   1.000  C
  H290     1.0000 0.27768  0.00648  0.17896  Biso   1.000  H
  H291     1.0000 0.29920  0.01866  0.16057  Biso   1.000  H
  H292     1.0000 0.09411  0.30935  0.15427  Biso   1.000  H
  H293     1.0000 0.05844  0.23757  0.16357  Biso   1.000  H
  C335     1.0000 0.01573  0.29778  0.16918  Biso   1.000  C
  H294     1.0000 0.05996  0.40069  0.16227  Biso   1.000  H
  H295     1.0000 0.00093  0.37954  0.17537  Biso   1.000  H
  C336     1.0000 0.10375  0.48906  0.20220  Biso   1.000  C
  H296     1.0000 0.72871  0.72227  0.17896  Biso   1.000  H
  H297     1.0000 0.71943  0.70077  0.16057  Biso   1.000  H
  C337     1.0000 0.12755  0.63457  0.22789  Biso   1.000  C
  C338     1.0000 0.16784  0.67665  0.20132  Biso   1.000  C
  H298     1.0000 0.20616  0.72519  0.17946  Biso   1.000  H
  H299     1.0000 0.21523  0.90587  0.15427  Biso   1.000  H
  H300     1.0000 0.17911  0.94156  0.16357  Biso   1.000  H
  H301     1.0000 0.99352  0.27125  0.17896  Biso   1.000  H
  H302     1.0000 0.98133  0.28057  0.16057  Biso   1.000  H
  C339     1.0000 0.12094  0.55705  0.20707  Biso   1.000  C
  H303     1.0000 0.08283  0.45317  0.20977  Biso   1.000  H
  C340     1.0000 0.11024  0.56908  0.22287  Biso   1.000  C
  C341     1.0000 0.15624  0.68858  0.21683  Biso   1.000  C
  C342     1.0000 0.14972  0.61275  0.19663  Biso   1.000  C
  H304     1.0000 0.09103  0.53217  0.23027  Biso   1.000  H
  H305     1.0000 0.16765  0.73348  0.22006  Biso   1.000  H
  H306     1.0000 0.15675  0.60518  0.18587  Biso   1.000  H
  C343     1.0000 0.43246  0.47615  0.58079  Biso   1.000  C
  C344     1.0000 0.48714  0.50012  0.59419  Biso   1.000  C
  H307     1.0000 0.45299  0.47144  0.57074  Biso   1.000  H
  H308     1.0000 0.41989  0.51184  0.57904  Biso   1.000  H
  C345     1.0000 0.36826  0.40893  0.58429  Biso   1.000  C
  C346     1.0000 0.50567  0.44636  0.59784  Biso   1.000  C
  H309     1.0000 0.46907  0.51036  0.60393  Biso   1.000  H
  H310     1.0000 0.52866  0.54271  0.59083  Biso   1.000  H
  H311     1.0000 0.33785  0.39413  0.57483  Biso   1.000  H
  H312     1.0000 0.34345  0.41492  0.59333  Biso   1.000  H
  C347     1.0000 0.38675  0.35563  0.58840  Biso   1.000  C
  H313     1.0000 0.52727  0.43883  0.58823  Biso   1.000  H
  C348     1.0000 0.43889  0.37816  0.60203  Biso   1.000  C
  N37      1.0000 0.55375  0.46883  0.61075  Biso   1.000  N
  H314     1.0000 0.34478  0.31293  0.59144  Biso   1.000  H
  H315     1.0000 0.40605  0.34565  0.57884  Biso   1.000  H
  H316     1.0000 0.41806  0.38563  0.61183  Biso   1.000  H
  N38      1.0000 0.45628  0.32532  0.60537  Biso   1.000  N
  C349     1.0000 0.61458  0.48291  0.60710  Biso   1.000  C
  C350     1.0000 0.43565  0.29542  0.61860  Biso   1.000  C
  C351     1.0000 0.67238  0.51205  0.61846  Biso   1.000  C
  H317     1.0000 0.62286  0.47421  0.59653  Biso   1.000  H
  C352     1.0000 0.44738  0.23905  0.62399  Biso   1.000  C
  H318     1.0000 0.41156  0.30965  0.62543  Biso   1.000  H
  C353     1.0000 0.73475  0.52054  0.61323  Biso   1.000  C
  C354     1.0000 0.66388  0.52956  0.63458  Biso   1.000  C
  C355     1.0000 0.47948  0.21422  0.61323  Biso   1.000  C
  C356     1.0000 0.42983  0.21381  0.63926  Biso   1.000  C
  H319     1.0000 0.73945  0.50565  0.60294  Biso   1.000  H
  C357     1.0000 0.79169  0.55265  0.62399  Biso   1.000  C
  C358     1.0000 0.71764  0.55531  0.64457  Biso   1.000  C
  H320     1.0000 0.62079  0.52275  0.63803  Biso   1.000  H
  C359     1.0000 0.48797  0.16036  0.61846  Biso   1.000  C
  H321     1.0000 0.49438  0.23383  0.60294  Biso   1.000  H
  H322     1.0000 0.40827  0.23055  0.64624  Biso   1.000  H
  C360     1.0000 0.44468  0.16235  0.64457  Biso   1.000  C
  C361     1.0000 0.78399  0.57016  0.63926  Biso   1.000  C
  C362     1.0000 0.85978  0.56432  0.61860  Biso   1.000  C
  C363     1.0000 0.71018  0.56903  0.66095  Biso   1.000  C
  C364     1.0000 0.47049  0.13435  0.63458  Biso   1.000  C
  C365     1.0000 0.51707  0.13163  0.60710  Biso   1.000  C
  C366     1.0000 0.43097  0.14116  0.66095  Biso   1.000  C
  H323     1.0000 0.82226  0.59171  0.64624  Biso   1.000  H
  N39      1.0000 0.86908  0.54374  0.60537  Biso   1.000  N
  H324     1.0000 0.89808  0.58843  0.62543  Biso   1.000  H
  C367     1.0000 0.70106  0.57154  0.67533  Biso   1.000  C
  H325     1.0000 0.47726  0.09805  0.63803  Biso   1.000  H
  H326     1.0000 0.52579  0.14863  0.59653  Biso   1.000  H
  N40      1.0000 0.53119  0.08494  0.61075  Biso   1.000  N
  C368     1.0000 0.42849  0.12953  0.67533  Biso   1.000  C
  C369     1.0000 0.93929  0.56115  0.60203  Biso   1.000  C
  C370     1.0000 0.69099  0.56985  0.69206  Biso   1.000  C
  C371     1.0000 0.55368  0.05934  0.59784  Biso   1.000  C
  C372     1.0000 0.43019  0.12114  0.69206  Biso   1.000  C
  C373     1.0000 0.94069  0.49433  0.59784  Biso   1.000  C
  C374     1.0000 0.96887  0.61322  0.58840  Biso   1.000  C
  H327     1.0000 0.96755  0.58193  0.61183  Biso   1.000  H
  C375     1.0000 0.74346  0.57564  0.70203  Biso   1.000  C
  C376     1.0000 0.63086  0.55956  0.69829  Biso   1.000  C
  H328     1.0000 0.56117  0.08842  0.58823  Biso   1.000  H
  C377     1.0000 0.62186  0.06072  0.60203  Biso   1.000  C
  C378     1.0000 0.49993  0.98705  0.59419  Biso   1.000  C
  C379     1.0000 0.42436  0.16783  0.70203  Biso   1.000  C
  C380     1.0000 0.44044  0.07132  0.69829  Biso   1.000  C
  H329     1.0000 0.91157  0.47272  0.58823  Biso   1.000  H
  N41      1.0000 0.91510  0.44625  0.61075  Biso   1.000  N
  C381     1.0000 0.01294  0.51281  0.59419  Biso   1.000  C
  H330     1.0000 0.96816  0.65525  0.59144  Biso   1.000  H
  H331     1.0000 0.93958  0.59391  0.57884  Biso   1.000  H
  C382     1.0000 0.04066  0.63175  0.58429  Biso   1.000  C
  H332     1.0000 0.78578  0.58393  0.69764  Biso   1.000  H
  C383     1.0000 0.73365  0.56924  0.71832  Biso   1.000  C
  C384     1.0000 0.62058  0.55265  0.71505  Biso   1.000  C
  H333     1.0000 0.59585  0.55684  0.69153  Biso   1.000  H
  C385     1.0000 0.64435  0.03113  0.58840  Biso   1.000  C
  H334     1.0000 0.61435  0.03241  0.61183  Biso   1.000  H
  N42      1.0000 0.67465  0.13092  0.60537  Biso   1.000  N
  H335     1.0000 0.48968  0.95873  0.60393  Biso   1.000  H
  H336     1.0000 0.45729  0.98592  0.59083  Biso   1.000  H
  C386     1.0000 0.52386  0.95633  0.58079  Biso   1.000  C
  H337     1.0000 0.41608  0.20183  0.69764  Biso   1.000  H
  C387     1.0000 0.43078  0.16445  0.71832  Biso   1.000  C
  C388     1.0000 0.44735  0.06794  0.71505  Biso   1.000  C
  H338     1.0000 0.44318  0.03901  0.69153  Biso   1.000  H
  C389     1.0000 0.86837  0.38543  0.60710  Biso   1.000  C
  H339     1.0000 0.04129  0.53094  0.60393  Biso   1.000  H
  H340     1.0000 0.01406  0.47134  0.59083  Biso   1.000  H
  C390     1.0000 0.04367  0.56755  0.58079  Biso   1.000  C
  H341     1.0000 0.05624  0.66211  0.57483  Biso   1.000  H
  H342     1.0000 0.07145  0.65653  0.59333  Biso   1.000  H
  H343     1.0000 0.76949  0.57405  0.72513  Biso   1.000  H
  C391     1.0000 0.67008  0.55551  0.72498  Biso   1.000  C
  H344     1.0000 0.57888  0.54604  0.71943  Biso   1.000  H
  H345     1.0000 0.68705  0.03185  0.59144  Biso   1.000  H
  H346     1.0000 0.65434  0.06042  0.57884  Biso   1.000  H
  C392     1.0000 0.59112  0.95935  0.58429  Biso   1.000  C
  C393     1.0000 0.70458  0.14024  0.61860  Biso   1.000  C
  H347     1.0000 0.52860  0.98152  0.57074  Biso   1.000  H
  H348     1.0000 0.48819  0.90805  0.57904  Biso   1.000  H
  H349     1.0000 0.42596  0.19543  0.72513  Biso   1.000  H
  C394     1.0000 0.44449  0.11453  0.72498  Biso   1.000  C
  H350     1.0000 0.45396  0.03282  0.71943  Biso   1.000  H
  C395     1.0000 0.83964  0.32763  0.61846  Biso   1.000  C
  H351     1.0000 0.85136  0.37713  0.59653  Biso   1.000  H
  H352     1.0000 0.01846  0.54701  0.57074  Biso   1.000  H
  H353     1.0000 0.09196  0.58014  0.57904  Biso   1.000  H
  C396     1.0000 0.65679  0.54143  0.74218  Biso   1.000  C
  H354     1.0000 0.60593  0.94373  0.57483  Biso   1.000  H
  H355     1.0000 0.58511  0.92853  0.59333  Biso   1.000  H
  C397     1.0000 0.76097  0.20833  0.62399  Biso   1.000  C
  H356     1.0000 0.69035  0.10194  0.62543  Biso   1.000  H
  C398     1.0000 0.45855  0.11535  0.74218  Biso   1.000  C
  C399     1.0000 0.78573  0.26521  0.61323  Biso   1.000  C
  C400     1.0000 0.86566  0.33612  0.63458  Biso   1.000  C
  C401     1.0000 0.64657  0.52792  0.75545  Biso   1.000  C
  C402     1.0000 0.78614  0.21601  0.63926  Biso   1.000  C
  C403     1.0000 0.47208  0.11863  0.75545  Biso   1.000  C
  H357     1.0000 0.76616  0.26055  0.60294  Biso   1.000  H
  C404     1.0000 0.83765  0.28231  0.64457  Biso   1.000  C
  H358     1.0000 0.90198  0.37923  0.63803  Biso   1.000  H
  C405     1.0000 0.63457  0.50703  0.77211  Biso   1.000  C
  H359     1.0000 0.76948  0.17771  0.64624  Biso   1.000  H
  C406     1.0000 0.49298  0.12754  0.77211  Biso   1.000  C
  C407     1.0000 0.85888  0.28984  0.66095  Biso   1.000  C
  C408     1.0000 0.68854  0.53232  0.78317  Biso   1.000  C
  C409     1.0000 0.56907  0.45885  0.77713  Biso   1.000  C
  C410     1.0000 0.46768  0.15621  0.78317  Biso   1.000  C
  C411     1.0000 0.54117  0.11023  0.77713  Biso   1.000  C
  C412     1.0000 0.87049  0.29895  0.67533  Biso   1.000  C
  H360     1.0000 0.73347  0.56586  0.77994  Biso   1.000  H
  C413     1.0000 0.67666  0.50882  0.79868  Biso   1.000  C
  C414     1.0000 0.55704  0.43612  0.79293  Biso   1.000  C
  H361     1.0000 0.53219  0.44113  0.76973  Biso   1.000  H
  H362     1.0000 0.43414  0.16763  0.77994  Biso   1.000  H
  C415     1.0000 0.49118  0.16783  0.79868  Biso   1.000  C
  C416     1.0000 0.56386  0.12093  0.79293  Biso   1.000  C
  H363     1.0000 0.55888  0.09103  0.76973  Biso   1.000  H
  C417     1.0000 0.87886  0.30904  0.69206  Biso   1.000  C
  C418     1.0000 0.61276  0.46305  0.80337  Biso   1.000  C
  C419     1.0000 0.73426  0.53596  0.80997  Biso   1.000  C
  C420     1.0000 0.48908  0.38533  0.79780  Biso   1.000  C
  C421     1.0000 0.53699  0.14976  0.80337  Biso   1.000  C
  C422     1.0000 0.46409  0.19835  0.80997  Biso   1.000  C
  C423     1.0000 0.61467  0.10373  0.79780  Biso   1.000  C
  C424     1.0000 0.83215  0.25651  0.70203  Biso   1.000  C
  C425     1.0000 0.92869  0.36915  0.69829  Biso   1.000  C
  H364     1.0000 0.60520  0.44846  0.81413  Biso   1.000  H
  H365     1.0000 0.72516  0.51901  0.82054  Biso   1.000  H
  N43      1.0000 0.79488  0.58014  0.80646  Biso   1.000  N
  N44      1.0000 0.47416  0.35922  0.81176  Biso   1.000  N
  H366     1.0000 0.45315  0.37033  0.79023  Biso   1.000  H
  H367     1.0000 0.55156  0.15672  0.81413  Biso   1.000  H
  H368     1.0000 0.48097  0.20613  0.82054  Biso   1.000  H
  N45      1.0000 0.41987  0.21473  0.80646  Biso   1.000  N
  H369     1.0000 0.62968  0.08284  0.79023  Biso   1.000  H
  N46      1.0000 0.64076  0.11494  0.81176  Biso   1.000  N
  H370     1.0000 0.79815  0.21422  0.69764  Biso   1.000  H
  C426     1.0000 0.83556  0.26634  0.71832  Biso   1.000  C
  C427     1.0000 0.93206  0.37944  0.71505  Biso   1.000  C
  H371     1.0000 0.96094  0.40412  0.69153  Biso   1.000  H
  C428     1.0000 0.84505  0.60661  0.81932  Biso   1.000  C
  C429     1.0000 0.40204  0.30791  0.81470  Biso   1.000  C
  C430     1.0000 0.39337  0.23844  0.81932  Biso   1.000  C
  C431     1.0000 0.69209  0.09416  0.81470  Biso   1.000  C
  H372     1.0000 0.80459  0.23055  0.72513  Biso   1.000  H
  C432     1.0000 0.88545  0.32993  0.72498  Biso   1.000  C
  H373     1.0000 0.96718  0.42112  0.71943  Biso   1.000  H
  H374     1.0000 0.82379  0.58014  0.82923  Biso   1.000  H
  C433     1.0000 0.86987  0.68152  0.82224  Biso   1.000  C
  C434     1.0000 0.90586  0.59796  0.81470  Biso   1.000  C
  C435     1.0000 0.37426  0.33403  0.82782  Biso   1.000  C
  H375     1.0000 0.37547  0.30213  0.80473  Biso   1.000  H
  H376     1.0000 0.41988  0.24366  0.82923  Biso   1.000  H
  C436     1.0000 0.31847  0.18831  0.82224  Biso   1.000  C
  C437     1.0000 0.76159  0.15493  0.81932  Biso   1.000  C
  C438     1.0000 0.66598  0.04024  0.82782  Biso   1.000  C
  H377     1.0000 0.69786  0.07332  0.80473  Biso   1.000  H
  C439     1.0000 0.88465  0.34324  0.74218  Biso   1.000  C
  H378     1.0000 0.88884  0.70722  0.81224  Biso   1.000  H
  H379     1.0000 0.83036  0.68684  0.82533  Biso   1.000  H
  C440     1.0000 0.92527  0.71295  0.83536  Biso   1.000  C
  C441     1.0000 0.95977  0.62571  0.82782  Biso   1.000  C
  H380     1.0000 0.92668  0.62453  0.80473  Biso   1.000  H
  N47      1.0000 0.88504  0.52582  0.81176  Biso   1.000  N
  C442     1.0000 0.29777  0.28206  0.83082  Biso   1.000  C
  H381     1.0000 0.40067  0.34073  0.83773  Biso   1.000  H
  H382     1.0000 0.37957  0.37862  0.82463  Biso   1.000  H
  H383     1.0000 0.29280  0.18166  0.81224  Biso   1.000  H
  H384     1.0000 0.31314  0.14351  0.82533  Biso   1.000  H
  C443     1.0000 0.28707  0.21232  0.83536  Biso   1.000  C
  H385     1.0000 0.75636  0.17623  0.82923  Biso   1.000  H
  C444     1.0000 0.81167  0.13015  0.82224  Biso   1.000  C
  N48      1.0000 0.78528  0.20516  0.80646  Biso   1.000  N
  C445     1.0000 0.71796  0.01572  0.83082  Biso   1.000  C
  H386     1.0000 0.65929  0.05995  0.83773  Biso   1.000  H
  H387     1.0000 0.62135  0.00092  0.82463  Biso   1.000  H
  C446     1.0000 0.88137  0.35343  0.75545  Biso   1.000  C
  H388     1.0000 0.90586  0.69063  0.84573  Biso   1.000  H
  H389     1.0000 0.94157  0.76241  0.83643  Biso   1.000  H
  C447     1.0000 0.98426  0.70225  0.83082  Biso   1.000  C
  H390     1.0000 0.94007  0.59934  0.83773  Biso   1.000  H
  H391     1.0000 0.99908  0.62043  0.82463  Biso   1.000  H
  C448     1.0000 0.89626  0.51092  0.79780  Biso   1.000  C
  H392     1.0000 0.27128  0.27776  0.82104  Biso   1.000  H
  H393     1.0000 0.28054  0.29921  0.83943  Biso   1.000  H
  H394     1.0000 0.30937  0.21524  0.84573  Biso   1.000  H
  H395     1.0000 0.23758  0.17915  0.83643  Biso   1.000  H
  H396     1.0000 0.81836  0.11115  0.81224  Biso   1.000  H
  H397     1.0000 0.85646  0.16962  0.82533  Biso   1.000  H
  C449     1.0000 0.78770  0.07475  0.83536  Biso   1.000  C
  C450     1.0000 0.80164  0.26572  0.80997  Biso   1.000  C
  H398     1.0000 0.72231  0.99355  0.82104  Biso   1.000  H
  H399     1.0000 0.70076  0.98131  0.83943  Biso   1.000  H
  C451     1.0000 0.87246  0.36541  0.77211  Biso   1.000  C
  H400     1.0000 0.00645  0.72872  0.82104  Biso   1.000  H
  H401     1.0000 0.01866  0.71945  0.83943  Biso   1.000  H
  C452     1.0000 0.87907  0.44293  0.79293  Biso   1.000  C
  H402     1.0000 0.91713  0.54681  0.79023  Biso   1.000  H
  H403     1.0000 0.78476  0.09416  0.84573  Biso   1.000  H
  H404     1.0000 0.82086  0.05842  0.83643  Biso   1.000  H
  C453     1.0000 0.83217  0.32332  0.79868  Biso   1.000  C
  H405     1.0000 0.79387  0.27484  0.82054  Biso   1.000  H
  C454     1.0000 0.84379  0.31145  0.78317  Biso   1.000  C
  C455     1.0000 0.88975  0.43095  0.77713  Biso   1.000  C
  C456     1.0000 0.85024  0.38722  0.80337  Biso   1.000  C
  H406     1.0000 0.83238  0.26654  0.77994  Biso   1.000  H
  H407     1.0000 0.90894  0.46781  0.76973  Biso   1.000  H
  H408     1.0000 0.84328  0.39485  0.81413  Biso   1.000  H
  C457     1.0000 0.14502  0.79677  0.48891  Biso   1.000  C
  C458     1.0000 0.14501  0.79682  0.48891  Biso   1.000  C
  C459     1.0000 0.05130  0.68239  0.49749  Biso   1.000  C
  H409     1.0000 0.11812  0.76077  0.51240  Biso   1.000  H
  H410     1.0000 0.11810  0.76082  0.51240  Biso   1.000  H
  H411     1.0000 0.15419  0.72509  0.50310  Biso   1.000  H
  C460     1.0000 0.09492  0.82160  0.48600  Biso   1.000  C
  H412     1.0000 0.15171  0.77777  0.47890  Biso   1.000  H
  H413     1.0000 0.18984  0.83629  0.49200  Biso   1.000  H
  H414     1.0000 0.15169  0.77782  0.47890  Biso   1.000  H
  H415     1.0000 0.18979  0.83629  0.49200  Biso   1.000  H
  C461     1.0000 0.12103  0.74142  0.50202  Biso   1.000  C
  C462     1.0000 0.99929  0.70686  0.49449  Biso   1.000  C
  C463     1.0000 0.99931  0.70691  0.49449  Biso   1.000  C
  H416     1.0000 0.03410  0.64798  0.50610  Biso   1.000  H
  H417     1.0000 0.05562  0.66017  0.48770  Biso   1.000  H
  H418     1.0000 0.05560  0.66022  0.48770  Biso   1.000  H
  N49      1.0000 0.11861  0.87182  0.47313  Biso   1.000  N
  H419     1.0000 0.08974  0.84290  0.49590  Biso   1.000  H
  H420     1.0000 0.08970  0.84290  0.49590  Biso   1.000  H
  C464     1.0000 0.02543  0.76082  0.48137  Biso   1.000  C
  H421     1.0000 0.95473  0.66759  0.49129  Biso   1.000  H
  H422     1.0000 0.99263  0.72662  0.50439  Biso   1.000  H
  H423     1.0000 0.95469  0.66759  0.49129  Biso   1.000  H
  C465     1.0000 0.13498  0.93239  0.47664  Biso   1.000  C
  N50      1.0000 0.97412  0.78156  0.47843  Biso   1.000  N
  N51      1.0000 0.97410  0.78161  0.47843  Biso   1.000  N
  H424     1.0000 0.03124  0.73999  0.47140  Biso   1.000  H
  H425     1.0000 0.03119  0.73999  0.47140  Biso   1.000  H
  C466     1.0000 0.16551  0.98999  0.46535  Biso   1.000  C
  H426     1.0000 0.12721  0.94151  0.48720  Biso   1.000  H
  C467     1.0000 0.94801  0.77040  0.46446  Biso   1.000  C
  C468     1.0000 0.17712  0.97811  0.44983  Biso   1.000  C
  C469     1.0000 0.18358  0.05389  0.47004  Biso   1.000  C
  C470     1.0000 0.18353  0.05389  0.47004  Biso   1.000  C
  C471     1.0000 0.89719  0.78760  0.45961  Biso   1.000  C
  H427     1.0000 0.96301  0.74951  0.45690  Biso   1.000  H
  C472     1.0000 0.20579  0.03208  0.43878  Biso   1.000  C
  H428     1.0000 0.16569  0.93316  0.44660  Biso   1.000  H
  H429     1.0000 0.16571  0.93321  0.44660  Biso   1.000  H
  C473     1.0000 0.21236  0.10959  0.45961  Biso   1.000  C
  H430     1.0000 0.17659  0.06147  0.48080  Biso   1.000  H
  H431     1.0000 0.17662  0.06152  0.48080  Biso   1.000  H
  C474     1.0000 0.87451  0.77690  0.44379  Biso   1.000  C
  C475     1.0000 0.87030  0.81637  0.47004  Biso   1.000  C
  C476     1.0000 0.21466  0.02010  0.42212  Biso   1.000  C
  C477     1.0000 0.22308  0.09761  0.44379  Biso   1.000  C
  C478     1.0000 0.22960  0.17759  0.46446  Biso   1.000  C
  C479     1.0000 0.82629  0.79415  0.43878  Biso   1.000  C
  C480     1.0000 0.82631  0.79421  0.43878  Biso   1.000  C
  H432     1.0000 0.89222  0.75770  0.43640  Biso   1.000  H
  C481     1.0000 0.82451  0.83450  0.46535  Biso   1.000  C
  H433     1.0000 0.88489  0.82339  0.48080  Biso   1.000  H
  C482     1.0000 0.21800  0.00986  0.40884  Biso   1.000  C
  C483     1.0000 0.21794  0.00991  0.40884  Biso   1.000  C
  H434     1.0000 0.24227  0.13448  0.43640  Biso   1.000  H
  H435     1.0000 0.24223  0.13448  0.43640  Biso   1.000  H
  H436     1.0000 0.25051  0.21348  0.45690  Biso   1.000  H
  N52      1.0000 0.21842  0.19249  0.47843  Biso   1.000  N
  H437     1.0000 0.25042  0.21348  0.45690  Biso   1.000  H
  N53      1.0000 0.21833  0.19249  0.47843  Biso   1.000  N
  C484     1.0000 0.80541  0.78530  0.42212  Biso   1.000  C
  C485     1.0000 0.80101  0.82288  0.44983  Biso   1.000  C
  C486     1.0000 0.79740  0.86496  0.47664  Biso   1.000  C
  C487     1.0000 0.79743  0.86501  0.47664  Biso   1.000  C
  C488     1.0000 0.21882  0.99660  0.39165  Biso   1.000  C
  C489     1.0000 0.21878  0.99660  0.39165  Biso   1.000  C
  C490     1.0000 0.23917  0.26457  0.48137  Biso   1.000  C
  C491     1.0000 0.23912  0.26457  0.48137  Biso   1.000  C
  C492     1.0000 0.79191  0.78197  0.40884  Biso   1.000  C
  C493     1.0000 0.79189  0.78202  0.40884  Biso   1.000  C
  H438     1.0000 0.76748  0.83429  0.44660  Biso   1.000  H
  H439     1.0000 0.81431  0.87280  0.48720  Biso   1.000  H
  N54      1.0000 0.75321  0.88140  0.47313  Biso   1.000  N
  C494     1.0000 0.16891  0.93296  0.38499  Biso   1.000  C
  C495     1.0000 0.16889  0.93301  0.38499  Biso   1.000  C
  C496     1.0000 0.26539  0.04611  0.38172  Biso   1.000  C
  C497     1.0000 0.17839  0.27328  0.48600  Biso   1.000  C
  C498     1.0000 0.29311  0.29238  0.49449  Biso   1.000  C
  H440     1.0000 0.25997  0.29120  0.47140  Biso   1.000  H
  C499     1.0000 0.77782  0.78120  0.39165  Biso   1.000  C
  C500     1.0000 0.72668  0.90505  0.48600  Biso   1.000  C
  C501     1.0000 0.72671  0.90510  0.48600  Biso   1.000  C
  C502     1.0000 0.16553  0.92318  0.36869  Biso   1.000  C
  C503     1.0000 0.16549  0.92318  0.36869  Biso   1.000  C
  H441     1.0000 0.13789  0.89717  0.39180  Biso   1.000  H
  H442     1.0000 0.13792  0.89722  0.39180  Biso   1.000  H
  C504     1.0000 0.26200  0.03576  0.36495  Biso   1.000  C
  C505     1.0000 0.26202  0.03582  0.36495  Biso   1.000  C
  H443     1.0000 0.30051  0.08778  0.38610  Biso   1.000  H
  H444     1.0000 0.15705  0.24676  0.49590  Biso   1.000  H
  C506     1.0000 0.20320  0.34818  0.48891  Biso   1.000  C
  N55      1.0000 0.12819  0.24676  0.47313  Biso   1.000  N
  H445     1.0000 0.15708  0.24681  0.49590  Biso   1.000  H
  N56      1.0000 0.12822  0.24681  0.47313  Biso   1.000  N
  H446     1.0000 0.27334  0.26596  0.50439  Biso   1.000  H
  C507     1.0000 0.31759  0.36892  0.49749  Biso   1.000  C
  H447     1.0000 0.27336  0.26601  0.50439  Biso   1.000  H
  H448     1.0000 0.33237  0.28710  0.49129  Biso   1.000  H
  C508     1.0000 0.76409  0.83107  0.38499  Biso   1.000  C
  C509     1.0000 0.76412  0.83112  0.38499  Biso   1.000  C
  C510     1.0000 0.78071  0.73456  0.38172  Biso   1.000  C
  C511     1.0000 0.78069  0.73461  0.38172  Biso   1.000  C
  H449     1.0000 0.75319  0.91027  0.49590  Biso   1.000  H
  C512     1.0000 0.65181  0.85498  0.48891  Biso   1.000  C
  C513     1.0000 0.73537  0.97458  0.48137  Biso   1.000  C
  C514     1.0000 0.21221  0.97566  0.35873  Biso   1.000  C
  C515     1.0000 0.21219  0.97571  0.35873  Biso   1.000  C
  H450     1.0000 0.13153  0.88089  0.36430  Biso   1.000  H
  H451     1.0000 0.13148  0.88089  0.36430  Biso   1.000  H
  H452     1.0000 0.29427  0.07078  0.35820  Biso   1.000  H
  H453     1.0000 0.29423  0.07078  0.35820  Biso   1.000  H
  H454     1.0000 0.22217  0.37389  0.47890  Biso   1.000  H
  H455     1.0000 0.16371  0.35346  0.49200  Biso   1.000  H
  C516     1.0000 0.25858  0.37957  0.50202  Biso   1.000  C
  H456     1.0000 0.16365  0.35351  0.49200  Biso   1.000  H
  C517     1.0000 0.25856  0.37962  0.50202  Biso   1.000  C
  C518     1.0000 0.06757  0.20257  0.47664  Biso   1.000  C
  C519     1.0000 0.06759  0.20262  0.47664  Biso   1.000  C
  H457     1.0000 0.33978  0.39539  0.48770  Biso   1.000  H
  H458     1.0000 0.35202  0.38607  0.50610  Biso   1.000  H
  H459     1.0000 0.35200  0.38612  0.50610  Biso   1.000  H
  C520     1.0000 0.75769  0.83450  0.36869  Biso   1.000  C
  H460     1.0000 0.75934  0.86210  0.39180  Biso   1.000  H
  H461     1.0000 0.75930  0.86210  0.39180  Biso   1.000  H
  C521     1.0000 0.77377  0.73799  0.36495  Biso   1.000  C
  H462     1.0000 0.78733  0.69949  0.38610  Biso   1.000  H
  H463     1.0000 0.78729  0.69949  0.38610  Biso   1.000  H
  H464     1.0000 0.64652  0.81018  0.49200  Biso   1.000  H
  C522     1.0000 0.62040  0.87899  0.50202  Biso   1.000  C
  H465     1.0000 0.62613  0.84832  0.47890  Biso   1.000  H
  H466     1.0000 0.64648  0.81018  0.49200  Biso   1.000  H
  N57      1.0000 0.80745  0.02588  0.47843  Biso   1.000  N
  H467     1.0000 0.70880  0.96880  0.47140  Biso   1.000  H
  C523     1.0000 0.70764  0.00069  0.49449  Biso   1.000  C
  C524     1.0000 0.70755  0.00069  0.49449  Biso   1.000  C
  C525     1.0000 0.20382  0.96562  0.34199  Biso   1.000  C
  H468     1.0000 0.23919  0.35730  0.51240  Biso   1.000  H
  H469     1.0000 0.27491  0.42908  0.50310  Biso   1.000  H
  H470     1.0000 0.23915  0.35730  0.51240  Biso   1.000  H
  C526     1.0000 0.00999  0.17549  0.46535  Biso   1.000  C
  H471     1.0000 0.05845  0.18568  0.48720  Biso   1.000  H
  C527     1.0000 0.76350  0.78775  0.35873  Biso   1.000  C
  C528     1.0000 0.76352  0.78781  0.35873  Biso   1.000  C
  H472     1.0000 0.74942  0.86850  0.36430  Biso   1.000  H
  H473     1.0000 0.77651  0.70568  0.35820  Biso   1.000  H
  H474     1.0000 0.64272  0.88186  0.51240  Biso   1.000  H
  H475     1.0000 0.57089  0.84576  0.50310  Biso   1.000  H
  C529     1.0000 0.63112  0.94867  0.49749  Biso   1.000  C
  H476     1.0000 0.64270  0.88191  0.51240  Biso   1.000  H
  H477     1.0000 0.57091  0.84581  0.50310  Biso   1.000  H
  C530     1.0000 0.63110  0.94873  0.49749  Biso   1.000  C
  C531     1.0000 0.82241  0.05199  0.46446  Biso   1.000  C
  H478     1.0000 0.73396  0.00740  0.50439  Biso   1.000  H
  H479     1.0000 0.71291  0.04529  0.49129  Biso   1.000  H
  C532     1.0000 0.19222  0.95651  0.32761  Biso   1.000  C
  C533     1.0000 0.02188  0.19899  0.44983  Biso   1.000  C
  C534     1.0000 0.94611  0.12966  0.47004  Biso   1.000  C
  C535     1.0000 0.94605  0.12972  0.47004  Biso   1.000  C
  C536     1.0000 0.76182  0.79620  0.34199  Biso   1.000  C
  H480     1.0000 0.60463  0.94437  0.48770  Biso   1.000  H
  H481     1.0000 0.61392  0.96588  0.50610  Biso   1.000  H
  H482     1.0000 0.60461  0.94442  0.48770  Biso   1.000  H
  H483     1.0000 0.61387  0.96588  0.50610  Biso   1.000  H
  H484     1.0000 0.78649  0.03699  0.45690  Biso   1.000  H
  C537     1.0000 0.89037  0.10278  0.45961  Biso   1.000  C
  C538     1.0000 0.89033  0.10278  0.45961  Biso   1.000  C
  C539     1.0000 0.17098  0.94898  0.31123  Biso   1.000  C
  C540     1.0000 0.96786  0.17370  0.43878  Biso   1.000  C
  H485     1.0000 0.06677  0.23247  0.44660  Biso   1.000  H
  H486     1.0000 0.06676  0.23252  0.44660  Biso   1.000  H
  H487     1.0000 0.93851  0.11507  0.48080  Biso   1.000  H
  H488     1.0000 0.93853  0.11512  0.48080  Biso   1.000  H
  C541     1.0000 0.76433  0.80777  0.32761  Biso   1.000  C
  C542     1.0000 0.76431  0.80782  0.32761  Biso   1.000  C
  C543     1.0000 0.90238  0.12547  0.44379  Biso   1.000  C
  C544     1.0000 0.90240  0.12552  0.44379  Biso   1.000  C
  C545     1.0000 0.11952  0.88268  0.30594  Biso   1.000  C
  C546     1.0000 0.11947  0.88268  0.30594  Biso   1.000  C
  C547     1.0000 0.19895  0.00279  0.30126  Biso   1.000  C
  C548     1.0000 0.19904  0.00279  0.30126  Biso   1.000  C
  C549     1.0000 0.97986  0.19458  0.42212  Biso   1.000  C
  C550     1.0000 0.77803  0.82897  0.31123  Biso   1.000  C
  C551     1.0000 0.77801  0.82902  0.31123  Biso   1.000  C
  H489     1.0000 0.86550  0.10775  0.43640  Biso   1.000  H
  H490     1.0000 0.86552  0.10780  0.43640  Biso   1.000  H
  C552     1.0000 0.09431  0.87500  0.29066  Biso   1.000  C
  H491     1.0000 0.10281  0.84438  0.31290  Biso   1.000  H
  C553     1.0000 0.17302  0.99429  0.28512  Biso   1.000  C
  C554     1.0000 0.17298  0.99429  0.28512  Biso   1.000  C
  H492     1.0000 0.23529  0.04585  0.30470  Biso   1.000  H
  H493     1.0000 0.23532  0.04590  0.30470  Biso   1.000  H
  C555     1.0000 0.99005  0.20805  0.40884  Biso   1.000  C
  C556     1.0000 0.99007  0.20810  0.40884  Biso   1.000  C
  C557     1.0000 0.80382  0.80101  0.30126  Biso   1.000  C
  C558     1.0000 0.76317  0.88048  0.30594  Biso   1.000  C
  C559     1.0000 0.11911  0.93188  0.27990  Biso   1.000  C
  C560     1.0000 0.11907  0.93188  0.27990  Biso   1.000  C
  C561     1.0000 0.03791  0.80690  0.28527  Biso   1.000  C
  C562     1.0000 0.20166  0.05210  0.27376  Biso   1.000  C
  C563     1.0000 0.00337  0.22218  0.39165  Biso   1.000  C
  C564     1.0000 0.82133  0.82697  0.28512  Biso   1.000  C
  C565     1.0000 0.82131  0.82702  0.28512  Biso   1.000  C
  H494     1.0000 0.81061  0.76466  0.30470  Biso   1.000  H
  H495     1.0000 0.81059  0.76471  0.30470  Biso   1.000  H
  C566     1.0000 0.78073  0.90567  0.29066  Biso   1.000  C
  C567     1.0000 0.78071  0.90572  0.29066  Biso   1.000  C
  H496     1.0000 0.74163  0.89717  0.31290  Biso   1.000  H
  H497     1.0000 0.74161  0.89722  0.31290  Biso   1.000  H
  H498     1.0000 0.09951  0.92717  0.26960  Biso   1.000  H
  H499     1.0000 0.09949  0.92722  0.26960  Biso   1.000  H
  H500     1.0000 0.02370  0.76855  0.29210  Biso   1.000  H
  N58      1.0000 0.00798  0.79758  0.27203  Biso   1.000  N
  H501     1.0000 0.02369  0.76861  0.29210  Biso   1.000  H
  H502     1.0000 0.18471  0.04375  0.26319  Biso   1.000  H
  H503     1.0000 0.18465  0.04380  0.26319  Biso   1.000  H
  N59      1.0000 0.24843  0.11292  0.27743  Biso   1.000  N
  C568     1.0000 0.95384  0.21926  0.38172  Biso   1.000  C
  C569     1.0000 0.95387  0.21931  0.38172  Biso   1.000  C
  C570     1.0000 0.06700  0.23585  0.38499  Biso   1.000  C
  C571     1.0000 0.06694  0.23590  0.38499  Biso   1.000  C
  C572     1.0000 0.85040  0.79830  0.27376  Biso   1.000  C
  C573     1.0000 0.81281  0.88089  0.27990  Biso   1.000  C
  C574     1.0000 0.76903  0.96209  0.28527  Biso   1.000  C
  C575     1.0000 0.76899  0.96209  0.28527  Biso   1.000  C
  C576     1.0000 0.95519  0.72739  0.26870  Biso   1.000  C
  C577     1.0000 0.27402  0.16100  0.26450  Biso   1.000  C
  C578     1.0000 0.96422  0.22617  0.36495  Biso   1.000  C
  C579     1.0000 0.96413  0.22617  0.36495  Biso   1.000  C
  H504     1.0000 0.91219  0.21266  0.38610  Biso   1.000  H
  H505     1.0000 0.91221  0.21271  0.38610  Biso   1.000  H
  C580     1.0000 0.07679  0.24230  0.36869  Biso   1.000  C
  H506     1.0000 0.10280  0.24066  0.39180  Biso   1.000  H
  H507     1.0000 0.10282  0.24072  0.39180  Biso   1.000  H
  N60      1.0000 0.86452  0.75161  0.27743  Biso   1.000  N
  H508     1.0000 0.85912  0.81530  0.26319  Biso   1.000  H
  H509     1.0000 0.82771  0.90050  0.26960  Biso   1.000  H
  H510     1.0000 0.74491  0.97627  0.29210  Biso   1.000  H
  N61      1.0000 0.78961  0.99199  0.27203  Biso   1.000  N
  H511     1.0000 0.74489  0.97632  0.29210  Biso   1.000  H
  H512     1.0000 0.94773  0.69908  0.27850  Biso   1.000  H
  C581     1.0000 0.88701  0.72601  0.26450  Biso   1.000  C
  C582     1.0000 0.97768  0.69780  0.25506  Biso   1.000  C
  H513     1.0000 0.94769  0.69908  0.27850  Biso   1.000  H
  H514     1.0000 0.24491  0.13939  0.25489  Biso   1.000  H
  C583     1.0000 0.34631  0.17948  0.26085  Biso   1.000  C
  C584     1.0000 0.27260  0.22776  0.26870  Biso   1.000  C
  C585     1.0000 0.34623  0.17948  0.26085  Biso   1.000  C
  C586     1.0000 0.27262  0.22781  0.26870  Biso   1.000  C
  C587     1.0000 0.02425  0.23647  0.35873  Biso   1.000  C
  C588     1.0000 0.02428  0.23652  0.35873  Biso   1.000  C
  H515     1.0000 0.92921  0.22346  0.35820  Biso   1.000  H
  H516     1.0000 0.92914  0.22351  0.35820  Biso   1.000  H
  H517     1.0000 0.11911  0.25060  0.36430  Biso   1.000  H
  C589     1.0000 0.77220  0.04478  0.26870  Biso   1.000  C
  H518     1.0000 0.89450  0.75509  0.25489  Biso   1.000  H
  C590     1.0000 0.83319  0.65366  0.26085  Biso   1.000  C
  C591     1.0000 0.83322  0.65371  0.26085  Biso   1.000  C
  C592     1.0000 0.92441  0.62602  0.25096  Biso   1.000  C
  H519     1.0000 0.98767  0.72708  0.24550  Biso   1.000  H
  H520     1.0000 0.02041  0.69846  0.25810  Biso   1.000  H
  H521     1.0000 0.02039  0.69851  0.25810  Biso   1.000  H
  H522     1.0000 0.34741  0.13796  0.25750  Biso   1.000  H
  C593     1.0000 0.37698  0.23416  0.24745  Biso   1.000  C
  H523     1.0000 0.37462  0.19761  0.27060  Biso   1.000  H
  H524     1.0000 0.34739  0.13801  0.25750  Biso   1.000  H
  C594     1.0000 0.37701  0.23421  0.24745  Biso   1.000  C
  C595     1.0000 0.30220  0.27988  0.25506  Biso   1.000  C
  H525     1.0000 0.30093  0.24860  0.27850  Biso   1.000  H
  H526     1.0000 0.30084  0.24860  0.27850  Biso   1.000  H
  N62      1.0000 0.20237  0.21041  0.27203  Biso   1.000  N
  C596     1.0000 0.03437  0.23816  0.34199  Biso   1.000  C
  C597     1.0000 0.03435  0.23821  0.34199  Biso   1.000  C
  C598     1.0000 0.83902  0.11297  0.26450  Biso   1.000  C
  C599     1.0000 0.72012  0.02230  0.25506  Biso   1.000  C
  H527     1.0000 0.75137  0.05225  0.27850  Biso   1.000  H
  C600     1.0000 0.83905  0.11302  0.26450  Biso   1.000  C
  C601     1.0000 0.72008  0.02230  0.25506  Biso   1.000  C
  H528     1.0000 0.75140  0.05230  0.27850  Biso   1.000  H
  C602     1.0000 0.83896  0.11302  0.26450  Biso   1.000  C
  H529     1.0000 0.75135  0.05230  0.27850  Biso   1.000  H
  H530     1.0000 0.82301  0.62540  0.27060  Biso   1.000  H
  H531     1.0000 0.79062  0.65259  0.25750  Biso   1.000  H
  C603     1.0000 0.85723  0.62299  0.24745  Biso   1.000  C
  H532     1.0000 0.79058  0.65259  0.25750  Biso   1.000  H
  C604     1.0000 0.85719  0.62299  0.24745  Biso   1.000  C
  H533     1.0000 0.93922  0.61040  0.24150  Biso   1.000  H
  H534     1.0000 0.91840  0.59519  0.26000  Biso   1.000  H
  H535     1.0000 0.35175  0.21368  0.23740  Biso   1.000  H
  H536     1.0000 0.42527  0.24676  0.24570  Biso   1.000  H
  H537     1.0000 0.42529  0.24681  0.24570  Biso   1.000  H
  C605     1.0000 0.37399  0.29842  0.25096  Biso   1.000  C
  H538     1.0000 0.27291  0.26058  0.24550  Biso   1.000  H
  H539     1.0000 0.30149  0.32192  0.25810  Biso   1.000  H
  C606     1.0000 0.19307  0.23099  0.28527  Biso   1.000  C
  C607     1.0000 0.04347  0.23570  0.32761  Biso   1.000  C
  C608     1.0000 0.82048  0.16678  0.26085  Biso   1.000  C
  N63      1.0000 0.88709  0.13550  0.27743  Biso   1.000  N
  H540     1.0000 0.86056  0.10550  0.25489  Biso   1.000  H
  H541     1.0000 0.67811  0.97960  0.25810  Biso   1.000  H
  C609     1.0000 0.70164  0.07560  0.25096  Biso   1.000  C
  H542     1.0000 0.73936  0.01226  0.24550  Biso   1.000  H
  C610     1.0000 0.70155  0.07560  0.25096  Biso   1.000  C
  H543     1.0000 0.73934  0.01231  0.24550  Biso   1.000  H
  H544     1.0000 0.86189  0.64818  0.23740  Biso   1.000  H
  H545     1.0000 0.82152  0.57471  0.24570  Biso   1.000  H
  H546     1.0000 0.38961  0.32878  0.24150  Biso   1.000  H
  H547     1.0000 0.40478  0.32320  0.26000  Biso   1.000  H
  H548     1.0000 0.38953  0.32878  0.24150  Biso   1.000  H
  H549     1.0000 0.40474  0.32320  0.26000  Biso   1.000  H
  C611     1.0000 0.12495  0.21926  0.29066  Biso   1.000  C
  C612     1.0000 0.12498  0.21931  0.29066  Biso   1.000  C
  H550     1.0000 0.23142  0.25510  0.29210  Biso   1.000  H
  C613     1.0000 0.05097  0.22198  0.31123  Biso   1.000  C
  H551     1.0000 0.80238  0.17697  0.27060  Biso   1.000  H
  H552     1.0000 0.86200  0.20938  0.25750  Biso   1.000  H
  C614     1.0000 0.76577  0.14277  0.24745  Biso   1.000  C
  H553     1.0000 0.80236  0.17702  0.27060  Biso   1.000  H
  C615     1.0000 0.76580  0.14282  0.24745  Biso   1.000  C
  C616     1.0000 0.94787  0.14958  0.27376  Biso   1.000  C
  H554     1.0000 0.67118  0.06080  0.24150  Biso   1.000  H
  H555     1.0000 0.67683  0.08159  0.26000  Biso   1.000  H
  H556     1.0000 0.67678  0.08159  0.26000  Biso   1.000  H
  C617     1.0000 0.06811  0.18716  0.27990  Biso   1.000  C
  C618     1.0000 0.11726  0.23677  0.30594  Biso   1.000  C
  C619     1.0000 0.06809  0.18721  0.27990  Biso   1.000  C
  C620     1.0000 0.11728  0.23682  0.30594  Biso   1.000  C
  C621     1.0000 0.99715  0.19617  0.30126  Biso   1.000  C
  C622     1.0000 0.99717  0.19622  0.30126  Biso   1.000  C
  H557     1.0000 0.75320  0.17846  0.24570  Biso   1.000  H
  H558     1.0000 0.78628  0.13811  0.23740  Biso   1.000  H
  H559     1.0000 0.75322  0.17851  0.24570  Biso   1.000  H
  C623     1.0000 0.00566  0.17871  0.28512  Biso   1.000  C
  H560     1.0000 0.95615  0.14088  0.26319  Biso   1.000  H
  H561     1.0000 0.07276  0.17226  0.26960  Biso   1.000  H
  H562     1.0000 0.07274  0.17231  0.26960  Biso   1.000  H
  H563     1.0000 0.15559  0.25838  0.31290  Biso   1.000  H
  H564     1.0000 0.95410  0.18936  0.30470  Biso   1.000  H
  H565     1.0000 0.95413  0.18941  0.30470  Biso   1.000  H
  C624     1.0000 0.97457  0.23920  0.51863  Biso   1.000  C
  C625     1.0000 0.94871  0.31759  0.50251  Biso   1.000  C
  C626     1.0000 0.94869  0.31764  0.50251  Biso   1.000  C
  H566     1.0000 0.04528  0.33239  0.50871  Biso   1.000  H
  H567     1.0000 0.00736  0.27340  0.49561  Biso   1.000  H
  H568     1.0000 0.04530  0.33244  0.50871  Biso   1.000  H
  N64      1.0000 0.02589  0.21842  0.52157  Biso   1.000  N
  C627     1.0000 0.90509  0.17838  0.51400  Biso   1.000  C
  C628     1.0000 0.90507  0.17843  0.51400  Biso   1.000  C
  H569     1.0000 0.96880  0.26004  0.52860  Biso   1.000  H
  C629     1.0000 0.00068  0.29312  0.50551  Biso   1.000  C
  C630     1.0000 0.87900  0.25861  0.49798  Biso   1.000  C
  C631     1.0000 0.87896  0.25861  0.49798  Biso   1.000  C
  H570     1.0000 0.94439  0.33981  0.51230  Biso   1.000  H
  H571     1.0000 0.96592  0.35200  0.49390  Biso   1.000  H
  H572     1.0000 0.96590  0.35205  0.49390  Biso   1.000  H
  C632     1.0000 0.05200  0.22958  0.53554  Biso   1.000  C
  C633     1.0000 0.05198  0.22963  0.53554  Biso   1.000  C
  C634     1.0000 0.85499  0.20321  0.51109  Biso   1.000  C
  N65      1.0000 0.88142  0.12820  0.52687  Biso   1.000  N
  H573     1.0000 0.91030  0.15713  0.50410  Biso   1.000  H
  N66      1.0000 0.88138  0.12820  0.52687  Biso   1.000  N
  H574     1.0000 0.88190  0.23920  0.48760  Biso   1.000  H
  H575     1.0000 0.84578  0.27489  0.49690  Biso   1.000  H
  H576     1.0000 0.84580  0.27494  0.49690  Biso   1.000  H
  C635     1.0000 0.10277  0.21238  0.54039  Biso   1.000  C
  C636     1.0000 0.10280  0.21243  0.54039  Biso   1.000  C
  H577     1.0000 0.03702  0.25052  0.54310  Biso   1.000  H
  H578     1.0000 0.03698  0.25052  0.54310  Biso   1.000  H
  H579     1.0000 0.84830  0.22221  0.52110  Biso   1.000  H
  H580     1.0000 0.81020  0.16374  0.50800  Biso   1.000  H
  C637     1.0000 0.86501  0.06763  0.52336  Biso   1.000  C
  C638     1.0000 0.12971  0.18360  0.52996  Biso   1.000  C
  C639     1.0000 0.12967  0.18360  0.52996  Biso   1.000  C
  C640     1.0000 0.12551  0.22308  0.55621  Biso   1.000  C
  C641     1.0000 0.12549  0.22313  0.55621  Biso   1.000  C
  C642     1.0000 0.83450  0.00998  0.53465  Biso   1.000  C
  C643     1.0000 0.83449  0.01004  0.53465  Biso   1.000  C
  H581     1.0000 0.87278  0.05852  0.51280  Biso   1.000  H
  C644     1.0000 0.17550  0.16548  0.53465  Biso   1.000  C
  C645     1.0000 0.17548  0.16553  0.53465  Biso   1.000  C
  H582     1.0000 0.11507  0.17659  0.51920  Biso   1.000  H
  H583     1.0000 0.11510  0.17664  0.51920  Biso   1.000  H
  C646     1.0000 0.17368  0.20582  0.56122  Biso   1.000  C
  H584     1.0000 0.10779  0.24228  0.56360  Biso   1.000  H
  H585     1.0000 0.10777  0.24233  0.56360  Biso   1.000  H
  C647     1.0000 0.81642  0.94614  0.52996  Biso   1.000  C
  C648     1.0000 0.82291  0.02191  0.55017  Biso   1.000  C
  C649     1.0000 0.82287  0.02191  0.55017  Biso   1.000  C
  C650     1.0000 0.20261  0.13501  0.52336  Biso   1.000  C
  C651     1.0000 0.20257  0.13501  0.52336  Biso   1.000  C
  C652     1.0000 0.19896  0.17710  0.55017  Biso   1.000  C
  C653     1.0000 0.19460  0.21468  0.57788  Biso   1.000  C
  C654     1.0000 0.19458  0.21473  0.57788  Biso   1.000  C
  C655     1.0000 0.78763  0.89043  0.54039  Biso   1.000  C
  H586     1.0000 0.82346  0.93851  0.51920  Biso   1.000  H
  H587     1.0000 0.82342  0.93851  0.51920  Biso   1.000  H
  C656     1.0000 0.79422  0.96790  0.56122  Biso   1.000  C
  C657     1.0000 0.79424  0.96795  0.56122  Biso   1.000  C
  H588     1.0000 0.83428  0.06682  0.55340  Biso   1.000  H
  N67      1.0000 0.24680  0.11858  0.52687  Biso   1.000  N
  N68      1.0000 0.24678  0.11863  0.52687  Biso   1.000  N
  H589     1.0000 0.18570  0.12718  0.51280  Biso   1.000  H
  H590     1.0000 0.18568  0.12723  0.51280  Biso   1.000  H
  H591     1.0000 0.23251  0.16573  0.55340  Biso   1.000  H
  C658     1.0000 0.20810  0.21801  0.59116  Biso   1.000  C
  C659     1.0000 0.77044  0.82244  0.53554  Biso   1.000  C
  C660     1.0000 0.77695  0.90241  0.55621  Biso   1.000  C
  C661     1.0000 0.78535  0.97988  0.57788  Biso   1.000  C
  C662     1.0000 0.78534  0.97993  0.57788  Biso   1.000  C
  C663     1.0000 0.27333  0.09492  0.51400  Biso   1.000  C
  C664     1.0000 0.27329  0.09492  0.51400  Biso   1.000  C
  C665     1.0000 0.22219  0.21878  0.60835  Biso   1.000  C
  C666     1.0000 0.22217  0.21883  0.60835  Biso   1.000  C
  N69      1.0000 0.78161  0.80754  0.52157  Biso   1.000  N
  H592     1.0000 0.74954  0.78650  0.54310  Biso   1.000  H
  H593     1.0000 0.74957  0.78655  0.54310  Biso   1.000  H
  H594     1.0000 0.75774  0.86550  0.56360  Biso   1.000  H
  C667     1.0000 0.78205  0.99012  0.59116  Biso   1.000  C
  C668     1.0000 0.26459  0.02539  0.51863  Biso   1.000  C
  C669     1.0000 0.26462  0.02545  0.51863  Biso   1.000  C
  C670     1.0000 0.34820  0.14500  0.51109  Biso   1.000  C
  C671     1.0000 0.34819  0.14505  0.51109  Biso   1.000  C
  H595     1.0000 0.24678  0.08970  0.50410  Biso   1.000  H
  C672     1.0000 0.21930  0.26542  0.61828  Biso   1.000  C
  C673     1.0000 0.23587  0.16891  0.61501  Biso   1.000  C
  C674     1.0000 0.76084  0.73540  0.51863  Biso   1.000  C
  C675     1.0000 0.78119  0.00338  0.60835  Biso   1.000  C
  C676     1.0000 0.78121  0.00343  0.60835  Biso   1.000  C
  C677     1.0000 0.29242  0.99928  0.50551  Biso   1.000  C
  C678     1.0000 0.29244  0.99933  0.50551  Biso   1.000  C
  N70      1.0000 0.19256  0.97409  0.52157  Biso   1.000  N
  N71      1.0000 0.19250  0.97414  0.52157  Biso   1.000  N
  H596     1.0000 0.29121  0.03118  0.52860  Biso   1.000  H
  H597     1.0000 0.29119  0.03123  0.52860  Biso   1.000  H
  C679     1.0000 0.37961  0.12098  0.49798  Biso   1.000  C
  C680     1.0000 0.37959  0.12104  0.49798  Biso   1.000  C
  H598     1.0000 0.37391  0.15170  0.52110  Biso   1.000  H
  H599     1.0000 0.35349  0.18980  0.50800  Biso   1.000  H
  H600     1.0000 0.37386  0.15170  0.52110  Biso   1.000  H
  H601     1.0000 0.35351  0.18985  0.50800  Biso   1.000  H
  H602     1.0000 0.21268  0.30049  0.61390  Biso   1.000  H
  C681     1.0000 0.22619  0.26199  0.63505  Biso   1.000  C
  H603     1.0000 0.21270  0.30054  0.61390  Biso   1.000  H
  C682     1.0000 0.22622  0.26204  0.63505  Biso   1.000  C
  C683     1.0000 0.24230  0.16553  0.63131  Biso   1.000  C
  H604     1.0000 0.24069  0.13793  0.60820  Biso   1.000  H
  C684     1.0000 0.82158  0.72670  0.51400  Biso   1.000  C
  C685     1.0000 0.82161  0.72675  0.51400  Biso   1.000  C
  C686     1.0000 0.70695  0.70760  0.50551  Biso   1.000  C
  H605     1.0000 0.74004  0.70878  0.52860  Biso   1.000  H
  C687     1.0000 0.70690  0.70760  0.50551  Biso   1.000  C
  H606     1.0000 0.74002  0.70883  0.52860  Biso   1.000  H
  C688     1.0000 0.73464  0.95392  0.61828  Biso   1.000  C
  C689     1.0000 0.83110  0.06702  0.61501  Biso   1.000  C
  C690     1.0000 0.36889  0.05130  0.50251  Biso   1.000  C
  H607     1.0000 0.26601  0.99258  0.49561  Biso   1.000  H
  H608     1.0000 0.28715  0.95469  0.50871  Biso   1.000  H
  H609     1.0000 0.26599  0.99263  0.49561  Biso   1.000  H
  H610     1.0000 0.28713  0.95474  0.50871  Biso   1.000  H
  C691     1.0000 0.17764  0.94798  0.53554  Biso   1.000  C
  C692     1.0000 0.17758  0.94803  0.53554  Biso   1.000  C
  H611     1.0000 0.35729  0.11812  0.48760  Biso   1.000  H
  H612     1.0000 0.42912  0.15421  0.49690  Biso   1.000  H
  H613     1.0000 0.42908  0.15421  0.49690  Biso   1.000  H
  H614     1.0000 0.22350  0.29429  0.64180  Biso   1.000  H
  C693     1.0000 0.23647  0.21222  0.64127  Biso   1.000  C
  H615     1.0000 0.22348  0.29435  0.64180  Biso   1.000  H
  H616     1.0000 0.25059  0.13148  0.63570  Biso   1.000  H
  H617     1.0000 0.25057  0.13153  0.63570  Biso   1.000  H
  N72      1.0000 0.87187  0.75322  0.52687  Biso   1.000  N
  N73      1.0000 0.87182  0.75322  0.52687  Biso   1.000  N
  H618     1.0000 0.84296  0.75322  0.50410  Biso   1.000  H
  C694     1.0000 0.79685  0.65179  0.51109  Biso   1.000  C
  H619     1.0000 0.84291  0.75322  0.50410  Biso   1.000  H
  C695     1.0000 0.79683  0.65184  0.51109  Biso   1.000  C
  C696     1.0000 0.79681  0.65179  0.51109  Biso   1.000  C
  C697     1.0000 0.68245  0.63111  0.50251  Biso   1.000  C
  H620     1.0000 0.66766  0.71292  0.50871  Biso   1.000  H
  H621     1.0000 0.72658  0.73402  0.49561  Biso   1.000  H
  H622     1.0000 0.66757  0.71292  0.50871  Biso   1.000  H
  C698     1.0000 0.73801  0.96421  0.63505  Biso   1.000  C
  H623     1.0000 0.69950  0.91219  0.61390  Biso   1.000  H
  H624     1.0000 0.69953  0.91224  0.61390  Biso   1.000  H
  C699     1.0000 0.83448  0.07680  0.63131  Biso   1.000  C
  H625     1.0000 0.86207  0.10281  0.60820  Biso   1.000  H
  H626     1.0000 0.39538  0.05560  0.51230  Biso   1.000  H
  H627     1.0000 0.38609  0.03410  0.49390  Biso   1.000  H
  H628     1.0000 0.21348  0.96298  0.54310  Biso   1.000  H
  C700     1.0000 0.10962  0.89724  0.54039  Biso   1.000  C
  H629     1.0000 0.21350  0.96303  0.54310  Biso   1.000  H
  C701     1.0000 0.23817  0.20382  0.65801  Biso   1.000  C
  C702     1.0000 0.93240  0.79740  0.52336  Biso   1.000  C
  H630     1.0000 0.77784  0.62609  0.52110  Biso   1.000  H
  H631     1.0000 0.83630  0.64652  0.50800  Biso   1.000  H
  C703     1.0000 0.74139  0.62041  0.49798  Biso   1.000  C
  H632     1.0000 0.77786  0.62614  0.52110  Biso   1.000  H
  H633     1.0000 0.64804  0.61391  0.49390  Biso   1.000  H
  H634     1.0000 0.66025  0.60464  0.51230  Biso   1.000  H
  H635     1.0000 0.70574  0.92919  0.64180  Biso   1.000  H
  H636     1.0000 0.70576  0.92924  0.64180  Biso   1.000  H
  C704     1.0000 0.78784  0.02432  0.64127  Biso   1.000  C
  H637     1.0000 0.86851  0.11914  0.63570  Biso   1.000  H
  C705     1.0000 0.05394  0.87031  0.52996  Biso   1.000  C
  C706     1.0000 0.09759  0.87451  0.55621  Biso   1.000  C
  C707     1.0000 0.23568  0.19220  0.67239  Biso   1.000  C
  C708     1.0000 0.99004  0.82454  0.53465  Biso   1.000  C
  H638     1.0000 0.94151  0.81430  0.51280  Biso   1.000  H
  H639     1.0000 0.94147  0.81430  0.51280  Biso   1.000  H
  H640     1.0000 0.76082  0.64268  0.48760  Biso   1.000  H
  H641     1.0000 0.76084  0.64273  0.48760  Biso   1.000  H
  H642     1.0000 0.72513  0.57095  0.49690  Biso   1.000  H
  C709     1.0000 0.79621  0.03441  0.65801  Biso   1.000  C
  C710     1.0000 0.79617  0.03441  0.65801  Biso   1.000  C
  H643     1.0000 0.06155  0.88490  0.51920  Biso   1.000  H
  H644     1.0000 0.06146  0.88490  0.51920  Biso   1.000  H
  H645     1.0000 0.13456  0.89223  0.56360  Biso   1.000  H
  C711     1.0000 0.03213  0.82633  0.56122  Biso   1.000  C
  H646     1.0000 0.13447  0.89223  0.56360  Biso   1.000  H
  C712     1.0000 0.22198  0.17101  0.68877  Biso   1.000  C
  C713     1.0000 0.97811  0.80104  0.55017  Biso   1.000  C
  C714     1.0000 0.80777  0.04352  0.67239  Biso   1.000  C
  C715     1.0000 0.02011  0.80539  0.57788  Biso   1.000  C
  C716     1.0000 0.02009  0.80544  0.57788  Biso   1.000  C
  C717     1.0000 0.23680  0.11950  0.69406  Biso   1.000  C
  C718     1.0000 0.19617  0.19901  0.69874  Biso   1.000  C
  H647     1.0000 0.93319  0.76750  0.55340  Biso   1.000  H
  C719     1.0000 0.82898  0.05099  0.68877  Biso   1.000  C
  C720     1.0000 0.82901  0.05105  0.68877  Biso   1.000  C
  C721     1.0000 0.00996  0.79193  0.59116  Biso   1.000  C
  C722     1.0000 0.00992  0.79193  0.59116  Biso   1.000  C
  C723     1.0000 0.21928  0.09431  0.70934  Biso   1.000  C
  H648     1.0000 0.25838  0.10281  0.68710  Biso   1.000  H
  C724     1.0000 0.17868  0.17300  0.71488  Biso   1.000  C
  H649     1.0000 0.18940  0.23531  0.69530  Biso   1.000  H
  C725     1.0000 0.80106  0.99718  0.69874  Biso   1.000  C
  C726     1.0000 0.80099  0.99724  0.69874  Biso   1.000  C
  C727     1.0000 0.88052  0.11735  0.69406  Biso   1.000  C
  C728     1.0000 0.99662  0.77785  0.60835  Biso   1.000  C
  C729     1.0000 0.18720  0.11909  0.72010  Biso   1.000  C
  C730     1.0000 0.23098  0.03789  0.71473  Biso   1.000  C
  C731     1.0000 0.18718  0.11914  0.72010  Biso   1.000  C
  C732     1.0000 0.23100  0.03794  0.71473  Biso   1.000  C
  C733     1.0000 0.14959  0.20173  0.72624  Biso   1.000  C
  C734     1.0000 0.82699  0.00568  0.71488  Biso   1.000  C
  C735     1.0000 0.82701  0.00573  0.71488  Biso   1.000  C
  H650     1.0000 0.76476  0.95413  0.69530  Biso   1.000  H
  H651     1.0000 0.76467  0.95413  0.69530  Biso   1.000  H
  C736     1.0000 0.90570  0.12498  0.70934  Biso   1.000  C
  C737     1.0000 0.90568  0.12503  0.70934  Biso   1.000  C
  H652     1.0000 0.89720  0.15560  0.68710  Biso   1.000  H
  H653     1.0000 0.89718  0.15565  0.68710  Biso   1.000  H
  C738     1.0000 0.93301  0.76412  0.61501  Biso   1.000  C
  C739     1.0000 0.04612  0.78071  0.61828  Biso   1.000  C
  H654     1.0000 0.17230  0.09948  0.73040  Biso   1.000  H
  H655     1.0000 0.17228  0.09953  0.73040  Biso   1.000  H
  H656     1.0000 0.25510  0.02371  0.70790  Biso   1.000  H
  N74      1.0000 0.21040  0.00799  0.72797  Biso   1.000  N
  N75      1.0000 0.21038  0.00804  0.72797  Biso   1.000  N
  H657     1.0000 0.14089  0.18468  0.73681  Biso   1.000  H
  N76      1.0000 0.13552  0.24842  0.72257  Biso   1.000  N
  H658     1.0000 0.14087  0.18473  0.73681  Biso   1.000  H
  N77      1.0000 0.13547  0.24842  0.72257  Biso   1.000  N
  C740     1.0000 0.79831  0.94788  0.72624  Biso   1.000  C
  C741     1.0000 0.79829  0.94793  0.72624  Biso   1.000  C
  C742     1.0000 0.88092  0.06815  0.72010  Biso   1.000  C
  C743     1.0000 0.96208  0.19312  0.71473  Biso   1.000  C
  C744     1.0000 0.92320  0.75772  0.63131  Biso   1.000  C
  H659     1.0000 0.89726  0.75931  0.60820  Biso   1.000  H
  H660     1.0000 0.89721  0.75931  0.60820  Biso   1.000  H
  H661     1.0000 0.08787  0.78732  0.61390  Biso   1.000  H
  C745     1.0000 0.03579  0.77380  0.63505  Biso   1.000  C
  H662     1.0000 0.08778  0.78732  0.61390  Biso   1.000  H
  C746     1.0000 0.22786  0.95520  0.73130  Biso   1.000  C
  C747     1.0000 0.22781  0.95520  0.73130  Biso   1.000  C
  C748     1.0000 0.11302  0.27402  0.73550  Biso   1.000  C
  C749     1.0000 0.11298  0.27402  0.73550  Biso   1.000  C
  N78      1.0000 0.75160  0.88711  0.72257  Biso   1.000  N
  N79      1.0000 0.75156  0.88711  0.72257  Biso   1.000  N
  H663     1.0000 0.81534  0.95622  0.73681  Biso   1.000  H
  H664     1.0000 0.90050  0.07281  0.73040  Biso   1.000  H
  N80      1.0000 0.99199  0.20239  0.72797  Biso   1.000  N
  N81      1.0000 0.99201  0.20244  0.72797  Biso   1.000  N
  H665     1.0000 0.97631  0.23142  0.70790  Biso   1.000  H
  C750     1.0000 0.97571  0.76351  0.64127  Biso   1.000  C
  H666     1.0000 0.88094  0.74938  0.63570  Biso   1.000  H
  H667     1.0000 0.88092  0.74943  0.63570  Biso   1.000  H
  H668     1.0000 0.07081  0.77651  0.64180  Biso   1.000  H
  C751     1.0000 0.16099  0.88700  0.73550  Biso   1.000  C
  C752     1.0000 0.27989  0.97768  0.74494  Biso   1.000  C
  H669     1.0000 0.24864  0.94773  0.72150  Biso   1.000  H
  C753     1.0000 0.27991  0.97773  0.74494  Biso   1.000  C
  H670     1.0000 0.10551  0.24489  0.74511  Biso   1.000  H
  C754     1.0000 0.16682  0.34631  0.73915  Biso   1.000  C
  C755     1.0000 0.04478  0.27259  0.73130  Biso   1.000  C
  H671     1.0000 0.10549  0.24494  0.74511  Biso   1.000  H
  C756     1.0000 0.16677  0.34631  0.73915  Biso   1.000  C
  C757     1.0000 0.04480  0.27264  0.73130  Biso   1.000  C
  C758     1.0000 0.72601  0.83903  0.73550  Biso   1.000  C
  C759     1.0000 0.96564  0.76182  0.65801  Biso   1.000  C
  N82      1.0000 0.11290  0.86453  0.72257  Biso   1.000  N
  H672     1.0000 0.13945  0.89448  0.74511  Biso   1.000  H
  H673     1.0000 0.13939  0.89453  0.74511  Biso   1.000  H
  C760     1.0000 0.17951  0.83324  0.73915  Biso   1.000  C
  C761     1.0000 0.29838  0.92438  0.74904  Biso   1.000  C
  C762     1.0000 0.29840  0.92443  0.74904  Biso   1.000  C
  H674     1.0000 0.26061  0.98771  0.75450  Biso   1.000  H
  H675     1.0000 0.32190  0.02038  0.74190  Biso   1.000  H
  H676     1.0000 0.32188  0.02043  0.74190  Biso   1.000  H
  H677     1.0000 0.17700  0.37457  0.72940  Biso   1.000  H
  H678     1.0000 0.17698  0.37463  0.72940  Biso   1.000  H
  H679     1.0000 0.20941  0.34744  0.74250  Biso   1.000  H
  C763     1.0000 0.14280  0.37703  0.75255  Biso   1.000  C
  H680     1.0000 0.05228  0.30090  0.72150  Biso   1.000  H
  C764     1.0000 0.02231  0.30223  0.74494  Biso   1.000  C
  C765     1.0000 0.72741  0.77221  0.73130  Biso   1.000  C
  H681     1.0000 0.75515  0.86058  0.74511  Biso   1.000  H
  H682     1.0000 0.75513  0.86064  0.74511  Biso   1.000  H
  C766     1.0000 0.65377  0.82055  0.73915  Biso   1.000  C
  C767     1.0000 0.95650  0.76428  0.67239  Biso   1.000  C
  C768     1.0000 0.95652  0.76433  0.67239  Biso   1.000  C
  C769     1.0000 0.05210  0.85040  0.72624  Biso   1.000  C
  C770     1.0000 0.05208  0.85045  0.72624  Biso   1.000  C
  H683     1.0000 0.19758  0.82300  0.72940  Biso   1.000  H
  H684     1.0000 0.13801  0.79059  0.74250  Biso   1.000  H
  C771     1.0000 0.23424  0.85720  0.75255  Biso   1.000  C
  H685     1.0000 0.13800  0.79065  0.74250  Biso   1.000  H
  H686     1.0000 0.32323  0.91839  0.74000  Biso   1.000  H
  H687     1.0000 0.32881  0.93923  0.75850  Biso   1.000  H
  H688     1.0000 0.32325  0.91844  0.74000  Biso   1.000  H
  H689     1.0000 0.17851  0.42531  0.75430  Biso   1.000  H
  H690     1.0000 0.13810  0.35184  0.76260  Biso   1.000  H
  H691     1.0000 0.17847  0.42531  0.75430  Biso   1.000  H
  C772     1.0000 0.07558  0.37401  0.74904  Biso   1.000  C
  H692     1.0000 0.97960  0.30151  0.74190  Biso   1.000  H
  H693     1.0000 0.01229  0.27289  0.75450  Biso   1.000  H
  H694     1.0000 0.01232  0.27294  0.75450  Biso   1.000  H
  N83      1.0000 0.79762  0.78962  0.72797  Biso   1.000  N
  C773     1.0000 0.69783  0.72014  0.74494  Biso   1.000  C
  H695     1.0000 0.69915  0.75143  0.72150  Biso   1.000  H
  H696     1.0000 0.62542  0.80242  0.72940  Biso   1.000  H
  H697     1.0000 0.65260  0.86202  0.74250  Biso   1.000  H
  C774     1.0000 0.62299  0.76581  0.75255  Biso   1.000  C
  H698     1.0000 0.62537  0.80242  0.72940  Biso   1.000  H
  C775     1.0000 0.94899  0.77800  0.68877  Biso   1.000  C
  C776     1.0000 0.99433  0.82131  0.71488  Biso   1.000  C
  H699     1.0000 0.04386  0.85910  0.73681  Biso   1.000  H
  H700     1.0000 0.04377  0.85910  0.73681  Biso   1.000  H
  H701     1.0000 0.21376  0.86192  0.76260  Biso   1.000  H
  H702     1.0000 0.24686  0.82152  0.75430  Biso   1.000  H
  H703     1.0000 0.21371  0.86192  0.76260  Biso   1.000  H
  H704     1.0000 0.24681  0.82152  0.75430  Biso   1.000  H
  H705     1.0000 0.06079  0.38958  0.75850  Biso   1.000  H
  H706     1.0000 0.08161  0.40478  0.74000  Biso   1.000  H
  H707     1.0000 0.06077  0.38963  0.75850  Biso   1.000  H
  H708     1.0000 0.08159  0.40483  0.74000  Biso   1.000  H
  C777     1.0000 0.80692  0.76904  0.71473  Biso   1.000  C
  C778     1.0000 0.62605  0.70161  0.74904  Biso   1.000  C
  H709     1.0000 0.69850  0.67811  0.74190  Biso   1.000  H
  H710     1.0000 0.72713  0.73945  0.75450  Biso   1.000  H
  H711     1.0000 0.64821  0.78629  0.76260  Biso   1.000  H
  H712     1.0000 0.57470  0.75322  0.75430  Biso   1.000  H
  H713     1.0000 0.64824  0.78634  0.76260  Biso   1.000  H
  C779     1.0000 0.88271  0.76320  0.69406  Biso   1.000  C
  C780     1.0000 0.00282  0.80380  0.69874  Biso   1.000  C
  C781     1.0000 0.93195  0.81281  0.72010  Biso   1.000  C
  C782     1.0000 0.87506  0.78071  0.70934  Biso   1.000  C
  C783     1.0000 0.87501  0.78071  0.70934  Biso   1.000  C
  H714     1.0000 0.76862  0.74492  0.70790  Biso   1.000  H
  H715     1.0000 0.61042  0.67125  0.75850  Biso   1.000  H
  H716     1.0000 0.59525  0.67683  0.74000  Biso   1.000  H
  H717     1.0000 0.84442  0.74160  0.68710  Biso   1.000  H
  H718     1.0000 0.84440  0.74165  0.68710  Biso   1.000  H
  H719     1.0000 0.04591  0.81061  0.69530  Biso   1.000  H
  H720     1.0000 0.92720  0.82771  0.73040  Biso   1.000  H
  C784     1.0000 0.71155  0.82441  0.66324  Biso   1.000  C
  C785     1.0000 0.67650  0.84336  0.67643  Biso   1.000  C
  C786     1.0000 0.71566  0.76134  0.66820  Biso   1.000  C
  H721     1.0000 0.75836  0.86332  0.66133  Biso   1.000  H
  H722     1.0000 0.68525  0.81484  0.65323  Biso   1.000  H
  C787     1.0000 0.60598  0.78284  0.68010  Biso   1.000  C
  H723     1.0000 0.67198  0.88283  0.67294  Biso   1.000  H
  H724     1.0000 0.70496  0.85682  0.68613  Biso   1.000  H
  C788     1.0000 0.64526  0.70302  0.67177  Biso   1.000  C
  H725     1.0000 0.74495  0.77204  0.67774  Biso   1.000  H
  H726     1.0000 0.73645  0.74813  0.65953  Biso   1.000  H
  C789     1.0000 0.61120  0.72135  0.68486  Biso   1.000  C
  H727     1.0000 0.57637  0.77142  0.67044  Biso   1.000  H
  N84      1.0000 0.57576  0.80291  0.69305  Biso   1.000  N
  H728     1.0000 0.61687  0.69083  0.66203  Biso   1.000  H
  H729     1.0000 0.64847  0.66252  0.67503  Biso   1.000  H
  N85      1.0000 0.54257  0.66232  0.68781  Biso   1.000  N
  H730     1.0000 0.63917  0.73215  0.69484  Biso   1.000  H
  C790     1.0000 0.52948  0.81765  0.68941  Biso   1.000  C
  C791     1.0000 0.52726  0.64153  0.70246  Biso   1.000  C
  C792     1.0000 0.49877  0.84182  0.70096  Biso   1.000  C
  H731     1.0000 0.51467  0.81243  0.67863  Biso   1.000  H
  C793     1.0000 0.46244  0.58613  0.70683  Biso   1.000  C
  H732     1.0000 0.56064  0.66431  0.71053  Biso   1.000  H
  C794     1.0000 0.44635  0.85421  0.69655  Biso   1.000  C
  C795     1.0000 0.52106  0.85544  0.71623  Biso   1.000  C
  C796     1.0000 0.40788  0.55362  0.69655  Biso   1.000  C
  C797     1.0000 0.44985  0.56202  0.72275  Biso   1.000  C
  C798     1.0000 0.41387  0.87633  0.70683  Biso   1.000  C
  H733     1.0000 0.43207  0.84694  0.68573  Biso   1.000  H
  H734     1.0000 0.55819  0.84945  0.71943  Biso   1.000  H
  C799     1.0000 0.49057  0.87853  0.72760  Biso   1.000  C
  C800     1.0000 0.34307  0.50124  0.70096  Biso   1.000  C
  H735     1.0000 0.41487  0.56796  0.68573  Biso   1.000  H
  C801     1.0000 0.38796  0.50943  0.72760  Biso   1.000  C
  H736     1.0000 0.48577  0.58321  0.73034  Biso   1.000  H
  C802     1.0000 0.35850  0.88575  0.70246  Biso   1.000  C
  C803     1.0000 0.43798  0.88785  0.72275  Biso   1.000  C
  C804     1.0000 0.51145  0.88785  0.74427  Biso   1.000  C
  C805     1.0000 0.28816  0.47052  0.68941  Biso   1.000  C
  C806     1.0000 0.33435  0.47892  0.71623  Biso   1.000  C
  C807     1.0000 0.37636  0.48854  0.74427  Biso   1.000  C
  N86      1.0000 0.33764  0.88022  0.68781  Biso   1.000  N
  H737     1.0000 0.33568  0.89635  0.71053  Biso   1.000  H
  H738     1.0000 0.41678  0.90254  0.73034  Biso   1.000  H
  C808     1.0000 0.52394  0.89251  0.75807  Biso   1.000  C
  N87      1.0000 0.22715  0.42424  0.69305  Biso   1.000  N
  H739     1.0000 0.29777  0.48532  0.67863  Biso   1.000  H
  H740     1.0000 0.29129  0.44185  0.71943  Biso   1.000  H
  C809     1.0000 0.36856  0.47605  0.75807  Biso   1.000  C
  C810     1.0000 0.27869  0.88985  0.68486  Biso   1.000  C
  C811     1.0000 0.53438  0.89282  0.77501  Biso   1.000  C
  C812     1.0000 0.17689  0.39403  0.68010  Biso   1.000  C
  C813     1.0000 0.35849  0.46566  0.77501  Biso   1.000  C
  C814     1.0000 0.21718  0.82313  0.68010  Biso   1.000  C
  C815     1.0000 0.29694  0.94222  0.67177  Biso   1.000  C
  H741     1.0000 0.26787  0.90705  0.69484  Biso   1.000  H
  C816     1.0000 0.57466  0.86732  0.78145  Biso   1.000  C
  C817     1.0000 0.50305  0.91432  0.78581  Biso   1.000  C
  C818     1.0000 0.16686  0.32353  0.67643  Biso   1.000  C
  H742     1.0000 0.19505  0.42362  0.67044  Biso   1.000  H
  C819     1.0000 0.11016  0.38881  0.68486  Biso   1.000  C
  C820     1.0000 0.29265  0.42531  0.78145  Biso   1.000  C
  C821     1.0000 0.41129  0.49694  0.78581  Biso   1.000  C
  N88      1.0000 0.19710  0.77286  0.69305  Biso   1.000  N
  H743     1.0000 0.22858  0.80496  0.67044  Biso   1.000  H
  C822     1.0000 0.15664  0.83312  0.67643  Biso   1.000  C
  C823     1.0000 0.23867  0.95436  0.66820  Biso   1.000  C
  H744     1.0000 0.30916  0.92604  0.66203  Biso   1.000  H
  H745     1.0000 0.33747  0.98595  0.67503  Biso   1.000  H
  H746     1.0000 0.60015  0.85534  0.77453  Biso   1.000  H
  C824     1.0000 0.57808  0.85943  0.79736  Biso   1.000  C
  C825     1.0000 0.50685  0.90613  0.80214  Biso   1.000  C
  H747     1.0000 0.47816  0.93521  0.78203  Biso   1.000  H
  C826     1.0000 0.11288  0.28846  0.66324  Biso   1.000  C
  H748     1.0000 0.21088  0.32803  0.67294  Biso   1.000  H
  H749     1.0000 0.15185  0.29501  0.68613  Biso   1.000  H
  C827     1.0000 0.05777  0.35471  0.67177  Biso   1.000  C
  H750     1.0000 0.09299  0.36085  0.69484  Biso   1.000  H
  N89      1.0000 0.11976  0.45742  0.68781  Biso   1.000  N
  H751     1.0000 0.25516  0.39982  0.77453  Biso   1.000  H
  C828     1.0000 0.28138  0.42193  0.79736  Biso   1.000  C
  C829     1.0000 0.39928  0.49315  0.80214  Biso   1.000  C
  H752     1.0000 0.45707  0.52182  0.78203  Biso   1.000  H
  C830     1.0000 0.18237  0.71183  0.68941  Biso   1.000  C
  H753     1.0000 0.11718  0.78914  0.67294  Biso   1.000  H
  H754     1.0000 0.14317  0.84812  0.68613  Biso   1.000  H
  C831     1.0000 0.17558  0.88713  0.66324  Biso   1.000  C
  H755     1.0000 0.22797  0.97294  0.67774  Biso   1.000  H
  H756     1.0000 0.25186  0.98835  0.65953  Biso   1.000  H
  H757     1.0000 0.60524  0.84131  0.80134  Biso   1.000  H
  C832     1.0000 0.54337  0.87674  0.80758  Biso   1.000  C
  H758     1.0000 0.48435  0.92072  0.80944  Biso   1.000  H
  H759     1.0000 0.10498  0.24161  0.66133  Biso   1.000  H
  H760     1.0000 0.12956  0.31472  0.65323  Biso   1.000  H
  C833     1.0000 0.04567  0.28431  0.66820  Biso   1.000  C
  H761     1.0000 0.07397  0.38313  0.66203  Biso   1.000  H
  H762     1.0000 0.01406  0.35154  0.67503  Biso   1.000  H
  C834     1.0000 0.11425  0.47272  0.70246  Biso   1.000  C
  H763     1.0000 0.23608  0.39475  0.80134  Biso   1.000  H
  C835     1.0000 0.33337  0.45665  0.80758  Biso   1.000  C
  H764     1.0000 0.43637  0.51563  0.80944  Biso   1.000  H
  C836     1.0000 0.15816  0.65694  0.70096  Biso   1.000  C
  H765     1.0000 0.18756  0.70225  0.67863  Biso   1.000  H
  H766     1.0000 0.13664  0.89502  0.66133  Biso   1.000  H
  H767     1.0000 0.18519  0.87044  0.65323  Biso   1.000  H
  C837     1.0000 0.54356  0.86445  0.82461  Biso   1.000  C
  H768     1.0000 0.02708  0.25502  0.67774  Biso   1.000  H
  H769     1.0000 0.01164  0.26352  0.65953  Biso   1.000  H
  C838     1.0000 0.12369  0.53754  0.70683  Biso   1.000  C
  H770     1.0000 0.10368  0.43934  0.71053  Biso   1.000  H
  C839     1.0000 0.32089  0.45644  0.82461  Biso   1.000  C
  C840     1.0000 0.14575  0.59212  0.69655  Biso   1.000  C
  C841     1.0000 0.14455  0.66564  0.71623  Biso   1.000  C
  C842     1.0000 0.53967  0.85073  0.83865  Biso   1.000  C
  C843     1.0000 0.11216  0.55014  0.72275  Biso   1.000  C
  C844     1.0000 0.31109  0.46033  0.83865  Biso   1.000  C
  H771     1.0000 0.15309  0.58516  0.68573  Biso   1.000  H
  C845     1.0000 0.12148  0.61204  0.72760  Biso   1.000  C
  H772     1.0000 0.15059  0.70875  0.71943  Biso   1.000  H
  C846     1.0000 0.53384  0.83312  0.85506  Biso   1.000  C
  H773     1.0000 0.09746  0.51425  0.73034  Biso   1.000  H
  C847     1.0000 0.29926  0.46612  0.85506  Biso   1.000  C
  C848     1.0000 0.11214  0.62361  0.74427  Biso   1.000  C
  C849     1.0000 0.55225  0.78402  0.86017  Biso   1.000  C
  C850     1.0000 0.50788  0.86005  0.86588  Biso   1.000  C
  C851     1.0000 0.23176  0.44774  0.86017  Biso   1.000  C
  C852     1.0000 0.35217  0.49213  0.86588  Biso   1.000  C
  C853     1.0000 0.10746  0.63144  0.75807  Biso   1.000  C
  C854     1.0000 0.54188  0.76354  0.87618  Biso   1.000  C
  H774     1.0000 0.57118  0.76574  0.85283  Biso   1.000  H
  C855     1.0000 0.49779  0.83906  0.88197  Biso   1.000  C
  H775     1.0000 0.49636  0.89323  0.86243  Biso   1.000  H
  H776     1.0000 0.19456  0.42885  0.85283  Biso   1.000  H
  C856     1.0000 0.22166  0.45813  0.87618  Biso   1.000  C
  C857     1.0000 0.34125  0.50222  0.88197  Biso   1.000  C
  H777     1.0000 0.39686  0.50365  0.86243  Biso   1.000  H
  C858     1.0000 0.10718  0.64153  0.77501  Biso   1.000  C
  C859     1.0000 0.55936  0.71034  0.88112  Biso   1.000  C
  C860     1.0000 0.51496  0.78985  0.88684  Biso   1.000  C
  C861     1.0000 0.47227  0.86844  0.89366  Biso   1.000  C
  C862     1.0000 0.27487  0.48501  0.88684  Biso   1.000  C
  C863     1.0000 0.15096  0.44062  0.88112  Biso   1.000  C
  C864     1.0000 0.39617  0.52771  0.89366  Biso   1.000  C
  C865     1.0000 0.13267  0.70732  0.78145  Biso   1.000  C
  C866     1.0000 0.08566  0.58874  0.78581  Biso   1.000  C
  N90      1.0000 0.55297  0.68843  0.89499  Biso   1.000  N
  H778     1.0000 0.57647  0.69242  0.87323  Biso   1.000  H
  H779     1.0000 0.50808  0.77485  0.89763  Biso   1.000  H
  N91      1.0000 0.45356  0.91253  0.88969  Biso   1.000  N
  H780     1.0000 0.46925  0.85513  0.90453  Biso   1.000  H
  H781     1.0000 0.26676  0.49192  0.89763  Biso   1.000  H
  H782     1.0000 0.11594  0.42352  0.87323  Biso   1.000  H
  N92      1.0000 0.13545  0.44702  0.89499  Biso   1.000  N
  H783     1.0000 0.38588  0.53073  0.90453  Biso   1.000  H
  N93      1.0000 0.45897  0.54645  0.88969  Biso   1.000  N
  H784     1.0000 0.14469  0.74485  0.77453  Biso   1.000  H
  C867     1.0000 0.14059  0.71864  0.79736  Biso   1.000  C
  C868     1.0000 0.09387  0.60072  0.80214  Biso   1.000  C
  H785     1.0000 0.06475  0.54292  0.78203  Biso   1.000  H
  C869     1.0000 0.57216  0.63743  0.89766  Biso   1.000  C
  C870     1.0000 0.43016  0.93915  0.90224  Biso   1.000  C
  C871     1.0000 0.06524  0.42782  0.89766  Biso   1.000  C
  C872     1.0000 0.50897  0.56985  0.90224  Biso   1.000  C
  H786     1.0000 0.15868  0.76395  0.80134  Biso   1.000  H
  C873     1.0000 0.12327  0.66662  0.80758  Biso   1.000  C
  H787     1.0000 0.07928  0.56365  0.80944  Biso   1.000  H
  H788     1.0000 0.59155  0.63062  0.88753  Biso   1.000  H
  C874     1.0000 0.62657  0.66022  0.91082  Biso   1.000  C
  C875     1.0000 0.36255  0.93475  0.89766  Biso   1.000  C
  H789     1.0000 0.42327  0.91181  0.91214  Biso   1.000  H
  C876     1.0000 0.48446  0.01175  0.90516  Biso   1.000  C
  C877     1.0000 0.06090  0.49105  0.90224  Biso   1.000  C
  H790     1.0000 0.03904  0.40842  0.88753  Biso   1.000  H
  C878     1.0000 0.03366  0.37345  0.91082  Biso   1.000  C
  C879     1.0000 0.52726  0.51553  0.90516  Biso   1.000  C
  H791     1.0000 0.48855  0.57671  0.91214  Biso   1.000  H
  C880     1.0000 0.13555  0.67911  0.82461  Biso   1.000  C
  H792     1.0000 0.60766  0.66631  0.92094  Biso   1.000  H
  H793     1.0000 0.66678  0.70481  0.90793  Biso   1.000  H
  C881     1.0000 0.64847  0.60825  0.91309  Biso   1.000  C
  N94      1.0000 0.31158  0.86455  0.89499  Biso   1.000  N
  H794     1.0000 0.36934  0.96091  0.88753  Biso   1.000  H
  C882     1.0000 0.33977  0.96634  0.91082  Biso   1.000  C
  C883     1.0000 0.46132  0.04652  0.91738  Biso   1.000  C
  H795     1.0000 0.52636  0.01272  0.90903  Biso   1.000  H
  H796     1.0000 0.49576  0.03745  0.89504  Biso   1.000  H
  N95      1.0000 0.08748  0.54102  0.88969  Biso   1.000  N
  H797     1.0000 0.08815  0.51143  0.91214  Biso   1.000  H
  C884     1.0000 0.98828  0.47272  0.90516  Biso   1.000  C
  H798     1.0000 0.05867  0.39234  0.92094  Biso   1.000  H
  H799     1.0000 0.03809  0.33326  0.90793  Biso   1.000  H
  C885     1.0000 0.95979  0.35154  0.91309  Biso   1.000  C
  C886     1.0000 0.58514  0.53862  0.91738  Biso   1.000  C
  H800     1.0000 0.48637  0.47365  0.90903  Biso   1.000  H
  H801     1.0000 0.54165  0.50421  0.89504  Biso   1.000  H
  C887     1.0000 0.14929  0.68894  0.83865  Biso   1.000  C
  H802     1.0000 0.66976  0.60374  0.90323  Biso   1.000  H
  H803     1.0000 0.68277  0.62294  0.92174  Biso   1.000  H
  C888     1.0000 0.28968  0.84904  0.88112  Biso   1.000  C
  H804     1.0000 0.33367  0.94135  0.92094  Biso   1.000  H
  H805     1.0000 0.29518  0.96193  0.90793  Biso   1.000  H
  C889     1.0000 0.39170  0.04022  0.91309  Biso   1.000  C
  H806     1.0000 0.45765  0.02563  0.92793  Biso   1.000  H
  H807     1.0000 0.49651  0.09562  0.91813  Biso   1.000  H
  C890     1.0000 0.13157  0.60385  0.89366  Biso   1.000  C
  C891     1.0000 0.95347  0.41482  0.91738  Biso   1.000  C
  H808     1.0000 0.98727  0.51363  0.90903  Biso   1.000  H
  H809     1.0000 0.96255  0.45834  0.89504  Biso   1.000  H
  H810     1.0000 0.93397  0.33024  0.90323  Biso   1.000  H
  H811     1.0000 0.94015  0.31723  0.92174  Biso   1.000  H
  H812     1.0000 0.56799  0.54236  0.92793  Biso   1.000  H
  H813     1.0000 0.59908  0.50344  0.91813  Biso   1.000  H
  C892     1.0000 0.16688  0.70072  0.85506  Biso   1.000  C
  C893     1.0000 0.23646  0.77833  0.87618  Biso   1.000  C
  H814     1.0000 0.30757  0.88401  0.87323  Biso   1.000  H
  H815     1.0000 0.39627  0.06602  0.90323  Biso   1.000  H
  H816     1.0000 0.37707  0.05983  0.92174  Biso   1.000  H
  C894     1.0000 0.16096  0.65873  0.88197  Biso   1.000  C
  H817     1.0000 0.14487  0.61414  0.90453  Biso   1.000  H
  H818     1.0000 0.97436  0.43202  0.92793  Biso   1.000  H
  H819     1.0000 0.90437  0.40094  0.91813  Biso   1.000  H
  C895     1.0000 0.21599  0.76825  0.86017  Biso   1.000  C
  C896     1.0000 0.13995  0.64783  0.86588  Biso   1.000  C
  C897     1.0000 0.21017  0.72514  0.88684  Biso   1.000  C
  H820     1.0000 0.23426  0.80542  0.85283  Biso   1.000  H
  H821     1.0000 0.10678  0.60313  0.86243  Biso   1.000  H
  H822     1.0000 0.22517  0.73323  0.89763  Biso   1.000  H
  C898     1.0000 0.88716  0.71157  0.33676  Biso   1.000  C
  C899     1.0000 0.83310  0.67645  0.32357  Biso   1.000  C
  H823     1.0000 0.89503  0.75837  0.33867  Biso   1.000  H
  H824     1.0000 0.87041  0.68525  0.34677  Biso   1.000  H
  C900     1.0000 0.95434  0.71567  0.33180  Biso   1.000  C
  C901     1.0000 0.82313  0.60595  0.31990  Biso   1.000  C
  H825     1.0000 0.78913  0.67194  0.32706  Biso   1.000  H
  H826     1.0000 0.84811  0.70496  0.31387  Biso   1.000  H
  C902     1.0000 0.94224  0.64527  0.32823  Biso   1.000  C
  H827     1.0000 0.97293  0.74495  0.32226  Biso   1.000  H
  H828     1.0000 0.98832  0.73645  0.34047  Biso   1.000  H
  N96      1.0000 0.77284  0.57579  0.30695  Biso   1.000  N
  H829     1.0000 0.80491  0.57635  0.32956  Biso   1.000  H
  C903     1.0000 0.88985  0.61117  0.31514  Biso   1.000  C
  H830     1.0000 0.92604  0.61685  0.33797  Biso   1.000  H
  H831     1.0000 0.98593  0.64849  0.32497  Biso   1.000  H
  C904     1.0000 0.71181  0.52945  0.31059  Biso   1.000  C
  H832     1.0000 0.90705  0.63917  0.30516  Biso   1.000  H
  N97      1.0000 0.88025  0.54256  0.31219  Biso   1.000  N
  C905     1.0000 0.65692  0.49878  0.29904  Biso   1.000  C
  H833     1.0000 0.70224  0.51466  0.32137  Biso   1.000  H
  C906     1.0000 0.88572  0.52725  0.29754  Biso   1.000  C
  C907     1.0000 0.59213  0.44636  0.30345  Biso   1.000  C
  C908     1.0000 0.66562  0.52106  0.28377  Biso   1.000  C
  C909     1.0000 0.87634  0.46248  0.29317  Biso   1.000  C
  H834     1.0000 0.89636  0.56068  0.28947  Biso   1.000  H
  C910     1.0000 0.53752  0.41384  0.29317  Biso   1.000  C
  H835     1.0000 0.58512  0.43207  0.31427  Biso   1.000  H
  C911     1.0000 0.61201  0.49054  0.27240  Biso   1.000  C
  H836     1.0000 0.70874  0.55818  0.28057  Biso   1.000  H
  C912     1.0000 0.85422  0.40785  0.30345  Biso   1.000  C
  C913     1.0000 0.88783  0.44989  0.27725  Biso   1.000  C
  C914     1.0000 0.47271  0.35845  0.29754  Biso   1.000  C
  C915     1.0000 0.55011  0.43796  0.27725  Biso   1.000  C
  C916     1.0000 0.62363  0.51148  0.25573  Biso   1.000  C
  H837     1.0000 0.84695  0.41487  0.31427  Biso   1.000  H
  C917     1.0000 0.84183  0.34309  0.29904  Biso   1.000  C
  C918     1.0000 0.87856  0.38799  0.27240  Biso   1.000  C
  H838     1.0000 0.90254  0.48578  0.26966  Biso   1.000  H
  H839     1.0000 0.43933  0.33566  0.28947  Biso   1.000  H
  N98      1.0000 0.45744  0.33766  0.31219  Biso   1.000  N
  H840     1.0000 0.51424  0.41676  0.26966  Biso   1.000  H
  C919     1.0000 0.63143  0.52397  0.24193  Biso   1.000  C
  C920     1.0000 0.85544  0.33438  0.28377  Biso   1.000  C
  C921     1.0000 0.81764  0.28815  0.31059  Biso   1.000  C
  C922     1.0000 0.88782  0.37637  0.25573  Biso   1.000  C
  C923     1.0000 0.38884  0.27868  0.31514  Biso   1.000  C
  C924     1.0000 0.64155  0.53437  0.22499  Biso   1.000  C
  H841     1.0000 0.84945  0.29127  0.28057  Biso   1.000  H
  N99      1.0000 0.80294  0.22717  0.30695  Biso   1.000  N
  H842     1.0000 0.81244  0.29778  0.32137  Biso   1.000  H
  C925     1.0000 0.89254  0.36858  0.24193  Biso   1.000  C
  C926     1.0000 0.39405  0.21719  0.31990  Biso   1.000  C
  C927     1.0000 0.35475  0.29696  0.32823  Biso   1.000  C
  H843     1.0000 0.36083  0.26788  0.30516  Biso   1.000  H
  C928     1.0000 0.70732  0.57466  0.21855  Biso   1.000  C
  C929     1.0000 0.58875  0.50309  0.21419  Biso   1.000  C
  C930     1.0000 0.78283  0.17684  0.31990  Biso   1.000  C
  C931     1.0000 0.89283  0.35845  0.22499  Biso   1.000  C
  H844     1.0000 0.42364  0.22855  0.32956  Biso   1.000  H
  C932     1.0000 0.32354  0.15667  0.32357  Biso   1.000  C
  N100     1.0000 0.42425  0.19707  0.30695  Biso   1.000  N
  C933     1.0000 0.28433  0.23869  0.33180  Biso   1.000  C
  H845     1.0000 0.38310  0.30914  0.33797  Biso   1.000  H
  H846     1.0000 0.35154  0.33746  0.32497  Biso   1.000  H
  H847     1.0000 0.74481  0.60016  0.22547  Biso   1.000  H
  C934     1.0000 0.71863  0.57804  0.20264  Biso   1.000  C
  C935     1.0000 0.60075  0.50687  0.19786  Biso   1.000  C
  H848     1.0000 0.54294  0.47815  0.21797  Biso   1.000  H
  C936     1.0000 0.72134  0.11018  0.31514  Biso   1.000  C
  H849     1.0000 0.77141  0.19507  0.32956  Biso   1.000  H
  C937     1.0000 0.84333  0.16686  0.32357  Biso   1.000  C
  C938     1.0000 0.86734  0.29266  0.21855  Biso   1.000  C
  C939     1.0000 0.91433  0.41128  0.21419  Biso   1.000  C
  H850     1.0000 0.32803  0.11714  0.32706  Biso   1.000  H
  H851     1.0000 0.29501  0.14315  0.31387  Biso   1.000  H
  C940     1.0000 0.28842  0.17556  0.33676  Biso   1.000  C
  C941     1.0000 0.47051  0.18237  0.31059  Biso   1.000  C
  H852     1.0000 0.25504  0.22799  0.32226  Biso   1.000  H
  H853     1.0000 0.26351  0.25185  0.34047  Biso   1.000  H
  H854     1.0000 0.76395  0.60528  0.19866  Biso   1.000  H
  C942     1.0000 0.66663  0.54338  0.19242  Biso   1.000  C
  H855     1.0000 0.56364  0.48435  0.19056  Biso   1.000  H
  N101     1.0000 0.66233  0.11976  0.31219  Biso   1.000  N
  C943     1.0000 0.70302  0.05775  0.32823  Biso   1.000  C
  H856     1.0000 0.73212  0.09298  0.30516  Biso   1.000  H
  H857     1.0000 0.88286  0.21089  0.32706  Biso   1.000  H
  H858     1.0000 0.85684  0.15186  0.31387  Biso   1.000  H
  C944     1.0000 0.82443  0.11284  0.33676  Biso   1.000  C
  H859     1.0000 0.85534  0.25518  0.22547  Biso   1.000  H
  C945     1.0000 0.85945  0.28139  0.20264  Biso   1.000  C
  C946     1.0000 0.90614  0.39925  0.19786  Biso   1.000  C
  H860     1.0000 0.93522  0.45706  0.21797  Biso   1.000  H
  H861     1.0000 0.24161  0.13665  0.33867  Biso   1.000  H
  H862     1.0000 0.31474  0.18519  0.34677  Biso   1.000  H
  C947     1.0000 0.50124  0.15816  0.29904  Biso   1.000  C
  H863     1.0000 0.48534  0.18754  0.32137  Biso   1.000  H
  C948     1.0000 0.67914  0.54358  0.17539  Biso   1.000  C
  C949     1.0000 0.64154  0.11428  0.29754  Biso   1.000  C
  C950     1.0000 0.76132  0.04567  0.33180  Biso   1.000  C
  H864     1.0000 0.69083  0.07398  0.33797  Biso   1.000  H
  H865     1.0000 0.66252  0.01408  0.32497  Biso   1.000  H
  H866     1.0000 0.86332  0.10496  0.33867  Biso   1.000  H
  H867     1.0000 0.81485  0.12959  0.34677  Biso   1.000  H
  H868     1.0000 0.84136  0.23608  0.19866  Biso   1.000  H
  C951     1.0000 0.87674  0.33336  0.19242  Biso   1.000  C
  H869     1.0000 0.92075  0.43637  0.19056  Biso   1.000  H
  C952     1.0000 0.55362  0.14576  0.30345  Biso   1.000  C
  C953     1.0000 0.47894  0.14459  0.28377  Biso   1.000  C
  C954     1.0000 0.68892  0.53964  0.16135  Biso   1.000  C
  C955     1.0000 0.58614  0.12365  0.29317  Biso   1.000  C
  H870     1.0000 0.66435  0.10368  0.28947  Biso   1.000  H
  H871     1.0000 0.77202  0.02708  0.32226  Biso   1.000  H
  H872     1.0000 0.74813  0.01167  0.34047  Biso   1.000  H
  C956     1.0000 0.86442  0.32087  0.17539  Biso   1.000  C
  H873     1.0000 0.56796  0.15309  0.31427  Biso   1.000  H
  H874     1.0000 0.44185  0.15058  0.28057  Biso   1.000  H
  C957     1.0000 0.50944  0.12145  0.27240  Biso   1.000  C
  C958     1.0000 0.70071  0.53386  0.14494  Biso   1.000  C
  C959     1.0000 0.56205  0.11218  0.27725  Biso   1.000  C
  C960     1.0000 0.85075  0.31109  0.16135  Biso   1.000  C
  C961     1.0000 0.48854  0.11218  0.25573  Biso   1.000  C
  C962     1.0000 0.76823  0.55229  0.13983  Biso   1.000  C
  C963     1.0000 0.64784  0.50785  0.13412  Biso   1.000  C
  H875     1.0000 0.58326  0.09748  0.26966  Biso   1.000  H
  C964     1.0000 0.83313  0.29926  0.14494  Biso   1.000  C
  C965     1.0000 0.47603  0.10747  0.24193  Biso   1.000  C
  H876     1.0000 0.80543  0.57118  0.14717  Biso   1.000  H
  C966     1.0000 0.77830  0.54184  0.12382  Biso   1.000  C
  C967     1.0000 0.65871  0.49776  0.11803  Biso   1.000  C
  H877     1.0000 0.60313  0.49638  0.13757  Biso   1.000  H
  C968     1.0000 0.78405  0.23178  0.13983  Biso   1.000  C
  C969     1.0000 0.86002  0.35215  0.13412  Biso   1.000  C
  C970     1.0000 0.46563  0.10716  0.22499  Biso   1.000  C
  C971     1.0000 0.72514  0.51496  0.11316  Biso   1.000  C
  C972     1.0000 0.84905  0.55935  0.11888  Biso   1.000  C
  C973     1.0000 0.60384  0.47226  0.10634  Biso   1.000  C
  H878     1.0000 0.76575  0.19456  0.14717  Biso   1.000  H
  C974     1.0000 0.76351  0.22164  0.12382  Biso   1.000  C
  C975     1.0000 0.83900  0.34124  0.11803  Biso   1.000  C
  H879     1.0000 0.89323  0.39685  0.13757  Biso   1.000  H
  C976     1.0000 0.42535  0.13266  0.21855  Biso   1.000  C
  C977     1.0000 0.49691  0.08566  0.21419  Biso   1.000  C
  H880     1.0000 0.73321  0.50805  0.10237  Biso   1.000  H
  H881     1.0000 0.88402  0.57645  0.12677  Biso   1.000  H
  N102     1.0000 0.86451  0.55295  0.10501  Biso   1.000  N
  H882     1.0000 0.61413  0.46924  0.09547  Biso   1.000  H
  N103     1.0000 0.54103  0.45358  0.11031  Biso   1.000  N
  C978     1.0000 0.78986  0.27489  0.11316  Biso   1.000  C
  C979     1.0000 0.71035  0.15099  0.11888  Biso   1.000  C
  C980     1.0000 0.86842  0.39618  0.10634  Biso   1.000  C
  H883     1.0000 0.39984  0.14469  0.22547  Biso   1.000  H
  C981     1.0000 0.42193  0.14054  0.20264  Biso   1.000  C
  C982     1.0000 0.49312  0.09385  0.19786  Biso   1.000  C
  H884     1.0000 0.52185  0.06477  0.21797  Biso   1.000  H
  C983     1.0000 0.93473  0.57215  0.10234  Biso   1.000  C
  C984     1.0000 0.49106  0.43018  0.09776  Biso   1.000  C
  H885     1.0000 0.77484  0.26675  0.10237  Biso   1.000  H
  N104     1.0000 0.68845  0.13547  0.10501  Biso   1.000  N
  H886     1.0000 0.69244  0.11597  0.12677  Biso   1.000  H
  N105     1.0000 0.91253  0.45895  0.11031  Biso   1.000  N
  H887     1.0000 0.85516  0.38589  0.09547  Biso   1.000  H
  H888     1.0000 0.39472  0.15867  0.19866  Biso   1.000  H
  C985     1.0000 0.45662  0.12329  0.19242  Biso   1.000  C
  H889     1.0000 0.51562  0.07926  0.19056  Biso   1.000  H
  H890     1.0000 0.96092  0.59156  0.11247  Biso   1.000  H
  C986     1.0000 0.96633  0.62658  0.08918  Biso   1.000  C
  C987     1.0000 0.93914  0.50897  0.09776  Biso   1.000  C
  C988     1.0000 0.42780  0.36254  0.10234  Biso   1.000  C
  C989     1.0000 0.47270  0.48445  0.09484  Biso   1.000  C
  H891     1.0000 0.51142  0.42327  0.08786  Biso   1.000  H
  C990     1.0000 0.63744  0.06528  0.10234  Biso   1.000  C
  C991     1.0000 0.45643  0.13558  0.17539  Biso   1.000  C
  H892     1.0000 0.94136  0.60769  0.07906  Biso   1.000  H
  H893     1.0000 0.96195  0.66677  0.09207  Biso   1.000  H
  C992     1.0000 0.04025  0.64849  0.08691  Biso   1.000  C
  H894     1.0000 0.91181  0.48854  0.08786  Biso   1.000  H
  C993     1.0000 0.01173  0.52725  0.09484  Biso   1.000  C
  H895     1.0000 0.40842  0.36935  0.11247  Biso   1.000  H
  C994     1.0000 0.37344  0.33976  0.08918  Biso   1.000  C
  N106     1.0000 0.44704  0.31155  0.10501  Biso   1.000  N
  C995     1.0000 0.41482  0.46136  0.08262  Biso   1.000  C
  H896     1.0000 0.51362  0.52638  0.09097  Biso   1.000  H
  H897     1.0000 0.45832  0.49576  0.10496  Biso   1.000  H
  C996     1.0000 0.56983  0.06088  0.09776  Biso   1.000  C
  H898     1.0000 0.63063  0.03907  0.11247  Biso   1.000  H
  C997     1.0000 0.66026  0.03369  0.08918  Biso   1.000  C
  C998     1.0000 0.46034  0.14925  0.16135  Biso   1.000  C
  H899     1.0000 0.06606  0.66979  0.09677  Biso   1.000  H
  H900     1.0000 0.05981  0.68274  0.07826  Biso   1.000  H
  C999     1.0000 0.04654  0.58516  0.08262  Biso   1.000  C
  H901     1.0000 0.01274  0.48634  0.09097  Biso   1.000  H
  H902     1.0000 0.03744  0.54169  0.10496  Biso   1.000  H
  H903     1.0000 0.39235  0.33367  0.07906  Biso   1.000  H
  H904     1.0000 0.33323  0.29516  0.09207  Biso   1.000  H
  C1000    1.0000 0.35152  0.39178  0.08691  Biso   1.000  C
  C1001    1.0000 0.44064  0.28969  0.11888  Biso   1.000  C
  H905     1.0000 0.43205  0.45767  0.07207  Biso   1.000  H
  H906     1.0000 0.40095  0.49658  0.08187  Biso   1.000  H
  N107     1.0000 0.54641  0.08745  0.11031  Biso   1.000  N
  H907     1.0000 0.57674  0.08817  0.08786  Biso   1.000  H
  C1002    1.0000 0.51553  0.98828  0.09484  Biso   1.000  C
  H908     1.0000 0.66633  0.05867  0.07906  Biso   1.000  H
  H909     1.0000 0.70483  0.03804  0.09207  Biso   1.000  H
  C1003    1.0000 0.60822  0.95976  0.08691  Biso   1.000  C
  C1004    1.0000 0.46613  0.16686  0.14494  Biso   1.000  C
  H910     1.0000 0.02561  0.56796  0.07207  Biso   1.000  H
  H911     1.0000 0.09562  0.59908  0.08187  Biso   1.000  H
  H912     1.0000 0.33023  0.39628  0.09677  Biso   1.000  H
  H913     1.0000 0.31726  0.37708  0.07826  Biso   1.000  H
  C1005    1.0000 0.45816  0.23649  0.12382  Biso   1.000  C
  H914     1.0000 0.42354  0.30755  0.12677  Biso   1.000  H
  C1006    1.0000 0.52773  0.13158  0.10634  Biso   1.000  C
  C1007    1.0000 0.53870  0.95346  0.08262  Biso   1.000  C
  H915     1.0000 0.47361  0.98725  0.09097  Biso   1.000  H
  H916     1.0000 0.50423  0.96257  0.10496  Biso   1.000  H
  H917     1.0000 0.60374  0.93395  0.09677  Biso   1.000  H
  H918     1.0000 0.62298  0.94015  0.07826  Biso   1.000  H
  C1008    1.0000 0.44771  0.21596  0.13983  Biso   1.000  C
  C1009    1.0000 0.49215  0.13998  0.13412  Biso   1.000  C
  C1010    1.0000 0.48504  0.21017  0.11316  Biso   1.000  C
  C1011    1.0000 0.50225  0.16097  0.11803  Biso   1.000  C
  H919     1.0000 0.53072  0.14484  0.09547  Biso   1.000  H
  H920     1.0000 0.54236  0.97435  0.07207  Biso   1.000  H
  H921     1.0000 0.50341  0.90436  0.08187  Biso   1.000  H
  H922     1.0000 0.42885  0.23429  0.14717  Biso   1.000  H
  H923     1.0000 0.50360  0.10675  0.13757  Biso   1.000  H
  H924     1.0000 0.49192  0.22518  0.10237  Biso   1.000  H
  C1012    1.0000 0.62013  0.74818  0.25070  Biso   1.000  C
  C1013    1.0000 0.62642  0.68484  0.24643  Biso   1.000  C
  C1014    1.0000 0.65496  0.80603  0.23848  Biso   1.000  C
  C1015    1.0000 0.65494  0.80608  0.23848  Biso   1.000  C
  H925     1.0000 0.57105  0.73425  0.25146  Biso   1.000  H
  H926     1.0000 0.64106  0.76538  0.26127  Biso   1.000  H
  C1016    1.0000 0.70034  0.70676  0.24414  Biso   1.000  C
  H927     1.0000 0.60065  0.66354  0.23657  Biso   1.000  H
  H928     1.0000 0.60683  0.65054  0.25506  Biso   1.000  H
  C1017    1.0000 0.62015  0.74813  0.25070  Biso   1.000  C
  H929     1.0000 0.60061  0.66354  0.23657  Biso   1.000  H
  H930     1.0000 0.60685  0.65059  0.25506  Biso   1.000  H
  C1018    1.0000 0.72757  0.82436  0.23558  Biso   1.000  C
  C1019    1.0000 0.72753  0.82436  0.23558  Biso   1.000  C
  H931     1.0000 0.62923  0.79165  0.22836  Biso   1.000  H
  H932     1.0000 0.65395  0.84694  0.24237  Biso   1.000  H
  H933     1.0000 0.65393  0.84699  0.24237  Biso   1.000  H
  C1020    1.0000 0.73192  0.76113  0.23098  Biso   1.000  C
  C1021    1.0000 0.73194  0.76118  0.23098  Biso   1.000  C
  H934     1.0000 0.72530  0.72565  0.25426  Biso   1.000  H
  H935     1.0000 0.70472  0.66657  0.24127  Biso   1.000  H
  H936     1.0000 0.75483  0.84474  0.24546  Biso   1.000  H
  N108     1.0000 0.75415  0.87433  0.22303  Biso   1.000  N
  H937     1.0000 0.75486  0.84479  0.24546  Biso   1.000  H
  N109     1.0000 0.75413  0.87438  0.22303  Biso   1.000  N
  N110     1.0000 0.80213  0.78033  0.22833  Biso   1.000  N
  H938     1.0000 0.70574  0.74178  0.22087  Biso   1.000  H
  N111     1.0000 0.80215  0.78038  0.22833  Biso   1.000  N
  C1022    1.0000 0.79824  0.93715  0.22699  Biso   1.000  C
  C1023    1.0000 0.81764  0.77393  0.21445  Biso   1.000  C
  C1024    1.0000 0.81762  0.77398  0.21445  Biso   1.000  C
  C1025    1.0000 0.82766  0.99209  0.21531  Biso   1.000  C
  H939     1.0000 0.81150  0.94745  0.23787  Biso   1.000  H
  C1026    1.0000 0.88836  0.79149  0.20952  Biso   1.000  C
  H940     1.0000 0.78264  0.75688  0.20657  Biso   1.000  H
  C1027    1.0000 0.80662  0.98113  0.19922  Biso   1.000  C
  C1028    1.0000 0.80665  0.98119  0.19922  Biso   1.000  C
  C1029    1.0000 0.87685  0.05845  0.22018  Biso   1.000  C
  C1030    1.0000 0.87676  0.05845  0.22018  Biso   1.000  C
  C1031    1.0000 0.89844  0.78105  0.19349  Biso   1.000  C
  C1032    1.0000 0.94155  0.81832  0.22018  Biso   1.000  C
  C1033    1.0000 0.94153  0.81837  0.22018  Biso   1.000  C
  H941     1.0000 0.77346  0.93644  0.19577  Biso   1.000  H
  H942     1.0000 0.77344  0.93649  0.19577  Biso   1.000  H
  C1034    1.0000 0.83354  0.03407  0.18840  Biso   1.000  C
  C1035    1.0000 0.90309  0.11164  0.20952  Biso   1.000  C
  H943     1.0000 0.89180  0.06654  0.23097  Biso   1.000  H
  H944     1.0000 0.89178  0.06659  0.23097  Biso   1.000  H
  H945     1.0000 0.86124  0.76215  0.18617  Biso   1.000  H
  C1036    1.0000 0.96596  0.79948  0.18840  Biso   1.000  C
  H946     1.0000 0.93343  0.82523  0.23097  Biso   1.000  H
  H947     1.0000 0.93346  0.82528  0.23097  Biso   1.000  H
  C1037    1.0000 0.00793  0.83552  0.21531  Biso   1.000  C
  C1038    1.0000 0.00795  0.83557  0.21531  Biso   1.000  C
  C1039    1.0000 0.88262  0.10156  0.19349  Biso   1.000  C
  C1040    1.0000 0.81596  0.02225  0.17197  Biso   1.000  C
  C1041    1.0000 0.81587  0.02225  0.17197  Biso   1.000  C
  C1042    1.0000 0.95636  0.18235  0.21445  Biso   1.000  C
  C1043    1.0000 0.95631  0.18235  0.21445  Biso   1.000  C
  C1044    1.0000 0.97772  0.79364  0.17197  Biso   1.000  C
  C1045    1.0000 0.01885  0.82544  0.19922  Biso   1.000  C
  C1046    1.0000 0.01883  0.82549  0.19922  Biso   1.000  C
  C1047    1.0000 0.06284  0.86102  0.22699  Biso   1.000  C
  C1048    1.0000 0.06282  0.86107  0.22699  Biso   1.000  C
  H948     1.0000 0.90094  0.13873  0.18617  Biso   1.000  H
  H949     1.0000 0.90087  0.13878  0.18617  Biso   1.000  H
  C1049    1.0000 0.80225  0.01247  0.15793  Biso   1.000  C
  H950     1.0000 0.97424  0.21732  0.20657  Biso   1.000  H
  N112     1.0000 0.97826  0.19786  0.22833  Biso   1.000  N
  H951     1.0000 0.97418  0.21737  0.20657  Biso   1.000  H
  N113     1.0000 0.97817  0.19786  0.22833  Biso   1.000  N
  C1050    1.0000 0.98757  0.78975  0.15793  Biso   1.000  C
  C1051    1.0000 0.98752  0.78975  0.15793  Biso   1.000  C
  H952     1.0000 0.06354  0.83696  0.19577  Biso   1.000  H
  N114     1.0000 0.12564  0.87976  0.22303  Biso   1.000  N
  H953     1.0000 0.05251  0.86404  0.23787  Biso   1.000  H
  C1052    1.0000 0.78995  0.99992  0.14092  Biso   1.000  C
  C1053    1.0000 0.78993  0.99998  0.14092  Biso   1.000  C
  C1054    1.0000 0.02919  0.26806  0.23098  Biso   1.000  C
  C1055    1.0000 0.00004  0.78996  0.14092  Biso   1.000  C
  C1056    1.0000 0.17561  0.90316  0.23558  Biso   1.000  C
  C1057    1.0000 0.80722  0.05194  0.13070  Biso   1.000  C
  C1058    1.0000 0.76055  0.93403  0.13546  Biso   1.000  C
  C1059    1.0000 0.76053  0.93408  0.13546  Biso   1.000  C
  H954     1.0000 0.03602  0.29422  0.22087  Biso   1.000  H
  C1060    1.0000 0.00645  0.29965  0.24414  Biso   1.000  C
  C1061    1.0000 0.09679  0.27246  0.23558  Biso   1.000  C
  H955     1.0000 0.03604  0.29427  0.22087  Biso   1.000  H
  C1062    1.0000 0.00636  0.29965  0.24414  Biso   1.000  C
  C1063    1.0000 0.94801  0.75524  0.13070  Biso   1.000  C
  C1064    1.0000 0.06592  0.82646  0.13546  Biso   1.000  C
  C1065    1.0000 0.23887  0.97079  0.23098  Biso   1.000  C
  C1066    1.0000 0.19396  0.84889  0.23848  Biso   1.000  C
  H956     1.0000 0.15525  0.91007  0.24546  Biso   1.000  H
  C1067    1.0000 0.79935  0.04063  0.11479  Biso   1.000  C
  H957     1.0000 0.82531  0.09725  0.13466  Biso   1.000  H
  C1068    1.0000 0.79933  0.04068  0.11479  Biso   1.000  C
  H958     1.0000 0.82526  0.09725  0.13466  Biso   1.000  H
  C1069    1.0000 0.75234  0.92205  0.11915  Biso   1.000  C
  H959     1.0000 0.74591  0.89696  0.14276  Biso   1.000  H
  H960     1.0000 0.96186  0.29524  0.24127  Biso   1.000  H
  H961     1.0000 0.96177  0.29524  0.24127  Biso   1.000  H
  H962     1.0000 0.00034  0.27466  0.25426  Biso   1.000  H
  C1070    1.0000 0.05845  0.37358  0.24643  Biso   1.000  C
  C1071    1.0000 0.15109  0.34506  0.23848  Biso   1.000  C
  H963     1.0000 0.08990  0.24512  0.24546  Biso   1.000  H
  N115     1.0000 0.12024  0.24584  0.22303  Biso   1.000  N
  H964     1.0000 0.08993  0.24517  0.24546  Biso   1.000  H
  N116     1.0000 0.12026  0.24589  0.22303  Biso   1.000  N
  H965     1.0000 0.90276  0.72806  0.13466  Biso   1.000  H
  C1072    1.0000 0.95935  0.75867  0.11479  Biso   1.000  C
  H966     1.0000 0.90271  0.72806  0.13466  Biso   1.000  H
  H967     1.0000 0.10305  0.84894  0.14276  Biso   1.000  H
  H968     1.0000 0.10303  0.84899  0.14276  Biso   1.000  H
  C1073    1.0000 0.07792  0.83025  0.11915  Biso   1.000  C
  C1074    1.0000 0.29324  0.99352  0.24414  Biso   1.000  C
  H969     1.0000 0.25825  0.96398  0.22087  Biso   1.000  H
  C1075    1.0000 0.29322  0.99358  0.24414  Biso   1.000  C
  N117     1.0000 0.21964  0.02174  0.22833  Biso   1.000  N
  N118     1.0000 0.21958  0.02179  0.22833  Biso   1.000  N
  H970     1.0000 0.15304  0.80695  0.24237  Biso   1.000  H
  H971     1.0000 0.20832  0.83752  0.22836  Biso   1.000  H
  C1076    1.0000 0.25184  0.87198  0.25070  Biso   1.000  C
  H972     1.0000 0.20835  0.83757  0.22836  Biso   1.000  H
  C1077    1.0000 0.77385  0.97484  0.10833  Biso   1.000  C
  C1078    1.0000 0.77384  0.97489  0.10833  Biso   1.000  C
  H973     1.0000 0.81137  0.07816  0.10787  Biso   1.000  H
  H974     1.0000 0.81128  0.07816  0.10787  Biso   1.000  H
  H975     1.0000 0.73145  0.87628  0.11537  Biso   1.000  H
  H976     1.0000 0.06294  0.39933  0.23657  Biso   1.000  H
  H977     1.0000 0.04375  0.39314  0.25506  Biso   1.000  H
  C1079    1.0000 0.12799  0.37982  0.25070  Biso   1.000  C
  H978     1.0000 0.06288  0.39938  0.23657  Biso   1.000  H
  H979     1.0000 0.04373  0.39319  0.25506  Biso   1.000  H
  C1080    1.0000 0.12802  0.37988  0.25070  Biso   1.000  C
  H980     1.0000 0.19299  0.34603  0.24237  Biso   1.000  H
  H981     1.0000 0.16239  0.37076  0.22836  Biso   1.000  H
  H982     1.0000 0.19302  0.34608  0.24237  Biso   1.000  H
  C1081    1.0000 0.13890  0.20175  0.22699  Biso   1.000  C
  H983     1.0000 0.92186  0.73318  0.10787  Biso   1.000  H
  C1082    1.0000 0.02517  0.79897  0.10833  Biso   1.000  C
  C1083    1.0000 0.02512  0.79897  0.10833  Biso   1.000  C
  H984     1.0000 0.12375  0.85513  0.11537  Biso   1.000  H
  H985     1.0000 0.12373  0.85518  0.11537  Biso   1.000  H
  H986     1.0000 0.27434  0.99962  0.25426  Biso   1.000  H
  C1084    1.0000 0.31515  0.94156  0.24643  Biso   1.000  C
  H987     1.0000 0.27432  0.99967  0.25426  Biso   1.000  H
  H988     1.0000 0.33341  0.03812  0.24127  Biso   1.000  H
  H989     1.0000 0.33343  0.03817  0.24127  Biso   1.000  H
  C1085    1.0000 0.22603  0.04365  0.21445  Biso   1.000  C
  H990     1.0000 0.23467  0.87566  0.26127  Biso   1.000  H
  H991     1.0000 0.26576  0.83675  0.25146  Biso   1.000  H
  H992     1.0000 0.23462  0.87566  0.26127  Biso   1.000  H
  H993     1.0000 0.26571  0.83675  0.25146  Biso   1.000  H
  C1086    1.0000 0.77413  0.96475  0.09141  Biso   1.000  C
  H994     1.0000 0.16318  0.42892  0.25146  Biso   1.000  H
  H995     1.0000 0.12436  0.35899  0.26127  Biso   1.000  H
  H996     1.0000 0.16321  0.42898  0.25146  Biso   1.000  H
  C1087    1.0000 0.16442  0.17236  0.21531  Biso   1.000  C
  H997     1.0000 0.13588  0.18844  0.23787  Biso   1.000  H
  C1088    1.0000 0.16438  0.17236  0.21531  Biso   1.000  C
  H998     1.0000 0.13590  0.18849  0.23787  Biso   1.000  H
  C1089    1.0000 0.03524  0.80936  0.09141  Biso   1.000  C
  H999     1.0000 0.33644  0.93705  0.23657  Biso   1.000  H
  H1000    1.0000 0.34945  0.95625  0.25506  Biso   1.000  H
  H1001    1.0000 0.34941  0.95625  0.25506  Biso   1.000  H
  C1090    1.0000 0.20851  0.09685  0.20952  Biso   1.000  C
  H1002    1.0000 0.24314  0.02573  0.20657  Biso   1.000  H
  C1091    1.0000 0.20847  0.09685  0.20952  Biso   1.000  C
  H1003    1.0000 0.24308  0.02578  0.20657  Biso   1.000  H
  H1004    1.0000 0.24317  0.02578  0.20657  Biso   1.000  H
  C1092    1.0000 0.77884  0.95697  0.07761  Biso   1.000  C
  C1093    1.0000 0.18159  0.12316  0.22018  Biso   1.000  C
  C1094    1.0000 0.17456  0.19336  0.19922  Biso   1.000  C
  C1095    1.0000 0.17447  0.19336  0.19922  Biso   1.000  C
  C1096    1.0000 0.04304  0.82185  0.07761  Biso   1.000  C
  C1097    1.0000 0.21889  0.11732  0.19349  Biso   1.000  C
  C1098    1.0000 0.21891  0.11738  0.19349  Biso   1.000  C
  C1099    1.0000 0.78815  0.94535  0.06094  Biso   1.000  C
  C1100    1.0000 0.78811  0.94535  0.06094  Biso   1.000  C
  H1005    1.0000 0.17475  0.10816  0.23097  Biso   1.000  H
  C1101    1.0000 0.20047  0.16643  0.18840  Biso   1.000  C
  C1102    1.0000 0.20050  0.16648  0.18840  Biso   1.000  C
  H1006    1.0000 0.16304  0.22653  0.19577  Biso   1.000  H
  H1007    1.0000 0.16306  0.22658  0.19577  Biso   1.000  H
  C1103    1.0000 0.05464  0.84274  0.06094  Biso   1.000  C
  H1008    1.0000 0.23781  0.09905  0.18617  Biso   1.000  H
  C1104    1.0000 0.81123  0.99895  0.04955  Biso   1.000  C
  C1105    1.0000 0.77884  0.88345  0.05609  Biso   1.000  C
  C1106    1.0000 0.20633  0.18409  0.17197  Biso   1.000  C
  C1107    1.0000 0.11653  0.89532  0.05609  Biso   1.000  C
  C1108    1.0000 0.00105  0.81228  0.04955  Biso   1.000  C
  C1109    1.0000 0.11656  0.89538  0.05609  Biso   1.000  C
  C1110    1.0000 0.82484  0.99025  0.03430  Biso   1.000  C
  H1009    1.0000 0.81727  0.04206  0.05277  Biso   1.000  H
  H1010    1.0000 0.81718  0.04206  0.05277  Biso   1.000  H
  H1011    1.0000 0.76413  0.84756  0.06366  Biso   1.000  H
  C1111    1.0000 0.79037  0.87085  0.04017  Biso   1.000  C
  C1112    1.0000 0.79032  0.87085  0.04017  Biso   1.000  C
  C1113    1.0000 0.21020  0.19776  0.15793  Biso   1.000  C
  H1012    1.0000 0.95797  0.77516  0.05277  Biso   1.000  H
  H1013    1.0000 0.95793  0.77516  0.05277  Biso   1.000  H
  C1114    1.0000 0.00975  0.83455  0.03430  Biso   1.000  C
  C1115    1.0000 0.12912  0.91944  0.04017  Biso   1.000  C
  H1014    1.0000 0.15245  0.91652  0.06366  Biso   1.000  H
  C1116    1.0000 0.12915  0.91949  0.04017  Biso   1.000  C
  H1015    1.0000 0.15243  0.91657  0.06366  Biso   1.000  H
  C1117    1.0000 0.81242  0.92543  0.02989  Biso   1.000  C
  C1118    1.0000 0.81245  0.92548  0.02989  Biso   1.000  C
  C1119    1.0000 0.84900  0.04513  0.02273  Biso   1.000  C
  C1120    1.0000 0.84902  0.04518  0.02273  Biso   1.000  C
  C1121    1.0000 0.78095  0.80608  0.03580  Biso   1.000  C
  C1122    1.0000 0.21004  0.21005  0.14092  Biso   1.000  C
  C1123    1.0000 0.95484  0.80383  0.02273  Biso   1.000  C
  C1124    1.0000 0.95486  0.80388  0.02273  Biso   1.000  C
  C1125    1.0000 0.07455  0.88693  0.02989  Biso   1.000  C
  C1126    1.0000 0.07454  0.88698  0.02989  Biso   1.000  C
  C1127    1.0000 0.19393  0.97484  0.03580  Biso   1.000  C
  C1128    1.0000 0.19396  0.97489  0.03580  Biso   1.000  C
  H1016    1.0000 0.81972  0.91847  0.01907  Biso   1.000  H
  H1017    1.0000 0.85423  0.03556  0.01197  Biso   1.000  H
  N119     1.0000 0.86373  0.10616  0.02639  Biso   1.000  N
  N120     1.0000 0.86368  0.10616  0.02639  Biso   1.000  N
  N121     1.0000 0.78644  0.79072  0.02115  Biso   1.000  N
  H1018    1.0000 0.77031  0.77265  0.04387  Biso   1.000  H
  N122     1.0000 0.78642  0.79078  0.02115  Biso   1.000  N
  C1129    1.0000 0.24475  0.19274  0.13070  Biso   1.000  C
  C1130    1.0000 0.17348  0.23944  0.13546  Biso   1.000  C
  C1131    1.0000 0.24467  0.19274  0.13070  Biso   1.000  C
  C1132    1.0000 0.17351  0.23949  0.13546  Biso   1.000  C
  C1133    1.0000 0.17359  0.23949  0.13546  Biso   1.000  C
  N123     1.0000 0.89383  0.75755  0.02639  Biso   1.000  N
  H1019    1.0000 0.96445  0.81863  0.01197  Biso   1.000  H
  H1020    1.0000 0.96443  0.81868  0.01197  Biso   1.000  H
  H1021    1.0000 0.08155  0.90126  0.01907  Biso   1.000  H
  H1022    1.0000 0.22732  0.99762  0.04387  Biso   1.000  H
  N124     1.0000 0.20925  0.99562  0.02115  Biso   1.000  N
  H1023    1.0000 0.22734  0.99767  0.04387  Biso   1.000  H
  N125     1.0000 0.20923  0.99568  0.02115  Biso   1.000  N
  C1134    1.0000 0.88386  0.15644  0.01342  Biso   1.000  C
  C1135    1.0000 0.88377  0.15644  0.01342  Biso   1.000  C
  C1136    1.0000 0.77686  0.72217  0.01820  Biso   1.000  C
  C1137    1.0000 0.77682  0.72217  0.01820  Biso   1.000  C
  C1138    1.0000 0.24134  0.20063  0.11479  Biso   1.000  C
  H1024    1.0000 0.27192  0.17462  0.13466  Biso   1.000  H
  C1139    1.0000 0.24132  0.20068  0.11479  Biso   1.000  C
  H1025    1.0000 0.27194  0.17467  0.13466  Biso   1.000  H
  H1026    1.0000 0.15102  0.25403  0.14276  Biso   1.000  H
  C1140    1.0000 0.16973  0.24763  0.11915  Biso   1.000  C
  H1027    1.0000 0.15105  0.25408  0.14276  Biso   1.000  H
  C1141    1.0000 0.16975  0.24768  0.11915  Biso   1.000  C
  C1142    1.0000 0.84356  0.72734  0.01342  Biso   1.000  C
  C1143    1.0000 0.84354  0.72739  0.01342  Biso   1.000  C
  C1144    1.0000 0.27787  0.05466  0.01820  Biso   1.000  C
  C1145    1.0000 0.27778  0.05466  0.01820  Biso   1.000  C
  C1146    1.0000 0.94532  0.22315  0.01820  Biso   1.000  C
  H1028    1.0000 0.89521  0.13827  0.00376  Biso   1.000  H
  C1147    1.0000 0.82331  0.16643  0.00975  Biso   1.000  C
  C1148    1.0000 0.82334  0.16648  0.00975  Biso   1.000  C
  C1149    1.0000 0.72445  0.68802  0.00511  Biso   1.000  C
  C1150    1.0000 0.72443  0.68807  0.00511  Biso   1.000  C
  H1029    1.0000 0.75962  0.69416  0.02816  Biso   1.000  H
  C1151    1.0000 0.20105  0.22612  0.10833  Biso   1.000  C
  H1030    1.0000 0.26678  0.18865  0.10787  Biso   1.000  H
  C1152    1.0000 0.20099  0.22617  0.10833  Biso   1.000  C
  H1031    1.0000 0.14481  0.26857  0.11537  Biso   1.000  H
  H1032    1.0000 0.86175  0.75698  0.00376  Biso   1.000  H
  C1153    1.0000 0.83357  0.65689  0.00975  Biso   1.000  C
  C1154    1.0000 0.27266  0.11615  0.01342  Biso   1.000  C
  C1155    1.0000 0.31189  0.03633  0.00511  Biso   1.000  C
  H1033    1.0000 0.30584  0.06546  0.02816  Biso   1.000  H
  C1156    1.0000 0.27257  0.11615  0.01342  Biso   1.000  C
  C1157    1.0000 0.31192  0.03638  0.00511  Biso   1.000  C
  C1158    1.0000 0.96358  0.27553  0.00511  Biso   1.000  C
  H1034    1.0000 0.93455  0.24036  0.02816  Biso   1.000  H
  C1159    1.0000 0.96360  0.27558  0.00511  Biso   1.000  C
  N126     1.0000 0.00434  0.21358  0.02115  Biso   1.000  N
  C1160    1.0000 0.84221  0.22044  0.99658  Biso   1.000  C
  C1161    1.0000 0.84219  0.22049  0.99658  Biso   1.000  C
  H1035    1.0000 0.78385  0.12244  0.00626  Biso   1.000  H
  H1036    1.0000 0.80980  0.18143  0.01947  Biso   1.000  H
  H1037    1.0000 0.78376  0.12244  0.00626  Biso   1.000  H
  H1038    1.0000 0.80982  0.18148  0.01947  Biso   1.000  H
  H1039    1.0000 0.68074  0.68484  0.00837  Biso   1.000  H
  H1040    1.0000 0.74065  0.71643  0.99537  Biso   1.000  H
  H1041    1.0000 0.74063  0.71648  0.99537  Biso   1.000  H
  C1162    1.0000 0.71235  0.61762  0.00154  Biso   1.000  C
  C1163    1.0000 0.71233  0.61767  0.00154  Biso   1.000  C
  C1164    1.0000 0.19060  0.22587  0.09141  Biso   1.000  C
  C1165    1.0000 0.77951  0.62177  0.99658  Biso   1.000  C
  H1042    1.0000 0.87752  0.66134  0.00626  Biso   1.000  H
  H1043    1.0000 0.81855  0.62837  0.01947  Biso   1.000  H
  C1166    1.0000 0.34313  0.17667  0.00975  Biso   1.000  C
  H1044    1.0000 0.24300  0.10473  0.00376  Biso   1.000  H
  N127     1.0000 0.24239  0.13622  0.02639  Biso   1.000  N
  H1045    1.0000 0.24299  0.10478  0.00376  Biso   1.000  H
  N128     1.0000 0.24241  0.13627  0.02639  Biso   1.000  N
  H1046    1.0000 0.31514  0.99583  0.00837  Biso   1.000  H
  H1047    1.0000 0.31513  0.99588  0.00837  Biso   1.000  H
  H1048    1.0000 0.28350  0.02414  0.99537  Biso   1.000  H
  C1167    1.0000 0.38229  0.09464  0.00154  Biso   1.000  C
  C1168    1.0000 0.90531  0.28767  0.00154  Biso   1.000  C
  H1049    1.0000 0.97579  0.25935  0.99537  Biso   1.000  H
  H1050    1.0000 0.00411  0.31926  0.00837  Biso   1.000  H
  C1169    1.0000 0.02513  0.21906  0.03580  Biso   1.000  C
  H1051    1.0000 0.80332  0.22833  0.99466  Biso   1.000  H
  H1052    1.0000 0.85186  0.20375  0.98657  Biso   1.000  H
  H1053    1.0000 0.80334  0.22838  0.99466  Biso   1.000  H
  H1054    1.0000 0.85178  0.20375  0.98657  Biso   1.000  H
  H1055    1.0000 0.67835  0.59688  0.99287  Biso   1.000  H
  H1056    1.0000 0.69376  0.58833  0.01106  Biso   1.000  H
  H1057    1.0000 0.69374  0.58838  0.01106  Biso   1.000  H
  C1170    1.0000 0.17813  0.22116  0.07761  Biso   1.000  C
  H1058    1.0000 0.77165  0.57492  0.99466  Biso   1.000  H
  H1059    1.0000 0.77163  0.57497  0.99466  Biso   1.000  H
  H1060    1.0000 0.79626  0.64808  0.98657  Biso   1.000  H
  C1171    1.0000 0.37818  0.15772  0.99658  Biso   1.000  C
  C1172    1.0000 0.37820  0.15777  0.99658  Biso   1.000  C
  H1061    1.0000 0.33866  0.21614  0.00626  Biso   1.000  H
  H1062    1.0000 0.33864  0.21619  0.00626  Biso   1.000  H
  H1063    1.0000 0.37166  0.19018  0.01947  Biso   1.000  H
  C1173    1.0000 0.19615  0.15096  0.02273  Biso   1.000  C
  H1064    1.0000 0.40313  0.08143  0.99287  Biso   1.000  H
  H1065    1.0000 0.40316  0.08149  0.99287  Biso   1.000  H
  H1066    1.0000 0.41163  0.10534  0.01106  Biso   1.000  H
  H1067    1.0000 0.91849  0.32166  0.99287  Biso   1.000  H
  H1068    1.0000 0.89465  0.30625  0.01106  Biso   1.000  H
  H1069    1.0000 0.00232  0.22966  0.04387  Biso   1.000  H
  C1174    1.0000 0.08054  0.20964  0.04017  Biso   1.000  C
  C1175    1.0000 0.08048  0.20969  0.04017  Biso   1.000  C
  C1176    1.0000 0.15724  0.21184  0.06094  Biso   1.000  C
  C1177    1.0000 0.15718  0.21189  0.06094  Biso   1.000  C
  H1070    1.0000 0.42504  0.19663  0.99466  Biso   1.000  H
  H1071    1.0000 0.35193  0.14815  0.98657  Biso   1.000  H
  H1072    1.0000 0.42506  0.19668  0.99466  Biso   1.000  H
  C1178    1.0000 0.16545  0.17513  0.03430  Biso   1.000  C
  H1073    1.0000 0.18135  0.14574  0.01197  Biso   1.000  H
  C1179    1.0000 0.16538  0.17518  0.03430  Biso   1.000  C
  H1074    1.0000 0.18133  0.14579  0.01197  Biso   1.000  H
  C1180    1.0000 0.11298  0.18752  0.02989  Biso   1.000  C
  C1181    1.0000 0.11301  0.18757  0.02989  Biso   1.000  C
  C1182    1.0000 0.10466  0.22116  0.05609  Biso   1.000  C
  C1183    1.0000 0.10461  0.22116  0.05609  Biso   1.000  C
  C1184    1.0000 0.18773  0.18875  0.04955  Biso   1.000  C
  H1075    1.0000 0.09870  0.18025  0.01907  Biso   1.000  H
  H1076    1.0000 0.08341  0.23585  0.06366  Biso   1.000  H
  H1077    1.0000 0.22486  0.18276  0.05277  Biso   1.000  H
  H1078    1.0000 0.22482  0.18276  0.05277  Biso   1.000  H
  C1185    1.0000 0.70673  0.00643  0.75586  Biso   1.000  C
  C1186    1.0000 0.76118  0.02921  0.76902  Biso   1.000  C
  C1187    1.0000 0.76109  0.02921  0.76902  Biso   1.000  C
  H1079    1.0000 0.66657  0.96183  0.75873  Biso   1.000  H
  H1080    1.0000 0.72564  0.00033  0.74574  Biso   1.000  H
  C1188    1.0000 0.68486  0.05845  0.75357  Biso   1.000  C
  N129     1.0000 0.78038  0.97822  0.77167  Biso   1.000  N
  H1081    1.0000 0.74175  0.03602  0.77913  Biso   1.000  H
  H1082    1.0000 0.74171  0.03602  0.77913  Biso   1.000  H
  C1189    1.0000 0.82435  0.09685  0.76442  Biso   1.000  C
  H1083    1.0000 0.66354  0.06290  0.76343  Biso   1.000  H
  C1190    1.0000 0.74820  0.12803  0.74930  Biso   1.000  C
  H1084    1.0000 0.66352  0.06295  0.76343  Biso   1.000  H
  H1085    1.0000 0.65055  0.04375  0.74494  Biso   1.000  H
  C1191    1.0000 0.74811  0.12803  0.74930  Biso   1.000  C
  C1192    1.0000 0.77399  0.95630  0.78555  Biso   1.000  C
  C1193    1.0000 0.77397  0.95635  0.78555  Biso   1.000  C
  H1086    1.0000 0.84475  0.08993  0.75454  Biso   1.000  H
  C1194    1.0000 0.80608  0.15112  0.76152  Biso   1.000  C
  N130     1.0000 0.87438  0.12019  0.77697  Biso   1.000  N
  C1195    1.0000 0.80599  0.15112  0.76152  Biso   1.000  C
  N131     1.0000 0.87436  0.12024  0.77697  Biso   1.000  N
  H1087    1.0000 0.76531  0.12429  0.73873  Biso   1.000  H
  H1088    1.0000 0.76534  0.12434  0.73873  Biso   1.000  H
  H1089    1.0000 0.73424  0.16325  0.74854  Biso   1.000  H
  C1196    1.0000 0.79146  0.90311  0.79048  Biso   1.000  C
  C1197    1.0000 0.79149  0.90316  0.79048  Biso   1.000  C
  H1090    1.0000 0.75688  0.97422  0.79343  Biso   1.000  H
  H1091    1.0000 0.84698  0.19300  0.75763  Biso   1.000  H
  H1092    1.0000 0.79170  0.16243  0.77164  Biso   1.000  H
  H1093    1.0000 0.84691  0.19305  0.75763  Biso   1.000  H
  H1094    1.0000 0.79161  0.16243  0.77164  Biso   1.000  H
  C1198    1.0000 0.93718  0.13893  0.77301  Biso   1.000  C
  C1199    1.0000 0.81839  0.87679  0.77982  Biso   1.000  C
  C1200    1.0000 0.81837  0.87684  0.77982  Biso   1.000  C
  C1201    1.0000 0.78109  0.88263  0.80651  Biso   1.000  C
  C1202    1.0000 0.78105  0.88263  0.80651  Biso   1.000  C
  H1095    1.0000 0.94746  0.13591  0.76213  Biso   1.000  H
  C1203    1.0000 0.99200  0.16443  0.78469  Biso   1.000  C
  C1204    1.0000 0.83558  0.82764  0.78469  Biso   1.000  C
  H1096    1.0000 0.82527  0.89179  0.76903  Biso   1.000  H
  H1097    1.0000 0.82525  0.89184  0.76903  Biso   1.000  H
  C1205    1.0000 0.79946  0.83353  0.81160  Biso   1.000  C
  H1098    1.0000 0.76216  0.90091  0.81383  Biso   1.000  H
  H1099    1.0000 0.76219  0.90096  0.81383  Biso   1.000  H
  C1206    1.0000 0.98113  0.17451  0.80078  Biso   1.000  C
  C1207    1.0000 0.05843  0.18163  0.77982  Biso   1.000  C
  C1208    1.0000 0.86108  0.79820  0.77301  Biso   1.000  C
  C1209    1.0000 0.86106  0.79825  0.77301  Biso   1.000  C
  C1210    1.0000 0.82546  0.80660  0.80078  Biso   1.000  C
  C1211    1.0000 0.82548  0.80665  0.80078  Biso   1.000  C
  C1212    1.0000 0.79367  0.81591  0.82803  Biso   1.000  C
  H1100    1.0000 0.93644  0.16299  0.80423  Biso   1.000  H
  H1101    1.0000 0.93646  0.16305  0.80423  Biso   1.000  H
  C1213    1.0000 0.03408  0.20052  0.81160  Biso   1.000  C
  C1214    1.0000 0.03404  0.20052  0.81160  Biso   1.000  C
  C1215    1.0000 0.11168  0.20851  0.79048  Biso   1.000  C
  C1216    1.0000 0.11164  0.20851  0.79048  Biso   1.000  C
  H1102    1.0000 0.06654  0.17472  0.76903  Biso   1.000  H
  H1103    1.0000 0.06650  0.17472  0.76903  Biso   1.000  H
  N132     1.0000 0.87974  0.75412  0.77697  Biso   1.000  N
  H1104    1.0000 0.86405  0.81151  0.76213  Biso   1.000  H
  H1105    1.0000 0.83694  0.77342  0.80423  Biso   1.000  H
  C1217    1.0000 0.78978  0.80219  0.84207  Biso   1.000  C
  C1218    1.0000 0.78976  0.80224  0.84207  Biso   1.000  C
  C1219    1.0000 0.10154  0.21890  0.80651  Biso   1.000  C
  C1220    1.0000 0.10156  0.21896  0.80651  Biso   1.000  C
  C1221    1.0000 0.02221  0.20631  0.82803  Biso   1.000  C
  C1222    1.0000 0.18238  0.22602  0.78555  Biso   1.000  C
  C1223    1.0000 0.90319  0.72749  0.76442  Biso   1.000  C
  C1224    1.0000 0.90317  0.72754  0.76442  Biso   1.000  C
  C1225    1.0000 0.78998  0.78990  0.85908  Biso   1.000  C
  C1226    1.0000 0.78996  0.78996  0.85908  Biso   1.000  C
  H1106    1.0000 0.13879  0.23780  0.81383  Biso   1.000  H
  H1107    1.0000 0.13872  0.23785  0.81383  Biso   1.000  H
  C1227    1.0000 0.01245  0.21020  0.84207  Biso   1.000  C
  C1228    1.0000 0.01248  0.21025  0.84207  Biso   1.000  C
  N133     1.0000 0.19785  0.21962  0.77167  Biso   1.000  N
  N134     1.0000 0.19780  0.21962  0.77167  Biso   1.000  N
  H1108    1.0000 0.21740  0.24312  0.79343  Biso   1.000  H
  H1109    1.0000 0.21736  0.24312  0.79343  Biso   1.000  H
  C1229    1.0000 0.84888  0.65489  0.76152  Biso   1.000  C
  C1230    1.0000 0.84887  0.65494  0.76152  Biso   1.000  C
  C1231    1.0000 0.97079  0.73190  0.76902  Biso   1.000  C
  C1232    1.0000 0.97077  0.73195  0.76902  Biso   1.000  C
  H1110    1.0000 0.91007  0.75483  0.75454  Biso   1.000  H
  C1233    1.0000 0.75527  0.80721  0.86930  Biso   1.000  C
  C1234    1.0000 0.82645  0.76052  0.86454  Biso   1.000  C
  C1235    1.0000 0.99998  0.21000  0.85908  Biso   1.000  C
  C1236    1.0000 0.99992  0.21005  0.85908  Biso   1.000  C
  C1237    1.0000 0.26810  0.23882  0.76902  Biso   1.000  C
  C1238    1.0000 0.26806  0.23882  0.76902  Biso   1.000  C
  C1239    1.0000 0.87198  0.62013  0.74930  Biso   1.000  C
  H1111    1.0000 0.80698  0.65392  0.75763  Biso   1.000  H
  H1112    1.0000 0.83759  0.62919  0.77164  Biso   1.000  H
  H1113    1.0000 0.80694  0.65392  0.75763  Biso   1.000  H
  H1114    1.0000 0.83757  0.62924  0.77164  Biso   1.000  H
  C1240    1.0000 0.99360  0.70036  0.75586  Biso   1.000  C
  H1115    1.0000 0.96396  0.70573  0.77913  Biso   1.000  H
  N135     1.0000 0.02179  0.80214  0.77167  Biso   1.000  N
  C1241    1.0000 0.75868  0.79933  0.88521  Biso   1.000  C
  H1116    1.0000 0.72806  0.82533  0.86534  Biso   1.000  H
  H1117    1.0000 0.84900  0.74592  0.85724  Biso   1.000  H
  C1242    1.0000 0.83029  0.75232  0.88085  Biso   1.000  C
  H1118    1.0000 0.84895  0.74592  0.85724  Biso   1.000  H
  C1243    1.0000 0.83025  0.75232  0.88085  Biso   1.000  C
  C1244    1.0000 0.93404  0.17354  0.86454  Biso   1.000  C
  C1245    1.0000 0.05192  0.24471  0.86930  Biso   1.000  C
  C1246    1.0000 0.27245  0.17559  0.76442  Biso   1.000  C
  C1247    1.0000 0.27247  0.17564  0.76442  Biso   1.000  C
  H1119    1.0000 0.29430  0.25823  0.77913  Biso   1.000  H
  C1248    1.0000 0.29968  0.29319  0.75586  Biso   1.000  C
  H1120    1.0000 0.29426  0.25823  0.77913  Biso   1.000  H
  C1249    1.0000 0.29962  0.29325  0.75586  Biso   1.000  C
  C1250    1.0000 0.94160  0.62642  0.75357  Biso   1.000  C
  H1121    1.0000 0.87569  0.64102  0.73873  Biso   1.000  H
  C1251    1.0000 0.94155  0.62642  0.75357  Biso   1.000  C
  H1122    1.0000 0.87565  0.64102  0.73873  Biso   1.000  H
  H1123    1.0000 0.83675  0.57103  0.74854  Biso   1.000  H
  H1124    1.0000 0.99968  0.72529  0.74574  Biso   1.000  H
  H1125    1.0000 0.99966  0.72534  0.74574  Biso   1.000  H
  H1126    1.0000 0.03816  0.70471  0.75873  Biso   1.000  H
  C1252    1.0000 0.04366  0.81760  0.78555  Biso   1.000  C
  C1253    1.0000 0.04369  0.81765  0.78555  Biso   1.000  C
  C1254    1.0000 0.79897  0.77383  0.89167  Biso   1.000  C
  H1127    1.0000 0.73319  0.81131  0.89213  Biso   1.000  H
  H1128    1.0000 0.73317  0.81136  0.89213  Biso   1.000  H
  H1129    1.0000 0.85519  0.73143  0.88463  Biso   1.000  H
  H1130    1.0000 0.89697  0.15101  0.85724  Biso   1.000  H
  C1255    1.0000 0.92201  0.16970  0.88085  Biso   1.000  C
  C1256    1.0000 0.92204  0.16975  0.88085  Biso   1.000  C
  C1257    1.0000 0.04070  0.24133  0.88521  Biso   1.000  C
  H1131    1.0000 0.09722  0.27190  0.86534  Biso   1.000  H
  C1258    1.0000 0.04065  0.24133  0.88521  Biso   1.000  C
  H1132    1.0000 0.09724  0.27195  0.86534  Biso   1.000  H
  N136     1.0000 0.24587  0.12562  0.77697  Biso   1.000  N
  C1259    1.0000 0.34506  0.19392  0.76152  Biso   1.000  C
  H1133    1.0000 0.24514  0.15521  0.75454  Biso   1.000  H
  H1134    1.0000 0.27463  0.27430  0.74574  Biso   1.000  H
  H1135    1.0000 0.29521  0.33339  0.75873  Biso   1.000  H
  C1260    1.0000 0.37356  0.31511  0.75357  Biso   1.000  C
  H1136    1.0000 0.27465  0.27435  0.74574  Biso   1.000  H
  H1137    1.0000 0.29524  0.33344  0.75873  Biso   1.000  H
  H1138    1.0000 0.93708  0.60062  0.76343  Biso   1.000  H
  H1139    1.0000 0.95627  0.60682  0.74494  Biso   1.000  H
  H1140    1.0000 0.02578  0.78263  0.79343  Biso   1.000  H
  C1261    1.0000 0.09684  0.88831  0.79048  Biso   1.000  C
  C1262    1.0000 0.80938  0.77408  0.90859  Biso   1.000  C
  C1263    1.0000 0.80936  0.77414  0.90859  Biso   1.000  C
  H1141    1.0000 0.87627  0.14482  0.88463  Biso   1.000  H
  C1264    1.0000 0.97488  0.20104  0.89167  Biso   1.000  C
  H1142    1.0000 0.87632  0.14482  0.88463  Biso   1.000  H
  H1143    1.0000 0.07814  0.26683  0.89213  Biso   1.000  H
  C1265    1.0000 0.20173  0.06280  0.77301  Biso   1.000  C
  C1266    1.0000 0.20171  0.06285  0.77301  Biso   1.000  C
  C1267    1.0000 0.37983  0.25183  0.74930  Biso   1.000  C
  H1144    1.0000 0.34603  0.15301  0.75763  Biso   1.000  H
  H1145    1.0000 0.37079  0.20831  0.77164  Biso   1.000  H
  H1146    1.0000 0.37073  0.20836  0.77164  Biso   1.000  H
  H1147    1.0000 0.39315  0.34941  0.74494  Biso   1.000  H
  H1148    1.0000 0.39933  0.33641  0.76343  Biso   1.000  H
  H1149    1.0000 0.39935  0.33646  0.76343  Biso   1.000  H
  C1268    1.0000 0.12317  0.94151  0.77982  Biso   1.000  C
  C1269    1.0000 0.11738  0.89845  0.80651  Biso   1.000  C
  C1270    1.0000 0.12320  0.94156  0.77982  Biso   1.000  C
  C1271    1.0000 0.82189  0.77879  0.92239  Biso   1.000  C
  C1272    1.0000 0.82187  0.77885  0.92239  Biso   1.000  C
  C1273    1.0000 0.96476  0.19064  0.90859  Biso   1.000  C
  C1274    1.0000 0.17238  0.00791  0.78469  Biso   1.000  C
  C1275    1.0000 0.17229  0.00791  0.78469  Biso   1.000  C
  H1150    1.0000 0.18843  0.05251  0.76213  Biso   1.000  H
  H1151    1.0000 0.18845  0.05256  0.76213  Biso   1.000  H
  H1152    1.0000 0.35899  0.23462  0.73873  Biso   1.000  H
  H1153    1.0000 0.42893  0.26570  0.74854  Biso   1.000  H
  H1154    1.0000 0.35894  0.23462  0.73873  Biso   1.000  H
  H1155    1.0000 0.42891  0.26575  0.74854  Biso   1.000  H
  C1276    1.0000 0.16647  0.96593  0.81160  Biso   1.000  C
  H1156    1.0000 0.09908  0.86123  0.81383  Biso   1.000  H
  H1157    1.0000 0.10818  0.93342  0.76903  Biso   1.000  H
  C1277    1.0000 0.84278  0.78811  0.93906  Biso   1.000  C
  C1278    1.0000 0.95694  0.17810  0.92239  Biso   1.000  C
  C1279    1.0000 0.95692  0.17815  0.92239  Biso   1.000  C
  C1280    1.0000 0.19335  0.01882  0.80078  Biso   1.000  C
  C1281    1.0000 0.18406  0.97770  0.82803  Biso   1.000  C
  C1282    1.0000 0.18408  0.97776  0.82803  Biso   1.000  C
  C1283    1.0000 0.81229  0.81120  0.95045  Biso   1.000  C
  C1284    1.0000 0.81227  0.81125  0.95045  Biso   1.000  C
  C1285    1.0000 0.89539  0.77885  0.94391  Biso   1.000  C
  C1286    1.0000 0.94534  0.15721  0.93906  Biso   1.000  C
  H1158    1.0000 0.22652  0.06351  0.80423  Biso   1.000  H
  C1287    1.0000 0.19775  0.98753  0.84207  Biso   1.000  C
  C1288    1.0000 0.83457  0.82482  0.96570  Biso   1.000  C
  H1159    1.0000 0.77518  0.81725  0.94723  Biso   1.000  H
  C1289    1.0000 0.91948  0.79031  0.95983  Biso   1.000  C
  H1160    1.0000 0.91657  0.76410  0.93634  Biso   1.000  H
  H1161    1.0000 0.91659  0.76415  0.93634  Biso   1.000  H
  C1290    1.0000 0.99895  0.18772  0.95045  Biso   1.000  C
  C1291    1.0000 0.88344  0.10463  0.94391  Biso   1.000  C
  C1292    1.0000 0.21007  0.00003  0.85908  Biso   1.000  C
  C1293    1.0000 0.80387  0.84899  0.97727  Biso   1.000  C
  C1294    1.0000 0.88695  0.81243  0.97011  Biso   1.000  C
  C1295    1.0000 0.80385  0.84904  0.97727  Biso   1.000  C
  C1296    1.0000 0.97487  0.78094  0.96420  Biso   1.000  C
  C1297    1.0000 0.99023  0.16540  0.96570  Biso   1.000  C
  C1298    1.0000 0.99026  0.16545  0.96570  Biso   1.000  C
  H1162    1.0000 0.04208  0.22484  0.94723  Biso   1.000  H
  C1299    1.0000 0.87090  0.08051  0.95983  Biso   1.000  C
  C1300    1.0000 0.87081  0.08051  0.95983  Biso   1.000  C
  H1163    1.0000 0.84753  0.08343  0.93634  Biso   1.000  H
  H1164    1.0000 0.84762  0.08343  0.93634  Biso   1.000  H
  C1301    1.0000 0.19276  0.94801  0.86930  Biso   1.000  C
  C1302    1.0000 0.23947  0.06592  0.86454  Biso   1.000  C
  H1165    1.0000 0.90130  0.81975  0.98093  Biso   1.000  H
  H1166    1.0000 0.81867  0.85421  0.98803  Biso   1.000  H
  N137     1.0000 0.75759  0.86373  0.97361  Biso   1.000  N
  N138     1.0000 0.99566  0.78642  0.97885  Biso   1.000  N
  H1167    1.0000 0.99769  0.77035  0.95613  Biso   1.000  H
  C1303    1.0000 0.04518  0.19612  0.97727  Biso   1.000  C
  C1304    1.0000 0.04510  0.19612  0.97727  Biso   1.000  C
  C1305    1.0000 0.92542  0.11302  0.97011  Biso   1.000  C
  C1306    1.0000 0.92551  0.11302  0.97011  Biso   1.000  C
  C1307    1.0000 0.80609  0.02511  0.96420  Biso   1.000  C
  C1308    1.0000 0.80604  0.02511  0.96420  Biso   1.000  C
  C1309    1.0000 0.20067  0.95932  0.88521  Biso   1.000  C
  H1168    1.0000 0.17467  0.90270  0.86534  Biso   1.000  H
  H1169    1.0000 0.17469  0.90275  0.86534  Biso   1.000  H
  H1170    1.0000 0.25406  0.10299  0.85724  Biso   1.000  H
  C1310    1.0000 0.24764  0.07790  0.88085  Biso   1.000  C
  H1171    1.0000 0.25409  0.10304  0.85724  Biso   1.000  H
  C1311    1.0000 0.24762  0.07795  0.88085  Biso   1.000  C
  C1312    1.0000 0.72736  0.88380  0.98658  Biso   1.000  C
  C1313    1.0000 0.72739  0.88386  0.98658  Biso   1.000  C
  C1314    1.0000 0.05468  0.77685  0.98180  Biso   1.000  C
  N139     1.0000 0.10619  0.24241  0.97361  Biso   1.000  N
  N140     1.0000 0.10617  0.24246  0.97361  Biso   1.000  N
  H1172    1.0000 0.03557  0.18132  0.98803  Biso   1.000  H
  H1173    1.0000 0.91847  0.09869  0.98093  Biso   1.000  H
  H1174    1.0000 0.91841  0.09874  0.98093  Biso   1.000  H
  N141     1.0000 0.79073  0.00433  0.97885  Biso   1.000  N
  H1175    1.0000 0.77266  0.00233  0.95613  Biso   1.000  H
  H1176    1.0000 0.77262  0.00233  0.95613  Biso   1.000  H
  H1177    1.0000 0.18868  0.92185  0.89213  Biso   1.000  H
  C1315    1.0000 0.22612  0.02511  0.89167  Biso   1.000  C
  H1178    1.0000 0.26855  0.12372  0.88463  Biso   1.000  H
  H1179    1.0000 0.75697  0.89522  0.99624  Biso   1.000  H
  C1316    1.0000 0.65684  0.82329  0.99025  Biso   1.000  C
  C1317    1.0000 0.65687  0.82334  0.99025  Biso   1.000  C
  C1318    1.0000 0.72217  0.94535  0.98180  Biso   1.000  C
  C1319    1.0000 0.11616  0.84351  0.98658  Biso   1.000  C
  H1180    1.0000 0.06547  0.75959  0.97184  Biso   1.000  H
  C1320    1.0000 0.03636  0.72442  0.99489  Biso   1.000  C
  H1181    1.0000 0.06545  0.75965  0.97184  Biso   1.000  H
  C1321    1.0000 0.15641  0.27261  0.98658  Biso   1.000  C
  C1322    1.0000 0.22587  0.03525  0.90859  Biso   1.000  C
  H1182    1.0000 0.66136  0.78381  0.99374  Biso   1.000  H
  H1183    1.0000 0.62838  0.80982  0.98053  Biso   1.000  H
  H1184    1.0000 0.62834  0.80982  0.98053  Biso   1.000  H
  C1323    1.0000 0.62175  0.84223  0.00342  Biso   1.000  C
  C1324    1.0000 0.68808  0.96362  0.99489  Biso   1.000  C
  H1185    1.0000 0.69418  0.93449  0.97184  Biso   1.000  H
  H1186    1.0000 0.69416  0.93454  0.97184  Biso   1.000  H
  N142     1.0000 0.13627  0.89384  0.97361  Biso   1.000  N
  H1187    1.0000 0.10477  0.86169  0.99624  Biso   1.000  H
  H1188    1.0000 0.10475  0.86174  0.99624  Biso   1.000  H
  C1325    1.0000 0.17666  0.83353  0.99025  Biso   1.000  C
  H1189    1.0000 0.99587  0.68070  0.99163  Biso   1.000  H
  H1190    1.0000 0.99585  0.68075  0.99163  Biso   1.000  H
  C1326    1.0000 0.09467  0.71229  0.99846  Biso   1.000  C
  C1327    1.0000 0.09465  0.71234  0.99846  Biso   1.000  C
  H1191    1.0000 0.02418  0.74060  0.00463  Biso   1.000  H
  H1192    1.0000 0.02416  0.74065  0.00463  Biso   1.000  H
  C1328    1.0000 0.22319  0.27784  0.98180  Biso   1.000  C
  H1193    1.0000 0.13829  0.24302  0.99624  Biso   1.000  H
  C1329    1.0000 0.16648  0.34311  0.99025  Biso   1.000  C
  H1194    1.0000 0.13820  0.24302  0.99624  Biso   1.000  H
  C1330    1.0000 0.16644  0.34311  0.99025  Biso   1.000  C
  C1331    1.0000 0.22120  0.04303  0.92239  Biso   1.000  C
  C1332    1.0000 0.22111  0.04303  0.92239  Biso   1.000  C
  C1333    1.0000 0.61764  0.90531  0.99846  Biso   1.000  C
  H1195    1.0000 0.64809  0.85180  0.01343  Biso   1.000  H
  H1196    1.0000 0.57494  0.80332  0.00534  Biso   1.000  H
  H1197    1.0000 0.64807  0.85186  0.01343  Biso   1.000  H
  H1198    1.0000 0.71648  0.97581  0.00463  Biso   1.000  H
  H1199    1.0000 0.71643  0.97581  0.00463  Biso   1.000  H
  H1200    1.0000 0.68483  0.00412  0.99163  Biso   1.000  H
  C1334    1.0000 0.15098  0.95482  0.97727  Biso   1.000  C
  H1201    1.0000 0.21617  0.87751  0.99374  Biso   1.000  H
  H1202    1.0000 0.19018  0.81853  0.98053  Biso   1.000  H
  H1203    1.0000 0.21619  0.87756  0.99374  Biso   1.000  H
  C1335    1.0000 0.15777  0.77951  0.00342  Biso   1.000  C
  H1204    1.0000 0.10537  0.69370  0.98894  Biso   1.000  H
  H1205    1.0000 0.10536  0.69375  0.98894  Biso   1.000  H
  H1206    1.0000 0.08149  0.67829  0.00713  Biso   1.000  H
  H1207    1.0000 0.08147  0.67834  0.00713  Biso   1.000  H
  N143     1.0000 0.21354  0.20923  0.97885  Biso   1.000  N
  C1336    1.0000 0.27553  0.31193  0.99489  Biso   1.000  C
  H1208    1.0000 0.24034  0.30584  0.97184  Biso   1.000  H
  H1209    1.0000 0.18145  0.37163  0.98053  Biso   1.000  H
  H1210    1.0000 0.12246  0.33861  0.99374  Biso   1.000  H
  C1337    1.0000 0.22042  0.37819  0.00342  Biso   1.000  C
  C1338    1.0000 0.22044  0.37824  0.00342  Biso   1.000  C
  C1339    1.0000 0.21182  0.05461  0.93906  Biso   1.000  C
  C1340    1.0000 0.21185  0.05466  0.93906  Biso   1.000  C
  H1211    1.0000 0.58839  0.89461  0.98894  Biso   1.000  H
  H1212    1.0000 0.58837  0.89466  0.98894  Biso   1.000  H
  H1213    1.0000 0.59685  0.91852  0.00713  Biso   1.000  H
  C1341    1.0000 0.17514  0.00970  0.96570  Biso   1.000  C
  C1342    1.0000 0.17517  0.00975  0.96570  Biso   1.000  C
  H1214    1.0000 0.14579  0.96439  0.98803  Biso   1.000  H
  H1215    1.0000 0.14577  0.96444  0.98803  Biso   1.000  H
  H1216    1.0000 0.19670  0.77163  0.00534  Biso   1.000  H
  H1217    1.0000 0.19666  0.77163  0.00534  Biso   1.000  H
  H1218    1.0000 0.14818  0.79625  0.01343  Biso   1.000  H
  C1343    1.0000 0.21905  0.19392  0.96420  Biso   1.000  C
  C1344    1.0000 0.28767  0.38233  0.99846  Biso   1.000  C
  H1219    1.0000 0.31928  0.31511  0.99163  Biso   1.000  H
  H1220    1.0000 0.31920  0.31511  0.99163  Biso   1.000  H
  H1221    1.0000 0.25933  0.28352  0.00463  Biso   1.000  H
  H1222    1.0000 0.22832  0.42503  0.00534  Biso   1.000  H
  H1223    1.0000 0.20374  0.35192  0.01343  Biso   1.000  H
  H1224    1.0000 0.20370  0.35192  0.01343  Biso   1.000  H
  C1345    1.0000 0.18879  0.00100  0.95045  Biso   1.000  C
  C1346    1.0000 0.22114  0.11651  0.94391  Biso   1.000  C
  C1347    1.0000 0.18873  0.00105  0.95045  Biso   1.000  C
  C1348    1.0000 0.22116  0.11656  0.94391  Biso   1.000  C
  C1349    1.0000 0.18755  0.07452  0.97011  Biso   1.000  C
  C1350    1.0000 0.18751  0.07452  0.97011  Biso   1.000  C
  C1351    1.0000 0.20968  0.12915  0.95983  Biso   1.000  C
  H1225    1.0000 0.22967  0.22730  0.95613  Biso   1.000  H
  H1226    1.0000 0.22969  0.22735  0.95613  Biso   1.000  H
  H1227    1.0000 0.30622  0.41162  0.98894  Biso   1.000  H
  H1228    1.0000 0.32170  0.40312  0.00713  Biso   1.000  H
  H1229    1.0000 0.32165  0.40312  0.00713  Biso   1.000  H
  H1230    1.0000 0.18275  0.95789  0.94723  Biso   1.000  H
  H1231    1.0000 0.18278  0.95794  0.94723  Biso   1.000  H
  H1232    1.0000 0.23584  0.15240  0.93634  Biso   1.000  H
  H1233    1.0000 0.23587  0.15245  0.93634  Biso   1.000  H
  H1234    1.0000 0.18024  0.08154  0.98093  Biso   1.000  H
  C1352    1.0000 0.45433  0.40806  0.16870  Biso   1.000  C
  C1353    1.0000 0.38462  0.34908  0.16416  Biso   1.000  C
  C1354    1.0000 0.47835  0.46346  0.15558  Biso   1.000  C
  H1235    1.0000 0.45144  0.42746  0.17907  Biso   1.000  H
  H1236    1.0000 0.48756  0.39178  0.16977  Biso   1.000  H
  H1237    1.0000 0.38894  0.32686  0.15436  Biso   1.000  H
  H1238    1.0000 0.36742  0.31467  0.17277  Biso   1.000  H
  C1355    1.0000 0.33261  0.37355  0.16116  Biso   1.000  C
  C1356    1.0000 0.42824  0.48829  0.15266  Biso   1.000  C
  H1239    1.0000 0.48503  0.44446  0.14557  Biso   1.000  H
  H1240    1.0000 0.52316  0.50298  0.15867  Biso   1.000  H
  H1241    1.0000 0.32593  0.39326  0.17107  Biso   1.000  H
  H1242    1.0000 0.28806  0.33428  0.15797  Biso   1.000  H
  C1357    1.0000 0.35872  0.42746  0.14804  Biso   1.000  C
  H1243    1.0000 0.42306  0.50959  0.16257  Biso   1.000  H
  N144     1.0000 0.45191  0.53846  0.13980  Biso   1.000  N
  H1244    1.0000 0.36456  0.40668  0.13807  Biso   1.000  H
  N145     1.0000 0.30744  0.44825  0.14510  Biso   1.000  N
  C1358    1.0000 0.46834  0.59908  0.14331  Biso   1.000  C
  C1359    1.0000 0.28133  0.43709  0.13114  Biso   1.000  C
  C1360    1.0000 0.49883  0.65668  0.13202  Biso   1.000  C
  H1245    1.0000 0.46050  0.60815  0.15386  Biso   1.000  H
  C1361    1.0000 0.23053  0.45424  0.12627  Biso   1.000  C
  H1246    1.0000 0.29631  0.41615  0.12356  Biso   1.000  H
  C1362    1.0000 0.51042  0.64475  0.11649  Biso   1.000  C
  C1363    1.0000 0.51694  0.72058  0.13671  Biso   1.000  C
  C1364    1.0000 0.20362  0.48307  0.13671  Biso   1.000  C
  C1365    1.0000 0.20783  0.44359  0.11045  Biso   1.000  C
  C1366    1.0000 0.53912  0.69877  0.10545  Biso   1.000  C
  H1247    1.0000 0.49901  0.59985  0.11326  Biso   1.000  H
  H1248    1.0000 0.50991  0.72816  0.14747  Biso   1.000  H
  C1367    1.0000 0.54573  0.77629  0.12627  Biso   1.000  C
  C1368    1.0000 0.15784  0.50119  0.13202  Biso   1.000  C
  H1249    1.0000 0.21826  0.49008  0.14747  Biso   1.000  H
  C1369    1.0000 0.15961  0.46085  0.10545  Biso   1.000  C
  H1250    1.0000 0.22554  0.42439  0.10307  Biso   1.000  H
  C1370    1.0000 0.54802  0.68679  0.08879  Biso   1.000  C
  C1371    1.0000 0.55643  0.76425  0.11045  Biso   1.000  C
  C1372    1.0000 0.56292  0.84428  0.13114  Biso   1.000  C
  C1373    1.0000 0.13433  0.48957  0.11649  Biso   1.000  C
  C1374    1.0000 0.13072  0.53165  0.14331  Biso   1.000  C
  C1375    1.0000 0.13873  0.45199  0.08879  Biso   1.000  C
  C1376    1.0000 0.55133  0.67655  0.07550  Biso   1.000  C
  H1251    1.0000 0.57564  0.80117  0.10307  Biso   1.000  H
  H1252    1.0000 0.58383  0.88017  0.12356  Biso   1.000  H
  N146     1.0000 0.55175  0.85918  0.14510  Biso   1.000  N
  H1253    1.0000 0.10085  0.50099  0.11326  Biso   1.000  H
  H1254    1.0000 0.14763  0.53949  0.15386  Biso   1.000  H
  N147     1.0000 0.08653  0.54809  0.13980  Biso   1.000  N
  C1377    1.0000 0.12523  0.44866  0.07550  Biso   1.000  C
  C1378    1.0000 0.55215  0.66329  0.05832  Biso   1.000  C
  C1379    1.0000 0.57254  0.93127  0.14804  Biso   1.000  C
  C1380    1.0000 0.06000  0.57174  0.15266  Biso   1.000  C
  C1381    1.0000 0.11112  0.44784  0.05832  Biso   1.000  C
  C1382    1.0000 0.50224  0.59965  0.05166  Biso   1.000  C
  C1383    1.0000 0.59874  0.71275  0.04839  Biso   1.000  C
  C1384    1.0000 0.51175  0.93997  0.15266  Biso   1.000  C
  C1385    1.0000 0.62643  0.95907  0.16116  Biso   1.000  C
  H1255    1.0000 0.59334  0.95789  0.13807  Biso   1.000  H
  H1256    1.0000 0.08651  0.57697  0.16257  Biso   1.000  H
  C1386    1.0000 0.06874  0.64127  0.14804  Biso   1.000  C
  C1387    1.0000 0.98513  0.52167  0.15558  Biso   1.000  C
  C1388    1.0000 0.09741  0.49776  0.05166  Biso   1.000  C
  C1389    1.0000 0.11403  0.40125  0.04839  Biso   1.000  C
  C1390    1.0000 0.49885  0.58987  0.03537  Biso   1.000  C
  H1257    1.0000 0.47122  0.56386  0.05847  Biso   1.000  H
  H1258    1.0000 0.63383  0.75447  0.05277  Biso   1.000  H
  C1391    1.0000 0.59532  0.70246  0.03163  Biso   1.000  C
  H1259    1.0000 0.49042  0.91345  0.16257  Biso   1.000  H
  N148     1.0000 0.46151  0.91345  0.13980  Biso   1.000  N
  C1392    1.0000 0.53648  0.01487  0.15558  Biso   1.000  C
  H1260    1.0000 0.60670  0.93265  0.17107  Biso   1.000  H
  H1261    1.0000 0.66572  0.95374  0.15797  Biso   1.000  H
  C1393    1.0000 0.65089  0.03556  0.16416  Biso   1.000  C
  C1394    1.0000 0.04096  0.66738  0.16116  Biso   1.000  C
  H1262    1.0000 0.04213  0.63549  0.13807  Biso   1.000  H
  N149     1.0000 0.14082  0.69257  0.14510  Biso   1.000  N
  H1263    1.0000 0.95943  0.51496  0.14557  Biso   1.000  H
  H1264    1.0000 0.97984  0.47687  0.15867  Biso   1.000  H
  C1395    1.0000 0.95373  0.54568  0.16870  Biso   1.000  C
  C1396    1.0000 0.09106  0.50119  0.03537  Biso   1.000  C
  H1265    1.0000 0.09266  0.52879  0.05847  Biso   1.000  H
  H1266    1.0000 0.12066  0.36618  0.05277  Biso   1.000  H
  C1397    1.0000 0.10714  0.40468  0.03163  Biso   1.000  C
  C1398    1.0000 0.54553  0.64235  0.02540  Biso   1.000  C
  H1267    1.0000 0.46485  0.54758  0.03096  Biso   1.000  H
  H1268    1.0000 0.62764  0.73748  0.02487  Biso   1.000  H
  C1399    1.0000 0.40093  0.86926  0.14331  Biso   1.000  C
  H1269    1.0000 0.55549  0.04058  0.14557  Biso   1.000  H
  H1270    1.0000 0.49704  0.02015  0.15867  Biso   1.000  H
  C1400    1.0000 0.59195  0.04626  0.16870  Biso   1.000  C
  H1271    1.0000 0.67311  0.06208  0.15436  Biso   1.000  H
  H1272    1.0000 0.68530  0.05276  0.17277  Biso   1.000  H
  H1273    1.0000 0.06733  0.67409  0.17107  Biso   1.000  H
  H1274    1.0000 0.04623  0.71198  0.15797  Biso   1.000  H
  C1401    1.0000 0.96445  0.61537  0.16416  Biso   1.000  C
  C1402    1.0000 0.15573  0.71869  0.13114  Biso   1.000  C
  H1275    1.0000 0.97604  0.54855  0.17907  Biso   1.000  H
  H1276    1.0000 0.90421  0.51246  0.16977  Biso   1.000  H
  C1403    1.0000 0.09682  0.45445  0.02540  Biso   1.000  C
  H1277    1.0000 0.08274  0.53519  0.03096  Biso   1.000  H
  H1278    1.0000 0.10983  0.37237  0.02487  Biso   1.000  H
  C1404    1.0000 0.53712  0.63226  0.00867  Biso   1.000  C
  C1405    1.0000 0.34336  0.84218  0.13202  Biso   1.000  C
  H1279    1.0000 0.39182  0.85237  0.15386  Biso   1.000  H
  H1280    1.0000 0.57252  0.02399  0.17907  Biso   1.000  H
  H1281    1.0000 0.60823  0.09577  0.16977  Biso   1.000  H
  H1282    1.0000 0.93795  0.61107  0.15436  Biso   1.000  H
  H1283    1.0000 0.94724  0.63257  0.17277  Biso   1.000  H
  C1406    1.0000 0.22374  0.76948  0.12627  Biso   1.000  C
  H1284    1.0000 0.11986  0.70368  0.12356  Biso   1.000  H
  C1407    1.0000 0.09512  0.46284  0.00867  Biso   1.000  C
  C1408    1.0000 0.52551  0.62315  0.99427  Biso   1.000  C
  C1409    1.0000 0.27944  0.79636  0.13671  Biso   1.000  C
  C1410    1.0000 0.35524  0.86568  0.11649  Biso   1.000  C
  C1411    1.0000 0.23575  0.79216  0.11045  Biso   1.000  C
  C1412    1.0000 0.09765  0.47447  0.99427  Biso   1.000  C
  C1413    1.0000 0.50435  0.61567  0.97791  Biso   1.000  C
  H1285    1.0000 0.27183  0.78176  0.14747  Biso   1.000  H
  C1414    1.0000 0.30123  0.84039  0.10545  Biso   1.000  C
  H1286    1.0000 0.40014  0.89916  0.11326  Biso   1.000  H
  H1287    1.0000 0.19882  0.77444  0.10307  Biso   1.000  H
  C1415    1.0000 0.11135  0.49566  0.97791  Biso   1.000  C
  C1416    1.0000 0.45284  0.54937  0.97260  Biso   1.000  C
  C1417    1.0000 0.53232  0.66948  0.96792  Biso   1.000  C
  C1418    1.0000 0.31323  0.86128  0.08879  Biso   1.000  C
  C1419    1.0000 0.09653  0.54717  0.97260  Biso   1.000  C
  C1420    1.0000 0.13712  0.46766  0.96792  Biso   1.000  C
  C1421    1.0000 0.42763  0.54169  0.95733  Biso   1.000  C
  H1288    1.0000 0.43613  0.51107  0.97956  Biso   1.000  H
  C1422    1.0000 0.50634  0.66098  0.95178  Biso   1.000  C
  H1289    1.0000 0.56862  0.71254  0.97137  Biso   1.000  H
  C1423    1.0000 0.32342  0.87474  0.07550  Biso   1.000  C
  C1424    1.0000 0.11405  0.57236  0.95733  Biso   1.000  C
  H1290    1.0000 0.07495  0.56386  0.97956  Biso   1.000  H
  C1425    1.0000 0.15465  0.49366  0.95178  Biso   1.000  C
  H1291    1.0000 0.14394  0.43136  0.97137  Biso   1.000  H
  C1426    1.0000 0.45244  0.59857  0.94657  Biso   1.000  C
  C1427    1.0000 0.37121  0.47354  0.95194  Biso   1.000  C
  C1428    1.0000 0.53503  0.71879  0.94043  Biso   1.000  C
  C1429    1.0000 0.33673  0.88887  0.05832  Biso   1.000  C
  C1430    1.0000 0.14613  0.54758  0.94657  Biso   1.000  C
  C1431    1.0000 0.10236  0.62878  0.95194  Biso   1.000  C
  C1432    1.0000 0.18374  0.46494  0.94043  Biso   1.000  C
  H1292    1.0000 0.43283  0.59386  0.93626  Biso   1.000  H
  N150     1.0000 0.34135  0.46428  0.93869  Biso   1.000  N
  H1293    1.0000 0.35703  0.43525  0.95877  Biso   1.000  H
  H1294    1.0000 0.51804  0.71044  0.92987  Biso   1.000  H
  N151     1.0000 0.58173  0.77956  0.94409  Biso   1.000  N
  C1433    1.0000 0.40033  0.90254  0.05166  Biso   1.000  C
  C1434    1.0000 0.28721  0.88595  0.04839  Biso   1.000  C
  H1295    1.0000 0.16104  0.56719  0.93626  Biso   1.000  H
  H1296    1.0000 0.07823  0.64296  0.95877  Biso   1.000  H
  N152     1.0000 0.12294  0.65868  0.93869  Biso   1.000  N
  H1297    1.0000 0.19244  0.48199  0.92987  Biso   1.000  H
  N153     1.0000 0.19782  0.41825  0.94409  Biso   1.000  N
  C1435    1.0000 0.28856  0.39408  0.93537  Biso   1.000  C
  C1436    1.0000 0.60734  0.82769  0.93118  Biso   1.000  C
  C1437    1.0000 0.41013  0.90894  0.03537  Biso   1.000  C
  H1298    1.0000 0.43612  0.90736  0.05847  Biso   1.000  H
  H1299    1.0000 0.24551  0.87935  0.05277  Biso   1.000  H
  C1438    1.0000 0.29754  0.89287  0.03163  Biso   1.000  C
  C1439    1.0000 0.10552  0.71147  0.93537  Biso   1.000  C
  C1440    1.0000 0.22031  0.39265  0.93118  Biso   1.000  C
  C1441    1.0000 0.31105  0.36449  0.92172  Biso   1.000  C
  H1300    1.0000 0.28105  0.36577  0.94517  Biso   1.000  H
  H1301    1.0000 0.57823  0.80608  0.92157  Biso   1.000  H
  C1442    1.0000 0.67964  0.84617  0.92751  Biso   1.000  C
  C1443    1.0000 0.60592  0.89445  0.93537  Biso   1.000  C
  C1444    1.0000 0.35762  0.90316  0.02540  Biso   1.000  C
  H1302    1.0000 0.45244  0.91729  0.03096  Biso   1.000  H
  H1303    1.0000 0.26253  0.89015  0.02487  Biso   1.000  H
  C1445    1.0000 0.17234  0.77966  0.93118  Biso   1.000  C
  C1446    1.0000 0.05345  0.68899  0.92172  Biso   1.000  C
  H1304    1.0000 0.08474  0.71894  0.94517  Biso   1.000  H
  H1305    1.0000 0.22783  0.42178  0.92157  Biso   1.000  H
  C1447    1.0000 0.16652  0.32035  0.92751  Biso   1.000  C
  C1448    1.0000 0.25771  0.29266  0.91763  Biso   1.000  C
  H1306    1.0000 0.35373  0.36515  0.92477  Biso   1.000  H
  H1307    1.0000 0.32104  0.39377  0.91216  Biso   1.000  H
  H1308    1.0000 0.70792  0.86425  0.93726  Biso   1.000  H
  H1309    1.0000 0.68074  0.80465  0.92417  Biso   1.000  H
  C1449    1.0000 0.71035  0.90085  0.91411  Biso   1.000  C
  C1450    1.0000 0.63553  0.94657  0.92172  Biso   1.000  C
  H1310    1.0000 0.63425  0.91529  0.94517  Biso   1.000  H
  N154     1.0000 0.53572  0.87705  0.93869  Biso   1.000  N
  C1451    1.0000 0.36773  0.90485  0.00867  Biso   1.000  C
  H1311    1.0000 0.19393  0.77219  0.92157  Biso   1.000  H
  C1452    1.0000 0.15385  0.83348  0.92751  Biso   1.000  C
  N155     1.0000 0.22043  0.80214  0.94409  Biso   1.000  N
  C1453    1.0000 0.03496  0.74229  0.91763  Biso   1.000  C
  H1312    1.0000 0.01143  0.64629  0.92477  Biso   1.000  H
  H1313    1.0000 0.07273  0.67896  0.91216  Biso   1.000  H
  H1314    1.0000 0.15631  0.29204  0.93726  Biso   1.000  H
  H1315    1.0000 0.12395  0.31928  0.92417  Biso   1.000  H
  C1454    1.0000 0.19056  0.28969  0.91411  Biso   1.000  C
  H1316    1.0000 0.27254  0.27709  0.90817  Biso   1.000  H
  H1317    1.0000 0.25172  0.26189  0.92667  Biso   1.000  H
  H1318    1.0000 0.68512  0.88037  0.90406  Biso   1.000  H
  H1319    1.0000 0.75864  0.91345  0.91236  Biso   1.000  H
  C1455    1.0000 0.70733  0.96506  0.91763  Biso   1.000  C
  H1320    1.0000 0.63484  0.98856  0.92477  Biso   1.000  H
  H1321    1.0000 0.60623  0.92727  0.91216  Biso   1.000  H
  C1456    1.0000 0.52643  0.89768  0.95194  Biso   1.000  C
  C1457    1.0000 0.37684  0.90239  0.99427  Biso   1.000  C
  H1322    1.0000 0.13575  0.84366  0.93726  Biso   1.000  H
  H1323    1.0000 0.19532  0.87607  0.92417  Biso   1.000  H
  C1458    1.0000 0.09914  0.80946  0.91411  Biso   1.000  C
  C1459    1.0000 0.28124  0.81627  0.94043  Biso   1.000  C
  H1324    1.0000 0.00452  0.72744  0.90817  Biso   1.000  H
  H1325    1.0000 0.01015  0.74828  0.92667  Biso   1.000  H
  H1326    1.0000 0.19526  0.31488  0.90406  Biso   1.000  H
  H1327    1.0000 0.15482  0.24135  0.91236  Biso   1.000  H
  H1328    1.0000 0.72294  0.99547  0.90817  Biso   1.000  H
  H1329    1.0000 0.73815  0.98989  0.92667  Biso   1.000  H
  C1460    1.0000 0.45832  0.88595  0.95733  Biso   1.000  C
  H1330    1.0000 0.56472  0.92174  0.95877  Biso   1.000  H
  C1461    1.0000 0.38434  0.88867  0.97791  Biso   1.000  C
  H1331    1.0000 0.11962  0.80475  0.90406  Biso   1.000  H
  H1332    1.0000 0.08652  0.84515  0.91236  Biso   1.000  H
  C1462    1.0000 0.33901  0.84535  0.95178  Biso   1.000  C
  H1333    1.0000 0.28952  0.80757  0.92987  Biso   1.000  H
  C1463    1.0000 0.45062  0.90346  0.97260  Biso   1.000  C
  C1464    1.0000 0.40143  0.85385  0.94657  Biso   1.000  C
  C1465    1.0000 0.33051  0.86286  0.96792  Biso   1.000  C
  H1334    1.0000 0.48892  0.92507  0.97956  Biso   1.000  H
  H1335    1.0000 0.40613  0.83895  0.93626  Biso   1.000  H
  H1336    1.0000 0.28743  0.85605  0.97137  Biso   1.000  H
  C1466    1.0000 0.54564  0.59192  0.83130  Biso   1.000  C
  C1467    1.0000 0.52166  0.53652  0.84442  Biso   1.000  C
  H1337    1.0000 0.54857  0.57251  0.82093  Biso   1.000  H
  H1338    1.0000 0.51248  0.60825  0.83023  Biso   1.000  H
  C1468    1.0000 0.61537  0.65095  0.83584  Biso   1.000  C
  C1469    1.0000 0.57175  0.51174  0.84734  Biso   1.000  C
  H1339    1.0000 0.51498  0.55551  0.85443  Biso   1.000  H
  H1340    1.0000 0.47687  0.49704  0.84133  Biso   1.000  H
  H1341    1.0000 0.61107  0.67312  0.84564  Biso   1.000  H
  H1342    1.0000 0.63257  0.68536  0.82723  Biso   1.000  H
  C1470    1.0000 0.66736  0.62642  0.83884  Biso   1.000  C
  H1343    1.0000 0.57697  0.49044  0.83743  Biso   1.000  H
  C1471    1.0000 0.64124  0.57251  0.85196  Biso   1.000  C
  N156     1.0000 0.54805  0.46151  0.86020  Biso   1.000  N
  H1344    1.0000 0.67404  0.60671  0.82893  Biso   1.000  H
  H1345    1.0000 0.71198  0.66575  0.84203  Biso   1.000  H
  H1346    1.0000 0.63548  0.59335  0.86193  Biso   1.000  H
  N157     1.0000 0.69257  0.55172  0.85490  Biso   1.000  N
  C1472    1.0000 0.53169  0.40094  0.85669  Biso   1.000  C
  C1473    1.0000 0.71866  0.56294  0.86886  Biso   1.000  C
  C1474    1.0000 0.50116  0.34334  0.86798  Biso   1.000  C
  H1347    1.0000 0.53946  0.39183  0.84614  Biso   1.000  H
  C1475    1.0000 0.76948  0.54573  0.87373  Biso   1.000  C
  H1348    1.0000 0.70365  0.58383  0.87644  Biso   1.000  H
  C1476    1.0000 0.48954  0.35522  0.88351  Biso   1.000  C
  C1477    1.0000 0.48309  0.27945  0.86329  Biso   1.000  C
  C1478    1.0000 0.79634  0.51691  0.86329  Biso   1.000  C
  C1479    1.0000 0.79216  0.55644  0.88955  Biso   1.000  C
  C1480    1.0000 0.46088  0.30126  0.89455  Biso   1.000  C
  H1349    1.0000 0.50095  0.40012  0.88674  Biso   1.000  H
  H1350    1.0000 0.49005  0.27182  0.85253  Biso   1.000  H
  C1481    1.0000 0.45426  0.22374  0.87373  Biso   1.000  C
  C1482    1.0000 0.84216  0.49884  0.86798  Biso   1.000  C
  H1351    1.0000 0.78178  0.50995  0.85253  Biso   1.000  H
  C1483    1.0000 0.84035  0.53913  0.89455  Biso   1.000  C
  H1352    1.0000 0.77445  0.57564  0.89693  Biso   1.000  H
  C1484    1.0000 0.45197  0.31324  0.91121  Biso   1.000  C
  C1485    1.0000 0.44358  0.23572  0.88955  Biso   1.000  C
  C1486    1.0000 0.43707  0.15575  0.86886  Biso   1.000  C
  C1487    1.0000 0.86566  0.51046  0.88351  Biso   1.000  C
  C1488    1.0000 0.86924  0.46832  0.85669  Biso   1.000  C
  C1489    1.0000 0.86126  0.54804  0.91121  Biso   1.000  C
  C1490    1.0000 0.44868  0.32343  0.92450  Biso   1.000  C
  H1353    1.0000 0.42440  0.19886  0.89693  Biso   1.000  H
  H1354    1.0000 0.41620  0.11986  0.87644  Biso   1.000  H
  N158     1.0000 0.44829  0.14085  0.85490  Biso   1.000  N
  H1355    1.0000 0.89919  0.49904  0.88674  Biso   1.000  H
  H1356    1.0000 0.85236  0.46054  0.84614  Biso   1.000  H
  N159     1.0000 0.91346  0.45194  0.86020  Biso   1.000  N
  C1491    1.0000 0.87478  0.55132  0.92450  Biso   1.000  C
  C1492    1.0000 0.44789  0.33674  0.94168  Biso   1.000  C
  C1493    1.0000 0.42747  0.06871  0.85196  Biso   1.000  C
  C1494    1.0000 0.93996  0.42823  0.84734  Biso   1.000  C
  C1495    1.0000 0.88885  0.55213  0.94168  Biso   1.000  C
  C1496    1.0000 0.49777  0.40033  0.94834  Biso   1.000  C
  C1497    1.0000 0.40127  0.28723  0.95161  Biso   1.000  C
  C1498    1.0000 0.48828  0.06006  0.84734  Biso   1.000  C
  C1499    1.0000 0.37353  0.04091  0.83884  Biso   1.000  C
  H1357    1.0000 0.40665  0.04214  0.86193  Biso   1.000  H
  H1358    1.0000 0.91345  0.42301  0.83743  Biso   1.000  H
  C1500    1.0000 0.93129  0.35875  0.85196  Biso   1.000  C
  C1501    1.0000 0.01486  0.47836  0.84442  Biso   1.000  C
  C1502    1.0000 0.90255  0.50222  0.94834  Biso   1.000  C
  C1503    1.0000 0.88598  0.59873  0.95161  Biso   1.000  C
  C1504    1.0000 0.50118  0.41016  0.96463  Biso   1.000  C
  H1359    1.0000 0.52875  0.43612  0.94153  Biso   1.000  H
  H1360    1.0000 0.36616  0.24555  0.94723  Biso   1.000  H
  C1505    1.0000 0.40465  0.29752  0.96837  Biso   1.000  C
  H1361    1.0000 0.50954  0.08653  0.83743  Biso   1.000  H
  N160     1.0000 0.53845  0.08653  0.86020  Biso   1.000  N
  C1506    1.0000 0.46347  0.98515  0.84442  Biso   1.000  C
  H1362    1.0000 0.39326  0.06733  0.82893  Biso   1.000  H
  H1363    1.0000 0.33425  0.04623  0.84203  Biso   1.000  H
  C1507    1.0000 0.34908  0.96442  0.83584  Biso   1.000  C
  C1508    1.0000 0.95908  0.33264  0.83884  Biso   1.000  C
  H1364    1.0000 0.95787  0.36454  0.86193  Biso   1.000  H
  N161     1.0000 0.85918  0.30745  0.85490  Biso   1.000  N
  H1365    1.0000 0.04054  0.48501  0.85443  Biso   1.000  H
  H1366    1.0000 0.02019  0.52316  0.84133  Biso   1.000  H
  C1509    1.0000 0.04626  0.45434  0.83130  Biso   1.000  C
  C1510    1.0000 0.90898  0.49884  0.96463  Biso   1.000  C
  H1367    1.0000 0.90737  0.47124  0.94153  Biso   1.000  H
  H1368    1.0000 0.87938  0.63385  0.94723  Biso   1.000  H
  C1511    1.0000 0.89289  0.59535  0.96837  Biso   1.000  C
  C1512    1.0000 0.45448  0.35763  0.97460  Biso   1.000  C
  H1369    1.0000 0.53519  0.45245  0.96904  Biso   1.000  H
  H1370    1.0000 0.37240  0.26255  0.97513  Biso   1.000  H
  C1513    1.0000 0.59908  0.13071  0.85669  Biso   1.000  C
  H1371    1.0000 0.44450  0.95945  0.85443  Biso   1.000  H
  H1372    1.0000 0.50302  0.97983  0.84133  Biso   1.000  H
  C1514    1.0000 0.40811  0.95372  0.83130  Biso   1.000  C
  H1373    1.0000 0.32689  0.93795  0.84564  Biso   1.000  H
  H1374    1.0000 0.31467  0.94721  0.82723  Biso   1.000  H
  H1375    1.0000 0.93267  0.32594  0.82893  Biso   1.000  H
  H1376    1.0000 0.95376  0.28805  0.84203  Biso   1.000  H
  C1515    1.0000 0.03556  0.38461  0.83584  Biso   1.000  C
  C1516    1.0000 0.84426  0.28134  0.86886  Biso   1.000  C
  H1377    1.0000 0.02397  0.45143  0.82093  Biso   1.000  H
  H1378    1.0000 0.09575  0.48752  0.83023  Biso   1.000  H
  C1517    1.0000 0.90315  0.54553  0.97460  Biso   1.000  C
  H1379    1.0000 0.91725  0.46484  0.96904  Biso   1.000  H
  H1380    1.0000 0.89016  0.62765  0.97513  Biso   1.000  H
  C1518    1.0000 0.46284  0.36771  0.99133  Biso   1.000  C
  C1519    1.0000 0.65667  0.15785  0.86798  Biso   1.000  C
  H1381    1.0000 0.60815  0.14761  0.84614  Biso   1.000  H
  H1382    1.0000 0.42752  0.97604  0.82093  Biso   1.000  H
  H1383    1.0000 0.39176  0.90426  0.83023  Biso   1.000  H
  H1384    1.0000 0.06206  0.38891  0.84564  Biso   1.000  H
  H1385    1.0000 0.05279  0.36746  0.82723  Biso   1.000  H
  C1520    1.0000 0.77630  0.23055  0.87373  Biso   1.000  C
  H1386    1.0000 0.88018  0.29634  0.87644  Biso   1.000  H
  C1521    1.0000 0.90485  0.53713  0.99133  Biso   1.000  C
  C1522    1.0000 0.47445  0.37683  0.00573  Biso   1.000  C
  C1523    1.0000 0.64479  0.13435  0.88351  Biso   1.000  C
  C1524    1.0000 0.72057  0.20362  0.86329  Biso   1.000  C
  C1525    1.0000 0.76426  0.20782  0.88955  Biso   1.000  C
  C1526    1.0000 0.90236  0.52551  0.00573  Biso   1.000  C
  C1527    1.0000 0.49568  0.38435  0.02209  Biso   1.000  C
  C1528    1.0000 0.69876  0.15964  0.89455  Biso   1.000  C
  H1387    1.0000 0.59987  0.10081  0.88674  Biso   1.000  H
  H1388    1.0000 0.72814  0.21821  0.85253  Biso   1.000  H
  H1389    1.0000 0.80115  0.22553  0.89693  Biso   1.000  H
  C1529    1.0000 0.88866  0.50431  0.02209  Biso   1.000  C
  C1530    1.0000 0.54719  0.45066  0.02740  Biso   1.000  C
  C1531    1.0000 0.46767  0.33054  0.03208  Biso   1.000  C
  C1532    1.0000 0.68677  0.13875  0.91121  Biso   1.000  C
  C1533    1.0000 0.90350  0.45286  0.02740  Biso   1.000  C
  C1534    1.0000 0.86284  0.53232  0.03208  Biso   1.000  C
  C1535    1.0000 0.57236  0.45834  0.04267  Biso   1.000  C
  H1390    1.0000 0.56386  0.48895  0.02044  Biso   1.000  H
  C1536    1.0000 0.49369  0.33904  0.04822  Biso   1.000  C
  H1391    1.0000 0.43135  0.28743  0.02863  Biso   1.000  H
  C1537    1.0000 0.67655  0.12523  0.92450  Biso   1.000  C
  C1538    1.0000 0.88596  0.42762  0.04267  Biso   1.000  C
  H1392    1.0000 0.92506  0.43612  0.02044  Biso   1.000  H
  C1539    1.0000 0.84536  0.50631  0.04822  Biso   1.000  C
  H1393    1.0000 0.85607  0.56862  0.02863  Biso   1.000  H
  C1540    1.0000 0.54760  0.40145  0.05343  Biso   1.000  C
  C1541    1.0000 0.62876  0.52643  0.04806  Biso   1.000  C
  C1542    1.0000 0.46497  0.28124  0.05957  Biso   1.000  C
  C1543    1.0000 0.66326  0.11115  0.94168  Biso   1.000  C
  C1544    1.0000 0.85386  0.45245  0.05343  Biso   1.000  C
  C1545    1.0000 0.89768  0.37125  0.04806  Biso   1.000  C
  C1546    1.0000 0.81627  0.53503  0.05957  Biso   1.000  C
  H1394    1.0000 0.56718  0.40611  0.06374  Biso   1.000  H
  N162     1.0000 0.65869  0.53575  0.06131  Biso   1.000  N
  H1395    1.0000 0.64298  0.56473  0.04123  Biso   1.000  H
  H1396    1.0000 0.48197  0.28953  0.07013  Biso   1.000  H
  N163     1.0000 0.41824  0.22041  0.05591  Biso   1.000  N
  C1547    1.0000 0.59969  0.09743  0.94834  Biso   1.000  C
  C1548    1.0000 0.71275  0.11402  0.95161  Biso   1.000  C
  H1397    1.0000 0.83895  0.43284  0.06374  Biso   1.000  H
  H1398    1.0000 0.92178  0.35701  0.04123  Biso   1.000  H
  N164     1.0000 0.87705  0.34135  0.06131  Biso   1.000  N
  H1399    1.0000 0.80755  0.51804  0.07013  Biso   1.000  H
  N165     1.0000 0.80215  0.58173  0.05591  Biso   1.000  N
  C1549    1.0000 0.71148  0.60595  0.06463  Biso   1.000  C
  C1550    1.0000 0.39265  0.17234  0.06882  Biso   1.000  C
  C1551    1.0000 0.58988  0.09103  0.96463  Biso   1.000  C
  H1400    1.0000 0.56385  0.09262  0.94153  Biso   1.000  H
  H1401    1.0000 0.75446  0.12063  0.94723  Biso   1.000  H
  C1552    1.0000 0.70247  0.10711  0.96837  Biso   1.000  C
  C1553    1.0000 0.89444  0.28851  0.06463  Biso   1.000  C
  C1554    1.0000 0.77965  0.60733  0.06882  Biso   1.000  C
  C1555    1.0000 0.68898  0.63554  0.07828  Biso   1.000  C
  H1402    1.0000 0.71898  0.63426  0.05483  Biso   1.000  H
  H1403    1.0000 0.42176  0.19394  0.07843  Biso   1.000  H
  C1556    1.0000 0.32040  0.15385  0.07249  Biso   1.000  C
  C1557    1.0000 0.39405  0.10552  0.06463  Biso   1.000  C
  C1558    1.0000 0.64234  0.09682  0.97460  Biso   1.000  C
  H1404    1.0000 0.54755  0.08274  0.96904  Biso   1.000  H
  H1405    1.0000 0.73748  0.10982  0.97513  Biso   1.000  H
  C1559    1.0000 0.82767  0.22031  0.06882  Biso   1.000  C
  C1560    1.0000 0.94659  0.31104  0.07828  Biso   1.000  C
  H1406    1.0000 0.91527  0.28103  0.05483  Biso   1.000  H
  H1407    1.0000 0.77216  0.57825  0.07843  Biso   1.000  H
  C1561    1.0000 0.83345  0.67962  0.07249  Biso   1.000  C
  C1562    1.0000 0.74226  0.70732  0.08237  Biso   1.000  C
  H1408    1.0000 0.64628  0.63482  0.07523  Biso   1.000  H
  H1409    1.0000 0.67900  0.60625  0.08784  Biso   1.000  H
  H1410    1.0000 0.29205  0.13573  0.06274  Biso   1.000  H
  H1411    1.0000 0.31927  0.19533  0.07583  Biso   1.000  H
  C1563    1.0000 0.28966  0.09912  0.08589  Biso   1.000  C
  C1564    1.0000 0.36446  0.05345  0.07828  Biso   1.000  C
  H1412    1.0000 0.36578  0.08474  0.05483  Biso   1.000  H
  N166     1.0000 0.46425  0.12293  0.06131  Biso   1.000  N
  C1565    1.0000 0.63228  0.09513  0.99133  Biso   1.000  C
  H1413    1.0000 0.80607  0.22784  0.07843  Biso   1.000  H
  C1566    1.0000 0.84619  0.16655  0.07249  Biso   1.000  C
  N167     1.0000 0.77958  0.19783  0.05591  Biso   1.000  N
  C1567    1.0000 0.96508  0.25774  0.08237  Biso   1.000  C
  H1414    1.0000 0.98856  0.35374  0.07523  Biso   1.000  H
  H1415    1.0000 0.92728  0.32102  0.08784  Biso   1.000  H
  H1416    1.0000 0.84366  0.70793  0.06274  Biso   1.000  H
  H1417    1.0000 0.87609  0.68075  0.07583  Biso   1.000  H
  C1568    1.0000 0.80948  0.71034  0.08589  Biso   1.000  C
  H1418    1.0000 0.72745  0.72294  0.09183  Biso   1.000  H
  H1419    1.0000 0.74827  0.73814  0.07333  Biso   1.000  H
  H1420    1.0000 0.31487  0.11965  0.09594  Biso   1.000  H
  H1421    1.0000 0.24137  0.08653  0.08764  Biso   1.000  H
  C1569    1.0000 0.29268  0.03492  0.08237  Biso   1.000  C
  H1422    1.0000 0.36517  0.01142  0.07523  Biso   1.000  H
  H1423    1.0000 0.39376  0.07275  0.08784  Biso   1.000  H
  C1570    1.0000 0.47356  0.10235  0.04806  Biso   1.000  C
  C1571    1.0000 0.62315  0.09764  0.00573  Biso   1.000  C
  H1424    1.0000 0.86426  0.15631  0.06274  Biso   1.000  H
  H1425    1.0000 0.80467  0.12395  0.07583  Biso   1.000  H
  C1572    1.0000 0.90087  0.19051  0.08589  Biso   1.000  C
  C1573    1.0000 0.71876  0.18375  0.05957  Biso   1.000  C
  H1426    1.0000 0.99549  0.27253  0.09183  Biso   1.000  H
  H1427    1.0000 0.98988  0.25175  0.07333  Biso   1.000  H
  H1428    1.0000 0.80478  0.68515  0.09594  Biso   1.000  H
  H1429    1.0000 0.84515  0.75862  0.08764  Biso   1.000  H
  H1430    1.0000 0.27710  0.00456  0.09183  Biso   1.000  H
  H1431    1.0000 0.26189  0.01014  0.07333  Biso   1.000  H
  C1574    1.0000 0.54165  0.11402  0.04267  Biso   1.000  C
  H1432    1.0000 0.43525  0.07823  0.04123  Biso   1.000  H
  C1575    1.0000 0.61569  0.11136  0.02209  Biso   1.000  C
  H1433    1.0000 0.88035  0.19522  0.09594  Biso   1.000  H
  H1434    1.0000 0.91344  0.15483  0.08764  Biso   1.000  H
  C1576    1.0000 0.66096  0.15462  0.04822  Biso   1.000  C
  H1435    1.0000 0.71047  0.19246  0.07013  Biso   1.000  H
  C1577    1.0000 0.59858  0.14612  0.05343  Biso   1.000  C
  C1578    1.0000 0.54934  0.09651  0.02740  Biso   1.000  C
  C1579    1.0000 0.66945  0.13711  0.03208  Biso   1.000  C
  H1436    1.0000 0.59388  0.16102  0.06374  Biso   1.000  H
  H1437    1.0000 0.51107  0.07496  0.02044  Biso   1.000  H
  H1438    1.0000 0.71254  0.14392  0.02863  Biso   1.000  H
  Ne1      1.0000 0.33333  0.66667  0.29164  Biso   1.000  Ne
  He1      1.0000 0.33334  0.66668  0.38843  Biso   1.000  He
  He2      1.0000 0.39435  0.65284  0.32920  Biso   1.000  He
  He3      1.0000 0.35729  0.81083  0.32348  Biso   1.000  He
  He4      1.0000 0.18325  0.54232  0.32350  Biso   1.000  He
  He5      1.0000 0.33333  0.66667  0.19541  Biso   1.000  He
  Ar1      1.0000 0.33334  0.66670  0.29164  Biso   1.000  Ar
  Ne2      1.0000 0.66667  0.33333  0.20870  Biso   1.000  Ne
  He6      1.0000 0.66666  0.33332  0.30540  Biso   1.000  He
  He7      1.0000 0.53647  0.31526  0.24063  Biso   1.000  He
  He8      1.0000 0.68582  0.22737  0.24112  Biso   1.000  He
  He9      1.0000 0.80493  0.48557  0.23864  Biso   1.000  He
  He10     1.0000 0.66667  0.33333  0.11123  Biso   1.000  He
  Ar2      1.0000 0.66666  0.33332  0.21090  Biso   1.000  Ar
  Ne3      1.0000 0.33333  0.66667  0.04170  Biso   1.000  Ne
  He11     1.0000 0.33334  0.66666  0.13874  Biso   1.000  He
  He12     1.0000 0.20402  0.69367  0.00977  Biso   1.000  He
  He13     1.0000 0.39330  0.18985  0.06977  Biso   1.000  He
  He14     1.0000 0.48464  0.79186  0.00983  Biso   1.000  He
  He15     1.0000 0.33333  0.66666  0.94500  Biso   1.000  He
  Ar3      1.0000 0.33344  0.66651  0.03983  Biso   1.000  Ar
  Ne4      1.0000 0.00025  0.00633  0.12266  Biso   1.000  Ne
  He16     1.0000 0.99999  0.99998  0.22174  Biso   1.000  He
  He17     1.0000 0.97981  0.10001  0.09173  Biso   1.000  He
  He18     1.0000 0.12263  0.01965  0.09197  Biso   1.000  He
  He19     1.0000 0.90254  0.88312  0.09222  Biso   1.000  He
  He20     1.0000 0.99999  0.99997  0.02829  Biso   1.000  He
  Ar4      1.0000 0.99999  0.99998  0.12241  Biso   1.000  Ar
  Ne5      1.0000 0.66667  0.33333  0.45797  Biso   1.000  Ne
  He21     1.0000 0.66666  0.33334  0.55506  Biso   1.000  He
  He22     1.0000 0.64647  0.43339  0.42507  Biso   1.000  He
  He23     1.0000 0.56920  0.21646  0.42555  Biso   1.000  He
  He24     1.0000 0.78930  0.35301  0.42530  Biso   1.000  He
  He25     1.0000 0.66668  0.33334  0.36161  Biso   1.000  He
  Ar5      1.0000 0.66668  0.33335  0.45576  Biso   1.000  Ar
  Ne6      1.0000 0.99750  0.00683  0.37329  Biso   1.000  Ne
  He26     1.0000 0.99995  0.99995  0.47207  Biso   1.000  He
  He27     1.0000 0.15136  0.12522  0.34316  Biso   1.000  He
  He28     1.0000 0.87060  0.02697  0.34310  Biso   1.000  He
  He29     1.0000 0.00000  0.00000  0.00000  Biso   1.000  He
  He30     1.0000 0.99999  0.99998  0.27834  Biso   1.000  He
  Ar6      1.0000 1.00000  0.00001  0.37310  Biso   1.000  Ar
  Ne7      1.0000 0.33333  0.66667  0.54203  Biso   1.000  Ne
  He31     1.0000 0.33335  0.66670  0.63873  Biso   1.000  He
  He32     1.0000 0.20313  0.64856  0.57398  Biso   1.000  He
  He33     1.0000 0.35254  0.56082  0.57448  Biso   1.000  He
  He34     1.0000 0.71832  0.04014  0.50989  Biso   1.000  He
  He35     1.0000 0.33334  0.66669  0.44457  Biso   1.000  He
  Ar7      1.0000 0.33334  0.66667  0.54203  Biso   1.000  Ar
  Ne8      1.0000 0.00991  0.01094  0.62034  Biso   1.000  Ne
  He36     1.0000 0.99999  0.00000  0.72175  Biso   1.000  He
  He37     1.0000 0.02395  0.14418  0.65681  Biso   1.000  He
  He38     1.0000 0.06111  0.98618  0.66249  Biso   1.000  He
  He39     1.0000 0.84268  0.86980  0.65691  Biso   1.000  He
  He40     1.0000 0.00000  0.99998  0.52874  Biso   1.000  He
  Ar8      1.0000 0.99984  0.99990  0.62104  Biso   1.000  Ar
  Ne9      1.0000 0.66667  0.33333  0.70836  Biso   1.000  Ne
  He41     1.0000 0.66666  0.33336  0.80541  Biso   1.000  He
  He42     1.0000 0.53732  0.36033  0.67643  Biso   1.000  He
  He43     1.0000 0.00000  0.00000  0.00000  Biso   1.000  He
  He44     1.0000 0.81800  0.45855  0.67649  Biso   1.000  He
  He45     1.0000 0.66667  0.33335  0.61166  Biso   1.000  He
  Ar9      1.0000 0.66667  0.33335  0.70649  Biso   1.000  Ar
  Ne10     1.0000 0.33333  0.66667  0.79130  Biso   1.000  Ne
  He46     1.0000 0.33332  0.66664  0.88840  Biso   1.000  He
  He47     1.0000 0.31312  0.76667  0.75839  Biso   1.000  He
  He48     1.0000 0.23585  0.54979  0.75889  Biso   1.000  He
  He49     1.0000 0.45600  0.68636  0.75863  Biso   1.000  He
  He50     1.0000 0.33332  0.66663  0.69495  Biso   1.000  He
  Ar10     1.0000 0.33333  0.66666  0.79130  Biso   1.000  Ar
  Ne11     1.0000 0.99744  0.00422  0.87193  Biso   1.000  Ne
  He51     1.0000 0.99997  0.99996  0.97206  Biso   1.000  He
  He52     1.0000 0.88063  0.97995  0.90816  Biso   1.000  He
  He53     1.0000 0.01559  0.87347  0.90614  Biso   1.000  He
  He54     1.0000 0.09040  0.10744  0.90633  Biso   1.000  He
  He55     1.0000 0.00001  0.00001  0.77789  Biso   1.000  He
  Ar11     1.0000 0.00028  0.00024  0.87255  Biso   1.000  Ar
  Ne12     1.0000 0.66667  0.33333  0.95830  Biso   1.000  Ne
  He56     1.0000 0.66667  0.33332  0.05509  Biso   1.000  He
  He57     1.0000 0.72777  0.31950  0.99583  Biso   1.000  He
  He58     1.0000 0.69063  0.47751  0.99014  Biso   1.000  He
  He59     1.0000 0.51657  0.20899  0.99017  Biso   1.000  He
  He60     1.0000 0.66667  0.33331  0.86207  Biso   1.000  He
  Ar12     1.0000 0.66666  0.33332  0.95830  Biso   1.000  Ar
