data_image0
_cell_length_a       22.729
_cell_length_b       22.729
_cell_length_c       31.814
_cell_angle_alpha    90
_cell_angle_beta     90
_cell_angle_gamma    120

_symmetry_space_group_name_H-M    "P 1"
_symmetry_int_tables_number       1

loop_
  _symmetry_equiv_pos_as_xyz
  'x, y, z'

loop_
  _atom_site_label
  _atom_site_occupancy
  _atom_site_fract_x
  _atom_site_fract_y
  _atom_site_fract_z
  _atom_site_thermal_displace_type
  _atom_site_B_iso_or_equiv
  _atom_site_type_symbol
  C1       1.0000 0.18292  0.55009  0.51590  Biso   1.000  C
  C2       1.0000 0.22653  0.52591  0.50471  Biso   1.000  C
  H1       1.0000 0.16709  0.56772  0.49519  Biso   1.000  H
  C3       1.0000 0.16290  0.54842  0.55746  Biso   1.000  C
  C4       1.0000 0.24598  0.52469  0.46005  Biso   1.000  C
  C5       1.0000 0.25027  0.50168  0.53612  Biso   1.000  C
  C6       1.0000 0.18801  0.52490  0.58867  Biso   1.000  C
  C7       1.0000 0.11571  0.57362  0.56830  Biso   1.000  C
  C8       1.0000 0.27372  0.48522  0.44826  Biso   1.000  C
  C9       1.0000 0.23961  0.56229  0.42899  Biso   1.000  C
  C10      1.0000 0.23079  0.50021  0.57776  Biso   1.000  C
  H2       1.0000 0.28000  0.48608  0.52939  Biso   1.000  H
  H3       1.0000 0.17649  0.52571  0.61662  Biso   1.000  H
  H4       1.0000 0.09970  0.58992  0.54690  Biso   1.000  H
  N1       1.0000 0.09660  0.57351  0.60555  Biso   1.000  N
  C11      1.0000 0.29250  0.48319  0.40708  Biso   1.000  C
  H5       1.0000 0.27990  0.45931  0.46850  Biso   1.000  H
  C12      1.0000 0.25628  0.55858  0.38747  Biso   1.000  C
  H6       1.0000 0.22351  0.59150  0.43581  Biso   1.000  H
  C13      1.0000 0.26100  0.47511  0.60979  Biso   1.000  C
  C14      1.0000 0.05570  0.60618  0.61231  Biso   1.000  C
  C15      1.0000 0.28311  0.51809  0.37578  Biso   1.000  C
  H7       1.0000 0.31223  0.45692  0.40070  Biso   1.000  H
  H8       1.0000 0.24939  0.58378  0.36710  Biso   1.000  H
  N2       1.0000 0.28550  0.43909  0.59904  Biso   1.000  N
  H9       1.0000 0.26158  0.48639  0.63790  Biso   1.000  H
  C16      1.0000 0.10001  0.67720  0.63007  Biso   1.000  C
  H10      1.0000 0.03800  0.61030  0.58499  Biso   1.000  H
  C17      1.0000 0.99609  0.56432  0.64120  Biso   1.000  C
  C18      1.0000 0.29897  0.51408  0.33080  Biso   1.000  C
  C19      1.0000 0.32279  0.42278  0.63007  Biso   1.000  C
  N3       1.0000 0.15359  0.71449  0.59904  Biso   1.000  N
  H11      1.0000 0.12060  0.67421  0.65650  Biso   1.000  H
  C20      1.0000 0.06021  0.71261  0.63790  Biso   1.000  C
  H12      1.0000 0.01241  0.55629  0.66750  Biso   1.000  H
  C21      1.0000 0.95602  0.60120  0.64981  Biso   1.000  C
  H13      1.0000 0.96621  0.52048  0.62831  Biso   1.000  H
  C22      1.0000 0.36441  0.53181  0.31800  Biso   1.000  C
  C23      1.0000 0.24948  0.49589  0.30075  Biso   1.000  C
  H14      1.0000 0.32580  0.44641  0.65650  Biso   1.000  H
  C24      1.0000 0.28740  0.34759  0.63790  Biso   1.000  C
  C25      1.0000 0.39379  0.44950  0.61231  Biso   1.000  C
  C26      1.0000 0.21409  0.73898  0.60979  Biso   1.000  C
  H15      1.0000 0.08952  0.75671  0.65050  Biso   1.000  H
  H16      1.0000 0.04359  0.71967  0.61140  Biso   1.000  H
  C27      1.0000 0.00042  0.67090  0.66700  Biso   1.000  C
  H17      1.0000 0.91990  0.57489  0.66971  Biso   1.000  H
  H18      1.0000 0.93540  0.60440  0.62391  Biso   1.000  H
  C28      1.0000 0.37889  0.53120  0.27557  Biso   1.000  C
  H19      1.0000 0.39849  0.54400  0.33790  Biso   1.000  H
  C29      1.0000 0.26262  0.49401  0.25838  Biso   1.000  C
  H20      1.0000 0.20582  0.48451  0.30911  Biso   1.000  H
  H21      1.0000 0.24331  0.33281  0.65050  Biso   1.000  H
  H22      1.0000 0.28031  0.32392  0.61140  Biso   1.000  H
  C30      1.0000 0.32913  0.32951  0.66700  Biso   1.000  C
  N4       1.0000 0.42650  0.52312  0.60555  Biso   1.000  N
  C31      1.0000 0.43572  0.43183  0.64120  Biso   1.000  C
  H23      1.0000 0.38971  0.42771  0.58499  Biso   1.000  H
  C32      1.0000 0.26942  0.76921  0.57776  Biso   1.000  C
  H24      1.0000 0.22481  0.73842  0.63790  Biso   1.000  H
  H25      1.0000 0.01721  0.66770  0.69451  Biso   1.000  H
  H26      1.0000 0.97410  0.69351  0.67040  Biso   1.000  H
  C33      1.0000 0.32899  0.51499  0.24609  Biso   1.000  C
  C34      1.0000 0.45019  0.55589  0.26209  Biso   1.000  C
  C35      1.0000 0.20901  0.47460  0.22738  Biso   1.000  C
  H27      1.0000 0.30651  0.28058  0.67040  Biso   1.000  H
  H28      1.0000 0.33231  0.34952  0.69451  Biso   1.000  H
  C36      1.0000 0.39880  0.35481  0.64981  Biso   1.000  C
  C37      1.0000 0.42641  0.54212  0.56830  Biso   1.000  C
  H29      1.0000 0.47948  0.44569  0.62831  Biso   1.000  H
  H30      1.0000 0.44373  0.45611  0.66750  Biso   1.000  H
  C38      1.0000 0.25140  0.74970  0.53612  Biso   1.000  C
  C39      1.0000 0.33687  0.81198  0.58867  Biso   1.000  C
  H31      1.0000 0.33969  0.51809  0.21770  Biso   1.000  H
  N5       1.0000 0.46681  0.56229  0.22418  Biso   1.000  N
  H32      1.0000 0.48342  0.56691  0.28249  Biso   1.000  H
  N6       1.0000 0.14700  0.44508  0.23691  Biso   1.000  N
  H33      1.0000 0.22109  0.48451  0.19919  Biso   1.000  H
  H34      1.0000 0.42509  0.34500  0.66971  Biso   1.000  H
  H35      1.0000 0.39559  0.33098  0.62391  Biso   1.000  H
  C40      1.0000 0.45161  0.61451  0.55746  Biso   1.000  C
  H36      1.0000 0.41012  0.50981  0.54690  Biso   1.000  H
  C41      1.0000 0.29940  0.77348  0.50471  Biso   1.000  C
  H37      1.0000 0.20609  0.71998  0.52939  Biso   1.000  H
  C42      1.0000 0.38550  0.83708  0.55746  Biso   1.000  C
  H38      1.0000 0.34919  0.82352  0.61662  Biso   1.000  H
  C43      1.0000 0.54013  0.59312  0.21541  Biso   1.000  C
  C44      1.0000 0.09820  0.43091  0.20337  Biso   1.000  C
  C45      1.0000 0.44989  0.63280  0.51590  Biso   1.000  C
  C46      1.0000 0.47510  0.66308  0.58867  Biso   1.000  C
  C47      1.0000 0.27872  0.75402  0.46005  Biso   1.000  C
  C48      1.0000 0.36720  0.81711  0.51590  Biso   1.000  C
  C49      1.0000 0.45789  0.88428  0.56830  Biso   1.000  C
  H39      1.0000 0.56310  0.59058  0.24081  Biso   1.000  H
  C50      1.0000 0.55301  0.55589  0.17980  Biso   1.000  C
  C51      1.0000 0.56912  0.66730  0.20337  Biso   1.000  C
  C52      1.0000 0.05301  0.45992  0.21541  Biso   1.000  C
  C53      1.0000 0.05701  0.35582  0.19501  Biso   1.000  C
  H40      1.0000 0.12311  0.45362  0.17769  Biso   1.000  H
  C54      1.0000 0.47412  0.70062  0.50471  Biso   1.000  C
  H41      1.0000 0.43232  0.59942  0.49519  Biso   1.000  H
  C55      1.0000 0.49980  0.73060  0.57776  Biso   1.000  C
  H42      1.0000 0.47428  0.65079  0.61662  Biso   1.000  H
  C56      1.0000 0.21148  0.72628  0.44826  Biso   1.000  C
  C57      1.0000 0.32271  0.76042  0.42899  Biso   1.000  C
  H43      1.0000 0.40062  0.83291  0.49519  Biso   1.000  H
  N7       1.0000 0.47690  0.90338  0.60555  Biso   1.000  N
  H44      1.0000 0.49018  0.90028  0.54690  Biso   1.000  H
  H45      1.0000 0.53661  0.50910  0.18790  Biso   1.000  H
  H46      1.0000 0.52851  0.55599  0.15490  Biso   1.000  H
  C58      1.0000 0.62910  0.59069  0.17011  Biso   1.000  C
  N8       1.0000 0.55492  0.70189  0.23691  Biso   1.000  N
  C59      1.0000 0.64418  0.70118  0.19501  Biso   1.000  C
  H47      1.0000 0.54641  0.66948  0.17769  Biso   1.000  H
  N9       1.0000 0.09549  0.53318  0.22418  Biso   1.000  N
  H48      1.0000 0.02751  0.43691  0.24081  Biso   1.000  H
  C60      1.0000 0.00291  0.44702  0.17980  Biso   1.000  C
  C61      1.0000 0.00599  0.34170  0.16009  Biso   1.000  C
  H49      1.0000 0.08709  0.33891  0.18690  Biso   1.000  H
  H50      1.0000 0.03342  0.33240  0.22041  Biso   1.000  H
  C62      1.0000 0.47531  0.72130  0.46005  Biso   1.000  C
  C63      1.0000 0.49827  0.74858  0.53612  Biso   1.000  C
  C64      1.0000 0.52491  0.78592  0.60979  Biso   1.000  C
  C65      1.0000 0.19069  0.70748  0.40708  Biso   1.000  C
  H51      1.0000 0.17939  0.72008  0.46850  Biso   1.000  H
  C66      1.0000 0.30229  0.74370  0.38747  Biso   1.000  C
  H52      1.0000 0.36802  0.77652  0.43581  Biso   1.000  H
  C67      1.0000 0.55050  0.94427  0.61231  Biso   1.000  C
  H53      1.0000 0.63619  0.56808  0.14629  Biso   1.000  H
  H54      1.0000 0.65272  0.58601  0.19410  Biso   1.000  H
  C68      1.0000 0.65830  0.66430  0.16009  Biso   1.000  C
  C69      1.0000 0.52542  0.73441  0.22738  Biso   1.000  C
  H55      1.0000 0.66108  0.74818  0.18690  Biso   1.000  H
  H56      1.0000 0.66757  0.70098  0.22041  Biso   1.000  H
  C70      1.0000 0.10568  0.54979  0.26209  Biso   1.000  C
  H57      1.0000 0.02751  0.47150  0.15490  Biso   1.000  H
  H58      1.0000 0.97253  0.46342  0.18790  Biso   1.000  H
  C71      1.0000 0.96160  0.37091  0.17011  Biso   1.000  C
  H59      1.0000 0.03000  0.36111  0.13409  Biso   1.000  H
  H60      1.0000 0.97798  0.29298  0.15619  Biso   1.000  H
  C72      1.0000 0.51481  0.78851  0.44826  Biso   1.000  C
  C73      1.0000 0.43769  0.67731  0.42899  Biso   1.000  C
  H61      1.0000 0.51389  0.79390  0.52939  Biso   1.000  H
  N10      1.0000 0.56090  0.84638  0.59904  Biso   1.000  N
  H62      1.0000 0.51361  0.77520  0.63790  Biso   1.000  H
  C74      1.0000 0.23499  0.71688  0.37578  Biso   1.000  C
  H63      1.0000 0.14469  0.68782  0.40070  Biso   1.000  H
  H64      1.0000 0.33439  0.75061  0.36710  Biso   1.000  H
  C75      1.0000 0.57721  0.90003  0.63007  Biso   1.000  C
  H65      1.0000 0.57230  0.96200  0.58499  Biso   1.000  H
  C76      1.0000 0.56822  0.00392  0.64120  Biso   1.000  C
  H66      1.0000 0.70700  0.68498  0.15619  Biso   1.000  H
  H67      1.0000 0.63892  0.66892  0.13409  Biso   1.000  H
  H68      1.0000 0.51551  0.73659  0.19919  Biso   1.000  H
  C77      1.0000 0.50599  0.76860  0.25838  Biso   1.000  C
  C78      1.0000 0.15230  0.62112  0.27557  Biso   1.000  C
  H69      1.0000 0.08351  0.51662  0.28249  Biso   1.000  H
  H70      1.0000 0.93191  0.36380  0.14629  Biso   1.000  H
  H71      1.0000 0.93329  0.34729  0.19410  Biso   1.000  H
  C79      1.0000 0.51679  0.80929  0.40708  Biso   1.000  C
  H72      1.0000 0.54072  0.82062  0.46850  Biso   1.000  H
  C80      1.0000 0.44141  0.69768  0.38747  Biso   1.000  C
  H73      1.0000 0.40848  0.63199  0.43581  Biso   1.000  H
  C81      1.0000 0.21507  0.70098  0.33080  Biso   1.000  C
  H74      1.0000 0.55361  0.87940  0.65650  Biso   1.000  H
  C82      1.0000 0.65240  0.93980  0.63790  Biso   1.000  C
  H75      1.0000 0.54392  0.98761  0.66750  Biso   1.000  H
  C83      1.0000 0.64519  0.04400  0.64981  Biso   1.000  C
  H76      1.0000 0.55429  0.03379  0.62831  Biso   1.000  H
  C84      1.0000 0.48501  0.81402  0.24609  Biso   1.000  C
  C85      1.0000 0.50409  0.75361  0.30075  Biso   1.000  C
  C86      1.0000 0.16742  0.63560  0.31800  Biso   1.000  C
  C87      1.0000 0.18600  0.67101  0.24609  Biso   1.000  C
  C88      1.0000 0.48188  0.76499  0.37578  Biso   1.000  C
  H77      1.0000 0.54311  0.85532  0.40070  Biso   1.000  H
  H78      1.0000 0.41623  0.66562  0.36710  Biso   1.000  H
  C89      1.0000 0.24639  0.75051  0.30075  Biso   1.000  C
  H79      1.0000 0.66718  0.91049  0.65050  Biso   1.000  H
  H80      1.0000 0.67611  0.95642  0.61140  Biso   1.000  H
  C90      1.0000 0.67051  0.99960  0.66700  Biso   1.000  C
  H81      1.0000 0.65498  0.08012  0.66971  Biso   1.000  H
  H82      1.0000 0.66899  0.06458  0.62391  Biso   1.000  H
  C91      1.0000 0.46881  0.84770  0.27557  Biso   1.000  C
  H83      1.0000 0.48189  0.82159  0.21770  Biso   1.000  H
  C92      1.0000 0.48590  0.78491  0.33080  Biso   1.000  C
  H84      1.0000 0.51552  0.72130  0.30911  Biso   1.000  H
  H85      1.0000 0.14549  0.60151  0.33790  Biso   1.000  H
  H86      1.0000 0.17840  0.66029  0.21770  Biso   1.000  H
  C93      1.0000 0.23139  0.73741  0.25838  Biso   1.000  C
  H87      1.0000 0.27871  0.79420  0.30911  Biso   1.000  H
  H88      1.0000 0.65048  0.98278  0.69451  Biso   1.000  H
  H89      1.0000 0.71935  0.02592  0.67040  Biso   1.000  H
  C94      1.0000 0.46822  0.83261  0.31800  Biso   1.000  C
  C95      1.0000 0.44411  0.89428  0.26209  Biso   1.000  C
  C96      1.0000 0.26562  0.79100  0.22738  Biso   1.000  C
  H90      1.0000 0.45598  0.85451  0.33790  Biso   1.000  H
  N11      1.0000 0.43769  0.90450  0.22418  Biso   1.000  N
  H91      1.0000 0.43308  0.91649  0.28249  Biso   1.000  H
  N12      1.0000 0.29811  0.85298  0.23691  Biso   1.000  N
  H92      1.0000 0.26341  0.77891  0.19919  Biso   1.000  H
  C97      1.0000 0.40690  0.94702  0.21541  Biso   1.000  C
  C98      1.0000 0.33268  0.90180  0.20337  Biso   1.000  C
  H93      1.0000 0.40940  0.97252  0.24081  Biso   1.000  H
  C99      1.0000 0.44409  0.99711  0.17980  Biso   1.000  C
  C100     1.0000 0.29882  0.94300  0.19501  Biso   1.000  C
  H94      1.0000 0.33049  0.87691  0.17769  Biso   1.000  H
  H95      1.0000 0.44402  0.97252  0.15490  Biso   1.000  H
  H96      1.0000 0.49091  0.02749  0.18790  Biso   1.000  H
  C101     1.0000 0.40930  0.03841  0.17011  Biso   1.000  C
  C102     1.0000 0.33571  0.99401  0.16009  Biso   1.000  C
  H97      1.0000 0.25181  0.91288  0.18690  Biso   1.000  H
  H98      1.0000 0.29899  0.96658  0.22041  Biso   1.000  H
  H99      1.0000 0.43188  0.06808  0.14629  Biso   1.000  H
  H100     1.0000 0.41399  0.06671  0.19410  Biso   1.000  H
  H101     1.0000 0.33109  0.96998  0.13409  Biso   1.000  H
  H102     1.0000 0.31500  0.02200  0.15619  Biso   1.000  H
  C103     1.0000 0.07596  0.37173  0.50343  Biso   1.000  C
  C104     1.0000 0.11074  0.33042  0.51314  Biso   1.000  C
  H103     1.0000 0.09856  0.40145  0.47963  Biso   1.000  H
  H104     1.0000 0.08065  0.40002  0.52744  Biso   1.000  H
  C105     1.0000 0.00233  0.32732  0.49343  Biso   1.000  C
  C106     1.0000 0.07355  0.28033  0.54872  Biso   1.000  C
  H105     1.0000 0.15759  0.36085  0.52125  Biso   1.000  H
  H106     1.0000 0.11068  0.30583  0.48824  Biso   1.000  H
  H107     1.0000 0.15752  0.36080  0.52125  Biso   1.000  H
  H108     1.0000 0.11064  0.30583  0.48824  Biso   1.000  H
  C107     1.0000 0.96547  0.27632  0.52832  Biso   1.000  C
  C108     1.0000 0.96543  0.27632  0.52832  Biso   1.000  C
  H109     1.0000 0.98165  0.35532  0.48953  Biso   1.000  H
  H110     1.0000 0.99777  0.30334  0.46744  Biso   1.000  H
  N13      1.0000 0.10434  0.23781  0.55752  Biso   1.000  N
  H111     1.0000 0.07605  0.30583  0.57412  Biso   1.000  H
  C109     1.0000 0.99934  0.23512  0.53668  Biso   1.000  C
  H112     1.0000 0.91849  0.24624  0.52024  Biso   1.000  H
  H113     1.0000 0.96567  0.29994  0.55372  Biso   1.000  H
  H114     1.0000 0.91845  0.24624  0.52024  Biso   1.000  H
  C110     1.0000 0.11079  0.22765  0.59543  Biso   1.000  C
  C111     1.0000 0.11074  0.22765  0.59543  Biso   1.000  C
  H115     1.0000 0.99714  0.21022  0.51103  Biso   1.000  H
  N14      1.0000 0.96475  0.18635  0.57025  Biso   1.000  N
  H116     1.0000 0.09976  0.24985  0.61583  Biso   1.000  H
  C112     1.0000 0.13547  0.18101  0.60888  Biso   1.000  C
  C113     1.0000 0.13543  0.18101  0.60888  Biso   1.000  C
  C114     1.0000 0.93224  0.12431  0.56070  Biso   1.000  C
  C115     1.0000 0.13483  0.16592  0.65135  Biso   1.000  C
  C116     1.0000 0.15163  0.14733  0.57943  Biso   1.000  C
  H117     1.0000 0.93006  0.11222  0.53253  Biso   1.000  H
  C117     1.0000 0.89805  0.07072  0.59172  Biso   1.000  C
  C118     1.0000 0.15256  0.11822  0.66414  Biso   1.000  C
  H118     1.0000 0.12264  0.18782  0.67125  Biso   1.000  H
  H119     1.0000 0.14857  0.15495  0.55105  Biso   1.000  H
  C119     1.0000 0.17269  0.10191  0.59172  Biso   1.000  C
  C120     1.0000 0.85266  0.00432  0.57943  Biso   1.000  C
  C121     1.0000 0.91305  0.08382  0.63409  Biso   1.000  C
  C122     1.0000 0.17074  0.08692  0.63409  Biso   1.000  C
  C123     1.0000 0.14854  0.09830  0.70909  Biso   1.000  C
  C124     1.0000 0.19203  0.06772  0.56070  Biso   1.000  C
  C125     1.0000 0.81900  0.95443  0.60888  Biso   1.000  C
  H120     1.0000 0.84508  0.99365  0.55105  Biso   1.000  H
  H121     1.0000 0.84504  0.99365  0.55105  Biso   1.000  H
  C126     1.0000 0.88175  0.03434  0.66414  Biso   1.000  C
  H122     1.0000 0.94536  0.12752  0.64242  Biso   1.000  H
  H123     1.0000 0.94532  0.12752  0.64242  Biso   1.000  H
  H124     1.0000 0.18213  0.05461  0.64242  Biso   1.000  H
  C127     1.0000 0.18345  0.14260  0.74043  Biso   1.000  C
  C128     1.0000 0.10805  0.03104  0.72081  Biso   1.000  C
  N15      1.0000 0.22160  0.03526  0.57025  Biso   1.000  N
  H125     1.0000 0.18219  0.06996  0.53253  Biso   1.000  H
  N16      1.0000 0.22153  0.03521  0.57025  Biso   1.000  N
  H126     1.0000 0.18212  0.06990  0.53253  Biso   1.000  H
  C129     1.0000 0.83412  0.96891  0.65135  Biso   1.000  C
  C130     1.0000 0.77241  0.88315  0.59543  Biso   1.000  C
  C131     1.0000 0.83407  0.96891  0.65135  Biso   1.000  C
  C132     1.0000 0.90167  0.05024  0.70909  Biso   1.000  C
  H127     1.0000 0.20976  0.18863  0.73405  Biso   1.000  H
  C133     1.0000 0.18146  0.12183  0.78161  Biso   1.000  C
  C134     1.0000 0.18142  0.12183  0.78161  Biso   1.000  C
  C135     1.0000 0.10435  0.01062  0.76234  Biso   1.000  C
  H128     1.0000 0.08293  0.99893  0.70045  Biso   1.000  H
  H129     1.0000 0.08284  0.99893  0.70045  Biso   1.000  H
  C136     1.0000 0.23577  0.00061  0.53668  Biso   1.000  C
  C137     1.0000 0.23573  0.00061  0.53668  Biso   1.000  C
  H130     1.0000 0.81215  0.93482  0.67125  Biso   1.000  H
  N17      1.0000 0.76217  0.86654  0.55752  Biso   1.000  N
  H131     1.0000 0.75017  0.84993  0.61583  Biso   1.000  H
  H132     1.0000 0.75012  0.84993  0.61583  Biso   1.000  H
  C138     1.0000 0.85737  0.04085  0.74043  Biso   1.000  C
  C139     1.0000 0.96895  0.07702  0.72081  Biso   1.000  C
  C140     1.0000 0.14192  0.05461  0.79339  Biso   1.000  C
  H133     1.0000 0.20733  0.15393  0.80185  Biso   1.000  H
  H134     1.0000 0.07520  0.96535  0.76913  Biso   1.000  H
  C141     1.0000 0.31086  0.03455  0.52832  Biso   1.000  C
  C142     1.0000 0.20683  0.92644  0.54872  Biso   1.000  C
  C143     1.0000 0.20674  0.92644  0.54872  Biso   1.000  C
  H135     1.0000 0.21309  0.00284  0.51103  Biso   1.000  H
  H136     1.0000 0.21305  0.00284  0.51103  Biso   1.000  H
  C144     1.0000 0.71971  0.79323  0.54872  Biso   1.000  C
  C145     1.0000 0.87816  0.05964  0.78161  Biso   1.000  C
  H137     1.0000 0.81135  0.02113  0.73405  Biso   1.000  H
  H138     1.0000 0.00105  0.08393  0.70045  Biso   1.000  H
  C146     1.0000 0.98936  0.09373  0.76234  Biso   1.000  C
  C147     1.0000 0.14073  0.03394  0.83806  Biso   1.000  C
  H139     1.0000 0.32776  0.08154  0.52024  Biso   1.000  H
  H140     1.0000 0.33426  0.03434  0.55372  Biso   1.000  H
  C148     1.0000 0.32495  0.99761  0.49343  Biso   1.000  C
  N18      1.0000 0.13354  0.89565  0.55752  Biso   1.000  N
  H141     1.0000 0.22983  0.92395  0.57412  Biso   1.000  H
  C149     1.0000 0.21974  0.88925  0.51314  Biso   1.000  C
  N19      1.0000 0.13349  0.89565  0.55752  Biso   1.000  N
  H142     1.0000 0.22978  0.92395  0.57412  Biso   1.000  H
  C150     1.0000 0.21969  0.88925  0.51314  Biso   1.000  C
  H143     1.0000 0.69416  0.77022  0.57412  Biso   1.000  H
  C151     1.0000 0.66961  0.78033  0.51314  Biso   1.000  C
  C152     1.0000 0.76490  0.76422  0.53668  Biso   1.000  C
  C153     1.0000 0.66956  0.78033  0.51314  Biso   1.000  C
  H144     1.0000 0.84607  0.05344  0.80185  Biso   1.000  H
  C154     1.0000 0.94533  0.08733  0.79339  Biso   1.000  C
  H145     1.0000 0.03468  0.10984  0.76913  Biso   1.000  H
  H146     1.0000 0.03464  0.10984  0.76913  Biso   1.000  H
  C155     1.0000 0.16496  0.08195  0.86946  Biso   1.000  C
  C156     1.0000 0.11654  0.96611  0.84925  Biso   1.000  C
  C157     1.0000 0.29583  0.92405  0.50343  Biso   1.000  C
  C158     1.0000 0.29574  0.92405  0.50343  Biso   1.000  C
  H147     1.0000 0.30557  0.00224  0.46744  Biso   1.000  H
  H148     1.0000 0.37364  0.01834  0.48953  Biso   1.000  H
  H149     1.0000 0.30553  0.00224  0.46744  Biso   1.000  H
  C159     1.0000 0.11692  0.88925  0.59543  Biso   1.000  C
  H150     1.0000 0.19519  0.88935  0.48824  Biso   1.000  H
  H151     1.0000 0.20331  0.84241  0.52125  Biso   1.000  H
  H152     1.0000 0.20322  0.84241  0.52125  Biso   1.000  H
  H153     1.0000 0.63918  0.79674  0.52125  Biso   1.000  H
  H154     1.0000 0.69422  0.80482  0.48824  Biso   1.000  H
  C160     1.0000 0.62826  0.70423  0.50343  Biso   1.000  C
  H155     1.0000 0.69413  0.80482  0.48824  Biso   1.000  H
  N20      1.0000 0.81373  0.77845  0.57025  Biso   1.000  N
  C161     1.0000 0.72367  0.68914  0.52832  Biso   1.000  C
  H156     1.0000 0.78977  0.78693  0.51103  Biso   1.000  H
  N21      1.0000 0.81364  0.77845  0.57025  Biso   1.000  N
  C162     1.0000 0.96604  0.10684  0.83806  Biso   1.000  C
  C163     1.0000 0.16645  0.06391  0.91111  Biso   1.000  C
  H157     1.0000 0.18055  0.12721  0.86273  Biso   1.000  H
  H158     1.0000 0.09897  0.93274  0.82853  Biso   1.000  H
  C164     1.0000 0.11827  0.94783  0.89080  Biso   1.000  C
  C165     1.0000 0.11822  0.94783  0.89080  Biso   1.000  C
  H159     1.0000 0.30291  0.90144  0.47963  Biso   1.000  H
  H160     1.0000 0.31942  0.91932  0.52744  Biso   1.000  H
  H161     1.0000 0.31934  0.91932  0.52744  Biso   1.000  H
  H162     1.0000 0.15008  0.90022  0.61583  Biso   1.000  H
  C166     1.0000 0.04555  0.86451  0.60888  Biso   1.000  C
  H163     1.0000 0.59861  0.69711  0.47963  Biso   1.000  H
  H164     1.0000 0.59997  0.68065  0.52744  Biso   1.000  H
  C167     1.0000 0.67265  0.67501  0.49343  Biso   1.000  C
  H165     1.0000 0.59852  0.69711  0.47963  Biso   1.000  H
  C168     1.0000 0.87571  0.80791  0.56070  Biso   1.000  C
  C169     1.0000 0.87567  0.80791  0.56070  Biso   1.000  C
  H166     1.0000 0.70008  0.66572  0.55372  Biso   1.000  H
  H167     1.0000 0.75379  0.67222  0.52024  Biso   1.000  H
  C170     1.0000 0.03386  0.15043  0.84925  Biso   1.000  C
  C171     1.0000 0.91805  0.08301  0.86946  Biso   1.000  C
  C172     1.0000 0.19156  0.11923  0.94311  Biso   1.000  C
  C173     1.0000 0.14178  0.99644  0.92198  Biso   1.000  C
  C174     1.0000 0.09307  0.87543  0.90165  Biso   1.000  C
  C175     1.0000 0.09302  0.87543  0.90165  Biso   1.000  C
  C176     1.0000 0.99567  0.84835  0.57943  Biso   1.000  C
  C177     1.0000 0.03111  0.86512  0.65135  Biso   1.000  C
  C178     1.0000 0.03107  0.86512  0.65135  Biso   1.000  C
  H168     1.0000 0.64471  0.62634  0.48953  Biso   1.000  H
  H169     1.0000 0.69670  0.69442  0.46744  Biso   1.000  H
  C179     1.0000 0.92928  0.82732  0.59172  Biso   1.000  C
  H170     1.0000 0.88779  0.81782  0.53253  Biso   1.000  H
  C180     1.0000 0.92924  0.82732  0.59172  Biso   1.000  C
  H171     1.0000 0.06727  0.16623  0.82853  Biso   1.000  H
  C181     1.0000 0.05218  0.17044  0.89080  Biso   1.000  C
  H172     1.0000 0.06723  0.16623  0.82853  Biso   1.000  H
  C182     1.0000 0.05214  0.17044  0.89080  Biso   1.000  C
  C183     1.0000 0.93608  0.10252  0.91111  Biso   1.000  C
  H173     1.0000 0.87277  0.05334  0.86273  Biso   1.000  H
  C184     1.0000 0.93603  0.10252  0.91111  Biso   1.000  C
  N22      1.0000 0.22754  0.17974  0.93239  Biso   1.000  N
  H174     1.0000 0.18022  0.10852  0.97124  Biso   1.000  H
  H175     1.0000 0.14100  0.98415  0.94993  Biso   1.000  H
  N23      1.0000 0.09316  0.85643  0.93889  Biso   1.000  N
  H176     1.0000 0.07682  0.84312  0.88024  Biso   1.000  H
  H177     1.0000 0.07674  0.84312  0.88024  Biso   1.000  H
  H178     1.0000 0.00637  0.85145  0.55105  Biso   1.000  H
  C185     1.0000 0.96569  0.84744  0.66414  Biso   1.000  C
  H179     1.0000 0.06519  0.87731  0.67125  Biso   1.000  H
  C186     1.0000 0.91617  0.82925  0.63409  Biso   1.000  C
  C187     1.0000 0.00355  0.14535  0.92198  Biso   1.000  C
  C188     1.0000 0.12457  0.21764  0.90165  Biso   1.000  C
  C189     1.0000 0.12453  0.21764  0.90165  Biso   1.000  C
  C190     1.0000 0.88073  0.07234  0.94311  Biso   1.000  C
  C191     1.0000 0.24386  0.23334  0.96341  Biso   1.000  C
  C192     1.0000 0.06044  0.78282  0.94562  Biso   1.000  C
  C193     1.0000 0.94979  0.85145  0.70909  Biso   1.000  C
  C194     1.0000 0.94975  0.85145  0.70909  Biso   1.000  C
  H180     1.0000 0.87248  0.81782  0.64242  Biso   1.000  H
  H181     1.0000 0.87244  0.81782  0.64242  Biso   1.000  H
  H182     1.0000 0.01585  0.15683  0.94993  Biso   1.000  H
  N24      1.0000 0.14358  0.23674  0.93889  Biso   1.000  N
  H183     1.0000 0.15686  0.23364  0.88024  Biso   1.000  H
  N25      1.0000 0.14354  0.23674  0.93889  Biso   1.000  N
  H184     1.0000 0.15690  0.23364  0.88024  Biso   1.000  H
  N26      1.0000 0.82027  0.04786  0.93239  Biso   1.000  N
  N27      1.0000 0.82024  0.04781  0.93239  Biso   1.000  N
  H185     1.0000 0.89143  0.07173  0.97124  Biso   1.000  H
  C195     1.0000 0.31906  0.27312  0.97124  Biso   1.000  C
  H186     1.0000 0.22022  0.21271  0.98985  Biso   1.000  H
  C196     1.0000 0.21713  0.27764  0.94562  Biso   1.000  C
  C197     1.0000 0.98952  0.75615  0.96341  Biso   1.000  C
  C198     1.0000 0.10242  0.76514  0.97454  Biso   1.000  C
  H187     1.0000 0.05641  0.76102  0.91834  Biso   1.000  H
  C199     1.0000 0.10233  0.76514  0.97454  Biso   1.000  C
  H188     1.0000 0.05637  0.76102  0.91834  Biso   1.000  H
  C200     1.0000 0.95918  0.81655  0.74043  Biso   1.000  C
  C201     1.0000 0.92300  0.89194  0.72081  Biso   1.000  C
  C202     1.0000 0.76666  0.01052  0.96341  Biso   1.000  C
  C203     1.0000 0.76662  0.01052  0.96341  Biso   1.000  C
  H189     1.0000 0.34276  0.28973  0.94474  Biso   1.000  H
  H190     1.0000 0.33383  0.24380  0.98384  Biso   1.000  H
  C204     1.0000 0.33712  0.33291  0.00035  Biso   1.000  C
  H191     1.0000 0.23895  0.29532  0.91834  Biso   1.000  H
  C205     1.0000 0.23487  0.33723  0.97454  Biso   1.000  C
  C206     1.0000 0.23483  0.33723  0.97454  Biso   1.000  C
  N28      1.0000 0.95222  0.77245  0.93239  Biso   1.000  N
  H192     1.0000 0.99250  0.77972  0.98985  Biso   1.000  H
  N29      1.0000 0.95211  0.77240  0.93239  Biso   1.000  N
  H193     1.0000 0.99246  0.77972  0.98985  Biso   1.000  H
  C207     1.0000 0.95410  0.68091  0.97124  Biso   1.000  C
  H194     1.0000 0.11038  0.78942  0.00085  Biso   1.000  H
  C208     1.0000 0.06545  0.68812  0.98312  Biso   1.000  C
  H195     1.0000 0.14614  0.77901  0.96162  Biso   1.000  H
  C209     1.0000 0.94042  0.81853  0.78161  Biso   1.000  C
  H196     1.0000 0.97893  0.79023  0.73405  Biso   1.000  H
  C210     1.0000 0.94037  0.81853  0.78161  Biso   1.000  C
  H197     1.0000 0.97884  0.79023  0.73405  Biso   1.000  H
  H198     1.0000 0.91607  0.91714  0.70045  Biso   1.000  H
  C211     1.0000 0.90629  0.89565  0.76234  Biso   1.000  C
  C212     1.0000 0.90625  0.89565  0.76234  Biso   1.000  C
  C213     1.0000 0.72242  0.93954  0.94562  Biso   1.000  C
  C214     1.0000 0.72238  0.93954  0.94562  Biso   1.000  C
  H199     1.0000 0.78725  0.00752  0.98985  Biso   1.000  H
  C215     1.0000 0.72682  0.04593  0.97124  Biso   1.000  C
  C216     1.0000 0.31185  0.37731  0.98312  Biso   1.000  C
  H200     1.0000 0.38605  0.35923  0.00374  Biso   1.000  H
  H201     1.0000 0.31717  0.31615  0.02782  Biso   1.000  H
  H202     1.0000 0.22097  0.36715  0.96162  Biso   1.000  H
  H203     1.0000 0.21057  0.32092  0.00085  Biso   1.000  H
  H204     1.0000 0.21053  0.32092  0.00085  Biso   1.000  H
  C217     1.0000 0.92766  0.80842  0.94311  Biso   1.000  C
  C218     1.0000 0.92762  0.80842  0.94311  Biso   1.000  C
  H205     1.0000 0.90997  0.66612  0.98384  Biso   1.000  H
  C219     1.0000 0.99578  0.66282  0.00035  Biso   1.000  C
  H206     1.0000 0.94701  0.65723  0.94474  Biso   1.000  H
  H207     1.0000 0.94692  0.65723  0.94474  Biso   1.000  H
  H208     1.0000 0.06232  0.66434  0.95722  Biso   1.000  H
  H209     1.0000 0.06223  0.66434  0.95722  Biso   1.000  H
  H210     1.0000 0.09179  0.67832  0.00305  Biso   1.000  H
  H211     1.0000 0.94660  0.79262  0.80185  Biso   1.000  H
  C220     1.0000 0.91268  0.85801  0.79339  Biso   1.000  C
  H212     1.0000 0.89021  0.92481  0.76913  Biso   1.000  H
  H213     1.0000 0.89012  0.92481  0.76913  Biso   1.000  H
  H214     1.0000 0.70466  0.94361  0.91834  Biso   1.000  H
  N30      1.0000 0.76326  0.90683  0.93889  Biso   1.000  N
  C221     1.0000 0.66275  0.89763  0.97454  Biso   1.000  C
  H215     1.0000 0.71027  0.05304  0.94474  Biso   1.000  H
  H216     1.0000 0.75613  0.09002  0.98384  Biso   1.000  H
  H217     1.0000 0.71023  0.05304  0.94474  Biso   1.000  H
  C222     1.0000 0.66703  0.00422  0.00035  Biso   1.000  C
  H218     1.0000 0.33567  0.39794  0.95722  Biso   1.000  H
  H219     1.0000 0.32164  0.41343  0.00305  Biso   1.000  H
  C223     1.0000 0.89744  0.83352  0.91111  Biso   1.000  C
  H220     1.0000 0.92827  0.81975  0.97124  Biso   1.000  H
  H221     1.0000 0.97324  0.61395  0.00374  Biso   1.000  H
  H222     1.0000 0.99901  0.68284  0.02782  Biso   1.000  H
  H223     1.0000 0.97315  0.61395  0.00374  Biso   1.000  H
  H224     1.0000 0.99893  0.68284  0.02782  Biso   1.000  H
  C224     1.0000 0.89318  0.85922  0.83806  Biso   1.000  C
  C225     1.0000 0.89314  0.85922  0.83806  Biso   1.000  C
  C226     1.0000 0.78236  0.90693  0.90165  Biso   1.000  C
  C227     1.0000 0.62268  0.93451  0.98312  Biso   1.000  C
  H225     1.0000 0.63289  0.85384  0.96162  Biso   1.000  H
  H226     1.0000 0.63285  0.85384  0.96162  Biso   1.000  H
  H227     1.0000 0.67906  0.88961  0.00085  Biso   1.000  H
  H228     1.0000 0.64076  0.02682  0.00374  Biso   1.000  H
  H229     1.0000 0.68386  0.00102  0.02782  Biso   1.000  H
  H230     1.0000 0.68382  0.00102  0.02782  Biso   1.000  H
  C228     1.0000 0.85466  0.85821  0.92198  Biso   1.000  C
  C229     1.0000 0.91695  0.83504  0.86946  Biso   1.000  C
  C230     1.0000 0.84960  0.88346  0.84925  Biso   1.000  C
  C231     1.0000 0.84953  0.88341  0.84925  Biso   1.000  C
  C232     1.0000 0.82955  0.88173  0.89080  Biso   1.000  C
  H231     1.0000 0.76636  0.92324  0.88024  Biso   1.000  H
  H232     1.0000 0.58658  0.90825  0.00305  Biso   1.000  H
  H233     1.0000 0.60210  0.93772  0.95722  Biso   1.000  H
  H234     1.0000 0.84319  0.85902  0.94993  Biso   1.000  H
  H235     1.0000 0.94672  0.81945  0.86273  Biso   1.000  H
  H236     1.0000 0.94668  0.81945  0.86273  Biso   1.000  H
  H237     1.0000 0.83375  0.90104  0.82853  Biso   1.000  H
  C233     1.0000 0.99765  0.67268  0.50657  Biso   1.000  C
  C234     1.0000 0.03455  0.72369  0.47168  Biso   1.000  C
  C235     1.0000 0.92407  0.62828  0.49657  Biso   1.000  C
  C236     1.0000 0.92402  0.62828  0.49657  Biso   1.000  C
  H238     1.0000 0.01837  0.64469  0.51047  Biso   1.000  H
  H239     1.0000 0.00225  0.69666  0.53256  Biso   1.000  H
  H240     1.0000 0.01833  0.64469  0.51047  Biso   1.000  H
  H241     1.0000 0.00221  0.69666  0.53256  Biso   1.000  H
  H242     1.0000 0.08153  0.75376  0.47976  Biso   1.000  H
  H243     1.0000 0.03436  0.70006  0.44628  Biso   1.000  H
  C237     1.0000 0.00069  0.76489  0.46332  Biso   1.000  C
  H244     1.0000 0.03431  0.70006  0.44628  Biso   1.000  H
  C238     1.0000 0.00064  0.76489  0.46332  Biso   1.000  C
  C239     1.0000 0.88928  0.66958  0.48686  Biso   1.000  C
  C240     1.0000 0.88924  0.66958  0.48686  Biso   1.000  C
  H245     1.0000 0.90142  0.59856  0.52037  Biso   1.000  H
  H246     1.0000 0.91933  0.59998  0.47256  Biso   1.000  H
  N31      1.0000 0.03523  0.81366  0.42975  Biso   1.000  N
  C241     1.0000 0.92647  0.71967  0.45128  Biso   1.000  C
  C242     1.0000 0.92643  0.71967  0.45128  Biso   1.000  C
  H247     1.0000 0.00284  0.78978  0.48897  Biso   1.000  H
  H248     1.0000 0.84243  0.63915  0.47875  Biso   1.000  H
  H249     1.0000 0.88934  0.69417  0.51176  Biso   1.000  H
  C243     1.0000 0.06775  0.87569  0.43930  Biso   1.000  C
  N32      1.0000 0.89568  0.76220  0.44248  Biso   1.000  N
  N33      1.0000 0.89561  0.76215  0.44248  Biso   1.000  N
  H250     1.0000 0.92393  0.69417  0.42588  Biso   1.000  H
  H251     1.0000 0.06992  0.88778  0.46747  Biso   1.000  H
  C244     1.0000 0.10194  0.92929  0.40828  Biso   1.000  C
  C245     1.0000 0.88924  0.77236  0.40457  Biso   1.000  C
  C246     1.0000 0.14732  0.99569  0.42057  Biso   1.000  C
  C247     1.0000 0.08693  0.91618  0.36591  Biso   1.000  C
  C248     1.0000 0.86453  0.81894  0.39112  Biso   1.000  C
  H252     1.0000 0.90022  0.75016  0.38417  Biso   1.000  H
  C249     1.0000 0.18102  0.04558  0.39112  Biso   1.000  C
  H253     1.0000 0.15494  0.00636  0.44895  Biso   1.000  H
  C250     1.0000 0.18098  0.04558  0.39112  Biso   1.000  C
  H254     1.0000 0.05466  0.87249  0.35758  Biso   1.000  H
  C251     1.0000 0.11828  0.96566  0.33586  Biso   1.000  C
  C252     1.0000 0.11823  0.96566  0.33586  Biso   1.000  C
  C253     1.0000 0.86515  0.83408  0.34865  Biso   1.000  C
  C254     1.0000 0.84835  0.85268  0.42057  Biso   1.000  C
  C255     1.0000 0.22762  0.11685  0.40457  Biso   1.000  C
  C256     1.0000 0.16588  0.03105  0.34865  Biso   1.000  C
  C257     1.0000 0.09831  0.94976  0.29091  Biso   1.000  C
  C258     1.0000 0.84747  0.88179  0.33586  Biso   1.000  C
  H255     1.0000 0.87739  0.81219  0.32875  Biso   1.000  H
  C259     1.0000 0.84742  0.88179  0.33586  Biso   1.000  C
  H256     1.0000 0.87734  0.81219  0.32875  Biso   1.000  H
  C260     1.0000 0.82737  0.89809  0.40828  Biso   1.000  C
  H257     1.0000 0.85141  0.84506  0.44895  Biso   1.000  H
  C261     1.0000 0.82731  0.89804  0.40828  Biso   1.000  C
  N34      1.0000 0.23781  0.13346  0.44248  Biso   1.000  N
  H258     1.0000 0.24986  0.15008  0.38417  Biso   1.000  H
  H259     1.0000 0.18788  0.06519  0.32875  Biso   1.000  H
  H260     1.0000 0.18779  0.06519  0.32875  Biso   1.000  H
  C262     1.0000 0.03107  0.92299  0.27919  Biso   1.000  C
  C263     1.0000 0.14261  0.95916  0.25957  Biso   1.000  C
  C264     1.0000 0.03103  0.92299  0.27919  Biso   1.000  C
  C265     1.0000 0.85146  0.90165  0.29091  Biso   1.000  C
  C266     1.0000 0.85142  0.90165  0.29091  Biso   1.000  C
  C267     1.0000 0.82924  0.91308  0.36591  Biso   1.000  C
  C268     1.0000 0.80795  0.93229  0.43930  Biso   1.000  C
  C269     1.0000 0.28032  0.20677  0.45128  Biso   1.000  C
  C270     1.0000 0.12186  0.94036  0.21839  Biso   1.000  C
  C271     1.0000 0.12182  0.94036  0.21839  Biso   1.000  C
  H261     1.0000 0.18863  0.97887  0.26595  Biso   1.000  H
  H262     1.0000 0.99898  0.91608  0.29955  Biso   1.000  H
  H263     1.0000 0.99893  0.91608  0.29955  Biso   1.000  H
  C272     1.0000 0.01062  0.90627  0.23766  Biso   1.000  C
  C273     1.0000 0.89194  0.96896  0.27919  Biso   1.000  C
  C274     1.0000 0.81651  0.85735  0.25957  Biso   1.000  C
  H264     1.0000 0.81785  0.94539  0.35758  Biso   1.000  H
  H265     1.0000 0.81782  0.94534  0.35758  Biso   1.000  H
  N35      1.0000 0.77843  0.96475  0.42975  Biso   1.000  N
  H266     1.0000 0.81783  0.93005  0.46747  Biso   1.000  H
  C275     1.0000 0.23512  0.23578  0.46332  Biso   1.000  C
  H267     1.0000 0.30586  0.22979  0.42588  Biso   1.000  H
  C276     1.0000 0.33042  0.21968  0.48686  Biso   1.000  C
  C277     1.0000 0.05465  0.91268  0.20661  Biso   1.000  C
  H268     1.0000 0.15395  0.94656  0.19815  Biso   1.000  H
  H269     1.0000 0.15391  0.94656  0.19815  Biso   1.000  H
  H270     1.0000 0.96535  0.89017  0.23087  Biso   1.000  H
  C278     1.0000 0.81856  0.87818  0.21839  Biso   1.000  C
  H271     1.0000 0.79026  0.81137  0.26595  Biso   1.000  H
  H272     1.0000 0.79022  0.81137  0.26595  Biso   1.000  H
  C279     1.0000 0.89564  0.98939  0.23766  Biso   1.000  C
  H273     1.0000 0.91710  0.00107  0.29955  Biso   1.000  H
  C280     1.0000 0.76425  0.99940  0.46332  Biso   1.000  C
  C281     1.0000 0.76422  0.99935  0.46332  Biso   1.000  C
  C282     1.0000 0.27632  0.31087  0.47168  Biso   1.000  C
  H274     1.0000 0.21021  0.21307  0.48897  Biso   1.000  H
  N36      1.0000 0.18630  0.22156  0.42975  Biso   1.000  N
  C283     1.0000 0.37172  0.29578  0.49657  Biso   1.000  C
  H275     1.0000 0.36084  0.20327  0.47875  Biso   1.000  H
  H276     1.0000 0.30585  0.19519  0.51176  Biso   1.000  H
  C284     1.0000 0.03394  0.89317  0.16194  Biso   1.000  C
  C285     1.0000 0.85806  0.94539  0.20661  Biso   1.000  C
  H277     1.0000 0.79265  0.84607  0.19815  Biso   1.000  H
  C286     1.0000 0.85804  0.94534  0.20661  Biso   1.000  C
  H278     1.0000 0.92487  0.03465  0.23087  Biso   1.000  H
  H279     1.0000 0.92482  0.03465  0.23087  Biso   1.000  H
  C287     1.0000 0.68916  0.96546  0.47168  Biso   1.000  C
  H280     1.0000 0.78693  0.99716  0.48897  Biso   1.000  H
  C288     1.0000 0.68912  0.96546  0.47168  Biso   1.000  C
  C289     1.0000 0.79320  0.07357  0.45128  Biso   1.000  C
  C290     1.0000 0.32737  0.32499  0.50657  Biso   1.000  C
  C291     1.0000 0.32726  0.32494  0.50657  Biso   1.000  C
  H281     1.0000 0.29990  0.33429  0.44628  Biso   1.000  H
  H282     1.0000 0.24623  0.32779  0.47976  Biso   1.000  H
  C292     1.0000 0.12431  0.19209  0.43930  Biso   1.000  C
  H283     1.0000 0.40001  0.31935  0.47256  Biso   1.000  H
  H284     1.0000 0.40141  0.30289  0.52037  Biso   1.000  H
  H285     1.0000 0.40139  0.30284  0.52037  Biso   1.000  H
  C293     1.0000 0.96617  0.84958  0.15075  Biso   1.000  C
  C294     1.0000 0.96612  0.84958  0.15075  Biso   1.000  C
  C295     1.0000 0.08197  0.91699  0.13054  Biso   1.000  C
  C296     1.0000 0.08190  0.91694  0.13054  Biso   1.000  C
  C297     1.0000 0.85925  0.96607  0.16194  Biso   1.000  C
  H286     1.0000 0.67227  0.91847  0.47976  Biso   1.000  H
  H287     1.0000 0.67222  0.91847  0.47976  Biso   1.000  H
  H288     1.0000 0.66573  0.96566  0.44628  Biso   1.000  H
  C298     1.0000 0.67507  0.00239  0.50657  Biso   1.000  C
  C299     1.0000 0.67496  0.00234  0.50657  Biso   1.000  C
  N37      1.0000 0.86649  0.10435  0.44248  Biso   1.000  N
  H289     1.0000 0.77024  0.07606  0.42588  Biso   1.000  H
  C300     1.0000 0.78033  0.11076  0.48686  Biso   1.000  C
  H290     1.0000 0.35532  0.37366  0.51047  Biso   1.000  H
  H291     1.0000 0.30337  0.30559  0.53256  Biso   1.000  H
  H292     1.0000 0.30328  0.30559  0.53256  Biso   1.000  H
  C301     1.0000 0.07070  0.17268  0.40828  Biso   1.000  C
  H293     1.0000 0.11228  0.18218  0.46747  Biso   1.000  H
  H294     1.0000 0.11223  0.18218  0.46747  Biso   1.000  H
  H295     1.0000 0.93275  0.83378  0.17147  Biso   1.000  H
  C302     1.0000 0.94784  0.82956  0.10920  Biso   1.000  C
  C303     1.0000 0.06395  0.89749  0.08889  Biso   1.000  C
  H296     1.0000 0.12725  0.94666  0.13727  Biso   1.000  H
  H297     1.0000 0.12721  0.94666  0.13727  Biso   1.000  H
  C304     1.0000 0.88344  0.03389  0.15075  Biso   1.000  C
  C305     1.0000 0.83503  0.91806  0.13054  Biso   1.000  C
  H298     1.0000 0.62634  0.98167  0.51047  Biso   1.000  H
  H299     1.0000 0.69445  0.99777  0.53256  Biso   1.000  H
  C306     1.0000 0.70420  0.07596  0.49657  Biso   1.000  C
  C307     1.0000 0.88311  0.11076  0.40457  Biso   1.000  C
  H300     1.0000 0.79671  0.15760  0.47875  Biso   1.000  H
  H301     1.0000 0.80483  0.11065  0.51176  Biso   1.000  H
  H302     1.0000 0.79669  0.15755  0.47875  Biso   1.000  H
  C308     1.0000 0.00435  0.15165  0.42057  Biso   1.000  C
  C309     1.0000 0.08386  0.17075  0.36591  Biso   1.000  C
  C310     1.0000 0.00427  0.15165  0.42057  Biso   1.000  C
  C311     1.0000 0.08382  0.17075  0.36591  Biso   1.000  C
  C312     1.0000 0.99647  0.85466  0.07802  Biso   1.000  C
  C313     1.0000 0.87545  0.78237  0.09835  Biso   1.000  C
  C314     1.0000 0.99643  0.85466  0.07802  Biso   1.000  C
  C315     1.0000 0.11925  0.92766  0.05689  Biso   1.000  C
  H303     1.0000 0.90101  0.06727  0.17147  Biso   1.000  H
  C316     1.0000 0.88172  0.05218  0.10920  Biso   1.000  C
  C317     1.0000 0.83357  0.93610  0.08889  Biso   1.000  C
  H304     1.0000 0.81948  0.87279  0.13727  Biso   1.000  H
  C318     1.0000 0.83350  0.93604  0.08889  Biso   1.000  C
  H305     1.0000 0.81941  0.87274  0.13727  Biso   1.000  H
  H306     1.0000 0.69711  0.09856  0.52037  Biso   1.000  H
  H307     1.0000 0.68060  0.08068  0.47256  Biso   1.000  H
  C319     1.0000 0.95444  0.13550  0.39112  Biso   1.000  C
  H308     1.0000 0.84995  0.09978  0.38417  Biso   1.000  H
  C320     1.0000 0.95437  0.13545  0.39112  Biso   1.000  C
  H309     1.0000 0.99365  0.14855  0.44895  Biso   1.000  H
  H310     1.0000 0.99361  0.14855  0.44895  Biso   1.000  H
  C321     1.0000 0.03433  0.15257  0.33586  Biso   1.000  C
  H311     1.0000 0.12750  0.18218  0.35758  Biso   1.000  H
  C322     1.0000 0.03429  0.15257  0.33586  Biso   1.000  C
  H312     1.0000 0.98413  0.84318  0.05007  Biso   1.000  H
  N38      1.0000 0.85644  0.76326  0.06111  Biso   1.000  N
  H313     1.0000 0.84317  0.76636  0.11976  Biso   1.000  H
  H314     1.0000 0.84312  0.76636  0.11976  Biso   1.000  H
  H315     1.0000 0.10855  0.92827  0.02876  Biso   1.000  H
  N39      1.0000 0.17971  0.95215  0.06761  Biso   1.000  N
  C323     1.0000 0.85824  0.00356  0.07802  Biso   1.000  C
  C324     1.0000 0.90691  0.12457  0.09835  Biso   1.000  C
  C325     1.0000 0.80846  0.88077  0.05689  Biso   1.000  C
  C326     1.0000 0.80842  0.88077  0.05689  Biso   1.000  C
  C327     1.0000 0.96891  0.13489  0.34865  Biso   1.000  C
  C328     1.0000 0.05019  0.14855  0.29091  Biso   1.000  C
  C329     1.0000 0.78285  0.72237  0.05438  Biso   1.000  C
  C330     1.0000 0.23336  0.98949  0.03659  Biso   1.000  C
  H316     1.0000 0.85907  0.01586  0.05007  Biso   1.000  H
  H317     1.0000 0.85902  0.01586  0.05007  Biso   1.000  H
  N40      1.0000 0.90682  0.14357  0.06111  Biso   1.000  N
  H318     1.0000 0.92320  0.15689  0.11976  Biso   1.000  H
  N41      1.0000 0.77244  0.82026  0.06761  Biso   1.000  N
  H319     1.0000 0.81976  0.89149  0.02876  Biso   1.000  H
  H320     1.0000 0.93488  0.12269  0.32875  Biso   1.000  H
  H321     1.0000 0.93477  0.12264  0.32875  Biso   1.000  H
  C331     1.0000 0.04085  0.18346  0.25957  Biso   1.000  C
  C332     1.0000 0.07706  0.10806  0.27919  Biso   1.000  C
  C333     1.0000 0.07702  0.10806  0.27919  Biso   1.000  C
  C334     1.0000 0.76515  0.66278  0.02546  Biso   1.000  C
  C335     1.0000 0.75612  0.76667  0.03659  Biso   1.000  C
  H322     1.0000 0.76103  0.70469  0.08166  Biso   1.000  H
  C336     1.0000 0.27316  0.95408  0.02876  Biso   1.000  C
  H323     1.0000 0.21277  0.99249  0.01015  Biso   1.000  H
  H324     1.0000 0.21273  0.99249  0.01015  Biso   1.000  H
  C337     1.0000 0.27760  0.06046  0.05438  Biso   1.000  C
  C338     1.0000 0.93954  0.21719  0.05438  Biso   1.000  C
  C339     1.0000 0.05961  0.18147  0.21839  Biso   1.000  C
  H325     1.0000 0.02114  0.20977  0.26595  Biso   1.000  H
  H326     1.0000 0.08391  0.08287  0.29955  Biso   1.000  H
  C340     1.0000 0.09369  0.10435  0.23766  Biso   1.000  C
  H327     1.0000 0.77974  0.78724  0.01015  Biso   1.000  H
  C341     1.0000 0.68092  0.72689  0.02876  Biso   1.000  C
  H328     1.0000 0.78945  0.67908  0.99915  Biso   1.000  H
  C342     1.0000 0.68813  0.62269  0.01688  Biso   1.000  C
  H329     1.0000 0.77901  0.63285  0.03838  Biso   1.000  H
  H330     1.0000 0.24385  0.90998  0.01616  Biso   1.000  H
  H331     1.0000 0.28975  0.94697  0.05526  Biso   1.000  H
  C343     1.0000 0.33295  0.99579  0.99965  Biso   1.000  C
  N42      1.0000 0.23672  0.09318  0.06111  Biso   1.000  N
  C344     1.0000 0.33728  0.10237  0.02546  Biso   1.000  C
  H332     1.0000 0.29532  0.05640  0.08166  Biso   1.000  H
  C345     1.0000 0.33719  0.10237  0.02546  Biso   1.000  C
  H333     1.0000 0.29530  0.05635  0.08166  Biso   1.000  H
  C346     1.0000 0.89765  0.23487  0.02546  Biso   1.000  C
  H334     1.0000 0.94366  0.23898  0.08166  Biso   1.000  H
  C347     1.0000 0.01055  0.24386  0.03659  Biso   1.000  C
  C348     1.0000 0.01046  0.24386  0.03659  Biso   1.000  C
  C349     1.0000 0.08732  0.14195  0.20661  Biso   1.000  C
  H335     1.0000 0.05338  0.20738  0.19815  Biso   1.000  H
  H336     1.0000 0.10982  0.07519  0.23087  Biso   1.000  H
  H337     1.0000 0.10979  0.07514  0.23087  Biso   1.000  H
  C350     1.0000 0.66284  0.66704  0.99965  Biso   1.000  C
  H338     1.0000 0.66612  0.75615  0.01616  Biso   1.000  H
  H339     1.0000 0.65722  0.71028  0.05526  Biso   1.000  H
  H340     1.0000 0.67834  0.58657  0.99695  Biso   1.000  H
  H341     1.0000 0.66431  0.60207  0.04278  Biso   1.000  H
  H342     1.0000 0.31616  0.99899  0.97218  Biso   1.000  H
  H343     1.0000 0.35922  0.97318  0.99626  Biso   1.000  H
  C351     1.0000 0.37731  0.06549  0.01688  Biso   1.000  C
  C352     1.0000 0.21762  0.09308  0.09835  Biso   1.000  C
  H344     1.0000 0.32094  0.11035  0.99915  Biso   1.000  H
  H345     1.0000 0.36713  0.14617  0.03838  Biso   1.000  H
  H346     1.0000 0.85382  0.22095  0.03838  Biso   1.000  H
  H347     1.0000 0.88960  0.21058  0.99915  Biso   1.000  H
  C353     1.0000 0.93457  0.31188  0.01688  Biso   1.000  C
  C354     1.0000 0.93449  0.31188  0.01688  Biso   1.000  C
  C355     1.0000 0.04590  0.31905  0.02876  Biso   1.000  C
  N43      1.0000 0.04780  0.22755  0.06761  Biso   1.000  N
  H348     1.0000 0.00752  0.22029  0.01015  Biso   1.000  H
  C356     1.0000 0.10680  0.14078  0.16194  Biso   1.000  C
  H349     1.0000 0.61393  0.64078  0.99626  Biso   1.000  H
  H350     1.0000 0.68282  0.68386  0.97218  Biso   1.000  H
  H351     1.0000 0.41345  0.09176  0.99695  Biso   1.000  H
  H352     1.0000 0.39797  0.06229  0.04278  Biso   1.000  H
  H353     1.0000 0.39788  0.06229  0.04278  Biso   1.000  H
  C357     1.0000 0.17043  0.11827  0.10920  Biso   1.000  C
  H354     1.0000 0.23366  0.07677  0.11976  Biso   1.000  H
  H355     1.0000 0.23358  0.07677  0.11976  Biso   1.000  H
  H356     1.0000 0.90828  0.32169  0.99695  Biso   1.000  H
  H357     1.0000 0.90819  0.32169  0.99695  Biso   1.000  H
  H358     1.0000 0.93771  0.33566  0.04278  Biso   1.000  H
  C358     1.0000 0.00420  0.33718  0.99965  Biso   1.000  C
  H359     1.0000 0.09001  0.33388  0.01616  Biso   1.000  H
  H360     1.0000 0.05301  0.34277  0.05526  Biso   1.000  H
  H361     1.0000 0.05310  0.34277  0.05526  Biso   1.000  H
  C359     1.0000 0.07232  0.19158  0.05689  Biso   1.000  C
  C360     1.0000 0.15038  0.11655  0.15075  Biso   1.000  C
  C361     1.0000 0.08303  0.16496  0.13054  Biso   1.000  C
  C362     1.0000 0.14536  0.14180  0.07802  Biso   1.000  C
  C363     1.0000 0.14534  0.14175  0.07802  Biso   1.000  C
  H362     1.0000 0.02679  0.38606  0.99626  Biso   1.000  H
  H363     1.0000 0.00105  0.31717  0.97218  Biso   1.000  H
  C364     1.0000 0.10258  0.16649  0.08889  Biso   1.000  C
  H364     1.0000 0.07171  0.18025  0.02876  Biso   1.000  H
  C365     1.0000 0.10249  0.16649  0.08889  Biso   1.000  C
  H365     1.0000 0.07167  0.18025  0.02876  Biso   1.000  H
  H366     1.0000 0.05334  0.18056  0.13727  Biso   1.000  H
  H367     1.0000 0.16623  0.09897  0.17147  Biso   1.000  H
  H368     1.0000 0.15684  0.14098  0.05007  Biso   1.000  H
  C366     1.0000 0.99616  0.33372  0.66634  Biso   1.000  C
  C367     1.0000 0.02147  0.28932  0.68354  Biso   1.000  C
  C368     1.0000 0.01426  0.39352  0.69545  Biso   1.000  C
  H369     1.0000 0.01618  0.35054  0.63884  Biso   1.000  H
  H370     1.0000 0.94727  0.30741  0.66295  Biso   1.000  H
  C369     1.0000 0.09847  0.32946  0.69215  Biso   1.000  C
  H371     1.0000 0.01166  0.25325  0.66364  Biso   1.000  H
  H372     1.0000 0.99768  0.26875  0.70944  Biso   1.000  H
  C370     1.0000 0.08948  0.43335  0.70328  Biso   1.000  C
  H373     1.0000 0.99948  0.42283  0.68284  Biso   1.000  H
  H374     1.0000 0.99058  0.37696  0.72195  Biso   1.000  H
  H375     1.0000 0.11237  0.29953  0.70504  Biso   1.000  H
  H376     1.0000 0.12274  0.34571  0.66584  Biso   1.000  H
  C371     1.0000 0.11617  0.38905  0.72103  Biso   1.000  C
  N44      1.0000 0.10576  0.48695  0.73427  Biso   1.000  N
  H377     1.0000 0.11305  0.45392  0.67684  Biso   1.000  H
  N45      1.0000 0.18976  0.42995  0.72779  Biso   1.000  N
  H378     1.0000 0.09437  0.37132  0.74832  Biso   1.000  H
  C372     1.0000 0.14178  0.54745  0.72355  Biso   1.000  C
  C373     1.0000 0.20877  0.44905  0.76504  Biso   1.000  C
  C374     1.0000 0.16687  0.60273  0.75555  Biso   1.000  C
  H379     1.0000 0.15305  0.55812  0.69545  Biso   1.000  H
  C375     1.0000 0.28116  0.49624  0.77588  Biso   1.000  C
  H380     1.0000 0.17649  0.43304  0.78645  Biso   1.000  H
  C376     1.0000 0.19156  0.67024  0.74467  Biso   1.000  C
  C377     1.0000 0.16839  0.58474  0.79720  Biso   1.000  C
  C378     1.0000 0.32979  0.52134  0.74467  Biso   1.000  C
  C379     1.0000 0.29946  0.51621  0.81744  Biso   1.000  C
  H381     1.0000 0.19238  0.68254  0.71673  Biso   1.000  H
  C380     1.0000 0.21505  0.71881  0.77588  Biso   1.000  C
  H382     1.0000 0.15277  0.53943  0.80392  Biso   1.000  H
  C381     1.0000 0.19257  0.63275  0.82863  Biso   1.000  C
  H383     1.0000 0.31749  0.50986  0.71673  Biso   1.000  H
  C382     1.0000 0.39724  0.56412  0.75555  Biso   1.000  C
  C383     1.0000 0.36726  0.55985  0.82863  Biso   1.000  C
  H384     1.0000 0.26604  0.50041  0.83812  Biso   1.000  H
  C384     1.0000 0.21678  0.70052  0.81744  Biso   1.000  C
  C385     1.0000 0.24028  0.79126  0.76504  Biso   1.000  C
  C386     1.0000 0.19136  0.61202  0.87326  Biso   1.000  C
  C387     1.0000 0.41527  0.58362  0.79720  Biso   1.000  C
  C388     1.0000 0.45257  0.59434  0.72355  Biso   1.000  C
  C389     1.0000 0.38797  0.57936  0.87326  Biso   1.000  C
  H385     1.0000 0.23437  0.73395  0.83812  Biso   1.000  H
  N46      1.0000 0.24018  0.81026  0.72779  Biso   1.000  N
  H386     1.0000 0.25654  0.82352  0.78645  Biso   1.000  H
  C390     1.0000 0.15185  0.54481  0.88508  Biso   1.000  C
  C391     1.0000 0.22897  0.65602  0.90435  Biso   1.000  C
  H387     1.0000 0.46057  0.61334  0.80392  Biso   1.000  H
  N47      1.0000 0.51308  0.61883  0.73427  Biso   1.000  N
  H388     1.0000 0.44187  0.59495  0.69545  Biso   1.000  H
  C392     1.0000 0.45518  0.60704  0.88508  Biso   1.000  C
  C393     1.0000 0.34398  0.57296  0.90435  Biso   1.000  C
  C394     1.0000 0.27287  0.88382  0.72103  Biso   1.000  C
  H389     1.0000 0.12597  0.51275  0.86484  Biso   1.000  H
  C395     1.0000 0.14987  0.52403  0.92626  Biso   1.000  C
  C396     1.0000 0.22525  0.63565  0.94584  Biso   1.000  C
  H390     1.0000 0.25819  0.70133  0.89753  Biso   1.000  H
  C397     1.0000 0.56665  0.65612  0.70328  Biso   1.000  C
  H391     1.0000 0.48727  0.61324  0.86484  Biso   1.000  H
  C398     1.0000 0.47597  0.62584  0.92626  Biso   1.000  C
  C399     1.0000 0.36437  0.58962  0.94584  Biso   1.000  C
  H392     1.0000 0.29866  0.55685  0.89753  Biso   1.000  H
  C400     1.0000 0.34387  0.91054  0.70328  Biso   1.000  C
  C401     1.0000 0.23097  0.90155  0.69215  Biso   1.000  C
  H393     1.0000 0.27695  0.90561  0.74832  Biso   1.000  H
  H394     1.0000 0.12358  0.47806  0.93264  Biso   1.000  H
  C402     1.0000 0.18478  0.56833  0.95757  Biso   1.000  C
  H395     1.0000 0.25046  0.66775  0.96624  Biso   1.000  H
  H396     1.0000 0.54607  0.65912  0.67684  Biso   1.000  H
  C403     1.0000 0.60645  0.62071  0.69545  Biso   1.000  C
  C404     1.0000 0.61096  0.72714  0.72103  Biso   1.000  C
  H397     1.0000 0.52199  0.64555  0.93264  Biso   1.000  H
  C405     1.0000 0.43168  0.61644  0.95757  Biso   1.000  C
  H398     1.0000 0.33227  0.58271  0.96624  Biso   1.000  H
  N48      1.0000 0.38117  0.89423  0.73427  Biso   1.000  N
  H399     1.0000 0.34086  0.88692  0.67684  Biso   1.000  H
  C406     1.0000 0.37927  0.98573  0.69545  Biso   1.000  C
  C407     1.0000 0.26787  0.97852  0.68354  Biso   1.000  C
  H400     1.0000 0.18718  0.88763  0.70504  Biso   1.000  H
  H401     1.0000 0.22294  0.87721  0.66584  Biso   1.000  H
  C408     1.0000 0.18076  0.54842  0.00255  Biso   1.000  C
  H402     1.0000 0.57714  0.57661  0.68284  Biso   1.000  H
  H403     1.0000 0.62307  0.61365  0.72195  Biso   1.000  H
  C409     1.0000 0.66624  0.66242  0.66634  Biso   1.000  C
  N49      1.0000 0.57006  0.75981  0.72779  Biso   1.000  N
  C410     1.0000 0.67059  0.76906  0.69215  Biso   1.000  C
  H404     1.0000 0.62866  0.72303  0.74832  Biso   1.000  H
  C411     1.0000 0.45159  0.63234  0.00255  Biso   1.000  C
  C412     1.0000 0.40566  0.85821  0.72355  Biso   1.000  C
  H405     1.0000 0.42335  0.00051  0.68284  Biso   1.000  H
  H406     1.0000 0.38633  0.00945  0.72195  Biso   1.000  H
  C413     1.0000 0.33754  0.00382  0.66634  Biso   1.000  C
  H407     1.0000 0.24158  0.98832  0.66364  Biso   1.000  H
  H408     1.0000 0.27102  0.00234  0.70944  Biso   1.000  H
  C414     1.0000 0.19844  0.50071  0.01531  Biso   1.000  C
  C415     1.0000 0.16257  0.57971  0.03256  Biso   1.000  C
  H409     1.0000 0.69256  0.63981  0.66295  Biso   1.000  H
  H410     1.0000 0.64945  0.66562  0.63884  Biso   1.000  H
  C416     1.0000 0.71064  0.73212  0.68354  Biso   1.000  C
  C417     1.0000 0.55098  0.75976  0.76504  Biso   1.000  C
  H411     1.0000 0.70045  0.81285  0.70504  Biso   1.000  H
  H412     1.0000 0.65426  0.77703  0.66584  Biso   1.000  H
  C418     1.0000 0.49924  0.69773  0.01531  Biso   1.000  C
  C419     1.0000 0.42027  0.58281  0.03256  Biso   1.000  C
  C420     1.0000 0.43587  0.83312  0.75555  Biso   1.000  C
  H413     1.0000 0.40508  0.84694  0.69545  Biso   1.000  H
  H414     1.0000 0.33437  0.98385  0.63884  Biso   1.000  H
  H415     1.0000 0.36011  0.05274  0.66295  Biso   1.000  H
  H416     1.0000 0.21068  0.47882  0.99544  Biso   1.000  H
  C421     1.0000 0.19785  0.48563  0.05777  Biso   1.000  C
  C422     1.0000 0.16067  0.56473  0.07497  Biso   1.000  C
  H417     1.0000 0.15114  0.61202  0.02423  Biso   1.000  H
  H418     1.0000 0.74677  0.75844  0.66364  Biso   1.000  H
  H419     1.0000 0.73126  0.72892  0.70944  Biso   1.000  H
  C423     1.0000 0.50379  0.78496  0.77588  Biso   1.000  C
  H420     1.0000 0.56698  0.74345  0.78645  Biso   1.000  H
  H421     1.0000 0.52117  0.73182  0.99544  Biso   1.000  H
  C424     1.0000 0.51438  0.71226  0.05777  Biso   1.000  C
  C425     1.0000 0.43527  0.59592  0.07497  Biso   1.000  C
  H422     1.0000 0.38796  0.53912  0.02423  Biso   1.000  H
  C426     1.0000 0.47866  0.80843  0.74467  Biso   1.000  C
  C427     1.0000 0.41639  0.83164  0.79720  Biso   1.000  C
  C428     1.0000 0.18167  0.51936  0.08726  Biso   1.000  C
  C429     1.0000 0.22256  0.43904  0.07126  Biso   1.000  C
  C430     1.0000 0.14125  0.59892  0.10596  Biso   1.000  C
  C431     1.0000 0.48374  0.78323  0.81744  Biso   1.000  C
  C432     1.0000 0.48066  0.66232  0.08726  Biso   1.000  C
  C433     1.0000 0.56098  0.78353  0.07126  Biso   1.000  C
  C434     1.0000 0.40104  0.54232  0.10596  Biso   1.000  C
  H423     1.0000 0.49017  0.80761  0.71673  Biso   1.000  H
  C435     1.0000 0.44013  0.80741  0.82863  Biso   1.000  C
  H424     1.0000 0.38666  0.84724  0.80392  Biso   1.000  H
  H425     1.0000 0.18477  0.51174  0.11564  Biso   1.000  H
  N50      1.0000 0.22898  0.42883  0.10913  Biso   1.000  N
  H426     1.0000 0.23359  0.41684  0.05083  Biso   1.000  H
  N51      1.0000 0.11175  0.63143  0.09644  Biso   1.000  N
  H427     1.0000 0.15115  0.59673  0.13412  Biso   1.000  H
  H428     1.0000 0.49959  0.76565  0.83812  Biso   1.000  H
  H429     1.0000 0.48826  0.67304  0.11564  Biso   1.000  H
  N52      1.0000 0.57118  0.80015  0.10913  Biso   1.000  N
  H430     1.0000 0.58315  0.81671  0.05083  Biso   1.000  H
  N53      1.0000 0.36855  0.48034  0.09644  Biso   1.000  N
  H431     1.0000 0.40326  0.55441  0.13412  Biso   1.000  H
  C436     1.0000 0.42068  0.80863  0.87326  Biso   1.000  C
  C437     1.0000 0.25979  0.38636  0.11794  Biso   1.000  C
  C438     1.0000 0.09754  0.66603  0.12997  Biso   1.000  C
  C439     1.0000 0.61368  0.87346  0.11794  Biso   1.000  C
  C440     1.0000 0.33398  0.43152  0.12997  Biso   1.000  C
  C441     1.0000 0.39297  0.84816  0.88508  Biso   1.000  C
  C442     1.0000 0.42705  0.77104  0.90435  Biso   1.000  C
  H432     1.0000 0.25729  0.36085  0.09254  Biso   1.000  H
  C443     1.0000 0.22257  0.33621  0.15355  Biso   1.000  C
  C444     1.0000 0.12656  0.74025  0.11794  Biso   1.000  C
  C445     1.0000 0.02248  0.63214  0.13834  Biso   1.000  C
  H433     1.0000 0.12025  0.66384  0.15562  Biso   1.000  H
  H434     1.0000 0.63915  0.89642  0.09254  Biso   1.000  H
  C446     1.0000 0.66375  0.88631  0.15355  Biso   1.000  C
  C447     1.0000 0.56846  0.90241  0.12997  Biso   1.000  C
  C448     1.0000 0.36785  0.39032  0.13834  Biso   1.000  C
  H435     1.0000 0.33617  0.45641  0.15562  Biso   1.000  H
  H436     1.0000 0.38676  0.87401  0.86484  Biso   1.000  H
  C449     1.0000 0.37416  0.85014  0.92626  Biso   1.000  C
  C450     1.0000 0.41038  0.77475  0.94584  Biso   1.000  C
  H437     1.0000 0.44315  0.74182  0.89753  Biso   1.000  H
  H438     1.0000 0.17575  0.30583  0.14544  Biso   1.000  H
  H439     1.0000 0.22266  0.36085  0.17844  Biso   1.000  H
  C451     1.0000 0.25736  0.29491  0.16323  Biso   1.000  C
  N54      1.0000 0.19985  0.77104  0.10913  Biso   1.000  N
  H440     1.0000 0.10356  0.74274  0.09254  Biso   1.000  H
  C452     1.0000 0.11365  0.77744  0.15355  Biso   1.000  C
  H441     1.0000 0.99909  0.63234  0.11294  Biso   1.000  H
  C453     1.0000 0.00836  0.66902  0.17323  Biso   1.000  C
  H442     1.0000 0.00558  0.58515  0.14644  Biso   1.000  H
  H443     1.0000 0.69416  0.86995  0.14544  Biso   1.000  H
  H444     1.0000 0.63915  0.86182  0.17844  Biso   1.000  H
  C454     1.0000 0.70506  0.96241  0.16323  Biso   1.000  C
  N55      1.0000 0.51966  0.88824  0.09644  Biso   1.000  N
  C455     1.0000 0.60968  0.97755  0.13834  Biso   1.000  C
  H445     1.0000 0.54358  0.87975  0.15562  Biso   1.000  H
  C456     1.0000 0.33095  0.33931  0.17323  Biso   1.000  C
  H446     1.0000 0.41485  0.42045  0.14644  Biso   1.000  H
  H447     1.0000 0.36768  0.36675  0.11294  Biso   1.000  H
  H448     1.0000 0.35446  0.87645  0.93264  Biso   1.000  H
  C457     1.0000 0.38355  0.81524  0.95757  Biso   1.000  C
  H449     1.0000 0.41727  0.74955  0.96624  Biso   1.000  H
  H450     1.0000 0.23478  0.26524  0.18702  Biso   1.000  H
  H451     1.0000 0.25267  0.26661  0.13925  Biso   1.000  H
  C458     1.0000 0.21647  0.77744  0.07126  Biso   1.000  C
  H452     1.0000 0.13005  0.82423  0.14544  Biso   1.000  H
  H453     1.0000 0.13815  0.77734  0.17844  Biso   1.000  H
  C459     1.0000 0.03756  0.74264  0.16323  Biso   1.000  C
  H454     1.0000 0.95966  0.64835  0.17712  Biso   1.000  H
  H455     1.0000 0.02777  0.66445  0.19922  Biso   1.000  H
  H456     1.0000 0.73475  0.96952  0.18702  Biso   1.000  H
  H457     1.0000 0.73337  0.98603  0.13925  Biso   1.000  H
  C460     1.0000 0.66067  0.99162  0.17323  Biso   1.000  C
  C461     1.0000 0.45765  0.85872  0.10596  Biso   1.000  C
  H458     1.0000 0.57957  0.99442  0.14644  Biso   1.000  H
  H459     1.0000 0.63324  0.00092  0.11294  Biso   1.000  H
  H460     1.0000 0.35167  0.31132  0.17712  Biso   1.000  H
  H461     1.0000 0.33557  0.36334  0.19922  Biso   1.000  H
  C462     1.0000 0.36770  0.81925  0.00255  Biso   1.000  C
  C463     1.0000 0.28777  0.80213  0.05777  Biso   1.000  C
  H462     1.0000 0.18324  0.76641  0.05083  Biso   1.000  H
  H463     1.0000 0.03047  0.76525  0.18702  Biso   1.000  H
  H464     1.0000 0.01394  0.74731  0.13925  Biso   1.000  H
  H465     1.0000 0.63666  0.97222  0.19922  Biso   1.000  H
  H466     1.0000 0.68863  0.04034  0.17712  Biso   1.000  H
  C464     1.0000 0.40404  0.83932  0.07497  Biso   1.000  C
  H467     1.0000 0.44557  0.84882  0.13412  Biso   1.000  H
  C465     1.0000 0.30225  0.80152  0.01531  Biso   1.000  C
  C466     1.0000 0.41718  0.83744  0.03256  Biso   1.000  C
  C467     1.0000 0.33767  0.81833  0.08726  Biso   1.000  C
  H468     1.0000 0.26817  0.78933  0.99544  Biso   1.000  H
  H469     1.0000 0.46084  0.84882  0.02423  Biso   1.000  H
  H470     1.0000 0.32697  0.81524  0.11564  Biso   1.000  H
  C468     1.0000 0.33374  0.33759  0.33366  Biso   1.000  C
  C469     1.0000 0.28934  0.26788  0.31646  Biso   1.000  C
  C470     1.0000 0.39350  0.37924  0.30455  Biso   1.000  C
  H471     1.0000 0.30744  0.36014  0.33705  Biso   1.000  H
  H472     1.0000 0.35053  0.33439  0.36116  Biso   1.000  H
  H473     1.0000 0.25321  0.24157  0.33636  Biso   1.000  H
  H474     1.0000 0.26876  0.27108  0.29056  Biso   1.000  H
  C471     1.0000 0.32943  0.23095  0.30785  Biso   1.000  C
  C472     1.0000 0.43333  0.34389  0.29672  Biso   1.000  C
  H475     1.0000 0.42284  0.42339  0.31716  Biso   1.000  H
  H476     1.0000 0.37691  0.38636  0.27805  Biso   1.000  H
  H477     1.0000 0.29953  0.18716  0.29496  Biso   1.000  H
  H478     1.0000 0.34573  0.22297  0.33416  Biso   1.000  H
  C473     1.0000 0.38902  0.27286  0.27897  Biso   1.000  C
  N56      1.0000 0.48695  0.38117  0.26573  Biso   1.000  N
  H479     1.0000 0.45396  0.34089  0.32316  Biso   1.000  H
  N57      1.0000 0.42994  0.24015  0.27221  Biso   1.000  N
  H480     1.0000 0.37132  0.27698  0.25168  Biso   1.000  H
  C474     1.0000 0.54741  0.40566  0.27645  Biso   1.000  C
  C475     1.0000 0.44904  0.24025  0.23496  Biso   1.000  C
  C476     1.0000 0.60274  0.43589  0.24445  Biso   1.000  C
  H481     1.0000 0.55811  0.40505  0.30455  Biso   1.000  H
  C477     1.0000 0.49623  0.21505  0.22412  Biso   1.000  C
  H482     1.0000 0.43304  0.25655  0.21355  Biso   1.000  H
  C478     1.0000 0.67024  0.47867  0.25533  Biso   1.000  C
  C479     1.0000 0.58476  0.41638  0.20280  Biso   1.000  C
  C480     1.0000 0.52132  0.19158  0.25533  Biso   1.000  C
  C481     1.0000 0.51624  0.21678  0.18256  Biso   1.000  C
  H483     1.0000 0.68253  0.49015  0.28327  Biso   1.000  H
  C482     1.0000 0.71882  0.50376  0.22412  Biso   1.000  C
  H484     1.0000 0.53945  0.38666  0.19608  Biso   1.000  H
  C483     1.0000 0.63272  0.44016  0.17137  Biso   1.000  C
  H485     1.0000 0.50985  0.19239  0.28327  Biso   1.000  H
  C484     1.0000 0.56415  0.16689  0.24445  Biso   1.000  C
  C485     1.0000 0.55982  0.19254  0.17137  Biso   1.000  C
  H486     1.0000 0.50043  0.23435  0.16188  Biso   1.000  H
  C486     1.0000 0.70054  0.48375  0.18256  Biso   1.000  C
  C487     1.0000 0.79121  0.55096  0.23496  Biso   1.000  C
  C488     1.0000 0.61201  0.42065  0.12674  Biso   1.000  C
  C489     1.0000 0.58363  0.16836  0.20280  Biso   1.000  C
  C490     1.0000 0.59432  0.14179  0.27645  Biso   1.000  C
  C491     1.0000 0.57934  0.19137  0.12674  Biso   1.000  C
  H487     1.0000 0.73391  0.49955  0.16188  Biso   1.000  H
  N58      1.0000 0.81022  0.57006  0.27221  Biso   1.000  N
  H488     1.0000 0.82354  0.56696  0.21355  Biso   1.000  H
  C492     1.0000 0.54485  0.39296  0.11492  Biso   1.000  C
  C493     1.0000 0.65604  0.42705  0.09565  Biso   1.000  C
  H489     1.0000 0.61332  0.15276  0.19608  Biso   1.000  H
  N59      1.0000 0.61881  0.10577  0.26573  Biso   1.000  N
  H490     1.0000 0.59495  0.15307  0.30455  Biso   1.000  H
  C494     1.0000 0.60701  0.15185  0.11492  Biso   1.000  C
  C495     1.0000 0.57293  0.22897  0.09565  Biso   1.000  C
  C496     1.0000 0.88381  0.61096  0.27897  Biso   1.000  C
  H491     1.0000 0.51275  0.38676  0.13516  Biso   1.000  H
  C497     1.0000 0.52405  0.37416  0.07374  Biso   1.000  C
  C498     1.0000 0.63566  0.41039  0.05416  Biso   1.000  C
  H492     1.0000 0.70132  0.44315  0.10247  Biso   1.000  H
  C499     1.0000 0.65615  0.08946  0.29672  Biso   1.000  C
  H493     1.0000 0.61326  0.12599  0.13516  Biso   1.000  H
  C500     1.0000 0.62582  0.14987  0.07374  Biso   1.000  C
  C501     1.0000 0.58964  0.22526  0.05416  Biso   1.000  C
  H494     1.0000 0.55683  0.25818  0.10247  Biso   1.000  H
  C502     1.0000 0.91054  0.56666  0.29672  Biso   1.000  C
  C503     1.0000 0.90151  0.67055  0.30785  Biso   1.000  C
  H495     1.0000 0.90566  0.62869  0.25168  Biso   1.000  H
  H496     1.0000 0.47803  0.35445  0.06736  Biso   1.000  H
  C504     1.0000 0.56835  0.38356  0.04243  Biso   1.000  C
  H497     1.0000 0.66773  0.41724  0.03376  Biso   1.000  H
  H498     1.0000 0.65912  0.11309  0.32316  Biso   1.000  H
  C505     1.0000 0.62076  0.01428  0.30455  Biso   1.000  C
  C506     1.0000 0.72715  0.11619  0.27897  Biso   1.000  C
  H499     1.0000 0.64552  0.12355  0.06736  Biso   1.000  H
  C507     1.0000 0.61643  0.18477  0.04243  Biso   1.000  C
  H500     1.0000 0.58275  0.25046  0.03376  Biso   1.000  H
  N60      1.0000 0.89422  0.51306  0.26573  Biso   1.000  N
  H501     1.0000 0.88693  0.54608  0.32316  Biso   1.000  H
  C508     1.0000 0.98576  0.60649  0.30455  Biso   1.000  C
  C509     1.0000 0.97855  0.71068  0.31646  Biso   1.000  C
  H502     1.0000 0.88765  0.70047  0.29496  Biso   1.000  H
  H503     1.0000 0.87724  0.65429  0.33416  Biso   1.000  H
  C510     1.0000 0.54843  0.36766  0.99745  Biso   1.000  C
  H504     1.0000 0.57667  0.99949  0.31716  Biso   1.000  H
  H505     1.0000 0.61365  0.99055  0.27805  Biso   1.000  H
  C511     1.0000 0.66249  0.99619  0.33366  Biso   1.000  C
  N61      1.0000 0.75984  0.18975  0.27221  Biso   1.000  N
  C512     1.0000 0.76901  0.09846  0.30785  Biso   1.000  C
  H506     1.0000 0.72303  0.09439  0.25168  Biso   1.000  H
  C513     1.0000 0.63233  0.18076  0.99745  Biso   1.000  C
  C514     1.0000 0.85824  0.45255  0.27645  Biso   1.000  C
  H507     1.0000 0.00054  0.57717  0.31716  Biso   1.000  H
  H508     1.0000 0.00944  0.62305  0.27805  Biso   1.000  H
  C515     1.0000 0.00383  0.66628  0.33366  Biso   1.000  C
  H509     1.0000 0.98832  0.74675  0.33636  Biso   1.000  H
  H510     1.0000 0.00235  0.73126  0.29056  Biso   1.000  H
  C516     1.0000 0.50074  0.30228  0.98469  Biso   1.000  C
  C517     1.0000 0.57973  0.41714  0.96744  Biso   1.000  C
  H511     1.0000 0.66561  0.01616  0.36116  Biso   1.000  H
  C518     1.0000 0.73216  0.02149  0.31646  Biso   1.000  C
  H512     1.0000 0.63987  0.94727  0.33705  Biso   1.000  H
  C519     1.0000 0.75970  0.20875  0.23496  Biso   1.000  C
  H513     1.0000 0.81284  0.11238  0.29496  Biso   1.000  H
  H514     1.0000 0.77704  0.12279  0.33416  Biso   1.000  H
  C520     1.0000 0.69773  0.19849  0.98469  Biso   1.000  C
  C521     1.0000 0.58285  0.16257  0.96744  Biso   1.000  C
  C522     1.0000 0.83316  0.39728  0.24445  Biso   1.000  C
  H515     1.0000 0.84693  0.44188  0.30455  Biso   1.000  H
  H516     1.0000 0.98385  0.64947  0.36116  Biso   1.000  H
  H517     1.0000 0.05273  0.69255  0.33705  Biso   1.000  H
  H518     1.0000 0.47885  0.26819  0.00456  Biso   1.000  H
  C523     1.0000 0.48564  0.28775  0.94223  Biso   1.000  C
  C524     1.0000 0.56475  0.40409  0.92503  Biso   1.000  C
  H519     1.0000 0.61203  0.46088  0.97577  Biso   1.000  H
  H520     1.0000 0.75845  0.01168  0.33636  Biso   1.000  H
  H521     1.0000 0.72896  0.99766  0.29056  Biso   1.000  H
  C525     1.0000 0.78490  0.28114  0.22412  Biso   1.000  C
  H522     1.0000 0.74344  0.17649  0.21355  Biso   1.000  H
  H523     1.0000 0.73185  0.21068  0.00456  Biso   1.000  H
  C526     1.0000 0.71225  0.19788  0.94223  Biso   1.000  C
  C527     1.0000 0.59594  0.16069  0.92503  Biso   1.000  C
  H524     1.0000 0.53914  0.15119  0.97577  Biso   1.000  H
  C528     1.0000 0.80842  0.32976  0.25533  Biso   1.000  C
  C529     1.0000 0.83164  0.41526  0.20280  Biso   1.000  C
  C530     1.0000 0.51937  0.33769  0.91274  Biso   1.000  C
  C531     1.0000 0.43905  0.21647  0.92874  Biso   1.000  C
  C532     1.0000 0.59894  0.45768  0.89404  Biso   1.000  C
  C533     1.0000 0.78325  0.29948  0.18256  Biso   1.000  C
  C534     1.0000 0.66235  0.18167  0.91274  Biso   1.000  C
  C535     1.0000 0.78355  0.22257  0.92874  Biso   1.000  C
  C536     1.0000 0.54233  0.14128  0.89404  Biso   1.000  C
  H525     1.0000 0.80764  0.31747  0.28327  Biso   1.000  H
  C537     1.0000 0.80741  0.36725  0.17137  Biso   1.000  C
  H526     1.0000 0.84725  0.46058  0.19608  Biso   1.000  H
  H527     1.0000 0.51172  0.32697  0.88436  Biso   1.000  H
  N62      1.0000 0.42885  0.19986  0.89087  Biso   1.000  N
  H528     1.0000 0.41680  0.18325  0.94917  Biso   1.000  H
  N63      1.0000 0.63143  0.51966  0.90356  Biso   1.000  N
  H529     1.0000 0.59674  0.44554  0.86588  Biso   1.000  H
  H530     1.0000 0.76561  0.26606  0.16188  Biso   1.000  H
  H531     1.0000 0.67305  0.18477  0.88436  Biso   1.000  H
  N64      1.0000 0.80013  0.22897  0.89087  Biso   1.000  N
  H532     1.0000 0.81674  0.23359  0.94917  Biso   1.000  H
  N65      1.0000 0.48032  0.11177  0.90356  Biso   1.000  N
  H533     1.0000 0.55445  0.15119  0.86588  Biso   1.000  H
  C538     1.0000 0.80862  0.38798  0.12674  Biso   1.000  C
  C539     1.0000 0.38634  0.12655  0.88206  Biso   1.000  C
  C540     1.0000 0.66605  0.56849  0.87003  Biso   1.000  C
  C541     1.0000 0.87342  0.25976  0.88206  Biso   1.000  C
  C542     1.0000 0.43154  0.09754  0.87003  Biso   1.000  C
  C543     1.0000 0.84810  0.45514  0.11492  Biso   1.000  C
  C544     1.0000 0.77105  0.34399  0.09565  Biso   1.000  C
  H534     1.0000 0.36083  0.10359  0.90746  Biso   1.000  H
  C545     1.0000 0.33620  0.11365  0.84645  Biso   1.000  C
  C546     1.0000 0.74024  0.61365  0.88206  Biso   1.000  C
  C547     1.0000 0.63213  0.60969  0.86166  Biso   1.000  C
  H535     1.0000 0.66385  0.54359  0.84438  Biso   1.000  H
  H536     1.0000 0.89642  0.25727  0.90746  Biso   1.000  H
  C548     1.0000 0.88633  0.22257  0.84645  Biso   1.000  C
  C549     1.0000 0.90244  0.33398  0.87003  Biso   1.000  C
  C550     1.0000 0.39035  0.02245  0.86166  Biso   1.000  C
  H537     1.0000 0.45645  0.12025  0.84438  Biso   1.000  H
  H538     1.0000 0.87401  0.48725  0.13516  Biso   1.000  H
  C551     1.0000 0.85016  0.47597  0.07374  Biso   1.000  C
  C552     1.0000 0.77473  0.36436  0.05416  Biso   1.000  C
  H539     1.0000 0.74184  0.29867  0.10247  Biso   1.000  H
  H540     1.0000 0.30582  0.13006  0.85456  Biso   1.000  H
  H541     1.0000 0.36083  0.13818  0.82156  Biso   1.000  H
  C553     1.0000 0.29494  0.03754  0.83677  Biso   1.000  C
  N66      1.0000 0.77105  0.57118  0.89087  Biso   1.000  N
  H542     1.0000 0.74274  0.63915  0.90746  Biso   1.000  H
  C554     1.0000 0.77745  0.66379  0.84645  Biso   1.000  C
  C555     1.0000 0.66901  0.66064  0.82677  Biso   1.000  C
  H543     1.0000 0.58513  0.57956  0.85356  Biso   1.000  H
  H544     1.0000 0.63235  0.63326  0.88706  Biso   1.000  H
  H545     1.0000 0.86993  0.17578  0.85456  Biso   1.000  H
  H546     1.0000 0.86183  0.22267  0.82156  Biso   1.000  H
  C556     1.0000 0.96242  0.25737  0.83677  Biso   1.000  C
  N67      1.0000 0.88823  0.36858  0.90356  Biso   1.000  N
  C557     1.0000 0.97754  0.36786  0.86166  Biso   1.000  C
  H547     1.0000 0.87973  0.33616  0.84438  Biso   1.000  H
  H548     1.0000 0.36678  0.99909  0.88706  Biso   1.000  H
  C558     1.0000 0.33936  0.00838  0.82677  Biso   1.000  C
  H549     1.0000 0.42045  0.00559  0.85356  Biso   1.000  H
  H550     1.0000 0.87644  0.52195  0.06736  Biso   1.000  H
  C559     1.0000 0.81525  0.43167  0.04243  Biso   1.000  C
  H551     1.0000 0.74952  0.33225  0.03376  Biso   1.000  H
  H552     1.0000 0.26523  0.03048  0.81298  Biso   1.000  H
  H553     1.0000 0.26665  0.01397  0.86075  Biso   1.000  H
  C560     1.0000 0.77743  0.56097  0.92874  Biso   1.000  C
  H554     1.0000 0.82423  0.69417  0.85456  Biso   1.000  H
  H555     1.0000 0.77732  0.63915  0.82156  Biso   1.000  H
  C561     1.0000 0.74264  0.70504  0.83677  Biso   1.000  C
  H556     1.0000 0.64836  0.68868  0.82288  Biso   1.000  H
  H557     1.0000 0.66445  0.63666  0.80078  Biso   1.000  H
  H558     1.0000 0.96955  0.23476  0.81298  Biso   1.000  H
  H559     1.0000 0.98602  0.25264  0.86075  Biso   1.000  H
  C562     1.0000 0.99166  0.33098  0.82677  Biso   1.000  C
  C563     1.0000 0.85873  0.40109  0.89404  Biso   1.000  C
  H560     1.0000 0.99444  0.41486  0.85356  Biso   1.000  H
  H561     1.0000 0.00094  0.36766  0.88706  Biso   1.000  H
  H562     1.0000 0.31135  0.95966  0.82288  Biso   1.000  H
  H563     1.0000 0.36336  0.02779  0.80078  Biso   1.000  H
  C564     1.0000 0.81926  0.45159  0.99745  Biso   1.000  C
  C565     1.0000 0.80213  0.51438  0.94223  Biso   1.000  C
  H564     1.0000 0.76644  0.58317  0.94917  Biso   1.000  H
  H565     1.0000 0.76524  0.73476  0.81298  Biso   1.000  H
  H566     1.0000 0.74735  0.73339  0.86075  Biso   1.000  H
  H567     1.0000 0.97221  0.33555  0.80078  Biso   1.000  H
  H568     1.0000 0.04032  0.35166  0.82288  Biso   1.000  H
  H569     1.0000 0.84883  0.40327  0.86588  Biso   1.000  H
  C566     1.0000 0.83936  0.43528  0.92503  Biso   1.000  C
  C567     1.0000 0.80154  0.49929  0.98469  Biso   1.000  C
  C568     1.0000 0.83743  0.42024  0.96744  Biso   1.000  C
  C569     1.0000 0.81831  0.48065  0.91274  Biso   1.000  C
  H570     1.0000 0.78935  0.52119  0.00456  Biso   1.000  H
  H571     1.0000 0.84884  0.38798  0.97577  Biso   1.000  H
  H572     1.0000 0.81525  0.48827  0.88436  Biso   1.000  H
  C570     1.0000 0.56430  0.56818  0.35880  Biso   1.000  C
  C571     1.0000 0.60619  0.55050  0.38769  Biso   1.000  C
  C572     1.0000 0.60119  0.64520  0.35019  Biso   1.000  C
  H573     1.0000 0.52050  0.55431  0.37169  Biso   1.000  H
  H574     1.0000 0.55630  0.54390  0.33250  Biso   1.000  H
  N68      1.0000 0.57348  0.47689  0.39445  Biso   1.000  N
  C573     1.0000 0.67719  0.57722  0.36993  Biso   1.000  C
  H575     1.0000 0.61032  0.57230  0.41501  Biso   1.000  H
  C574     1.0000 0.67090  0.67050  0.33300  Biso   1.000  C
  H576     1.0000 0.57489  0.65500  0.33029  Biso   1.000  H
  H577     1.0000 0.60443  0.66902  0.37609  Biso   1.000  H
  C575     1.0000 0.57361  0.45789  0.43170  Biso   1.000  C
  N69      1.0000 0.71453  0.56092  0.40096  Biso   1.000  N
  H578     1.0000 0.67422  0.55360  0.34350  Biso   1.000  H
  C576     1.0000 0.71258  0.65241  0.36210  Biso   1.000  C
  H579     1.0000 0.69351  0.71942  0.32960  Biso   1.000  H
  H580     1.0000 0.66771  0.65048  0.30549  Biso   1.000  H
  C577     1.0000 0.54842  0.38549  0.44254  Biso   1.000  C
  H581     1.0000 0.58990  0.49020  0.45310  Biso   1.000  H
  C578     1.0000 0.73902  0.52490  0.39021  Biso   1.000  C
  H582     1.0000 0.75671  0.66720  0.34950  Biso   1.000  H
  H583     1.0000 0.71971  0.67609  0.38860  Biso   1.000  H
  C579     1.0000 0.52492  0.33693  0.41133  Biso   1.000  C
  C580     1.0000 0.55009  0.36720  0.48410  Biso   1.000  C
  C581     1.0000 0.76919  0.49980  0.42224  Biso   1.000  C
  H584     1.0000 0.73840  0.51362  0.36210  Biso   1.000  H
  C582     1.0000 0.50018  0.26941  0.42224  Biso   1.000  C
  H585     1.0000 0.52570  0.34922  0.38338  Biso   1.000  H
  C583     1.0000 0.52591  0.29938  0.49529  Biso   1.000  C
  H586     1.0000 0.56771  0.40058  0.50481  Biso   1.000  H
  C584     1.0000 0.81202  0.47511  0.41133  Biso   1.000  C
  C585     1.0000 0.74969  0.49828  0.46388  Biso   1.000  C
  C586     1.0000 0.47507  0.21408  0.39021  Biso   1.000  C
  C587     1.0000 0.50171  0.25142  0.46388  Biso   1.000  C
  C588     1.0000 0.52472  0.27871  0.53995  Biso   1.000  C
  C589     1.0000 0.83708  0.45159  0.44254  Biso   1.000  C
  H587     1.0000 0.82349  0.47430  0.38338  Biso   1.000  H
  H588     1.0000 0.72003  0.51392  0.47061  Biso   1.000  H
  C590     1.0000 0.77350  0.47409  0.49529  Biso   1.000  C
  N70      1.0000 0.43910  0.15358  0.40096  Biso   1.000  N
  H589     1.0000 0.48642  0.22480  0.36210  Biso   1.000  H
  H590     1.0000 0.48609  0.20611  0.47061  Biso   1.000  H
  C591     1.0000 0.48522  0.21149  0.55174  Biso   1.000  C
  C592     1.0000 0.56229  0.32270  0.57101  Biso   1.000  C
  C593     1.0000 0.88428  0.42639  0.43170  Biso   1.000  C
  C594     1.0000 0.81711  0.44991  0.48410  Biso   1.000  C
  C595     1.0000 0.75400  0.47531  0.53995  Biso   1.000  C
  C596     1.0000 0.42277  0.09998  0.36993  Biso   1.000  C
  H591     1.0000 0.45931  0.17939  0.53150  Biso   1.000  H
  C597     1.0000 0.48319  0.19071  0.59292  Biso   1.000  C
  C598     1.0000 0.55859  0.30228  0.61253  Biso   1.000  C
  H592     1.0000 0.59151  0.36802  0.56419  Biso   1.000  H
  N71      1.0000 0.90338  0.42649  0.39445  Biso   1.000  N
  H593     1.0000 0.90028  0.41008  0.45310  Biso   1.000  H
  H594     1.0000 0.83289  0.43228  0.50481  Biso   1.000  H
  C599     1.0000 0.72631  0.51479  0.55174  Biso   1.000  C
  C600     1.0000 0.76041  0.43772  0.57101  Biso   1.000  C
  C601     1.0000 0.34758  0.06020  0.36210  Biso   1.000  C
  H595     1.0000 0.44642  0.12061  0.34350  Biso   1.000  H
  C602     1.0000 0.44950  0.05568  0.38769  Biso   1.000  C
  H596     1.0000 0.45687  0.14469  0.59930  Biso   1.000  H
  C603     1.0000 0.51810  0.23501  0.62422  Biso   1.000  C
  H597     1.0000 0.58380  0.33439  0.63290  Biso   1.000  H
  C604     1.0000 0.94433  0.39382  0.38769  Biso   1.000  C
  H598     1.0000 0.72008  0.54070  0.53150  Biso   1.000  H
  C605     1.0000 0.70753  0.51682  0.59292  Biso   1.000  C
  C606     1.0000 0.74368  0.44138  0.61253  Biso   1.000  C
  H599     1.0000 0.77652  0.40851  0.56419  Biso   1.000  H
  H600     1.0000 0.33280  0.08951  0.34950  Biso   1.000  H
  H601     1.0000 0.32388  0.04359  0.38860  Biso   1.000  H
  C607     1.0000 0.32952  0.00041  0.33300  Biso   1.000  C
  N72      1.0000 0.52310  0.09658  0.39445  Biso   1.000  N
  H602     1.0000 0.42769  0.03800  0.41501  Biso   1.000  H
  C608     1.0000 0.43185  0.99609  0.35880  Biso   1.000  C
  C609     1.0000 0.51408  0.21510  0.66920  Biso   1.000  C
  C610     1.0000 0.90002  0.32280  0.36993  Biso   1.000  C
  H603     1.0000 0.96202  0.38971  0.41501  Biso   1.000  H
  C611     1.0000 0.00389  0.43569  0.35880  Biso   1.000  C
  H604     1.0000 0.68779  0.54308  0.59930  Biso   1.000  H
  C612     1.0000 0.71691  0.48192  0.62422  Biso   1.000  C
  H605     1.0000 0.75057  0.41618  0.63290  Biso   1.000  H
  H606     1.0000 0.34950  0.01722  0.30549  Biso   1.000  H
  H607     1.0000 0.28063  0.97409  0.32960  Biso   1.000  H
  C613     1.0000 0.35483  0.95600  0.35019  Biso   1.000  C
  C614     1.0000 0.54211  0.11568  0.43170  Biso   1.000  C
  H608     1.0000 0.45611  0.01240  0.33250  Biso   1.000  H
  H609     1.0000 0.44569  0.96622  0.37169  Biso   1.000  H
  C615     1.0000 0.53180  0.16740  0.68200  Biso   1.000  C
  C616     1.0000 0.49589  0.24639  0.69925  Biso   1.000  C
  N73      1.0000 0.84639  0.28551  0.40096  Biso   1.000  N
  H610     1.0000 0.87939  0.32580  0.34350  Biso   1.000  H
  C617     1.0000 0.93982  0.28739  0.36210  Biso   1.000  C
  C618     1.0000 0.04401  0.39880  0.35019  Biso   1.000  C
  H611     1.0000 0.98762  0.44371  0.33250  Biso   1.000  H
  H612     1.0000 0.03379  0.47948  0.37169  Biso   1.000  H
  C619     1.0000 0.70099  0.48588  0.66920  Biso   1.000  C
  H613     1.0000 0.34500  0.91988  0.33029  Biso   1.000  H
  H614     1.0000 0.33101  0.93538  0.37609  Biso   1.000  H
  C620     1.0000 0.61453  0.16293  0.44254  Biso   1.000  C
  H615     1.0000 0.50978  0.09968  0.45310  Biso   1.000  H
  H616     1.0000 0.54400  0.14550  0.66210  Biso   1.000  H
  C621     1.0000 0.53121  0.15231  0.72443  Biso   1.000  C
  C622     1.0000 0.49399  0.23141  0.74162  Biso   1.000  C
  H617     1.0000 0.48451  0.27871  0.69089  Biso   1.000  H
  C623     1.0000 0.78591  0.26097  0.39021  Biso   1.000  C
  H618     1.0000 0.91051  0.24330  0.34950  Biso   1.000  H
  H619     1.0000 0.95641  0.28028  0.38860  Biso   1.000  H
  C624     1.0000 0.99961  0.32910  0.33300  Biso   1.000  C
  H620     1.0000 0.08013  0.42512  0.33029  Biso   1.000  H
  H621     1.0000 0.06458  0.39560  0.37609  Biso   1.000  H
  C625     1.0000 0.63561  0.46820  0.68200  Biso   1.000  C
  C626     1.0000 0.75050  0.50412  0.69925  Biso   1.000  C
  C627     1.0000 0.66311  0.18802  0.41133  Biso   1.000  C
  C628     1.0000 0.63278  0.18289  0.48410  Biso   1.000  C
  C629     1.0000 0.51501  0.18599  0.75391  Biso   1.000  C
  C630     1.0000 0.55592  0.10572  0.73791  Biso   1.000  C
  C631     1.0000 0.47461  0.26560  0.77262  Biso   1.000  C
  C632     1.0000 0.73060  0.23080  0.42224  Biso   1.000  C
  H622     1.0000 0.77521  0.26158  0.36210  Biso   1.000  H
  H623     1.0000 0.98282  0.33230  0.30549  Biso   1.000  H
  H624     1.0000 0.02588  0.30649  0.32960  Biso   1.000  H
  C633     1.0000 0.62109  0.46881  0.72443  Biso   1.000  C
  H625     1.0000 0.60149  0.45601  0.66210  Biso   1.000  H
  C634     1.0000 0.73740  0.50600  0.74162  Biso   1.000  C
  H626     1.0000 0.79420  0.51550  0.69089  Biso   1.000  H
  H627     1.0000 0.65079  0.17649  0.38338  Biso   1.000  H
  C635     1.0000 0.70060  0.22648  0.49529  Biso   1.000  C
  H628     1.0000 0.59941  0.16709  0.50481  Biso   1.000  H
  H629     1.0000 0.51809  0.17842  0.78230  Biso   1.000  H
  N74      1.0000 0.56230  0.09551  0.77582  Biso   1.000  N
  H630     1.0000 0.56690  0.08352  0.71751  Biso   1.000  H
  N75      1.0000 0.44511  0.29811  0.76309  Biso   1.000  N
  H631     1.0000 0.48452  0.26341  0.80081  Biso   1.000  H
  C636     1.0000 0.74859  0.25031  0.46388  Biso   1.000  C
  C637     1.0000 0.54979  0.44412  0.73791  Biso   1.000  C
  C638     1.0000 0.67099  0.48502  0.75391  Biso   1.000  C
  C639     1.0000 0.79101  0.52540  0.77262  Biso   1.000  C
  C640     1.0000 0.72130  0.24599  0.53995  Biso   1.000  C
  C641     1.0000 0.59308  0.05299  0.78459  Biso   1.000  C
  C642     1.0000 0.43091  0.33271  0.79663  Biso   1.000  C
  H632     1.0000 0.79387  0.27998  0.47061  Biso   1.000  H
  N76      1.0000 0.53322  0.43772  0.77582  Biso   1.000  N
  H633     1.0000 0.51660  0.43310  0.71751  Biso   1.000  H
  H634     1.0000 0.66029  0.48192  0.78230  Biso   1.000  H
  N77      1.0000 0.85302  0.55492  0.76309  Biso   1.000  N
  H635     1.0000 0.77889  0.51550  0.80081  Biso   1.000  H
  C643     1.0000 0.78847  0.27368  0.55174  Biso   1.000  C
  C644     1.0000 0.67728  0.23959  0.57101  Biso   1.000  C
  H636     1.0000 0.59058  0.02748  0.75919  Biso   1.000  H
  C645     1.0000 0.55589  0.00290  0.82020  Biso   1.000  C
  C646     1.0000 0.66730  0.09820  0.79663  Biso   1.000  C
  C647     1.0000 0.45990  0.40688  0.78459  Biso   1.000  C
  C648     1.0000 0.35580  0.29882  0.80499  Biso   1.000  C
  H637     1.0000 0.45362  0.33052  0.82231  Biso   1.000  H
  C649     1.0000 0.90178  0.56909  0.79663  Biso   1.000  C
  H638     1.0000 0.82059  0.27992  0.53150  Biso   1.000  H
  C650     1.0000 0.80929  0.29252  0.59292  Biso   1.000  C
  C651     1.0000 0.69769  0.25630  0.61253  Biso   1.000  C
  H639     1.0000 0.63200  0.22348  0.56419  Biso   1.000  H
  H640     1.0000 0.55600  0.02748  0.84510  Biso   1.000  H
  H641     1.0000 0.50911  0.97252  0.81210  Biso   1.000  H
  C652     1.0000 0.59072  0.96159  0.82989  Biso   1.000  C
  N78      1.0000 0.70192  0.14702  0.76309  Biso   1.000  N
  C653     1.0000 0.70121  0.05700  0.80499  Biso   1.000  C
  H642     1.0000 0.66949  0.12310  0.82231  Biso   1.000  H
  H643     1.0000 0.43692  0.40942  0.75919  Biso   1.000  H
  C654     1.0000 0.44701  0.44412  0.82020  Biso   1.000  C
  C655     1.0000 0.34168  0.33571  0.83991  Biso   1.000  C
  H644     1.0000 0.33888  0.25178  0.81310  Biso   1.000  H
  H645     1.0000 0.33238  0.29898  0.77959  Biso   1.000  H
  C656     1.0000 0.94698  0.54009  0.78459  Biso   1.000  C
  C657     1.0000 0.94297  0.64418  0.80499  Biso   1.000  C
  H646     1.0000 0.87687  0.54639  0.82231  Biso   1.000  H
  H647     1.0000 0.85529  0.31218  0.59930  Biso   1.000  H
  C658     1.0000 0.76500  0.28312  0.62422  Biso   1.000  C
  H648     1.0000 0.66559  0.24939  0.63290  Biso   1.000  H
  C659     1.0000 0.66431  0.00599  0.83991  Biso   1.000  C
  H649     1.0000 0.56814  0.93192  0.85371  Biso   1.000  H
  H650     1.0000 0.58603  0.93330  0.80590  Biso   1.000  H
  C660     1.0000 0.73440  0.20900  0.77262  Biso   1.000  C
  H651     1.0000 0.74819  0.08708  0.81310  Biso   1.000  H
  H652     1.0000 0.70097  0.03338  0.77959  Biso   1.000  H
  H653     1.0000 0.46341  0.49091  0.81210  Biso   1.000  H
  H654     1.0000 0.47151  0.44402  0.84510  Biso   1.000  H
  C661     1.0000 0.37092  0.40932  0.82989  Biso   1.000  C
  H655     1.0000 0.29300  0.31498  0.84381  Biso   1.000  H
  H656     1.0000 0.36111  0.33108  0.86591  Biso   1.000  H
  N79      1.0000 0.90447  0.46678  0.77582  Biso   1.000  N
  H657     1.0000 0.97252  0.56310  0.75919  Biso   1.000  H
  C662     1.0000 0.99712  0.55299  0.82020  Biso   1.000  C
  C663     1.0000 0.99399  0.65830  0.83991  Biso   1.000  C
  H658     1.0000 0.91289  0.66110  0.81310  Biso   1.000  H
  H659     1.0000 0.96660  0.66760  0.77959  Biso   1.000  H
  C664     1.0000 0.78489  0.29898  0.66920  Biso   1.000  C
  H660     1.0000 0.66889  0.03002  0.86591  Biso   1.000  H
  H661     1.0000 0.68498  0.97800  0.84381  Biso   1.000  H
  C665     1.0000 0.76859  0.26260  0.74162  Biso   1.000  C
  H662     1.0000 0.73658  0.22109  0.80081  Biso   1.000  H
  H663     1.0000 0.36377  0.43188  0.85371  Biso   1.000  H
  H664     1.0000 0.34730  0.41399  0.80590  Biso   1.000  H
  C666     1.0000 0.89430  0.45022  0.73791  Biso   1.000  C
  H665     1.0000 0.97251  0.52850  0.84510  Biso   1.000  H
  H666     1.0000 0.02750  0.53658  0.81210  Biso   1.000  H
  C667     1.0000 0.03838  0.62909  0.82989  Biso   1.000  C
  H667     1.0000 0.96998  0.63890  0.86591  Biso   1.000  H
  H668     1.0000 0.02200  0.70702  0.84381  Biso   1.000  H
  C668     1.0000 0.83261  0.36441  0.68200  Biso   1.000  C
  C669     1.0000 0.75359  0.24949  0.69925  Biso   1.000  C
  C670     1.0000 0.81398  0.32900  0.75391  Biso   1.000  C
  C671     1.0000 0.84768  0.37889  0.72443  Biso   1.000  C
  H669     1.0000 0.91652  0.48339  0.71751  Biso   1.000  H
  H670     1.0000 0.06811  0.63621  0.85371  Biso   1.000  H
  H671     1.0000 0.06669  0.65272  0.80590  Biso   1.000  H
  H672     1.0000 0.85449  0.39850  0.66210  Biso   1.000  H
  H673     1.0000 0.72132  0.20580  0.69089  Biso   1.000  H
  H674     1.0000 0.82163  0.33972  0.78230  Biso   1.000  H
  Ne1      1.0000 0.66667  0.33333  0.08271  Biso   1.000  Ne
  He1      1.0000 0.66667  0.33332  0.09913  Biso   1.000  He
  He2      1.0000 0.66666  0.33333  0.05156  Biso   1.000  He
  Ar1      1.0000 0.66668  0.33332  0.08270  Biso   1.000  Ar
  Ne2      1.0000 0.33333  0.66667  0.41605  Biso   1.000  Ne
  He3      1.0000 0.33332  0.66667  0.43247  Biso   1.000  He
  He4      1.0000 0.33333  0.66666  0.38487  Biso   1.000  He
  Ar2      1.0000 0.33332  0.66667  0.41198  Biso   1.000  Ar
  Ne3      1.0000 0.66667  0.33333  0.58395  Biso   1.000  Ne
  He5      1.0000 0.66665  0.33332  0.61497  Biso   1.000  He
  He6      1.0000 0.66667  0.33335  0.56802  Biso   1.000  He
  Ar3      1.0000 0.66639  0.33310  0.58799  Biso   1.000  Ar
  Ne4      1.0000 0.00242  0.99297  0.74820  Biso   1.000  Ne
  He7      1.0000 0.00000  0.00001  0.76582  Biso   1.000  He
  He8      1.0000 0.99999  0.00000  0.71821  Biso   1.000  He
  Ar4      1.0000 0.99988  0.99992  0.74529  Biso   1.000  Ar
  Ne5      1.0000 0.33333  0.66667  0.91729  Biso   1.000  Ne
  He9      1.0000 0.33333  0.66667  0.94828  Biso   1.000  He
  He10     1.0000 0.33334  0.66667  0.90136  Biso   1.000  He
  Ar5      1.0000 0.33325  0.66678  0.92142  Biso   1.000  Ar
  Ne6      1.0000 0.99598  0.99659  0.25912  Biso   1.000  Ne
  He11     1.0000 1.00000  0.00001  0.28163  Biso   1.000  He
  He12     1.0000 0.06550  0.01881  0.26682  Biso   1.000  He
  He13     1.0000 0.95019  0.93013  0.26765  Biso   1.000  He
  He14     1.0000 0.99998  0.99999  0.23467  Biso   1.000  He
  Ar6      1.0000 0.99999  0.00000  0.25470  Biso   1.000  Ar
