data_image0
_cell_length_a       22.347
_cell_length_b       22.347
_cell_length_c       42.123
_cell_angle_alpha    90
_cell_angle_beta     90
_cell_angle_gamma    120

_symmetry_space_group_name_H-M    "P 1"
_symmetry_int_tables_number       1

loop_
  _symmetry_equiv_pos_as_xyz
  'x, y, z'

loop_
  _atom_site_label
  _atom_site_occupancy
  _atom_site_fract_x
  _atom_site_fract_y
  _atom_site_fract_z
  _atom_site_thermal_displace_type
  _atom_site_B_iso_or_equiv
  _atom_site_type_symbol
  C1       1.0000 0.88077  0.43063  0.44451  Biso   1.000  C
  C2       1.0000 0.87376  0.44282  0.41284  Biso   1.000  C
  C3       1.0000 0.86205  0.36418  0.45524  Biso   1.000  C
  H1       1.0000 0.89812  0.46711  0.45889  Biso   1.000  H
  C4       1.0000 0.89369  0.51356  0.40263  Biso   1.000  C
  C5       1.0000 0.84700  0.38743  0.39180  Biso   1.000  C
  C6       1.0000 0.83709  0.30998  0.43366  Biso   1.000  C
  C7       1.0000 0.86633  0.35333  0.48859  Biso   1.000  C
  N1       1.0000 0.88865  0.52953  0.37462  Biso   1.000  N
  H2       1.0000 0.91101  0.54829  0.41790  Biso   1.000  H
  C8       1.0000 0.82906  0.32093  0.40168  Biso   1.000  C
  H3       1.0000 0.84090  0.39492  0.37061  Biso   1.000  H
  H4       1.0000 0.82562  0.26600  0.44059  Biso   1.000  H
  C9       1.0000 0.86853  0.34744  0.51651  Biso   1.000  C
  C10      1.0000 0.91018  0.60213  0.36859  Biso   1.000  C
  C11      1.0000 0.80202  0.26409  0.37851  Biso   1.000  C
  C12      1.0000 0.86875  0.34036  0.55039  Biso   1.000  C
  C13      1.0000 0.84779  0.60900  0.35966  Biso   1.000  C
  C14      1.0000 0.96390  0.63018  0.34221  Biso   1.000  C
  H5       1.0000 0.93090  0.62879  0.38801  Biso   1.000  H
  N2       1.0000 0.78636  0.20286  0.38528  Biso   1.000  N
  H6       1.0000 0.79619  0.27381  0.35760  Biso   1.000  H
  C15      1.0000 0.84093  0.27711  0.56454  Biso   1.000  C
  C16      1.0000 0.89978  0.39632  0.56955  Biso   1.000  C
  N3       1.0000 0.79713  0.58347  0.38528  Biso   1.000  N
  H7       1.0000 0.82651  0.58192  0.34041  Biso   1.000  H
  C17      1.0000 0.87148  0.68475  0.35299  Biso   1.000  C
  C18      1.0000 0.98757  0.70552  0.33502  Biso   1.000  C
  H8       1.0000 0.94439  0.60280  0.32320  Biso   1.000  H
  H9       1.0000 0.00338  0.62600  0.34850  Biso   1.000  H
  C19      1.0000 0.76119  0.15217  0.35966  Biso   1.000  C
  H10      1.0000 0.82440  0.23779  0.55191  Biso   1.000  H
  C20      1.0000 0.83679  0.27034  0.59711  Biso   1.000  C
  H11      1.0000 0.92328  0.44019  0.56060  Biso   1.000  H
  C21      1.0000 0.89715  0.38955  0.60214  Biso   1.000  C
  C22      1.0000 0.73593  0.53795  0.37851  Biso   1.000  C
  H12      1.0000 0.83198  0.68888  0.34651  Biso   1.000  H
  H13      1.0000 0.89000  0.71131  0.37229  Biso   1.000  H
  C23      1.0000 0.92631  0.71456  0.32716  Biso   1.000  C
  H14      1.0000 0.01180  0.73368  0.35330  Biso   1.000  H
  H15      1.0000 0.01943  0.72092  0.31719  Biso   1.000  H
  C24      1.0000 0.69197  0.08980  0.36859  Biso   1.000  C
  H16      1.0000 0.75539  0.17351  0.34041  Biso   1.000  H
  C25      1.0000 0.81330  0.12851  0.35299  Biso   1.000  C
  C26      1.0000 0.86172  0.32630  0.61629  Biso   1.000  C
  H17      1.0000 0.81642  0.22648  0.60606  Biso   1.000  H
  H18      1.0000 0.91994  0.42887  0.61477  Biso   1.000  H
  C27      1.0000 0.67902  0.50808  0.40168  Biso   1.000  C
  H19      1.0000 0.72618  0.52240  0.35760  Biso   1.000  H
  H20      1.0000 0.90621  0.69172  0.30720  Biso   1.000  H
  H21      1.0000 0.94200  0.76339  0.32460  Biso   1.000  H
  N4       1.0000 0.64090  0.11135  0.37462  Biso   1.000  N
  C28      1.0000 0.66626  0.03607  0.34221  Biso   1.000  C
  H22      1.0000 0.69790  0.06908  0.38801  Biso   1.000  H
  H23      1.0000 0.85689  0.16798  0.34651  Biso   1.000  H
  H24      1.0000 0.82133  0.11001  0.37229  Biso   1.000  H
  C29      1.0000 0.78826  0.07368  0.32716  Biso   1.000  C
  C30      1.0000 0.85443  0.31923  0.65017  Biso   1.000  C
  C31      1.0000 0.61256  0.45957  0.39180  Biso   1.000  C
  C32      1.0000 0.69001  0.52710  0.43366  Biso   1.000  C
  C33      1.0000 0.61984  0.10629  0.40263  Biso   1.000  C
  C34      1.0000 0.71796  0.01245  0.33502  Biso   1.000  C
  H25      1.0000 0.65840  0.05560  0.32320  Biso   1.000  H
  H26      1.0000 0.62258  0.99659  0.34850  Biso   1.000  H
  H27      1.0000 0.78547  0.09378  0.30720  Biso   1.000  H
  H28      1.0000 0.82140  0.05798  0.32460  Biso   1.000  H
  C35      1.0000 0.84634  0.31334  0.67809  Biso   1.000  C
  C36      1.0000 0.55717  0.43094  0.41284  Biso   1.000  C
  H29      1.0000 0.60510  0.44598  0.37061  Biso   1.000  H
  C37      1.0000 0.63578  0.49785  0.45524  Biso   1.000  C
  H30      1.0000 0.73400  0.55960  0.44059  Biso   1.000  H
  C38      1.0000 0.56905  0.12623  0.41284  Biso   1.000  C
  H31      1.0000 0.63728  0.08898  0.41790  Biso   1.000  H
  H32      1.0000 0.72195  0.98822  0.35330  Biso   1.000  H
  H33      1.0000 0.70150  0.98062  0.31719  Biso   1.000  H
  C39      1.0000 0.83120  0.30248  0.71142  Biso   1.000  C
  C40      1.0000 0.48644  0.38015  0.40263  Biso   1.000  C
  C41      1.0000 0.56938  0.45016  0.44451  Biso   1.000  C
  C42      1.0000 0.64666  0.51299  0.48859  Biso   1.000  C
  C43      1.0000 0.54041  0.15300  0.39180  Biso   1.000  C
  C44      1.0000 0.54987  0.11921  0.44451  Biso   1.000  C
  C45      1.0000 0.78348  0.23603  0.72215  Biso   1.000  C
  C46      1.0000 0.86045  0.35669  0.73300  Biso   1.000  C
  N5       1.0000 0.47047  0.35912  0.37462  Biso   1.000  N
  H34      1.0000 0.45171  0.36268  0.41790  Biso   1.000  H
  H35      1.0000 0.53290  0.43099  0.45889  Biso   1.000  H
  C47      1.0000 0.65253  0.52105  0.51651  Biso   1.000  C
  C48      1.0000 0.49187  0.17093  0.40168  Biso   1.000  C
  H36      1.0000 0.55402  0.15910  0.37061  Biso   1.000  H
  C49      1.0000 0.50215  0.13796  0.45524  Biso   1.000  C
  H37      1.0000 0.56900  0.10190  0.45889  Biso   1.000  H
  C50      1.0000 0.76427  0.22384  0.75382  Biso   1.000  C
  H38      1.0000 0.76434  0.19955  0.70776  Biso   1.000  H
  C51      1.0000 0.84146  0.34573  0.76500  Biso   1.000  C
  H39      1.0000 0.89295  0.40066  0.72606  Biso   1.000  H
  C52      1.0000 0.39784  0.30801  0.36859  Biso   1.000  C
  C53      1.0000 0.65964  0.52839  0.55039  Biso   1.000  C
  C54      1.0000 0.46202  0.19795  0.37851  Biso   1.000  C
  C55      1.0000 0.47292  0.16292  0.43366  Biso   1.000  C
  C56      1.0000 0.48703  0.13367  0.48859  Biso   1.000  C
  C57      1.0000 0.71346  0.15310  0.76405  Biso   1.000  C
  C58      1.0000 0.79290  0.27923  0.77485  Biso   1.000  C
  C59      1.0000 0.87126  0.40257  0.78817  Biso   1.000  C
  C60      1.0000 0.39099  0.23883  0.35966  Biso   1.000  C
  C61      1.0000 0.36981  0.33375  0.34221  Biso   1.000  C
  H40      1.0000 0.37123  0.30212  0.38801  Biso   1.000  H
  C62      1.0000 0.72285  0.56379  0.56454  Biso   1.000  C
  C63      1.0000 0.60367  0.50343  0.56955  Biso   1.000  C
  N6       1.0000 0.41654  0.21366  0.38528  Biso   1.000  N
  H41      1.0000 0.47761  0.20379  0.35760  Biso   1.000  H
  H42      1.0000 0.44040  0.17439  0.44059  Biso   1.000  H
  C64      1.0000 0.47894  0.13145  0.51651  Biso   1.000  C
  N7       1.0000 0.69245  0.13714  0.79204  Biso   1.000  N
  H43      1.0000 0.69605  0.11838  0.74876  Biso   1.000  H
  H44      1.0000 0.77934  0.27179  0.79607  Biso   1.000  H
  N8       1.0000 0.91683  0.46380  0.78140  Biso   1.000  N
  H45      1.0000 0.85571  0.39286  0.80906  Biso   1.000  H
  C65      1.0000 0.31521  0.18669  0.35299  Biso   1.000  C
  H46      1.0000 0.41810  0.24461  0.34041  Biso   1.000  H
  C66      1.0000 0.29448  0.28207  0.33502  Biso   1.000  C
  H47      1.0000 0.37401  0.37741  0.34850  Biso   1.000  H
  H48      1.0000 0.39718  0.34160  0.32320  Biso   1.000  H
  H49      1.0000 0.76223  0.58663  0.55191  Biso   1.000  H
  C67      1.0000 0.72967  0.56642  0.59711  Biso   1.000  C
  H50      1.0000 0.55979  0.48308  0.56060  Biso   1.000  H
  C68      1.0000 0.61046  0.50762  0.60214  Biso   1.000  C
  C69      1.0000 0.47158  0.13125  0.55039  Biso   1.000  C
  C70      1.0000 0.64139  0.06454  0.79809  Biso   1.000  C
  C71      1.0000 0.94235  0.51449  0.80702  Biso   1.000  C
  C72      1.0000 0.28545  0.21175  0.32716  Biso   1.000  C
  H51      1.0000 0.31108  0.14308  0.34651  Biso   1.000  H
  H52      1.0000 0.28870  0.17868  0.37229  Biso   1.000  H
  H53      1.0000 0.26631  0.27810  0.35330  Biso   1.000  H
  H54      1.0000 0.27911  0.29851  0.31719  Biso   1.000  H
  C73      1.0000 0.67367  0.53542  0.61629  Biso   1.000  C
  H55      1.0000 0.77353  0.58998  0.60606  Biso   1.000  H
  H56      1.0000 0.57113  0.49108  0.61477  Biso   1.000  H
  C74      1.0000 0.43617  0.15904  0.56454  Biso   1.000  C
  C75      1.0000 0.49658  0.10024  0.56955  Biso   1.000  C
  C76      1.0000 0.57213  0.05767  0.80702  Biso   1.000  C
  C77      1.0000 0.66705  0.03648  0.82447  Biso   1.000  C
  H57      1.0000 0.63544  0.03788  0.77867  Biso   1.000  H
  C78      1.0000 0.93550  0.57686  0.79809  Biso   1.000  C
  H58      1.0000 0.91521  0.49315  0.82627  Biso   1.000  H
  C79      1.0000 0.01813  0.53816  0.81369  Biso   1.000  C
  H59      1.0000 0.30830  0.21449  0.30720  Biso   1.000  H
  H60      1.0000 0.23660  0.17858  0.32460  Biso   1.000  H
  C80      1.0000 0.68082  0.53521  0.65017  Biso   1.000  C
  H61      1.0000 0.41338  0.17558  0.55191  Biso   1.000  H
  C81      1.0000 0.43356  0.16323  0.59711  Biso   1.000  C
  H62      1.0000 0.51688  0.07668  0.56060  Biso   1.000  H
  C82      1.0000 0.49239  0.10288  0.60214  Biso   1.000  C
  N9       1.0000 0.54699  0.08319  0.78140  Biso   1.000  N
  H63      1.0000 0.57792  0.08474  0.82627  Biso   1.000  H
  C83      1.0000 0.52011  0.98192  0.81369  Biso   1.000  C
  H64      1.0000 0.71072  0.04067  0.81818  Biso   1.000  H
  H65      1.0000 0.67493  0.06387  0.84346  Biso   1.000  H
  C84      1.0000 0.61542  0.96114  0.83164  Biso   1.000  C
  N10      1.0000 0.86288  0.55531  0.79204  Biso   1.000  N
  C85      1.0000 0.96353  0.63060  0.82447  Biso   1.000  C
  H66      1.0000 0.96215  0.59758  0.77867  Biso   1.000  H
  H67      1.0000 0.02224  0.49868  0.82017  Biso   1.000  H
  H68      1.0000 0.04465  0.55666  0.79436  Biso   1.000  H
  C86      1.0000 0.04791  0.59298  0.83952  Biso   1.000  C
  C87      1.0000 0.68669  0.53299  0.67809  Biso   1.000  C
  C88      1.0000 0.46458  0.13827  0.61629  Biso   1.000  C
  H69      1.0000 0.41005  0.18359  0.60606  Biso   1.000  H
  H70      1.0000 0.50897  0.08009  0.61477  Biso   1.000  H
  C89      1.0000 0.53131  0.12871  0.78817  Biso   1.000  C
  H71      1.0000 0.47647  0.97778  0.82017  Biso   1.000  H
  H72      1.0000 0.51202  0.95536  0.79436  Biso   1.000  H
  C90      1.0000 0.54508  0.95210  0.83952  Biso   1.000  C
  H73      1.0000 0.61150  0.93298  0.81336  Biso   1.000  H
  H74      1.0000 0.63184  0.94575  0.84946  Biso   1.000  H
  C91      1.0000 0.84689  0.56038  0.76405  Biso   1.000  C
  H75      1.0000 0.95933  0.67007  0.81818  Biso   1.000  H
  H76      1.0000 0.93613  0.61107  0.84346  Biso   1.000  H
  C92      1.0000 0.03883  0.65421  0.83164  Biso   1.000  C
  H77      1.0000 0.02502  0.57288  0.85946  Biso   1.000  H
  H78      1.0000 0.09676  0.60869  0.84206  Biso   1.000  H
  C93      1.0000 0.69752  0.52870  0.71142  Biso   1.000  C
  C94      1.0000 0.46480  0.14561  0.65017  Biso   1.000  C
  C95      1.0000 0.50427  0.15858  0.76500  Biso   1.000  C
  H79      1.0000 0.53712  0.14427  0.80906  Biso   1.000  H
  H80      1.0000 0.54788  0.97499  0.85946  Biso   1.000  H
  H81      1.0000 0.51193  0.90327  0.84206  Biso   1.000  H
  C96      1.0000 0.77614  0.54043  0.75382  Biso   1.000  C
  H82      1.0000 0.88163  0.57769  0.74876  Biso   1.000  H
  H83      1.0000 0.06702  0.67845  0.81336  Biso   1.000  H
  H84      1.0000 0.05421  0.68604  0.84946  Biso   1.000  H
  C97      1.0000 0.64333  0.50374  0.73300  Biso   1.000  C
  C98      1.0000 0.76400  0.54746  0.72215  Biso   1.000  C
  C99      1.0000 0.46700  0.15367  0.67809  Biso   1.000  C
  C100     1.0000 0.49624  0.13956  0.73300  Biso   1.000  C
  C101     1.0000 0.48633  0.20710  0.77485  Biso   1.000  C
  C102     1.0000 0.72074  0.51367  0.77485  Biso   1.000  C
  C103     1.0000 0.65428  0.49574  0.76500  Biso   1.000  C
  H85      1.0000 0.59934  0.49227  0.72606  Biso   1.000  H
  H86      1.0000 0.80044  0.56477  0.70776  Biso   1.000  H
  C104     1.0000 0.47126  0.16881  0.71142  Biso   1.000  C
  H87      1.0000 0.50773  0.10706  0.72606  Biso   1.000  H
  C105     1.0000 0.45956  0.23572  0.75382  Biso   1.000  C
  H88      1.0000 0.49245  0.22069  0.79607  Biso   1.000  H
  H89      1.0000 0.72825  0.50757  0.79607  Biso   1.000  H
  C106     1.0000 0.59740  0.46871  0.78817  Biso   1.000  C
  C107     1.0000 0.45255  0.21650  0.72215  Biso   1.000  C
  C108     1.0000 0.43963  0.28652  0.76405  Biso   1.000  C
  H90      1.0000 0.60715  0.46287  0.80906  Biso   1.000  H
  N11      1.0000 0.53621  0.45300  0.78140  Biso   1.000  N
  H91      1.0000 0.43524  0.23567  0.70776  Biso   1.000  H
  H92      1.0000 0.42236  0.30398  0.74876  Biso   1.000  H
  N12      1.0000 0.44469  0.30755  0.79204  Biso   1.000  N
  C109     1.0000 0.48553  0.42789  0.80702  Biso   1.000  C
  C110     1.0000 0.42316  0.35865  0.79809  Biso   1.000  C
  H93      1.0000 0.50682  0.42205  0.82627  Biso   1.000  H
  C111     1.0000 0.46185  0.47998  0.81369  Biso   1.000  C
  C112     1.0000 0.36939  0.33292  0.82447  Biso   1.000  C
  H94      1.0000 0.40243  0.36454  0.77867  Biso   1.000  H
  H95      1.0000 0.50133  0.52359  0.82017  Biso   1.000  H
  H96      1.0000 0.44335  0.48798  0.79436  Biso   1.000  H
  C113     1.0000 0.40703  0.45491  0.83952  Biso   1.000  C
  C114     1.0000 0.34574  0.38459  0.83164  Biso   1.000  C
  H97      1.0000 0.32993  0.28926  0.81818  Biso   1.000  H
  H98      1.0000 0.38892  0.32506  0.84346  Biso   1.000  H
  H99      1.0000 0.42714  0.45218  0.85946  Biso   1.000  H
  H100     1.0000 0.39136  0.48809  0.84206  Biso   1.000  H
  H101     1.0000 0.32155  0.38857  0.81336  Biso   1.000  H
  H102     1.0000 0.31394  0.36816  0.84946  Biso   1.000  H
  C115     1.0000 0.70318  0.70273  0.50887  Biso   1.000  C
  C116     1.0000 0.73121  0.75647  0.53524  Biso   1.000  C
  C117     1.0000 0.73119  0.75652  0.53524  Biso   1.000  C
  C118     1.0000 0.62783  0.67912  0.50170  Biso   1.000  C
  H103     1.0000 0.70734  0.66325  0.51516  Biso   1.000  H
  H104     1.0000 0.73053  0.72226  0.48987  Biso   1.000  H
  C119     1.0000 0.72432  0.81884  0.52632  Biso   1.000  C
  H105     1.0000 0.70456  0.73575  0.55466  Biso   1.000  H
  C120     1.0000 0.70314  0.70273  0.50887  Biso   1.000  C
  H106     1.0000 0.70452  0.73575  0.55466  Biso   1.000  H
  N13      1.0000 0.80378  0.77802  0.54130  Biso   1.000  N
  C121     1.0000 0.61880  0.74035  0.49382  Biso   1.000  C
  C122     1.0000 0.61875  0.74035  0.49382  Biso   1.000  C
  H107     1.0000 0.59965  0.65488  0.51998  Biso   1.000  H
  H108     1.0000 0.61245  0.64729  0.48387  Biso   1.000  H
  H109     1.0000 0.75145  0.84018  0.50706  Biso   1.000  H
  N14      1.0000 0.74984  0.86953  0.55193  Biso   1.000  N
  C123     1.0000 0.64858  0.79517  0.51964  Biso   1.000  C
  C124     1.0000 0.64854  0.79517  0.51964  Biso   1.000  C
  C125     1.0000 0.81978  0.77295  0.56929  Biso   1.000  C
  H110     1.0000 0.64165  0.76045  0.47387  Biso   1.000  H
  H111     1.0000 0.56995  0.72464  0.49128  Biso   1.000  H
  H112     1.0000 0.56994  0.72469  0.49128  Biso   1.000  H
  C126     1.0000 0.79540  0.93076  0.54517  Biso   1.000  C
  H113     1.0000 0.64442  0.83465  0.51316  Biso   1.000  H
  H114     1.0000 0.62201  0.77667  0.53897  Biso   1.000  H
  C127     1.0000 0.89052  0.79290  0.57952  Biso   1.000  C
  H115     1.0000 0.78503  0.75564  0.58457  Biso   1.000  H
  H116     1.0000 0.81095  0.94047  0.52427  Biso   1.000  H
  C128     1.0000 0.82525  0.98760  0.56834  Biso   1.000  C
  C129     1.0000 0.82521  0.98760  0.56834  Biso   1.000  C
  C130     1.0000 0.94592  0.81966  0.55848  Biso   1.000  C
  C131     1.0000 0.90271  0.78587  0.61119  Biso   1.000  C
  C132     1.0000 0.90269  0.78592  0.61119  Biso   1.000  C
  C133     1.0000 0.80626  0.97664  0.60034  Biso   1.000  C
  C134     1.0000 0.80622  0.97664  0.60034  Biso   1.000  C
  C135     1.0000 0.87376  0.05410  0.55848  Biso   1.000  C
  C136     1.0000 0.87372  0.05410  0.55848  Biso   1.000  C
  H117     1.0000 0.93841  0.82576  0.53726  Biso   1.000  H
  C137     1.0000 0.01239  0.83759  0.56834  Biso   1.000  C
  H118     1.0000 0.86627  0.76856  0.62557  Biso   1.000  H
  C138     1.0000 0.96915  0.80463  0.62192  Biso   1.000  C
  H119     1.0000 0.86622  0.76856  0.62557  Biso   1.000  H
  H120     1.0000 0.77376  0.93267  0.60727  Biso   1.000  H
  H121     1.0000 0.77371  0.93267  0.60727  Biso   1.000  H
  C139     1.0000 0.83547  0.03084  0.62192  Biso   1.000  C
  C140     1.0000 0.90240  0.10949  0.57952  Biso   1.000  C
  H122     1.0000 0.88735  0.06159  0.53726  Biso   1.000  H
  C141     1.0000 0.06926  0.86462  0.54517  Biso   1.000  C
  C142     1.0000 0.02333  0.82958  0.60034  Biso   1.000  C
  C143     1.0000 0.97998  0.80034  0.65525  Biso   1.000  C
  C144     1.0000 0.88319  0.09729  0.61119  Biso   1.000  C
  C145     1.0000 0.82037  0.01999  0.65525  Biso   1.000  C
  C146     1.0000 0.82028  0.01999  0.65525  Biso   1.000  C
  C147     1.0000 0.95320  0.18023  0.56929  Biso   1.000  C
  H123     1.0000 0.06733  0.84106  0.60727  Biso   1.000  H
  H124     1.0000 0.05952  0.87046  0.52427  Biso   1.000  H
  N15      1.0000 0.13046  0.88033  0.55193  Biso   1.000  N
  C148     1.0000 0.98589  0.79812  0.68317  Biso   1.000  C
  C149     1.0000 0.98585  0.79812  0.68317  Biso   1.000  C
  H125     1.0000 0.90237  0.13377  0.62557  Biso   1.000  H
  H126     1.0000 0.90228  0.13377  0.62557  Biso   1.000  H
  C150     1.0000 0.81228  0.01410  0.68317  Biso   1.000  C
  C151     1.0000 0.81219  0.01410  0.68317  Biso   1.000  C
  N16      1.0000 0.97421  0.19619  0.54130  Biso   1.000  N
  H127     1.0000 0.97066  0.21495  0.58457  Biso   1.000  H
  H128     1.0000 0.97057  0.21495  0.58457  Biso   1.000  H
  C152     1.0000 0.18114  0.90544  0.52632  Biso   1.000  C
  C153     1.0000 0.18116  0.90549  0.52632  Biso   1.000  C
  C154     1.0000 0.99299  0.79791  0.71704  Biso   1.000  C
  C155     1.0000 0.80494  0.00702  0.71704  Biso   1.000  C
  C156     1.0000 0.02532  0.26879  0.53524  Biso   1.000  C
  C157     1.0000 0.02528  0.26879  0.53524  Biso   1.000  C
  H129     1.0000 0.15985  0.91128  0.50706  Biso   1.000  H
  C158     1.0000 0.20481  0.85335  0.51964  Biso   1.000  C
  C159     1.0000 0.24350  0.97468  0.53524  Biso   1.000  C
  C160     1.0000 0.93704  0.76691  0.73622  Biso   1.000  C
  C161     1.0000 0.93700  0.76691  0.73622  Biso   1.000  C
  C162     1.0000 0.05623  0.82576  0.73119  Biso   1.000  C
  C163     1.0000 0.82988  0.06298  0.73622  Biso   1.000  C
  C164     1.0000 0.76956  0.94378  0.73119  Biso   1.000  C
  C165     1.0000 0.76951  0.94378  0.73119  Biso   1.000  C
  C166     1.0000 0.99961  0.29685  0.50887  Biso   1.000  C
  C167     1.0000 0.09454  0.27566  0.52632  Biso   1.000  C
  H130     1.0000 0.03118  0.29545  0.55466  Biso   1.000  H
  H131     1.0000 0.16533  0.80974  0.51316  Biso   1.000  H
  H132     1.0000 0.22336  0.84534  0.53897  Biso   1.000  H
  C168     1.0000 0.25967  0.87841  0.49382  Biso   1.000  C
  H133     1.0000 0.22332  0.84534  0.53897  Biso   1.000  H
  C169     1.0000 0.25963  0.87841  0.49382  Biso   1.000  C
  H134     1.0000 0.26427  0.96879  0.55466  Biso   1.000  H
  H135     1.0000 0.26423  0.96879  0.55466  Biso   1.000  H
  C170     1.0000 0.29722  0.00041  0.50887  Biso   1.000  C
  N17      1.0000 0.22202  0.02578  0.54130  Biso   1.000  N
  N18      1.0000 0.22193  0.02578  0.54130  Biso   1.000  N
  H136     1.0000 0.89313  0.74334  0.72727  Biso   1.000  H
  C171     1.0000 0.94382  0.76954  0.76880  Biso   1.000  C
  H137     1.0000 0.09553  0.84224  0.71856  Biso   1.000  H
  C172     1.0000 0.06300  0.82989  0.76379  Biso   1.000  C
  H138     1.0000 0.85024  0.10685  0.72727  Biso   1.000  H
  C173     1.0000 0.82578  0.05621  0.76880  Biso   1.000  C
  C174     1.0000 0.82573  0.05621  0.76880  Biso   1.000  C
  H139     1.0000 0.74672  0.90446  0.71856  Biso   1.000  H
  C175     1.0000 0.76689  0.93701  0.76379  Biso   1.000  C
  H140     1.0000 0.95590  0.29266  0.51516  Biso   1.000  H
  H141     1.0000 0.99174  0.26946  0.48987  Biso   1.000  H
  H142     1.0000 0.95599  0.29266  0.51516  Biso   1.000  H
  C176     1.0000 0.05129  0.37219  0.50170  Biso   1.000  C
  N19      1.0000 0.11968  0.25014  0.55193  Biso   1.000  N
  H143     1.0000 0.08879  0.24859  0.50706  Biso   1.000  H
  H144     1.0000 0.08874  0.24859  0.50706  Biso   1.000  H
  C177     1.0000 0.14660  0.35141  0.51964  Biso   1.000  C
  H145     1.0000 0.23956  0.88115  0.47387  Biso   1.000  H
  H146     1.0000 0.27535  0.84524  0.49128  Biso   1.000  H
  C178     1.0000 0.32093  0.94874  0.50170  Biso   1.000  C
  H147     1.0000 0.23952  0.88115  0.47387  Biso   1.000  H
  H148     1.0000 0.27533  0.84529  0.49128  Biso   1.000  H
  H149     1.0000 0.33673  0.04407  0.51516  Biso   1.000  H
  H150     1.0000 0.27775  0.00826  0.48987  Biso   1.000  H
  C179     1.0000 0.22699  0.04681  0.56929  Biso   1.000  C
  H151     1.0000 0.90446  0.74675  0.78143  Biso   1.000  H
  C180     1.0000 0.00702  0.80494  0.78295  Biso   1.000  C
  H152     1.0000 0.10692  0.85025  0.77274  Biso   1.000  H
  H153     1.0000 0.10687  0.85025  0.77274  Biso   1.000  H
  C181     1.0000 0.79791  0.99297  0.78295  Biso   1.000  C
  H154     1.0000 0.84230  0.09554  0.78143  Biso   1.000  H
  H155     1.0000 0.84222  0.09554  0.78143  Biso   1.000  H
  H156     1.0000 0.74339  0.89314  0.77274  Biso   1.000  H
  H157     1.0000 0.05521  0.40035  0.51998  Biso   1.000  H
  C182     1.0000 0.12163  0.38123  0.49382  Biso   1.000  C
  H158     1.0000 0.03487  0.38758  0.48387  Biso   1.000  H
  C183     1.0000 0.12154  0.38123  0.49382  Biso   1.000  C
  H159     1.0000 0.03478  0.38758  0.48387  Biso   1.000  H
  C184     1.0000 0.13535  0.20462  0.54517  Biso   1.000  C
  H160     1.0000 0.19019  0.35555  0.51316  Biso   1.000  H
  H161     1.0000 0.15460  0.37797  0.53897  Biso   1.000  H
  H162     1.0000 0.34516  0.94476  0.51998  Biso   1.000  H
  H163     1.0000 0.35277  0.96517  0.48387  Biso   1.000  H
  H164     1.0000 0.34511  0.94476  0.51998  Biso   1.000  H
  H165     1.0000 0.35272  0.96517  0.48387  Biso   1.000  H
  H166     1.0000 0.24430  0.02935  0.58457  Biso   1.000  H
  C185     1.0000 0.20706  0.09760  0.57952  Biso   1.000  C
  C186     1.0000 0.01414  0.81227  0.81682  Biso   1.000  C
  C187     1.0000 0.79813  0.98589  0.81682  Biso   1.000  C
  H167     1.0000 0.11883  0.35834  0.47387  Biso   1.000  H
  H168     1.0000 0.15469  0.43006  0.49128  Biso   1.000  H
  H169     1.0000 0.11885  0.35839  0.47387  Biso   1.000  H
  C188     1.0000 0.16240  0.17475  0.56834  Biso   1.000  C
  H170     1.0000 0.12955  0.18906  0.52427  Biso   1.000  H
  C189     1.0000 0.18033  0.12623  0.55848  Biso   1.000  C
  C190     1.0000 0.21407  0.11683  0.61119  Biso   1.000  C
  C191     1.0000 0.02000  0.82033  0.84474  Biso   1.000  C
  C192     1.0000 0.80038  0.98000  0.84474  Biso   1.000  C
  C193     1.0000 0.80033  0.98000  0.84474  Biso   1.000  C
  C194     1.0000 0.17038  0.19376  0.60034  Biso   1.000  C
  H171     1.0000 0.17426  0.11264  0.53726  Biso   1.000  H
  H172     1.0000 0.17419  0.11269  0.53726  Biso   1.000  H
  C195     1.0000 0.19536  0.16452  0.62192  Biso   1.000  C
  H173     1.0000 0.23147  0.09766  0.62557  Biso   1.000  H
  H174     1.0000 0.23142  0.09766  0.62557  Biso   1.000  H
  C196     1.0000 0.03088  0.83547  0.87810  Biso   1.000  C
  C197     1.0000 0.80462  0.96915  0.87810  Biso   1.000  C
  H175     1.0000 0.15893  0.22627  0.60727  Biso   1.000  H
  C198     1.0000 0.19971  0.17966  0.65525  Biso   1.000  C
  C199     1.0000 0.19962  0.17966  0.65525  Biso   1.000  C
  C200     1.0000 0.97666  0.80623  0.89967  Biso   1.000  C
  C201     1.0000 0.09729  0.88317  0.88883  Biso   1.000  C
  C202     1.0000 0.09731  0.88322  0.88883  Biso   1.000  C
  C203     1.0000 0.82957  0.02335  0.89967  Biso   1.000  C
  C204     1.0000 0.78594  0.90270  0.88883  Biso   1.000  C
  C205     1.0000 0.78589  0.90270  0.88883  Biso   1.000  C
  C206     1.0000 0.20184  0.18777  0.68317  Biso   1.000  C
  C207     1.0000 0.98764  0.82524  0.93165  Biso   1.000  C
  H176     1.0000 0.93266  0.77373  0.89274  Biso   1.000  H
  H177     1.0000 0.13381  0.90234  0.87444  Biso   1.000  H
  C208     1.0000 0.10949  0.90239  0.92049  Biso   1.000  C
  H178     1.0000 0.13377  0.90234  0.87444  Biso   1.000  H
  C209     1.0000 0.83765  0.01240  0.93165  Biso   1.000  C
  H179     1.0000 0.84109  0.06732  0.89274  Biso   1.000  H
  C210     1.0000 0.83756  0.01240  0.93165  Biso   1.000  C
  H180     1.0000 0.84104  0.06732  0.89274  Biso   1.000  H
  H181     1.0000 0.76855  0.86622  0.87444  Biso   1.000  H
  C211     1.0000 0.79291  0.89050  0.92049  Biso   1.000  C
  C212     1.0000 0.20204  0.19506  0.71704  Biso   1.000  C
  C213     1.0000 0.93074  0.79538  0.95482  Biso   1.000  C
  C214     1.0000 0.05410  0.87376  0.94153  Biso   1.000  C
  C215     1.0000 0.18022  0.95318  0.93070  Biso   1.000  C
  C216     1.0000 0.81966  0.94590  0.94153  Biso   1.000  C
  C217     1.0000 0.86464  0.06924  0.95482  Biso   1.000  C
  C218     1.0000 0.77300  0.81982  0.93070  Biso   1.000  C
  C219     1.0000 0.17423  0.23045  0.73119  Biso   1.000  C
  C220     1.0000 0.23310  0.17010  0.73622  Biso   1.000  C
  H182     1.0000 0.94048  0.81093  0.97574  Biso   1.000  H
  N20      1.0000 0.86954  0.74986  0.94806  Biso   1.000  N
  H183     1.0000 0.06157  0.88735  0.96273  Biso   1.000  H
  H184     1.0000 0.21500  0.97065  0.91544  Biso   1.000  H
  H185     1.0000 0.21495  0.97065  0.91544  Biso   1.000  H
  N21      1.0000 0.19619  0.97421  0.95872  Biso   1.000  N
  H186     1.0000 0.82579  0.93846  0.96273  Biso   1.000  H
  H187     1.0000 0.87048  0.05952  0.97574  Biso   1.000  H
  N22      1.0000 0.88026  0.13047  0.94806  Biso   1.000  N
  N23      1.0000 0.77806  0.80380  0.95872  Biso   1.000  N
  H188     1.0000 0.75566  0.78504  0.91544  Biso   1.000  H
  N24      1.0000 0.77801  0.80380  0.95872  Biso   1.000  N
  C221     1.0000 0.17008  0.23309  0.76379  Biso   1.000  C
  H189     1.0000 0.15770  0.25324  0.71856  Biso   1.000  H
  H190     1.0000 0.15768  0.25329  0.71856  Biso   1.000  H
  H191     1.0000 0.25666  0.14974  0.72727  Biso   1.000  H
  C222     1.0000 0.23049  0.17428  0.76880  Biso   1.000  C
  H192     1.0000 0.25664  0.14979  0.72727  Biso   1.000  H
  C223     1.0000 0.81887  0.72433  0.97367  Biso   1.000  C
  C224     1.0000 0.26882  0.02532  0.96475  Biso   1.000  C
  C225     1.0000 0.90547  0.18116  0.97367  Biso   1.000  C
  C226     1.0000 0.75653  0.73120  0.96475  Biso   1.000  C
  C227     1.0000 0.75648  0.73120  0.96475  Biso   1.000  C
  C228     1.0000 0.19504  0.20208  0.78295  Biso   1.000  C
  H193     1.0000 0.14974  0.25665  0.77274  Biso   1.000  H
  H194     1.0000 0.25324  0.15775  0.78143  Biso   1.000  H
  H195     1.0000 0.84019  0.75141  0.99293  Biso   1.000  H
  H196     1.0000 0.84018  0.75146  0.99293  Biso   1.000  H
  C229     1.0000 0.79518  0.64858  0.98034  Biso   1.000  C
  C230     1.0000 0.29686  0.99958  0.99112  Biso   1.000  C
  C231     1.0000 0.27565  0.09456  0.97367  Biso   1.000  C
  H197     1.0000 0.29547  0.03126  0.94533  Biso   1.000  H
  H198     1.0000 0.91123  0.15982  0.99293  Biso   1.000  H
  C232     1.0000 0.85341  0.20482  0.98034  Biso   1.000  C
  C233     1.0000 0.97474  0.24352  0.96475  Biso   1.000  C
  C234     1.0000 0.85332  0.20482  0.98034  Biso   1.000  C
  C235     1.0000 0.97465  0.24352  0.96475  Biso   1.000  C
  C236     1.0000 0.70276  0.70314  0.99112  Biso   1.000  C
  H199     1.0000 0.73577  0.70454  0.94533  Biso   1.000  H
  C237     1.0000 0.18777  0.20188  0.81682  Biso   1.000  C
  C238     1.0000 0.18773  0.20188  0.81682  Biso   1.000  C
  H200     1.0000 0.83469  0.64445  0.98682  Biso   1.000  H
  H201     1.0000 0.77667  0.62202  0.96104  Biso   1.000  H
  C239     1.0000 0.74036  0.61876  0.00617  Biso   1.000  C
  H202     1.0000 0.29270  0.95592  0.98483  Biso   1.000  H
  H203     1.0000 0.29266  0.95592  0.98483  Biso   1.000  H
  H204     1.0000 0.26948  0.99173  0.01014  Biso   1.000  H
  H205     1.0000 0.26944  0.99173  0.01014  Biso   1.000  H
  C240     1.0000 0.37218  0.05125  0.99831  Biso   1.000  C
  H206     1.0000 0.24852  0.08872  0.99293  Biso   1.000  H
  C241     1.0000 0.35146  0.14664  0.98034  Biso   1.000  C
  N25      1.0000 0.25017  0.11967  0.94806  Biso   1.000  N
  N26      1.0000 0.25011  0.11972  0.94806  Biso   1.000  N
  H207     1.0000 0.80977  0.16534  0.98682  Biso   1.000  H
  H208     1.0000 0.84538  0.22332  0.96104  Biso   1.000  H
  H209     1.0000 0.80973  0.16534  0.98682  Biso   1.000  H
  H210     1.0000 0.84529  0.22332  0.96104  Biso   1.000  H
  C242     1.0000 0.87845  0.25965  0.00617  Biso   1.000  C
  C243     1.0000 0.87836  0.25965  0.00617  Biso   1.000  C
  H211     1.0000 0.96881  0.26424  0.94533  Biso   1.000  H
  H212     1.0000 0.96872  0.26424  0.94533  Biso   1.000  H
  C244     1.0000 0.00045  0.29726  0.99112  Biso   1.000  C
  N27      1.0000 0.02581  0.22198  0.95872  Biso   1.000  N
  C245     1.0000 0.00040  0.29726  0.99112  Biso   1.000  C
  N28      1.0000 0.02572  0.22198  0.95872  Biso   1.000  N
  C246     1.0000 0.67910  0.62781  0.99831  Biso   1.000  C
  H213     1.0000 0.66328  0.70733  0.98483  Biso   1.000  H
  H214     1.0000 0.72227  0.73053  0.01014  Biso   1.000  H
  C247     1.0000 0.17964  0.19965  0.84474  Biso   1.000  C
  H215     1.0000 0.76048  0.64166  0.02614  Biso   1.000  H
  H216     1.0000 0.72467  0.56994  0.00874  Biso   1.000  H
  H217     1.0000 0.72462  0.56994  0.00874  Biso   1.000  H
  H218     1.0000 0.40035  0.05523  0.98003  Biso   1.000  H
  C248     1.0000 0.38121  0.12158  0.00617  Biso   1.000  C
  H219     1.0000 0.38755  0.03482  0.01614  Biso   1.000  H
  H220     1.0000 0.37797  0.15465  0.96104  Biso   1.000  H
  H221     1.0000 0.35559  0.19025  0.98682  Biso   1.000  H
  C249     1.0000 0.20460  0.13538  0.95482  Biso   1.000  C
  C250     1.0000 0.94871  0.32088  0.99831  Biso   1.000  C
  C251     1.0000 0.94869  0.32093  0.99831  Biso   1.000  C
  H222     1.0000 0.88115  0.23954  0.02614  Biso   1.000  H
  H223     1.0000 0.84527  0.27535  0.00874  Biso   1.000  H
  H224     1.0000 0.84522  0.27535  0.00874  Biso   1.000  H
  H225     1.0000 0.04408  0.33674  0.98483  Biso   1.000  H
  H226     1.0000 0.00827  0.27773  0.01014  Biso   1.000  H
  C252     1.0000 0.04687  0.22704  0.93070  Biso   1.000  C
  C253     1.0000 0.04678  0.22704  0.93070  Biso   1.000  C
  H227     1.0000 0.65486  0.59965  0.98003  Biso   1.000  H
  H228     1.0000 0.64723  0.61241  0.01614  Biso   1.000  H
  C254     1.0000 0.16456  0.19537  0.87810  Biso   1.000  C
  C255     1.0000 0.16450  0.19542  0.87810  Biso   1.000  C
  H229     1.0000 0.43006  0.15475  0.00874  Biso   1.000  H
  H230     1.0000 0.35841  0.11884  0.02614  Biso   1.000  H
  H231     1.0000 0.35836  0.11884  0.02614  Biso   1.000  H
  C256     1.0000 0.17475  0.16240  0.93165  Biso   1.000  C
  H232     1.0000 0.18906  0.12954  0.97574  Biso   1.000  H
  H233     1.0000 0.18901  0.12954  0.97574  Biso   1.000  H
  H234     1.0000 0.94472  0.34511  0.98003  Biso   1.000  H
  H235     1.0000 0.96516  0.35271  0.01614  Biso   1.000  H
  H236     1.0000 0.96519  0.35276  0.01614  Biso   1.000  H
  C257     1.0000 0.09757  0.20710  0.92049  Biso   1.000  C
  H237     1.0000 0.02939  0.24435  0.91544  Biso   1.000  H
  C258     1.0000 0.11684  0.21412  0.88883  Biso   1.000  C
  C259     1.0000 0.11675  0.21412  0.88883  Biso   1.000  C
  C260     1.0000 0.19379  0.17041  0.89967  Biso   1.000  C
  C261     1.0000 0.19370  0.17041  0.89967  Biso   1.000  C
  C262     1.0000 0.12621  0.18033  0.94153  Biso   1.000  C
  H238     1.0000 0.09770  0.23143  0.87444  Biso   1.000  H
  H239     1.0000 0.09766  0.23143  0.87444  Biso   1.000  H
  H240     1.0000 0.22627  0.15894  0.89274  Biso   1.000  H
  H241     1.0000 0.11269  0.17423  0.96273  Biso   1.000  H
  H242     1.0000 0.11260  0.17423  0.96273  Biso   1.000  H
  C263     1.0000 0.79516  0.14664  0.48036  Biso   1.000  C
  C264     1.0000 0.81884  0.09456  0.47368  Biso   1.000  C
  H243     1.0000 0.77666  0.15465  0.46103  Biso   1.000  H
  H244     1.0000 0.83469  0.19025  0.48684  Biso   1.000  H
  H245     1.0000 0.83464  0.19025  0.48684  Biso   1.000  H
  C265     1.0000 0.74039  0.12158  0.50618  Biso   1.000  C
  N29      1.0000 0.86952  0.11967  0.44807  Biso   1.000  N
  N30      1.0000 0.86954  0.11972  0.44807  Biso   1.000  N
  C266     1.0000 0.79521  0.14664  0.48036  Biso   1.000  C
  C267     1.0000 0.75652  0.02532  0.46476  Biso   1.000  C
  H246     1.0000 0.84013  0.08872  0.49294  Biso   1.000  H
  C268     1.0000 0.75647  0.02532  0.46476  Biso   1.000  C
  H247     1.0000 0.76046  0.11884  0.52613  Biso   1.000  H
  H248     1.0000 0.72467  0.15476  0.50872  Biso   1.000  H
  C269     1.0000 0.67905  0.05126  0.49830  Biso   1.000  C
  C270     1.0000 0.93071  0.13538  0.45483  Biso   1.000  C
  C271     1.0000 0.70280  0.99959  0.49113  Biso   1.000  C
  N31      1.0000 0.77800  0.97422  0.45870  Biso   1.000  N
  C272     1.0000 0.70275  0.99959  0.49113  Biso   1.000  C
  H249     1.0000 0.73575  0.03121  0.44534  Biso   1.000  H
  H250     1.0000 0.73577  0.03126  0.44534  Biso   1.000  H
  H251     1.0000 0.65486  0.05524  0.48002  Biso   1.000  H
  H252     1.0000 0.64725  0.03483  0.51613  Biso   1.000  H
  C273     1.0000 0.98763  0.16240  0.43166  Biso   1.000  C
  C274     1.0000 0.98759  0.16240  0.43166  Biso   1.000  C
  H253     1.0000 0.94046  0.12954  0.47573  Biso   1.000  H
  H254     1.0000 0.72227  0.99173  0.51013  Biso   1.000  H
  H255     1.0000 0.66329  0.95592  0.48484  Biso   1.000  H
  C275     1.0000 0.77299  0.95319  0.43071  Biso   1.000  C
  C276     1.0000 0.97665  0.17041  0.39966  Biso   1.000  C
  C277     1.0000 0.05410  0.18033  0.44152  Biso   1.000  C
  C278     1.0000 0.05405  0.18033  0.44152  Biso   1.000  C
  C279     1.0000 0.79296  0.90239  0.42048  Biso   1.000  C
  H256     1.0000 0.75567  0.97065  0.41543  Biso   1.000  H
  C280     1.0000 0.79288  0.90239  0.42048  Biso   1.000  C
  C281     1.0000 0.03086  0.19542  0.37808  Biso   1.000  C
  H257     1.0000 0.93265  0.15894  0.39273  Biso   1.000  H
  C282     1.0000 0.10950  0.20710  0.42048  Biso   1.000  C
  C283     1.0000 0.10946  0.20710  0.42048  Biso   1.000  C
  H258     1.0000 0.06157  0.17424  0.46274  Biso   1.000  H
  C284     1.0000 0.78595  0.88317  0.38881  Biso   1.000  C
  C285     1.0000 0.81973  0.87377  0.44152  Biso   1.000  C
  C286     1.0000 0.78589  0.88322  0.38881  Biso   1.000  C
  C287     1.0000 0.81964  0.87377  0.44152  Biso   1.000  C
  C288     1.0000 0.02000  0.19966  0.34475  Biso   1.000  C
  C289     1.0000 0.09731  0.21413  0.38881  Biso   1.000  C
  C290     1.0000 0.18020  0.22704  0.43071  Biso   1.000  C
  C291     1.0000 0.80466  0.83548  0.37808  Biso   1.000  C
  H259     1.0000 0.76860  0.90234  0.37443  Biso   1.000  H
  C292     1.0000 0.80461  0.83548  0.37808  Biso   1.000  C
  C293     1.0000 0.83767  0.82525  0.43166  Biso   1.000  C
  H260     1.0000 0.82577  0.88736  0.46274  Biso   1.000  H
  C294     1.0000 0.83762  0.82525  0.43166  Biso   1.000  C
  C295     1.0000 0.01413  0.20188  0.31683  Biso   1.000  C
  H261     1.0000 0.13375  0.23144  0.37443  Biso   1.000  H
  N32      1.0000 0.19619  0.22198  0.45870  Biso   1.000  N
  H262     1.0000 0.21494  0.24435  0.41543  Biso   1.000  H
  C296     1.0000 0.80031  0.82034  0.34475  Biso   1.000  C
  C297     1.0000 0.82959  0.80623  0.39966  Biso   1.000  C
  C298     1.0000 0.82955  0.80623  0.39966  Biso   1.000  C
  C299     1.0000 0.86462  0.79538  0.45483  Biso   1.000  C
  C300     1.0000 0.00698  0.20209  0.28296  Biso   1.000  C
  C301     1.0000 0.26881  0.24353  0.46476  Biso   1.000  C
  C302     1.0000 0.79816  0.81228  0.31683  Biso   1.000  C
  C303     1.0000 0.79812  0.81228  0.31683  Biso   1.000  C
  H263     1.0000 0.84113  0.77373  0.39273  Biso   1.000  H
  H264     1.0000 0.84104  0.77373  0.39273  Biso   1.000  H
  H265     1.0000 0.87052  0.81093  0.47573  Biso   1.000  H
  N33      1.0000 0.88034  0.74986  0.44807  Biso   1.000  N
  H266     1.0000 0.87043  0.81093  0.47573  Biso   1.000  H
  C304     1.0000 0.94377  0.17429  0.26881  Biso   1.000  C
  C305     1.0000 0.06298  0.23309  0.26378  Biso   1.000  C
  C306     1.0000 0.27571  0.18116  0.47368  Biso   1.000  C
  C307     1.0000 0.29684  0.29727  0.49113  Biso   1.000  C
  H267     1.0000 0.29546  0.26425  0.44534  Biso   1.000  H
  C308     1.0000 0.27566  0.18116  0.47368  Biso   1.000  C
  C309     1.0000 0.79798  0.80494  0.28296  Biso   1.000  C
  C310     1.0000 0.79794  0.80494  0.28296  Biso   1.000  C
  C311     1.0000 0.90553  0.72433  0.47368  Biso   1.000  C
  C312     1.0000 0.90544  0.72433  0.47368  Biso   1.000  C
  C313     1.0000 0.93702  0.17010  0.23621  Biso   1.000  C
  C314     1.0000 0.93698  0.17010  0.23621  Biso   1.000  C
  H268     1.0000 0.90445  0.15775  0.28144  Biso   1.000  H
  C315     1.0000 0.05616  0.23045  0.23120  Biso   1.000  C
  H269     1.0000 0.10685  0.25665  0.27273  Biso   1.000  H
  H270     1.0000 0.24857  0.15982  0.49294  Biso   1.000  H
  C316     1.0000 0.35144  0.20483  0.48036  Biso   1.000  C
  N34      1.0000 0.25018  0.13047  0.44807  Biso   1.000  N
  H271     1.0000 0.24852  0.15982  0.49294  Biso   1.000  H
  N35      1.0000 0.25014  0.13047  0.44807  Biso   1.000  N
  C317     1.0000 0.37215  0.32088  0.49830  Biso   1.000  C
  H272     1.0000 0.29268  0.33674  0.48484  Biso   1.000  H
  C318     1.0000 0.37217  0.32093  0.49830  Biso   1.000  C
  H273     1.0000 0.29264  0.33674  0.48484  Biso   1.000  H
  H274     1.0000 0.26944  0.27773  0.51013  Biso   1.000  H
  C319     1.0000 0.76696  0.82990  0.26378  Biso   1.000  C
  C320     1.0000 0.76688  0.82990  0.26378  Biso   1.000  C
  C321     1.0000 0.82579  0.76955  0.26881  Biso   1.000  C
  C322     1.0000 0.82570  0.76955  0.26881  Biso   1.000  C
  C323     1.0000 0.97470  0.73121  0.46476  Biso   1.000  C
  H275     1.0000 0.91128  0.75141  0.49294  Biso   1.000  H
  C324     1.0000 0.85338  0.64858  0.48036  Biso   1.000  C
  H276     1.0000 0.91131  0.75146  0.49294  Biso   1.000  H
  C325     1.0000 0.99295  0.19506  0.21705  Biso   1.000  C
  H277     1.0000 0.89313  0.14980  0.22726  Biso   1.000  H
  H278     1.0000 0.09552  0.25324  0.21857  Biso   1.000  H
  H279     1.0000 0.09555  0.25329  0.21857  Biso   1.000  H
  H280     1.0000 0.35555  0.16535  0.48684  Biso   1.000  H
  H281     1.0000 0.37796  0.22332  0.46103  Biso   1.000  H
  C326     1.0000 0.38122  0.25965  0.50618  Biso   1.000  C
  C327     1.0000 0.20462  0.06924  0.45483  Biso   1.000  C
  C328     1.0000 0.20458  0.06924  0.45483  Biso   1.000  C
  H282     1.0000 0.38757  0.35271  0.51613  Biso   1.000  H
  H283     1.0000 0.40033  0.34511  0.48002  Biso   1.000  H
  H284     1.0000 0.38755  0.35276  0.51613  Biso   1.000  H
  C329     1.0000 0.76957  0.82571  0.23120  Biso   1.000  C
  C330     1.0000 0.76951  0.82576  0.23120  Biso   1.000  C
  H285     1.0000 0.74336  0.85026  0.27273  Biso   1.000  H
  C331     1.0000 0.82994  0.76691  0.23621  Biso   1.000  C
  H286     1.0000 0.84228  0.74676  0.28144  Biso   1.000  H
  N36      1.0000 0.02581  0.80380  0.45870  Biso   1.000  N
  H287     1.0000 0.96880  0.70454  0.44534  Biso   1.000  H
  C332     1.0000 0.00045  0.70315  0.49113  Biso   1.000  C
  C333     1.0000 0.00036  0.70315  0.49113  Biso   1.000  C
  H288     1.0000 0.80983  0.64445  0.48684  Biso   1.000  H
  H289     1.0000 0.84542  0.62202  0.46103  Biso   1.000  H
  C334     1.0000 0.87843  0.61877  0.50618  Biso   1.000  C
  H290     1.0000 0.80978  0.64445  0.48684  Biso   1.000  H
  H291     1.0000 0.84533  0.62202  0.46103  Biso   1.000  H
  C335     1.0000 0.98588  0.18772  0.18318  Biso   1.000  C
  C336     1.0000 0.98586  0.18777  0.18318  Biso   1.000  C
  H292     1.0000 0.43007  0.27536  0.50872  Biso   1.000  H
  H293     1.0000 0.35833  0.23955  0.52613  Biso   1.000  H
  C337     1.0000 0.17477  0.01240  0.43166  Biso   1.000  C
  H294     1.0000 0.18907  0.05953  0.47573  Biso   1.000  H
  H295     1.0000 0.18902  0.05953  0.47573  Biso   1.000  H
  C338     1.0000 0.80498  0.79791  0.21705  Biso   1.000  C
  C339     1.0000 0.80489  0.79791  0.21705  Biso   1.000  C
  H296     1.0000 0.74678  0.84225  0.21857  Biso   1.000  H
  H297     1.0000 0.74674  0.84225  0.21857  Biso   1.000  H
  H298     1.0000 0.85028  0.74335  0.22726  Biso   1.000  H
  H299     1.0000 0.85019  0.74335  0.22726  Biso   1.000  H
  C340     1.0000 0.04684  0.81982  0.43071  Biso   1.000  C
  C341     1.0000 0.94873  0.62781  0.49830  Biso   1.000  C
  H300     1.0000 0.04407  0.70733  0.48484  Biso   1.000  H
  H301     1.0000 0.00833  0.73053  0.51013  Biso   1.000  H
  H302     1.0000 0.00828  0.73053  0.51013  Biso   1.000  H
  H303     1.0000 0.84529  0.56994  0.50872  Biso   1.000  H
  H304     1.0000 0.88124  0.64166  0.52613  Biso   1.000  H
  H305     1.0000 0.88115  0.64166  0.52613  Biso   1.000  H
  C342     1.0000 0.97997  0.17966  0.15526  Biso   1.000  C
  C343     1.0000 0.12626  0.94590  0.44152  Biso   1.000  C
  C344     1.0000 0.12617  0.94590  0.44152  Biso   1.000  C
  C345     1.0000 0.19376  0.02336  0.39966  Biso   1.000  C
  C346     1.0000 0.81225  0.79812  0.18318  Biso   1.000  C
  C347     1.0000 0.09762  0.89051  0.42048  Biso   1.000  C
  H306     1.0000 0.02937  0.78505  0.41543  Biso   1.000  H
  H307     1.0000 0.94481  0.59965  0.48002  Biso   1.000  H
  H308     1.0000 0.96515  0.61241  0.51613  Biso   1.000  H
  C348     1.0000 0.96909  0.16452  0.12190  Biso   1.000  C
  H309     1.0000 0.11267  0.93841  0.46274  Biso   1.000  H
  H310     1.0000 0.11265  0.93846  0.46274  Biso   1.000  H
  C349     1.0000 0.16456  0.96915  0.37808  Biso   1.000  C
  H311     1.0000 0.22626  0.06733  0.39273  Biso   1.000  H
  C350     1.0000 0.82038  0.80034  0.15526  Biso   1.000  C
  C351     1.0000 0.11679  0.90270  0.38881  Biso   1.000  C
  C352     1.0000 0.90269  0.11683  0.11117  Biso   1.000  C
  C353     1.0000 0.02336  0.19377  0.10033  Biso   1.000  C
  C354     1.0000 0.02332  0.19377  0.10033  Biso   1.000  C
  C355     1.0000 0.17965  0.98000  0.34475  Biso   1.000  C
  C356     1.0000 0.83551  0.80463  0.12190  Biso   1.000  C
  H312     1.0000 0.09765  0.86622  0.37443  Biso   1.000  H
  H313     1.0000 0.86621  0.09766  0.12556  Biso   1.000  H
  C357     1.0000 0.89048  0.09761  0.07951  Biso   1.000  C
  H314     1.0000 0.06736  0.22627  0.10726  Biso   1.000  H
  C358     1.0000 0.01233  0.17475  0.06835  Biso   1.000  C
  H315     1.0000 0.06731  0.22627  0.10726  Biso   1.000  H
  C359     1.0000 0.18778  0.98589  0.31683  Biso   1.000  C
  C360     1.0000 0.80628  0.82959  0.10033  Biso   1.000  C
  C361     1.0000 0.88323  0.78587  0.11117  Biso   1.000  C
  C362     1.0000 0.88325  0.78593  0.11117  Biso   1.000  C
  C363     1.0000 0.81980  0.04681  0.06930  Biso   1.000  C
  C364     1.0000 0.94592  0.12623  0.05847  Biso   1.000  C
  C365     1.0000 0.81976  0.04681  0.06930  Biso   1.000  C
  C366     1.0000 0.94587  0.12623  0.05847  Biso   1.000  C
  C367     1.0000 0.06924  0.20462  0.04518  Biso   1.000  C
  C368     1.0000 0.19508  0.99297  0.28296  Biso   1.000  C
  C369     1.0000 0.82523  0.83760  0.06835  Biso   1.000  C
  H316     1.0000 0.77375  0.84106  0.10726  Biso   1.000  H
  C370     1.0000 0.90240  0.79290  0.07951  Biso   1.000  C
  H317     1.0000 0.90232  0.76856  0.12556  Biso   1.000  H
  H318     1.0000 0.78502  0.02935  0.08456  Biso   1.000  H
  N37      1.0000 0.80378  0.02578  0.04128  Biso   1.000  N
  H319     1.0000 0.93843  0.11270  0.03727  Biso   1.000  H
  H320     1.0000 0.05954  0.18907  0.02426  Biso   1.000  H
  N38      1.0000 0.13044  0.25014  0.05194  Biso   1.000  N
  H321     1.0000 0.05949  0.18907  0.02426  Biso   1.000  H
  C371     1.0000 0.17010  0.93701  0.26378  Biso   1.000  C
  C372     1.0000 0.23046  0.05622  0.26881  Biso   1.000  C
  C373     1.0000 0.87377  0.81967  0.05847  Biso   1.000  C
  C374     1.0000 0.79542  0.86462  0.04518  Biso   1.000  C
  C375     1.0000 0.79538  0.86462  0.04518  Biso   1.000  C
  C376     1.0000 0.95315  0.77296  0.06930  Biso   1.000  C
  C377     1.0000 0.73120  0.97468  0.03525  Biso   1.000  C
  C378     1.0000 0.73115  0.97468  0.03525  Biso   1.000  C
  C379     1.0000 0.18115  0.27567  0.02633  Biso   1.000  C
  C380     1.0000 0.18111  0.27567  0.02633  Biso   1.000  C
  C381     1.0000 0.17424  0.94378  0.23120  Biso   1.000  C
  H322     1.0000 0.14982  0.89314  0.27273  Biso   1.000  H
  H323     1.0000 0.14973  0.89314  0.27273  Biso   1.000  H
  C382     1.0000 0.23309  0.06299  0.23621  Biso   1.000  C
  H324     1.0000 0.25326  0.09554  0.28144  Biso   1.000  H
  H325     1.0000 0.88733  0.82576  0.03727  Biso   1.000  H
  N39      1.0000 0.74989  0.88033  0.05194  Biso   1.000  N
  H326     1.0000 0.81096  0.87046  0.02426  Biso   1.000  H
  H327     1.0000 0.97068  0.75565  0.08456  Biso   1.000  H
  N40      1.0000 0.97426  0.77802  0.04128  Biso   1.000  N
  H328     1.0000 0.97063  0.75565  0.08456  Biso   1.000  H
  C383     1.0000 0.72437  0.90544  0.02633  Biso   1.000  C
  H329     1.0000 0.70454  0.96879  0.05467  Biso   1.000  H
  C384     1.0000 0.72430  0.90549  0.02633  Biso   1.000  C
  C385     1.0000 0.70312  0.00041  0.00888  Biso   1.000  C
  H330     1.0000 0.15983  0.24859  0.00707  Biso   1.000  H
  C386     1.0000 0.20480  0.35142  0.01966  Biso   1.000  C
  C387     1.0000 0.24349  0.26879  0.03525  Biso   1.000  C
  H331     1.0000 0.15772  0.90446  0.21857  Biso   1.000  H
  C388     1.0000 0.20211  0.00703  0.21705  Biso   1.000  C
  C389     1.0000 0.20206  0.00703  0.21705  Biso   1.000  C
  H332     1.0000 0.25663  0.10686  0.22726  Biso   1.000  H
  H333     1.0000 0.25659  0.10686  0.22726  Biso   1.000  H
  C390     1.0000 0.02533  0.75647  0.03525  Biso   1.000  C
  C391     1.0000 0.02535  0.75652  0.03525  Biso   1.000  C
  H334     1.0000 0.75150  0.91128  0.00707  Biso   1.000  H
  C392     1.0000 0.64861  0.85336  0.01966  Biso   1.000  C
  H335     1.0000 0.75145  0.91128  0.00707  Biso   1.000  H
  C393     1.0000 0.64852  0.85336  0.01966  Biso   1.000  C
  H336     1.0000 0.70732  0.04408  0.01517  Biso   1.000  H
  C394     1.0000 0.62788  0.94874  0.00169  Biso   1.000  C
  C395     1.0000 0.62779  0.94874  0.00169  Biso   1.000  C
  H337     1.0000 0.73054  0.00827  0.98986  Biso   1.000  H
  H338     1.0000 0.73050  0.00827  0.98986  Biso   1.000  H
  C396     1.0000 0.25962  0.38123  0.99383  Biso   1.000  C
  H339     1.0000 0.16529  0.35555  0.01318  Biso   1.000  H
  H340     1.0000 0.22331  0.37798  0.03896  Biso   1.000  H
  H341     1.0000 0.26421  0.29546  0.05467  Biso   1.000  H
  N41      1.0000 0.22196  0.19620  0.04128  Biso   1.000  N
  C397     1.0000 0.29722  0.29685  0.00888  Biso   1.000  C
  C398     1.0000 0.20184  0.01411  0.18318  Biso   1.000  C
  C399     1.0000 0.09459  0.81884  0.02633  Biso   1.000  C
  C400     1.0000 0.09450  0.81884  0.02633  Biso   1.000  C
  C401     1.0000 0.99962  0.70273  0.00888  Biso   1.000  C
  H342     1.0000 0.03121  0.73575  0.05467  Biso   1.000  H
  C402     1.0000 0.61881  0.87842  0.99383  Biso   1.000  C
  H343     1.0000 0.64444  0.80975  0.01318  Biso   1.000  H
  H344     1.0000 0.62205  0.84535  0.03896  Biso   1.000  H
  H345     1.0000 0.64439  0.80975  0.01318  Biso   1.000  H
  H346     1.0000 0.61243  0.96517  0.98386  Biso   1.000  H
  H347     1.0000 0.59967  0.94476  0.01997  Biso   1.000  H
  H348     1.0000 0.23954  0.35834  0.97386  Biso   1.000  H
  H349     1.0000 0.27535  0.43006  0.99126  Biso   1.000  H
  H350     1.0000 0.23952  0.35839  0.97386  Biso   1.000  H
  H351     1.0000 0.27531  0.43006  0.99126  Biso   1.000  H
  C403     1.0000 0.32088  0.37219  0.00169  Biso   1.000  C
  H352     1.0000 0.27771  0.26947  0.98986  Biso   1.000  H
  H353     1.0000 0.33674  0.29267  0.01517  Biso   1.000  H
  H354     1.0000 0.33669  0.29267  0.01517  Biso   1.000  H
  C404     1.0000 0.22705  0.18023  0.06930  Biso   1.000  C
  C405     1.0000 0.22700  0.18023  0.06930  Biso   1.000  C
  C406     1.0000 0.19964  0.02000  0.15526  Biso   1.000  C
  H355     1.0000 0.08875  0.84018  0.00707  Biso   1.000  H
  N42      1.0000 0.11971  0.86953  0.05194  Biso   1.000  N
  C407     1.0000 0.14666  0.79517  0.01966  Biso   1.000  C
  H356     1.0000 0.95594  0.66326  0.01517  Biso   1.000  H
  H357     1.0000 0.99180  0.72227  0.98986  Biso   1.000  H
  H358     1.0000 0.99171  0.72227  0.98986  Biso   1.000  H
  C408     1.0000 0.05127  0.67912  0.00169  Biso   1.000  C
  H359     1.0000 0.64161  0.88116  0.97386  Biso   1.000  H
  H360     1.0000 0.56998  0.84530  0.99126  Biso   1.000  H
  H361     1.0000 0.35274  0.38759  0.98386  Biso   1.000  H
  H362     1.0000 0.34512  0.40035  0.01997  Biso   1.000  H
  C409     1.0000 0.20707  0.10949  0.07951  Biso   1.000  C
  H363     1.0000 0.24432  0.21495  0.08456  Biso   1.000  H
  C410     1.0000 0.19540  0.03085  0.12190  Biso   1.000  C
  C411     1.0000 0.19536  0.03085  0.12190  Biso   1.000  C
  C412     1.0000 0.13538  0.93076  0.04518  Biso   1.000  C
  C413     1.0000 0.13534  0.93076  0.04518  Biso   1.000  C
  C414     1.0000 0.12157  0.74035  0.99383  Biso   1.000  C
  H364     1.0000 0.19020  0.83465  0.01318  Biso   1.000  H
  H365     1.0000 0.15468  0.77668  0.03896  Biso   1.000  H
  H366     1.0000 0.03486  0.64729  0.98386  Biso   1.000  H
  H367     1.0000 0.05530  0.65489  0.01997  Biso   1.000  H
  H368     1.0000 0.05526  0.65489  0.01997  Biso   1.000  H
  C415     1.0000 0.21408  0.09730  0.11117  Biso   1.000  C
  C416     1.0000 0.18031  0.05410  0.05847  Biso   1.000  C
  C417     1.0000 0.17040  0.97664  0.10033  Biso   1.000  C
  H369     1.0000 0.12954  0.94047  0.02426  Biso   1.000  H
  C418     1.0000 0.16237  0.98760  0.06835  Biso   1.000  C
  H370     1.0000 0.11887  0.76045  0.97386  Biso   1.000  H
  H371     1.0000 0.11878  0.76045  0.97386  Biso   1.000  H
  H372     1.0000 0.15474  0.72469  0.99126  Biso   1.000  H
  H373     1.0000 0.23143  0.13378  0.12556  Biso   1.000  H
  H374     1.0000 0.17426  0.06159  0.03727  Biso   1.000  H
  H375     1.0000 0.17422  0.06159  0.03727  Biso   1.000  H
  H376     1.0000 0.15893  0.93267  0.10726  Biso   1.000  H
  C419     1.0000 0.04788  0.45491  0.33951  Biso   1.000  C
  C420     1.0000 0.01812  0.47998  0.31368  Biso   1.000  C
  C421     1.0000 0.03885  0.38459  0.33165  Biso   1.000  C
  H377     1.0000 0.02503  0.45218  0.35947  Biso   1.000  H
  H378     1.0000 0.09673  0.48809  0.34207  Biso   1.000  H
  C422     1.0000 0.94237  0.42789  0.30701  Biso   1.000  C
  H379     1.0000 0.02225  0.52359  0.32016  Biso   1.000  H
  H380     1.0000 0.04464  0.48798  0.29438  Biso   1.000  H
  C423     1.0000 0.96352  0.33292  0.32445  Biso   1.000  C
  H381     1.0000 0.06702  0.38857  0.31337  Biso   1.000  H
  H382     1.0000 0.05422  0.36816  0.34948  Biso   1.000  H
  N43      1.0000 0.91680  0.45300  0.28139  Biso   1.000  N
  C424     1.0000 0.93549  0.35865  0.29808  Biso   1.000  C
  H383     1.0000 0.91524  0.42205  0.32626  Biso   1.000  H
  H384     1.0000 0.95932  0.28926  0.31816  Biso   1.000  H
  H385     1.0000 0.93615  0.32506  0.34347  Biso   1.000  H
  C425     1.0000 0.87131  0.46871  0.28816  Biso   1.000  C
  N44      1.0000 0.86286  0.30755  0.29205  Biso   1.000  N
  H386     1.0000 0.96211  0.36454  0.27866  Biso   1.000  H
  C426     1.0000 0.84146  0.49574  0.26499  Biso   1.000  C
  H387     1.0000 0.85573  0.46287  0.30907  Biso   1.000  H
  C427     1.0000 0.84689  0.28652  0.26404  Biso   1.000  C
  C428     1.0000 0.79292  0.51367  0.27486  Biso   1.000  C
  C429     1.0000 0.86041  0.50374  0.23301  Biso   1.000  C
  C430     1.0000 0.77616  0.23572  0.25383  Biso   1.000  C
  H388     1.0000 0.88162  0.30398  0.24877  Biso   1.000  H
  C431     1.0000 0.76429  0.54043  0.25383  Biso   1.000  C
  H389     1.0000 0.77931  0.50757  0.29606  Biso   1.000  H
  C432     1.0000 0.83118  0.52870  0.21143  Biso   1.000  C
  H390     1.0000 0.89293  0.49227  0.22608  Biso   1.000  H
  C433     1.0000 0.72077  0.20710  0.27486  Biso   1.000  C
  C434     1.0000 0.76395  0.21650  0.22216  Biso   1.000  C
  C435     1.0000 0.71349  0.56038  0.26404  Biso   1.000  C
  C436     1.0000 0.78346  0.54746  0.22216  Biso   1.000  C
  C437     1.0000 0.84630  0.53299  0.17807  Biso   1.000  C
  C438     1.0000 0.65431  0.15858  0.26499  Biso   1.000  C
  H391     1.0000 0.72823  0.22069  0.29606  Biso   1.000  H
  C439     1.0000 0.69755  0.16881  0.21143  Biso   1.000  C
  H392     1.0000 0.80043  0.23567  0.20777  Biso   1.000  H
  N45      1.0000 0.69243  0.55531  0.29205  Biso   1.000  N
  H393     1.0000 0.69606  0.57769  0.24877  Biso   1.000  H
  H394     1.0000 0.76433  0.56477  0.20777  Biso   1.000  H
  C440     1.0000 0.85440  0.53521  0.15016  Biso   1.000  C
  C441     1.0000 0.59740  0.12871  0.28816  Biso   1.000  C
  C442     1.0000 0.64333  0.13956  0.23301  Biso   1.000  C
  C443     1.0000 0.68667  0.15367  0.17807  Biso   1.000  C
  C444     1.0000 0.64136  0.57686  0.29808  Biso   1.000  C
  C445     1.0000 0.86175  0.53542  0.11628  Biso   1.000  C
  N46      1.0000 0.53620  0.08319  0.28139  Biso   1.000  N
  H395     1.0000 0.60715  0.14427  0.30907  Biso   1.000  H
  H396     1.0000 0.59933  0.10706  0.22608  Biso   1.000  H
  C446     1.0000 0.68081  0.14561  0.15016  Biso   1.000  C
  C447     1.0000 0.57214  0.51449  0.30701  Biso   1.000  C
  C448     1.0000 0.66707  0.63060  0.32445  Biso   1.000  C
  H397     1.0000 0.63543  0.59758  0.27866  Biso   1.000  H
  C449     1.0000 0.89716  0.50762  0.10213  Biso   1.000  C
  C450     1.0000 0.83675  0.56642  0.09712  Biso   1.000  C
  C451     1.0000 0.48554  0.05767  0.30701  Biso   1.000  C
  C452     1.0000 0.67369  0.13827  0.11628  Biso   1.000  C
  N47      1.0000 0.54698  0.46380  0.28139  Biso   1.000  N
  H398     1.0000 0.57794  0.49315  0.32626  Biso   1.000  H
  C453     1.0000 0.52003  0.53816  0.31368  Biso   1.000  C
  C454     1.0000 0.61538  0.65421  0.33165  Biso   1.000  C
  H399     1.0000 0.71075  0.67007  0.31816  Biso   1.000  H
  H400     1.0000 0.67493  0.61107  0.34347  Biso   1.000  H
  C455     1.0000 0.89977  0.50343  0.06956  Biso   1.000  C
  H401     1.0000 0.91995  0.49108  0.11476  Biso   1.000  H
  C456     1.0000 0.84094  0.56379  0.06453  Biso   1.000  C
  H402     1.0000 0.81645  0.58998  0.10607  Biso   1.000  H
  C457     1.0000 0.42315  0.06454  0.29808  Biso   1.000  C
  H403     1.0000 0.50682  0.08474  0.32626  Biso   1.000  H
  C458     1.0000 0.46189  0.98192  0.31368  Biso   1.000  C
  C459     1.0000 0.61048  0.10288  0.10213  Biso   1.000  C
  C460     1.0000 0.72967  0.16323  0.09712  Biso   1.000  C
  C461     1.0000 0.53131  0.40257  0.28816  Biso   1.000  C
  H404     1.0000 0.47644  0.49868  0.32016  Biso   1.000  H
  H405     1.0000 0.51201  0.55666  0.29438  Biso   1.000  H
  C462     1.0000 0.54507  0.59298  0.33951  Biso   1.000  C
  H406     1.0000 0.61143  0.67845  0.31337  Biso   1.000  H
  H407     1.0000 0.63183  0.68604  0.34948  Biso   1.000  H
  C463     1.0000 0.86875  0.52839  0.05038  Biso   1.000  C
  H408     1.0000 0.92328  0.48308  0.06061  Biso   1.000  H
  H409     1.0000 0.82439  0.58663  0.05190  Biso   1.000  H
  N48      1.0000 0.44468  0.13714  0.29205  Biso   1.000  N
  C464     1.0000 0.36943  0.03648  0.32445  Biso   1.000  C
  H410     1.0000 0.40243  0.03788  0.27866  Biso   1.000  H
  H411     1.0000 0.50140  0.97778  0.32016  Biso   1.000  H
  H412     1.0000 0.44333  0.95536  0.29438  Biso   1.000  H
  C465     1.0000 0.40707  0.95210  0.33951  Biso   1.000  C
  C466     1.0000 0.60366  0.10024  0.06956  Biso   1.000  C
  H413     1.0000 0.57112  0.08009  0.11476  Biso   1.000  H
  C467     1.0000 0.72287  0.15904  0.06453  Biso   1.000  C
  H414     1.0000 0.77354  0.18359  0.10607  Biso   1.000  H
  C468     1.0000 0.50428  0.34573  0.26499  Biso   1.000  C
  H415     1.0000 0.53715  0.39286  0.30907  Biso   1.000  H
  H416     1.0000 0.54786  0.57288  0.35947  Biso   1.000  H
  H417     1.0000 0.51193  0.60869  0.34207  Biso   1.000  H
  C469     1.0000 0.86853  0.52105  0.01650  Biso   1.000  C
  C470     1.0000 0.43964  0.15310  0.26404  Biso   1.000  C
  H418     1.0000 0.32995  0.04067  0.31816  Biso   1.000  H
  H419     1.0000 0.38894  0.06387  0.34347  Biso   1.000  H
  C471     1.0000 0.34581  0.96114  0.33165  Biso   1.000  C
  H420     1.0000 0.42715  0.97499  0.35947  Biso   1.000  H
  H421     1.0000 0.39134  0.90327  0.34207  Biso   1.000  H
  C472     1.0000 0.65966  0.13125  0.05038  Biso   1.000  C
  H422     1.0000 0.55980  0.07668  0.06061  Biso   1.000  H
  H423     1.0000 0.76220  0.17558  0.05190  Biso   1.000  H
  C473     1.0000 0.49624  0.35669  0.23301  Biso   1.000  C
  C474     1.0000 0.48633  0.27923  0.27486  Biso   1.000  C
  C475     1.0000 0.86633  0.51299  0.98858  Biso   1.000  C
  C476     1.0000 0.45957  0.22384  0.25383  Biso   1.000  C
  H424     1.0000 0.42233  0.11838  0.24877  Biso   1.000  H
  H425     1.0000 0.32153  0.93298  0.31337  Biso   1.000  H
  H426     1.0000 0.31395  0.94575  0.34948  Biso   1.000  H
  C477     1.0000 0.65252  0.13145  0.01650  Biso   1.000  C
  C478     1.0000 0.47129  0.30248  0.21143  Biso   1.000  C
  H427     1.0000 0.50771  0.40066  0.22608  Biso   1.000  H
  H428     1.0000 0.49245  0.27179  0.29606  Biso   1.000  H
  C479     1.0000 0.86207  0.49785  0.95525  Biso   1.000  C
  C480     1.0000 0.45256  0.23603  0.22216  Biso   1.000  C
  C481     1.0000 0.64665  0.13367  0.98858  Biso   1.000  C
  C482     1.0000 0.46700  0.31334  0.17807  Biso   1.000  C
  C483     1.0000 0.83709  0.52710  0.93367  Biso   1.000  C
  C484     1.0000 0.88078  0.45016  0.94452  Biso   1.000  C
  H429     1.0000 0.43521  0.19955  0.20777  Biso   1.000  H
  C485     1.0000 0.63581  0.13796  0.95525  Biso   1.000  C
  C486     1.0000 0.46480  0.31923  0.15016  Biso   1.000  C
  C487     1.0000 0.82906  0.50808  0.90167  Biso   1.000  C
  H430     1.0000 0.82560  0.55960  0.94060  Biso   1.000  H
  C488     1.0000 0.87377  0.43094  0.91285  Biso   1.000  C
  H431     1.0000 0.89809  0.43099  0.95891  Biso   1.000  H
  C489     1.0000 0.56934  0.11921  0.94452  Biso   1.000  C
  C490     1.0000 0.69000  0.16292  0.93367  Biso   1.000  C
  C491     1.0000 0.46458  0.32630  0.11628  Biso   1.000  C
  C492     1.0000 0.80202  0.53795  0.87850  Biso   1.000  C
  C493     1.0000 0.84700  0.45957  0.89182  Biso   1.000  C
  C494     1.0000 0.89370  0.38015  0.90262  Biso   1.000  C
  C495     1.0000 0.55719  0.12623  0.91285  Biso   1.000  C
  H432     1.0000 0.53289  0.10190  0.95891  Biso   1.000  H
  C496     1.0000 0.67906  0.17093  0.90167  Biso   1.000  C
  H433     1.0000 0.73399  0.17439  0.94060  Biso   1.000  H
  C497     1.0000 0.49240  0.38955  0.10213  Biso   1.000  C
  C498     1.0000 0.43356  0.27034  0.09712  Biso   1.000  C
  N49      1.0000 0.78634  0.58347  0.88526  Biso   1.000  N
  H434     1.0000 0.79621  0.52240  0.85761  Biso   1.000  H
  H435     1.0000 0.84088  0.44598  0.87059  Biso   1.000  H
  H436     1.0000 0.91097  0.36268  0.91791  Biso   1.000  H
  N50      1.0000 0.88865  0.35912  0.87463  Biso   1.000  N
  C499     1.0000 0.48645  0.10629  0.90262  Biso   1.000  C
  C500     1.0000 0.61259  0.15300  0.89182  Biso   1.000  C
  C501     1.0000 0.73593  0.19795  0.87850  Biso   1.000  C
  C502     1.0000 0.49654  0.39632  0.06956  Biso   1.000  C
  H437     1.0000 0.50893  0.42887  0.11476  Biso   1.000  H
  C503     1.0000 0.43618  0.27711  0.06453  Biso   1.000  C
  H438     1.0000 0.41006  0.22648  0.10607  Biso   1.000  H
  C504     1.0000 0.76121  0.60900  0.85965  Biso   1.000  C
  C505     1.0000 0.91017  0.30801  0.86858  Biso   1.000  C
  N51      1.0000 0.47045  0.11135  0.87463  Biso   1.000  N
  H439     1.0000 0.45170  0.08898  0.91791  Biso   1.000  H
  H440     1.0000 0.60508  0.15910  0.87059  Biso   1.000  H
  H441     1.0000 0.72619  0.20379  0.85761  Biso   1.000  H
  N52      1.0000 0.79712  0.21366  0.88526  Biso   1.000  N
  C506     1.0000 0.47161  0.34036  0.05038  Biso   1.000  C
  H442     1.0000 0.51691  0.44019  0.06061  Biso   1.000  H
  H443     1.0000 0.41339  0.23779  0.05190  Biso   1.000  H
  C507     1.0000 0.69194  0.60213  0.86858  Biso   1.000  C
  H444     1.0000 0.75541  0.58192  0.84040  Biso   1.000  H
  C508     1.0000 0.81327  0.68475  0.85298  Biso   1.000  C
  C509     1.0000 0.84783  0.23883  0.85965  Biso   1.000  C
  C510     1.0000 0.96394  0.33375  0.84220  Biso   1.000  C
  H445     1.0000 0.93090  0.30212  0.88799  Biso   1.000  H
  C511     1.0000 0.39784  0.08980  0.86858  Biso   1.000  C
  C512     1.0000 0.47891  0.34744  0.01650  Biso   1.000  C
  N53      1.0000 0.64088  0.52953  0.87463  Biso   1.000  N
  C513     1.0000 0.66628  0.63018  0.84220  Biso   1.000  C
  H446     1.0000 0.69789  0.62879  0.88799  Biso   1.000  H
  H447     1.0000 0.85690  0.68888  0.84650  Biso   1.000  H
  H448     1.0000 0.82131  0.71131  0.87230  Biso   1.000  H
  C514     1.0000 0.78826  0.71456  0.82715  Biso   1.000  C
  H449     1.0000 0.82652  0.24461  0.84040  Biso   1.000  H
  C515     1.0000 0.87148  0.18669  0.85298  Biso   1.000  C
  C516     1.0000 0.98759  0.28207  0.83503  Biso   1.000  C
  H450     1.0000 0.94442  0.34160  0.82321  Biso   1.000  H
  H451     1.0000 0.00340  0.37741  0.84849  Biso   1.000  H
  C517     1.0000 0.39098  0.15217  0.85965  Biso   1.000  C
  C518     1.0000 0.36980  0.03607  0.84220  Biso   1.000  C
  H452     1.0000 0.37119  0.06908  0.88799  Biso   1.000  H
  C519     1.0000 0.48700  0.35333  0.98858  Biso   1.000  C
  C520     1.0000 0.61987  0.51356  0.90262  Biso   1.000  C
  C521     1.0000 0.71796  0.70552  0.83503  Biso   1.000  C
  H453     1.0000 0.62262  0.62600  0.84849  Biso   1.000  H
  H454     1.0000 0.65840  0.60280  0.82321  Biso   1.000  H
  H455     1.0000 0.78552  0.69172  0.80721  Biso   1.000  H
  H456     1.0000 0.82140  0.76339  0.82461  Biso   1.000  H
  H457     1.0000 0.83200  0.14308  0.84650  Biso   1.000  H
  H458     1.0000 0.88998  0.17868  0.87230  Biso   1.000  H
  C522     1.0000 0.92630  0.21175  0.82715  Biso   1.000  C
  H459     1.0000 0.01178  0.27810  0.85331  Biso   1.000  H
  H460     1.0000 0.01939  0.29851  0.81720  Biso   1.000  H
  N54      1.0000 0.41651  0.20286  0.88526  Biso   1.000  N
  H461     1.0000 0.41812  0.17351  0.84040  Biso   1.000  H
  C523     1.0000 0.31520  0.12851  0.85298  Biso   1.000  C
  C524     1.0000 0.29450  0.01245  0.83503  Biso   1.000  C
  H462     1.0000 0.37401  0.99659  0.84849  Biso   1.000  H
  H463     1.0000 0.39720  0.05560  0.82321  Biso   1.000  H
  C525     1.0000 0.50213  0.36418  0.95525  Biso   1.000  C
  C526     1.0000 0.56906  0.44282  0.91285  Biso   1.000  C
  H464     1.0000 0.63728  0.54829  0.91791  Biso   1.000  H
  H465     1.0000 0.72188  0.73368  0.85331  Biso   1.000  H
  H466     1.0000 0.70149  0.72092  0.81720  Biso   1.000  H
  H467     1.0000 0.90619  0.21449  0.80721  Biso   1.000  H
  H468     1.0000 0.94198  0.17858  0.82461  Biso   1.000  H
  C527     1.0000 0.46207  0.26409  0.87850  Biso   1.000  C
  H469     1.0000 0.31109  0.16798  0.84650  Biso   1.000  H
  H470     1.0000 0.28868  0.11001  0.87230  Biso   1.000  H
  C528     1.0000 0.28542  0.07368  0.82715  Biso   1.000  C
  H471     1.0000 0.26632  0.98822  0.85331  Biso   1.000  H
  H472     1.0000 0.27916  0.98062  0.81720  Biso   1.000  H
  C529     1.0000 0.47288  0.30998  0.93367  Biso   1.000  C
  C530     1.0000 0.54986  0.43063  0.94452  Biso   1.000  C
  C531     1.0000 0.54043  0.38743  0.89182  Biso   1.000  C
  C532     1.0000 0.49187  0.32093  0.90167  Biso   1.000  C
  H473     1.0000 0.47762  0.27381  0.85761  Biso   1.000  H
  H474     1.0000 0.30831  0.09378  0.80721  Biso   1.000  H
  H475     1.0000 0.23658  0.05798  0.82461  Biso   1.000  H
  H476     1.0000 0.44038  0.26600  0.94060  Biso   1.000  H
  H477     1.0000 0.56899  0.46711  0.95891  Biso   1.000  H
  H478     1.0000 0.55402  0.39492  0.87059  Biso   1.000  H
  C533     1.0000 0.70550  0.71792  0.66498  Biso   1.000  C
  C534     1.0000 0.63017  0.66625  0.65779  Biso   1.000  C
  C535     1.0000 0.71457  0.78825  0.67284  Biso   1.000  C
  H479     1.0000 0.73371  0.72190  0.64670  Biso   1.000  H
  H480     1.0000 0.72091  0.70149  0.68281  Biso   1.000  H
  C536     1.0000 0.60213  0.69198  0.63141  Biso   1.000  C
  H481     1.0000 0.62601  0.62259  0.65150  Biso   1.000  H
  H482     1.0000 0.60279  0.65840  0.67680  Biso   1.000  H
  C537     1.0000 0.68477  0.81331  0.64701  Biso   1.000  C
  H483     1.0000 0.69172  0.78551  0.69280  Biso   1.000  H
  H484     1.0000 0.76342  0.82142  0.67540  Biso   1.000  H
  N55      1.0000 0.52955  0.64088  0.62538  Biso   1.000  N
  C538     1.0000 0.60901  0.76122  0.64034  Biso   1.000  C
  H485     1.0000 0.62882  0.69793  0.61199  Biso   1.000  H
  H486     1.0000 0.68890  0.85692  0.65349  Biso   1.000  H
  H487     1.0000 0.71133  0.82132  0.62771  Biso   1.000  H
  C539     1.0000 0.51353  0.61985  0.59737  Biso   1.000  C
  H488     1.0000 0.58188  0.75538  0.65959  Biso   1.000  H
  N56      1.0000 0.58348  0.78634  0.61472  Biso   1.000  N
  C540     1.0000 0.44280  0.56906  0.58716  Biso   1.000  C
  H489     1.0000 0.54831  0.63731  0.58210  Biso   1.000  H
  C541     1.0000 0.53795  0.80204  0.62149  Biso   1.000  C
  C542     1.0000 0.43060  0.54984  0.55549  Biso   1.000  C
  C543     1.0000 0.38741  0.54043  0.60820  Biso   1.000  C
  C544     1.0000 0.50810  0.82907  0.59832  Biso   1.000  C
  H490     1.0000 0.52241  0.79620  0.64240  Biso   1.000  H
  C545     1.0000 0.36420  0.50214  0.54476  Biso   1.000  C
  H491     1.0000 0.46712  0.56901  0.54111  Biso   1.000  H
  C546     1.0000 0.32095  0.49191  0.59832  Biso   1.000  C
  H492     1.0000 0.39492  0.55402  0.62939  Biso   1.000  H
  C547     1.0000 0.52710  0.83708  0.56634  Biso   1.000  C
  C548     1.0000 0.45957  0.84700  0.60820  Biso   1.000  C
  C549     1.0000 0.35336  0.48700  0.51141  Biso   1.000  C
  C550     1.0000 0.30997  0.47290  0.56634  Biso   1.000  C
  C551     1.0000 0.26409  0.46205  0.62149  Biso   1.000  C
  C552     1.0000 0.49790  0.86209  0.54476  Biso   1.000  C
  H493     1.0000 0.55962  0.82561  0.55941  Biso   1.000  H
  C553     1.0000 0.43093  0.87376  0.58716  Biso   1.000  C
  H494     1.0000 0.44600  0.84090  0.62939  Biso   1.000  H
  C554     1.0000 0.34745  0.47894  0.48349  Biso   1.000  C
  H495     1.0000 0.26598  0.44040  0.55941  Biso   1.000  H
  H496     1.0000 0.27379  0.47760  0.64240  Biso   1.000  H
  N57      1.0000 0.20289  0.41652  0.61472  Biso   1.000  N
  C555     1.0000 0.51299  0.86632  0.51141  Biso   1.000  C
  C556     1.0000 0.45015  0.88079  0.55549  Biso   1.000  C
  C557     1.0000 0.38018  0.89371  0.59737  Biso   1.000  C
  C558     1.0000 0.34034  0.47160  0.44961  Biso   1.000  C
  C559     1.0000 0.15218  0.39100  0.64034  Biso   1.000  C
  C560     1.0000 0.52108  0.86854  0.48349  Biso   1.000  C
  H497     1.0000 0.43102  0.89810  0.54111  Biso   1.000  H
  H498     1.0000 0.36270  0.91102  0.58210  Biso   1.000  H
  N58      1.0000 0.35912  0.88864  0.62538  Biso   1.000  N
  C561     1.0000 0.39631  0.49656  0.43045  Biso   1.000  C
  C562     1.0000 0.27713  0.43621  0.43546  Biso   1.000  C
  H499     1.0000 0.17353  0.41812  0.65959  Biso   1.000  H
  C563     1.0000 0.12854  0.31525  0.64701  Biso   1.000  C
  C564     1.0000 0.08984  0.39787  0.63141  Biso   1.000  C
  C565     1.0000 0.52839  0.86875  0.44961  Biso   1.000  C
  C566     1.0000 0.30805  0.91019  0.63141  Biso   1.000  C
  C567     1.0000 0.38954  0.49243  0.39786  Biso   1.000  C
  H500     1.0000 0.44023  0.51692  0.43940  Biso   1.000  H
  C568     1.0000 0.27035  0.43357  0.40289  Biso   1.000  C
  H501     1.0000 0.23781  0.41342  0.44809  Biso   1.000  H
  H502     1.0000 0.16800  0.31111  0.65349  Biso   1.000  H
  H503     1.0000 0.10998  0.28869  0.62771  Biso   1.000  H
  C569     1.0000 0.07371  0.28543  0.67284  Biso   1.000  C
  C570     1.0000 0.03607  0.36981  0.65779  Biso   1.000  C
  H504     1.0000 0.06912  0.37121  0.61199  Biso   1.000  H
  N59      1.0000 0.11137  0.47047  0.62538  Biso   1.000  N
  C571     1.0000 0.50344  0.89975  0.43045  Biso   1.000  C
  C572     1.0000 0.56381  0.84095  0.43546  Biso   1.000  C
  C573     1.0000 0.23879  0.84782  0.64034  Biso   1.000  C
  C574     1.0000 0.33376  0.96393  0.65779  Biso   1.000  C
  H505     1.0000 0.30212  0.93091  0.61199  Biso   1.000  H
  C575     1.0000 0.32631  0.46458  0.38371  Biso   1.000  C
  H506     1.0000 0.42884  0.50891  0.38523  Biso   1.000  H
  H507     1.0000 0.22644  0.41001  0.39394  Biso   1.000  H
  H508     1.0000 0.09380  0.30832  0.69280  Biso   1.000  H
  H509     1.0000 0.05798  0.23660  0.67540  Biso   1.000  H
  C576     1.0000 0.01241  0.29448  0.66498  Biso   1.000  C
  H510     1.0000 0.05558  0.39720  0.67680  Biso   1.000  H
  H511     1.0000 0.99659  0.37400  0.65150  Biso   1.000  H
  C577     1.0000 0.10629  0.48643  0.59737  Biso   1.000  C
  C578     1.0000 0.50758  0.89712  0.39786  Biso   1.000  C
  H512     1.0000 0.48309  0.92332  0.43940  Biso   1.000  H
  C579     1.0000 0.56641  0.83677  0.40289  Biso   1.000  C
  H513     1.0000 0.58659  0.82442  0.44809  Biso   1.000  H
  N60      1.0000 0.21362  0.79713  0.61472  Biso   1.000  N
  H514     1.0000 0.24458  0.82648  0.65959  Biso   1.000  H
  C580     1.0000 0.18672  0.87149  0.64701  Biso   1.000  C
  C581     1.0000 0.28209  0.98760  0.66498  Biso   1.000  C
  H515     1.0000 0.34158  0.94440  0.67680  Biso   1.000  H
  H516     1.0000 0.37735  0.00341  0.65150  Biso   1.000  H
  C582     1.0000 0.31920  0.46478  0.34983  Biso   1.000  C
  H517     1.0000 0.98822  0.26631  0.64670  Biso   1.000  H
  H518     1.0000 0.98059  0.27908  0.68281  Biso   1.000  H
  H519     1.0000 0.08901  0.45171  0.58210  Biso   1.000  H
  C583     1.0000 0.12626  0.55717  0.58716  Biso   1.000  C
  C584     1.0000 0.53539  0.86172  0.38371  Biso   1.000  C
  H520     1.0000 0.49108  0.91996  0.38523  Biso   1.000  H
  H521     1.0000 0.58997  0.81641  0.39394  Biso   1.000  H
  C585     1.0000 0.19795  0.73590  0.62149  Biso   1.000  C
  H522     1.0000 0.14313  0.83201  0.65349  Biso   1.000  H
  H523     1.0000 0.17869  0.88999  0.62771  Biso   1.000  H
  C586     1.0000 0.21176  0.92631  0.67284  Biso   1.000  C
  H524     1.0000 0.27807  0.01178  0.64670  Biso   1.000  H
  H525     1.0000 0.29845  0.01942  0.68281  Biso   1.000  H
  C587     1.0000 0.31333  0.46701  0.32191  Biso   1.000  C
  C588     1.0000 0.11925  0.56937  0.55549  Biso   1.000  C
  C589     1.0000 0.15302  0.61256  0.60820  Biso   1.000  C
  C590     1.0000 0.53520  0.85444  0.34983  Biso   1.000  C
  C591     1.0000 0.17096  0.67907  0.59832  Biso   1.000  C
  H526     1.0000 0.20379  0.72619  0.64240  Biso   1.000  H
  H527     1.0000 0.21451  0.90621  0.69280  Biso   1.000  H
  H528     1.0000 0.17862  0.94202  0.67540  Biso   1.000  H
  C592     1.0000 0.30250  0.47129  0.28858  Biso   1.000  C
  C593     1.0000 0.13793  0.63582  0.54476  Biso   1.000  C
  H529     1.0000 0.10190  0.53289  0.54111  Biso   1.000  H
  H530     1.0000 0.15910  0.60512  0.62939  Biso   1.000  H
  C594     1.0000 0.53302  0.84633  0.32191  Biso   1.000  C
  C595     1.0000 0.16293  0.69002  0.56634  Biso   1.000  C
  C596     1.0000 0.35669  0.49625  0.26700  Biso   1.000  C
  C597     1.0000 0.23602  0.45254  0.27785  Biso   1.000  C
  C598     1.0000 0.13369  0.64667  0.51141  Biso   1.000  C
  C599     1.0000 0.52872  0.83119  0.28858  Biso   1.000  C
  H531     1.0000 0.17440  0.73399  0.55941  Biso   1.000  H
  C600     1.0000 0.34570  0.50426  0.23500  Biso   1.000  C
  H532     1.0000 0.40068  0.50772  0.27394  Biso   1.000  H
  H533     1.0000 0.19958  0.43523  0.29224  Biso   1.000  H
  C601     1.0000 0.22383  0.45957  0.24618  Biso   1.000  C
  C602     1.0000 0.13149  0.65256  0.48349  Biso   1.000  C
  C603     1.0000 0.54743  0.78349  0.27785  Biso   1.000  C
  C604     1.0000 0.50374  0.86043  0.26700  Biso   1.000  C
  C605     1.0000 0.27923  0.48633  0.22515  Biso   1.000  C
  C606     1.0000 0.40257  0.53129  0.21183  Biso   1.000  C
  C607     1.0000 0.15313  0.43962  0.23595  Biso   1.000  C
  C608     1.0000 0.13122  0.65964  0.44961  Biso   1.000  C
  C609     1.0000 0.54041  0.76427  0.24618  Biso   1.000  C
  H534     1.0000 0.56478  0.76432  0.29224  Biso   1.000  H
  C610     1.0000 0.49571  0.84142  0.23500  Biso   1.000  C
  H535     1.0000 0.49224  0.89293  0.27394  Biso   1.000  H
  H536     1.0000 0.27177  0.49243  0.20393  Biso   1.000  H
  H537     1.0000 0.39287  0.53712  0.19094  Biso   1.000  H
  N61      1.0000 0.46381  0.54699  0.21860  Biso   1.000  N
  H538     1.0000 0.11835  0.42231  0.25124  Biso   1.000  H
  N62      1.0000 0.13714  0.44468  0.20796  Biso   1.000  N
  C611     1.0000 0.10025  0.60368  0.43045  Biso   1.000  C
  C612     1.0000 0.15909  0.72288  0.43546  Biso   1.000  C
  C613     1.0000 0.56035  0.71348  0.23595  Biso   1.000  C
  C614     1.0000 0.51365  0.79290  0.22515  Biso   1.000  C
  C615     1.0000 0.46871  0.87128  0.21183  Biso   1.000  C
  C616     1.0000 0.51448  0.57216  0.19298  Biso   1.000  C
  C617     1.0000 0.06455  0.42319  0.20191  Biso   1.000  C
  C618     1.0000 0.10287  0.61045  0.39786  Biso   1.000  C
  H539     1.0000 0.07670  0.55981  0.43940  Biso   1.000  H
  C619     1.0000 0.16323  0.72965  0.40289  Biso   1.000  C
  H540     1.0000 0.17562  0.76220  0.44809  Biso   1.000  H
  N63      1.0000 0.55533  0.69245  0.20796  Biso   1.000  N
  H541     1.0000 0.57766  0.69601  0.25124  Biso   1.000  H
  H542     1.0000 0.50757  0.77931  0.20393  Biso   1.000  H
  H543     1.0000 0.46286  0.85573  0.19094  Biso   1.000  H
  N64      1.0000 0.45303  0.91681  0.21860  Biso   1.000  N
  H544     1.0000 0.49316  0.57794  0.17373  Biso   1.000  H
  C620     1.0000 0.53812  0.52002  0.18631  Biso   1.000  C
  C621     1.0000 0.57681  0.64135  0.20191  Biso   1.000  C
  C622     1.0000 0.05763  0.48550  0.19298  Biso   1.000  C
  C623     1.0000 0.03649  0.36940  0.17553  Biso   1.000  C
  H545     1.0000 0.03788  0.40242  0.22133  Biso   1.000  H
  C624     1.0000 0.13825  0.67369  0.38371  Biso   1.000  C
  H546     1.0000 0.08008  0.57112  0.38523  Biso   1.000  H
  H547     1.0000 0.18356  0.77352  0.39394  Biso   1.000  H
  C625     1.0000 0.42785  0.94233  0.19298  Biso   1.000  C
  H548     1.0000 0.49864  0.47641  0.17983  Biso   1.000  H
  H549     1.0000 0.55667  0.51201  0.20564  Biso   1.000  H
  C626     1.0000 0.59299  0.54508  0.16048  Biso   1.000  C
  C627     1.0000 0.63058  0.66708  0.17553  Biso   1.000  C
  H550     1.0000 0.59759  0.63545  0.22133  Biso   1.000  H
  H551     1.0000 0.08476  0.50684  0.17373  Biso   1.000  H
  N65      1.0000 0.08315  0.53619  0.21860  Biso   1.000  N
  C628     1.0000 0.98189  0.46184  0.18631  Biso   1.000  C
  H552     1.0000 0.04065  0.32992  0.18182  Biso   1.000  H
  H553     1.0000 0.06384  0.38893  0.15654  Biso   1.000  H
  C629     1.0000 0.96119  0.34578  0.16836  Biso   1.000  C
  C630     1.0000 0.14559  0.68077  0.34983  Biso   1.000  C
  C631     1.0000 0.35863  0.93546  0.20191  Biso   1.000  C
  H554     1.0000 0.42210  0.91526  0.17373  Biso   1.000  H
  C632     1.0000 0.47995  0.01808  0.18631  Biso   1.000  C
  H555     1.0000 0.57288  0.54782  0.14054  Biso   1.000  H
  H556     1.0000 0.60866  0.51191  0.15794  Biso   1.000  H
  C633     1.0000 0.65424  0.61541  0.16836  Biso   1.000  C
  H557     1.0000 0.67009  0.71074  0.18182  Biso   1.000  H
  H558     1.0000 0.61106  0.67493  0.15654  Biso   1.000  H
  C634     1.0000 0.12871  0.59742  0.21183  Biso   1.000  C
  H559     1.0000 0.97778  0.50132  0.17983  Biso   1.000  H
  H560     1.0000 0.95537  0.44334  0.20564  Biso   1.000  H
  C635     1.0000 0.95211  0.40702  0.16048  Biso   1.000  C
  H561     1.0000 0.93296  0.32155  0.18664  Biso   1.000  H
  H562     1.0000 0.94576  0.31396  0.15054  Biso   1.000  H
  C636     1.0000 0.15369  0.68666  0.32191  Biso   1.000  C
  N66      1.0000 0.30757  0.86286  0.20796  Biso   1.000  N
  C637     1.0000 0.33292  0.96352  0.17553  Biso   1.000  C
  H563     1.0000 0.36458  0.96212  0.22133  Biso   1.000  H
  H564     1.0000 0.52355  0.02222  0.17983  Biso   1.000  H
  H565     1.0000 0.48795  0.04464  0.20564  Biso   1.000  H
  C638     1.0000 0.45495  0.04790  0.16048  Biso   1.000  C
  H566     1.0000 0.67847  0.61143  0.18664  Biso   1.000  H
  H567     1.0000 0.68608  0.63184  0.15054  Biso   1.000  H
  C639     1.0000 0.15856  0.65426  0.23500  Biso   1.000  C
  H568     1.0000 0.14426  0.60714  0.19094  Biso   1.000  H
  H569     1.0000 0.97496  0.42712  0.14054  Biso   1.000  H
  H570     1.0000 0.90329  0.39136  0.15794  Biso   1.000  H
  C640     1.0000 0.16878  0.69751  0.28858  Biso   1.000  C
  C641     1.0000 0.28652  0.84689  0.23595  Biso   1.000  C
  H571     1.0000 0.28926  0.95933  0.18182  Biso   1.000  H
  H572     1.0000 0.32505  0.93613  0.15654  Biso   1.000  H
  C642     1.0000 0.38455  0.03885  0.16836  Biso   1.000  C
  H573     1.0000 0.45216  0.02506  0.14054  Biso   1.000  H
  H574     1.0000 0.48800  0.09673  0.15794  Biso   1.000  H
  C643     1.0000 0.13957  0.64331  0.26700  Biso   1.000  C
  C644     1.0000 0.20712  0.72076  0.22515  Biso   1.000  C
  C645     1.0000 0.21654  0.76396  0.27785  Biso   1.000  C
  C646     1.0000 0.23575  0.77616  0.24618  Biso   1.000  C
  H575     1.0000 0.30397  0.88162  0.25124  Biso   1.000  H
  H576     1.0000 0.38852  0.06701  0.18664  Biso   1.000  H
  H577     1.0000 0.36813  0.05425  0.15054  Biso   1.000  H
  H578     1.0000 0.10707  0.59934  0.27394  Biso   1.000  H
  H579     1.0000 0.22066  0.72826  0.20393  Biso   1.000  H
  H580     1.0000 0.23568  0.80044  0.29224  Biso   1.000  H
  C647     1.0000 0.45491  0.40702  0.66049  Biso   1.000  C
  C648     1.0000 0.47995  0.46184  0.68632  Biso   1.000  C
  H581     1.0000 0.45216  0.42712  0.64053  Biso   1.000  H
  H582     1.0000 0.48807  0.39136  0.65793  Biso   1.000  H
  C649     1.0000 0.38460  0.34578  0.66835  Biso   1.000  C
  C650     1.0000 0.42788  0.48550  0.69299  Biso   1.000  C
  H583     1.0000 0.52354  0.50132  0.67984  Biso   1.000  H
  H584     1.0000 0.48797  0.44334  0.70562  Biso   1.000  H
  H585     1.0000 0.38859  0.32155  0.68663  Biso   1.000  H
  H586     1.0000 0.36819  0.31396  0.65052  Biso   1.000  H
  C651     1.0000 0.33291  0.36940  0.67555  Biso   1.000  C
  H587     1.0000 0.42208  0.50684  0.67374  Biso   1.000  H
  C652     1.0000 0.35864  0.42319  0.70192  Biso   1.000  C
  N67      1.0000 0.45304  0.53619  0.71861  Biso   1.000  N
  H588     1.0000 0.28927  0.32992  0.68184  Biso   1.000  H
  H589     1.0000 0.32509  0.38893  0.65653  Biso   1.000  H
  H590     1.0000 0.36454  0.40242  0.72134  Biso   1.000  H
  N68      1.0000 0.30754  0.44468  0.70795  Biso   1.000  N
  C653     1.0000 0.46871  0.59742  0.71184  Biso   1.000  C
  C654     1.0000 0.28649  0.43962  0.73596  Biso   1.000  C
  C655     1.0000 0.49570  0.65426  0.73501  Biso   1.000  C
  H591     1.0000 0.46287  0.60714  0.69093  Biso   1.000  H
  C656     1.0000 0.23573  0.45957  0.74617  Biso   1.000  C
  H592     1.0000 0.30396  0.42231  0.75123  Biso   1.000  H
  C657     1.0000 0.50374  0.64331  0.76699  Biso   1.000  C
  C658     1.0000 0.51365  0.72076  0.72514  Biso   1.000  C
  C659     1.0000 0.21651  0.45254  0.77784  Biso   1.000  C
  C660     1.0000 0.20710  0.48633  0.72514  Biso   1.000  C
  H593     1.0000 0.49227  0.59934  0.77392  Biso   1.000  H
  C661     1.0000 0.52874  0.69751  0.78857  Biso   1.000  C
  C662     1.0000 0.54040  0.77616  0.74617  Biso   1.000  C
  H594     1.0000 0.50759  0.72826  0.70394  Biso   1.000  H
  C663     1.0000 0.16879  0.47129  0.78857  Biso   1.000  C
  H595     1.0000 0.23565  0.43523  0.79223  Biso   1.000  H
  C664     1.0000 0.15856  0.50426  0.73501  Biso   1.000  C
  H596     1.0000 0.22066  0.49243  0.70394  Biso   1.000  H
  C665     1.0000 0.54742  0.76396  0.77784  Biso   1.000  C
  C666     1.0000 0.53298  0.68666  0.82193  Biso   1.000  C
  C667     1.0000 0.56038  0.84689  0.73596  Biso   1.000  C
  C668     1.0000 0.13957  0.49625  0.76699  Biso   1.000  C
  C669     1.0000 0.15367  0.46701  0.82193  Biso   1.000  C
  C670     1.0000 0.12871  0.53129  0.71184  Biso   1.000  C
  H597     1.0000 0.56476  0.80044  0.79223  Biso   1.000  H
  C671     1.0000 0.53518  0.68077  0.84984  Biso   1.000  C
  H598     1.0000 0.57765  0.88162  0.75123  Biso   1.000  H
  N69      1.0000 0.55529  0.86286  0.70795  Biso   1.000  N
  H599     1.0000 0.10704  0.50772  0.77392  Biso   1.000  H
  C672     1.0000 0.14558  0.46478  0.84984  Biso   1.000  C
  H600     1.0000 0.14425  0.53712  0.69093  Biso   1.000  H
  N70      1.0000 0.08318  0.54699  0.71861  Biso   1.000  N
  C673     1.0000 0.53544  0.67369  0.88372  Biso   1.000  C
  C674     1.0000 0.57683  0.93546  0.70192  Biso   1.000  C
  C675     1.0000 0.13827  0.46458  0.88372  Biso   1.000  C
  C676     1.0000 0.05768  0.57216  0.69299  Biso   1.000  C
  C677     1.0000 0.50758  0.61045  0.89787  Biso   1.000  C
  C678     1.0000 0.56642  0.72965  0.90288  Biso   1.000  C
  C679     1.0000 0.51448  0.94233  0.69299  Biso   1.000  C
  C680     1.0000 0.63059  0.96352  0.67555  Biso   1.000  C
  H601     1.0000 0.59754  0.96212  0.72134  Biso   1.000  H
  C681     1.0000 0.10288  0.49243  0.89787  Biso   1.000  C
  C682     1.0000 0.16322  0.43357  0.90288  Biso   1.000  C
  H602     1.0000 0.08478  0.57794  0.67374  Biso   1.000  H
  C683     1.0000 0.06453  0.64135  0.70192  Biso   1.000  C
  C684     1.0000 0.98190  0.52002  0.68632  Biso   1.000  C
  C685     1.0000 0.50343  0.60368  0.93044  Biso   1.000  C
  H603     1.0000 0.49105  0.57112  0.88524  Biso   1.000  H
  C686     1.0000 0.56380  0.72288  0.93547  Biso   1.000  C
  H604     1.0000 0.58996  0.77352  0.89393  Biso   1.000  H
  H605     1.0000 0.49316  0.91526  0.67374  Biso   1.000  H
  N71      1.0000 0.46377  0.91681  0.71861  Biso   1.000  N
  C687     1.0000 0.53808  0.01808  0.68632  Biso   1.000  C
  H606     1.0000 0.67007  0.95933  0.68184  Biso   1.000  H
  H607     1.0000 0.61108  0.93613  0.65653  Biso   1.000  H
  C688     1.0000 0.65425  0.03885  0.66835  Biso   1.000  C
  C689     1.0000 0.10025  0.49656  0.93044  Biso   1.000  C
  H608     1.0000 0.08007  0.50891  0.88524  Biso   1.000  H
  C690     1.0000 0.15908  0.43621  0.93547  Biso   1.000  C
  H609     1.0000 0.18357  0.41001  0.89393  Biso   1.000  H
  C691     1.0000 0.03650  0.66708  0.67555  Biso   1.000  C
  H610     1.0000 0.03787  0.63545  0.72134  Biso   1.000  H
  N72      1.0000 0.13711  0.69245  0.70795  Biso   1.000  N
  H611     1.0000 0.97777  0.47641  0.67984  Biso   1.000  H
  H612     1.0000 0.95534  0.51201  0.70562  Biso   1.000  H
  C692     1.0000 0.95210  0.54508  0.66049  Biso   1.000  C
  C693     1.0000 0.52841  0.65964  0.94962  Biso   1.000  C
  H613     1.0000 0.48311  0.55981  0.93939  Biso   1.000  H
  H614     1.0000 0.58659  0.76220  0.94810  Biso   1.000  H
  C694     1.0000 0.40257  0.87128  0.71184  Biso   1.000  C
  H615     1.0000 0.49862  0.02222  0.67984  Biso   1.000  H
  H616     1.0000 0.55664  0.04464  0.70562  Biso   1.000  H
  C695     1.0000 0.59295  0.04790  0.66049  Biso   1.000  C
  H617     1.0000 0.67845  0.06701  0.68663  Biso   1.000  H
  H618     1.0000 0.68603  0.05425  0.65052  Biso   1.000  H
  C696     1.0000 0.13127  0.47160  0.94962  Biso   1.000  C
  H619     1.0000 0.07669  0.51692  0.93939  Biso   1.000  H
  H620     1.0000 0.17561  0.41342  0.94810  Biso   1.000  H
  H621     1.0000 0.04065  0.71074  0.68184  Biso   1.000  H
  H622     1.0000 0.06387  0.67493  0.65653  Biso   1.000  H
  C697     1.0000 0.96117  0.61541  0.66835  Biso   1.000  C
  C698     1.0000 0.15313  0.71348  0.73596  Biso   1.000  C
  H623     1.0000 0.97494  0.54782  0.64053  Biso   1.000  H
  H624     1.0000 0.90324  0.51191  0.65793  Biso   1.000  H
  C699     1.0000 0.52107  0.65256  0.98350  Biso   1.000  C
  C700     1.0000 0.34571  0.84142  0.73501  Biso   1.000  C
  H625     1.0000 0.39287  0.85573  0.69093  Biso   1.000  H
  H626     1.0000 0.57289  0.02506  0.64053  Biso   1.000  H
  H627     1.0000 0.60864  0.09673  0.65793  Biso   1.000  H
  C701     1.0000 0.13149  0.47894  0.98350  Biso   1.000  C
  H628     1.0000 0.93296  0.61143  0.68663  Biso   1.000  H
  H629     1.0000 0.94576  0.63184  0.65052  Biso   1.000  H
  H630     1.0000 0.11836  0.69601  0.75123  Biso   1.000  H
  C702     1.0000 0.22386  0.76427  0.74617  Biso   1.000  C
  C703     1.0000 0.51298  0.64667  0.01142  Biso   1.000  C
  C704     1.0000 0.35669  0.86043  0.76699  Biso   1.000  C
  C705     1.0000 0.27925  0.79290  0.72514  Biso   1.000  C
  C706     1.0000 0.13364  0.48700  0.01142  Biso   1.000  C
  C707     1.0000 0.23607  0.78349  0.77784  Biso   1.000  C
  C708     1.0000 0.49789  0.63582  0.04475  Biso   1.000  C
  H631     1.0000 0.40069  0.89293  0.77392  Biso   1.000  H
  C709     1.0000 0.30247  0.83119  0.78857  Biso   1.000  C
  H632     1.0000 0.27174  0.77931  0.70394  Biso   1.000  H
  C710     1.0000 0.13795  0.50214  0.04475  Biso   1.000  C
  H633     1.0000 0.19954  0.76432  0.79223  Biso   1.000  H
  C711     1.0000 0.52709  0.69002  0.06633  Biso   1.000  C
  C712     1.0000 0.45012  0.56937  0.05548  Biso   1.000  C
  C713     1.0000 0.31330  0.84633  0.82193  Biso   1.000  C
  C714     1.0000 0.16293  0.47290  0.06633  Biso   1.000  C
  C715     1.0000 0.11924  0.54984  0.05548  Biso   1.000  C
  C716     1.0000 0.50810  0.67907  0.09833  Biso   1.000  C
  H634     1.0000 0.55959  0.73399  0.05940  Biso   1.000  H
  H635     1.0000 0.43098  0.53289  0.04109  Biso   1.000  H
  C717     1.0000 0.43091  0.55717  0.08715  Biso   1.000  C
  C718     1.0000 0.31924  0.85444  0.84984  Biso   1.000  C
  C719     1.0000 0.17096  0.49191  0.09833  Biso   1.000  C
  H636     1.0000 0.17442  0.44040  0.05940  Biso   1.000  H
  H637     1.0000 0.10188  0.56901  0.04109  Biso   1.000  H
  C720     1.0000 0.12625  0.56906  0.08715  Biso   1.000  C
  C721     1.0000 0.45955  0.61256  0.10818  Biso   1.000  C
  C722     1.0000 0.53795  0.73590  0.12150  Biso   1.000  C
  C723     1.0000 0.38015  0.48643  0.09738  Biso   1.000  C
  C724     1.0000 0.32633  0.86172  0.88372  Biso   1.000  C
  C725     1.0000 0.15302  0.54043  0.10818  Biso   1.000  C
  C726     1.0000 0.19795  0.46205  0.12150  Biso   1.000  C
  C727     1.0000 0.10632  0.61985  0.09738  Biso   1.000  C
  H638     1.0000 0.44603  0.60512  0.12941  Biso   1.000  H
  H639     1.0000 0.52240  0.72619  0.14239  Biso   1.000  H
  N73      1.0000 0.58351  0.79713  0.11474  Biso   1.000  N
  H640     1.0000 0.36270  0.45171  0.08209  Biso   1.000  H
  N74      1.0000 0.35910  0.47047  0.12537  Biso   1.000  N
  C728     1.0000 0.38954  0.89712  0.89787  Biso   1.000  C
  C729     1.0000 0.27035  0.83677  0.90288  Biso   1.000  C
  H641     1.0000 0.15910  0.55402  0.12941  Biso   1.000  H
  H642     1.0000 0.20381  0.47760  0.14239  Biso   1.000  H
  N75      1.0000 0.21363  0.41652  0.11474  Biso   1.000  N
  H643     1.0000 0.08901  0.63731  0.08209  Biso   1.000  H
  N76      1.0000 0.11133  0.64088  0.12537  Biso   1.000  N
  C730     1.0000 0.60904  0.84782  0.14035  Biso   1.000  C
  C731     1.0000 0.30803  0.39787  0.13142  Biso   1.000  C
  C732     1.0000 0.39631  0.89975  0.93044  Biso   1.000  C
  H644     1.0000 0.42888  0.91996  0.88524  Biso   1.000  H
  C733     1.0000 0.27715  0.84095  0.93547  Biso   1.000  C
  H645     1.0000 0.22643  0.81641  0.89393  Biso   1.000  H
  C734     1.0000 0.23882  0.39100  0.14035  Biso   1.000  C
  C735     1.0000 0.08985  0.69198  0.13142  Biso   1.000  C
  H646     1.0000 0.58190  0.82648  0.15960  Biso   1.000  H
  C736     1.0000 0.68477  0.87149  0.14702  Biso   1.000  C
  C737     1.0000 0.60214  0.91019  0.13142  Biso   1.000  C
  C738     1.0000 0.33374  0.36981  0.15780  Biso   1.000  C
  H647     1.0000 0.30208  0.37121  0.11201  Biso   1.000  H
  C739     1.0000 0.34036  0.86875  0.94962  Biso   1.000  C
  H648     1.0000 0.44022  0.92332  0.93939  Biso   1.000  H
  H649     1.0000 0.23782  0.82442  0.94810  Biso   1.000  H
  H650     1.0000 0.24459  0.41812  0.15960  Biso   1.000  H
  C740     1.0000 0.18671  0.31525  0.14702  Biso   1.000  C
  C741     1.0000 0.15221  0.76122  0.14035  Biso   1.000  C
  C742     1.0000 0.03608  0.66625  0.15780  Biso   1.000  C
  H651     1.0000 0.06910  0.69793  0.11201  Biso   1.000  H
  H652     1.0000 0.68888  0.83201  0.15350  Biso   1.000  H
  H653     1.0000 0.71129  0.88999  0.12770  Biso   1.000  H
  C743     1.0000 0.71455  0.92631  0.17285  Biso   1.000  C
  C744     1.0000 0.63017  0.96393  0.15780  Biso   1.000  C
  H654     1.0000 0.62879  0.93091  0.11201  Biso   1.000  H
  N77      1.0000 0.52952  0.88864  0.12537  Biso   1.000  N
  C745     1.0000 0.28207  0.29448  0.16497  Biso   1.000  C
  H655     1.0000 0.37740  0.37400  0.15151  Biso   1.000  H
  H656     1.0000 0.34162  0.39720  0.17679  Biso   1.000  H
  C746     1.0000 0.34746  0.86854  0.98350  Biso   1.000  C
  H657     1.0000 0.14312  0.31111  0.15350  Biso   1.000  H
  H658     1.0000 0.17871  0.28869  0.12770  Biso   1.000  H
  C747     1.0000 0.21172  0.28543  0.17285  Biso   1.000  C
  H659     1.0000 0.17350  0.75538  0.15960  Biso   1.000  H
  C748     1.0000 0.12854  0.81331  0.14702  Biso   1.000  C
  N78      1.0000 0.20285  0.78634  0.11474  Biso   1.000  N
  H660     1.0000 0.99658  0.62259  0.15151  Biso   1.000  H
  C749     1.0000 0.01243  0.71792  0.16497  Biso   1.000  C
  H661     1.0000 0.05560  0.65840  0.17679  Biso   1.000  H
  H662     1.0000 0.69171  0.90621  0.19279  Biso   1.000  H
  H663     1.0000 0.76340  0.94202  0.17539  Biso   1.000  H
  C750     1.0000 0.70550  0.98760  0.16497  Biso   1.000  C
  H664     1.0000 0.60282  0.94440  0.17679  Biso   1.000  H
  H665     1.0000 0.62597  0.00341  0.15151  Biso   1.000  H
  C751     1.0000 0.51353  0.89371  0.09738  Biso   1.000  C
  H666     1.0000 0.27810  0.26631  0.14669  Biso   1.000  H
  H667     1.0000 0.29849  0.27908  0.18280  Biso   1.000  H
  C752     1.0000 0.35333  0.86632  0.01142  Biso   1.000  C
  H668     1.0000 0.21453  0.30832  0.19279  Biso   1.000  H
  H669     1.0000 0.17862  0.23660  0.17539  Biso   1.000  H
  H670     1.0000 0.16802  0.85692  0.15350  Biso   1.000  H
  H671     1.0000 0.10999  0.82132  0.12770  Biso   1.000  H
  C753     1.0000 0.07368  0.78825  0.17285  Biso   1.000  C
  C754     1.0000 0.26409  0.80204  0.12150  Biso   1.000  C
  H672     1.0000 0.98819  0.72190  0.14669  Biso   1.000  H
  H673     1.0000 0.98058  0.70149  0.18280  Biso   1.000  H
  H674     1.0000 0.73366  0.01178  0.14669  Biso   1.000  H
  H675     1.0000 0.72093  0.01942  0.18280  Biso   1.000  H
  C755     1.0000 0.44283  0.87376  0.08715  Biso   1.000  C
  H676     1.0000 0.54832  0.91102  0.08209  Biso   1.000  H
  C756     1.0000 0.36419  0.86209  0.04475  Biso   1.000  C
  H677     1.0000 0.09379  0.78551  0.19279  Biso   1.000  H
  H678     1.0000 0.05800  0.82142  0.17539  Biso   1.000  H
  C757     1.0000 0.32096  0.82907  0.09833  Biso   1.000  C
  H679     1.0000 0.27379  0.79620  0.14239  Biso   1.000  H
  C758     1.0000 0.43064  0.88079  0.05548  Biso   1.000  C
  C759     1.0000 0.38743  0.84700  0.10818  Biso   1.000  C
  C760     1.0000 0.30998  0.83708  0.06633  Biso   1.000  C
  H680     1.0000 0.46708  0.89810  0.04109  Biso   1.000  H
  H681     1.0000 0.39490  0.84090  0.12941  Biso   1.000  H
  H682     1.0000 0.26598  0.82561  0.05940  Biso   1.000  H
