data_image0
_cell_length_a       22.42
_cell_length_b       22.42
_cell_length_c       42.177
_cell_angle_alpha    90
_cell_angle_beta     90
_cell_angle_gamma    120

_symmetry_space_group_name_H-M    "P 1"
_symmetry_int_tables_number       1

loop_
  _symmetry_equiv_pos_as_xyz
  'x, y, z'

loop_
  _atom_site_label
  _atom_site_occupancy
  _atom_site_fract_x
  _atom_site_fract_y
  _atom_site_fract_z
  _atom_site_thermal_displace_type
  _atom_site_B_iso_or_equiv
  _atom_site_type_symbol
  C1       1.0000 0.48231  0.12448  0.48884  Biso   1.000  C
  C2       1.0000 0.49901  0.13102  0.45556  Biso   1.000  C
  C3       1.0000 0.47170  0.12119  0.51649  Biso   1.000  C
  C4       1.0000 0.47199  0.15708  0.43429  Biso   1.000  C
  C5       1.0000 0.54768  0.11320  0.44529  Biso   1.000  C
  C6       1.0000 0.46200  0.12052  0.55047  Biso   1.000  C
  C7       1.0000 0.49211  0.16692  0.40254  Biso   1.000  C
  H1       1.0000 0.43880  0.16878  0.44131  Biso   1.000  H
  C8       1.0000 0.56843  0.12232  0.41366  Biso   1.000  C
  H2       1.0000 0.56660  0.09502  0.45999  Biso   1.000  H
  C9       1.0000 0.48810  0.09039  0.57062  Biso   1.000  C
  C10      1.0000 0.42851  0.15121  0.56355  Biso   1.000  C
  C11      1.0000 0.46388  0.19458  0.37945  Biso   1.000  C
  C12      1.0000 0.54040  0.14931  0.39313  Biso   1.000  C
  C13      1.0000 0.62051  0.10471  0.40399  Biso   1.000  C
  H3       1.0000 0.50877  0.06598  0.56189  Biso   1.000  H
  C14      1.0000 0.48452  0.09518  0.60312  Biso   1.000  C
  H4       1.0000 0.40832  0.17042  0.55021  Biso   1.000  H
  C15      1.0000 0.42373  0.15477  0.59606  Biso   1.000  C
  N1       1.0000 0.41895  0.21096  0.38611  Biso   1.000  N
  H5       1.0000 0.48030  0.20091  0.35820  Biso   1.000  H
  H6       1.0000 0.55501  0.15642  0.37160  Biso   1.000  H
  N2       1.0000 0.64428  0.11398  0.37606  Biso   1.000  N
  H7       1.0000 0.63708  0.08550  0.41930  Biso   1.000  H
  C16      1.0000 0.45385  0.12865  0.61619  Biso   1.000  C
  H8       1.0000 0.50373  0.07499  0.61647  Biso   1.000  H
  H9       1.0000 0.39933  0.17547  0.60476  Biso   1.000  H
  C17      1.0000 0.39351  0.23599  0.36048  Biso   1.000  C
  C18      1.0000 0.69598  0.09420  0.36977  Biso   1.000  C
  C19      1.0000 0.45456  0.13839  0.65016  Biso   1.000  C
  C20      1.0000 0.31873  0.18242  0.35337  Biso   1.000  C
  H10      1.0000 0.42191  0.24320  0.34111  Biso   1.000  H
  C21      1.0000 0.39822  0.30402  0.36977  Biso   1.000  C
  C22      1.0000 0.76398  0.15750  0.36048  Biso   1.000  C
  C23      1.0000 0.67110  0.04069  0.34348  Biso   1.000  C
  H11      1.0000 0.70332  0.07380  0.38950  Biso   1.000  H
  C24      1.0000 0.45784  0.14895  0.67783  Biso   1.000  C
  C25      1.0000 0.28929  0.20838  0.32745  Biso   1.000  C
  H12      1.0000 0.31612  0.13911  0.34630  Biso   1.000  H
  H13      1.0000 0.29089  0.17269  0.37290  Biso   1.000  H
  C26      1.0000 0.36958  0.32890  0.34348  Biso   1.000  C
  N3       1.0000 0.46970  0.35573  0.37606  Biso   1.000  N
  H14      1.0000 0.37052  0.29671  0.38950  Biso   1.000  H
  N4       1.0000 0.78902  0.20802  0.38611  Biso   1.000  N
  H15      1.0000 0.75680  0.17872  0.34111  Biso   1.000  H
  C27      1.0000 0.81760  0.13628  0.35337  Biso   1.000  C
  C28      1.0000 0.72421  0.01952  0.33594  Biso   1.000  C
  H16      1.0000 0.66188  0.05990  0.32421  Biso   1.000  H
  H17      1.0000 0.62750  0.99969  0.35000  Biso   1.000  H
  C29      1.0000 0.46433  0.16569  0.71110  Biso   1.000  C
  H18      1.0000 0.24029  0.17398  0.32399  Biso   1.000  H
  H19      1.0000 0.31429  0.21358  0.30740  Biso   1.000  H
  C30      1.0000 0.29530  0.27580  0.33594  Biso   1.000  C
  H20      1.0000 0.39801  0.33812  0.32421  Biso   1.000  H
  H21      1.0000 0.37221  0.37252  0.35000  Biso   1.000  H
  C31      1.0000 0.48421  0.37948  0.40399  Biso   1.000  C
  C32      1.0000 0.80540  0.26931  0.37945  Biso   1.000  C
  H22      1.0000 0.86090  0.17702  0.34630  Biso   1.000  H
  H23      1.0000 0.82730  0.11820  0.37290  Biso   1.000  H
  C33      1.0000 0.79162  0.08091  0.32745  Biso   1.000  C
  H24      1.0000 0.70770  0.98651  0.31811  Biso   1.000  H
  H25      1.0000 0.73021  0.99619  0.35460  Biso   1.000  H
  C34      1.0000 0.44652  0.21436  0.72136  Biso   1.000  C
  C35      1.0000 0.49042  0.13865  0.73237  Biso   1.000  C
  H26      1.0000 0.27879  0.29228  0.31811  Biso   1.000  H
  H27      1.0000 0.26600  0.26982  0.35460  Biso   1.000  H
  C36      1.0000 0.55389  0.43160  0.41366  Biso   1.000  C
  H28      1.0000 0.44839  0.36289  0.41930  Biso   1.000  H
  C37      1.0000 0.83311  0.32519  0.40254  Biso   1.000  C
  H29      1.0000 0.79911  0.27940  0.35820  Biso   1.000  H
  H30      1.0000 0.82601  0.06628  0.32399  Biso   1.000  H
  H31      1.0000 0.78638  0.10069  0.30740  Biso   1.000  H
  H32      1.0000 0.42831  0.23326  0.70666  Biso   1.000  H
  C38      1.0000 0.45562  0.23506  0.75299  Biso   1.000  C
  C39      1.0000 0.50022  0.15878  0.76414  Biso   1.000  C
  H33      1.0000 0.50216  0.10548  0.72537  Biso   1.000  H
  C40      1.0000 0.56549  0.45230  0.44529  Biso   1.000  C
  C41      1.0000 0.60889  0.45961  0.39313  Biso   1.000  C
  C42      1.0000 0.85069  0.39111  0.39313  Biso   1.000  C
  C43      1.0000 0.84290  0.31489  0.43429  Biso   1.000  C
  C44      1.0000 0.43806  0.28718  0.76267  Biso   1.000  C
  C45      1.0000 0.48260  0.20704  0.77353  Biso   1.000  C
  C46      1.0000 0.52795  0.13056  0.78723  Biso   1.000  C
  C47      1.0000 0.63200  0.50102  0.45556  Biso   1.000  C
  H34      1.0000 0.52839  0.43340  0.45999  Biso   1.000  H
  H35      1.0000 0.60140  0.44499  0.37160  Biso   1.000  H
  C48      1.0000 0.67479  0.50792  0.40254  Biso   1.000  C
  C49      1.0000 0.87770  0.44612  0.41366  Biso   1.000  C
  H36      1.0000 0.84358  0.39858  0.37160  Biso   1.000  H
  C50      1.0000 0.86901  0.36799  0.45556  Biso   1.000  C
  H37      1.0000 0.83120  0.26998  0.44131  Biso   1.000  H
  N5       1.0000 0.44730  0.31092  0.79060  Biso   1.000  N
  H38      1.0000 0.41883  0.30377  0.74737  Biso   1.000  H
  H39      1.0000 0.48974  0.22167  0.79508  Biso   1.000  H
  N6       1.0000 0.54430  0.08565  0.78057  Biso   1.000  N
  H40      1.0000 0.53424  0.14699  0.80847  Biso   1.000  H
  C51      1.0000 0.64222  0.51771  0.48884  Biso   1.000  C
  C52      1.0000 0.68510  0.52801  0.43429  Biso   1.000  C
  C53      1.0000 0.73072  0.53610  0.37945  Biso   1.000  C
  C54      1.0000 0.89532  0.51580  0.40399  Biso   1.000  C
  C55      1.0000 0.88678  0.43448  0.44529  Biso   1.000  C
  C56      1.0000 0.87551  0.35779  0.48884  Biso   1.000  C
  C57      1.0000 0.42755  0.36269  0.79688  Biso   1.000  C
  C58      1.0000 0.56933  0.06016  0.80617  Biso   1.000  C
  C59      1.0000 0.64953  0.52832  0.51649  Biso   1.000  C
  H41      1.0000 0.73001  0.56118  0.44131  Biso   1.000  H
  N7       1.0000 0.79198  0.58101  0.38611  Biso   1.000  N
  H42      1.0000 0.72061  0.51972  0.35820  Biso   1.000  H
  N8       1.0000 0.88601  0.53028  0.37606  Biso   1.000  N
  H43      1.0000 0.91451  0.55160  0.41930  Biso   1.000  H
  H44      1.0000 0.90499  0.47161  0.45999  Biso   1.000  H
  C60      1.0000 0.87881  0.35048  0.51649  Biso   1.000  C
  C61      1.0000 0.49085  0.43067  0.80617  Biso   1.000  C
  C62      1.0000 0.37401  0.33776  0.82320  Biso   1.000  C
  H45      1.0000 0.40714  0.36995  0.77718  Biso   1.000  H
  H46      1.0000 0.57654  0.08859  0.82557  Biso   1.000  H
  C63      1.0000 0.63733  0.06484  0.79688  Biso   1.000  C
  C64      1.0000 0.51575  0.98537  0.81329  Biso   1.000  C
  C65      1.0000 0.65852  0.53800  0.55047  Biso   1.000  C
  C66      1.0000 0.84250  0.60650  0.36048  Biso   1.000  C
  C67      1.0000 0.90581  0.60181  0.36977  Biso   1.000  C
  C68      1.0000 0.87950  0.34152  0.55047  Biso   1.000  C
  N9       1.0000 0.54132  0.45570  0.78057  Biso   1.000  N
  H47      1.0000 0.51204  0.42346  0.82557  Biso   1.000  H
  C69      1.0000 0.46966  0.48428  0.81329  Biso   1.000  C
  C70      1.0000 0.35283  0.39086  0.83071  Biso   1.000  C
  H48      1.0000 0.39324  0.32859  0.84247  Biso   1.000  H
  H49      1.0000 0.33304  0.29419  0.81668  Biso   1.000  H
  N10      1.0000 0.68906  0.13638  0.79060  Biso   1.000  N
  C71      1.0000 0.66224  0.03626  0.82320  Biso   1.000  C
  H50      1.0000 0.63006  0.03719  0.77718  Biso   1.000  H
  H51      1.0000 0.47242  0.98275  0.82038  Biso   1.000  H
  H52      1.0000 0.50603  0.95756  0.79377  Biso   1.000  H
  C72      1.0000 0.54172  0.95596  0.83923  Biso   1.000  C
  C73      1.0000 0.60229  0.51189  0.57062  Biso   1.000  C
  C74      1.0000 0.72267  0.57148  0.56355  Biso   1.000  C
  H53      1.0000 0.82131  0.57812  0.34111  Biso   1.000  H
  C75      1.0000 0.86370  0.68128  0.35337  Biso   1.000  C
  C76      1.0000 0.95931  0.63040  0.34348  Biso   1.000  C
  H54      1.0000 0.92622  0.62952  0.38950  Biso   1.000  H
  C77      1.0000 0.90960  0.39771  0.57062  Biso   1.000  C
  C78      1.0000 0.84882  0.27729  0.56355  Biso   1.000  C
  C79      1.0000 0.60263  0.47208  0.78723  Biso   1.000  C
  H55      1.0000 0.51034  0.52755  0.82038  Biso   1.000  H
  H56      1.0000 0.45153  0.49397  0.79377  Biso   1.000  H
  C80      1.0000 0.41424  0.45827  0.83923  Biso   1.000  C
  H57      1.0000 0.31984  0.37438  0.84857  Biso   1.000  H
  H58      1.0000 0.32953  0.39688  0.81208  Biso   1.000  H
  C81      1.0000 0.71285  0.15085  0.76267  Biso   1.000  C
  H59      1.0000 0.67146  0.06469  0.84247  Biso   1.000  H
  H60      1.0000 0.70584  0.03888  0.81668  Biso   1.000  H
  C82      1.0000 0.60914  0.96199  0.83071  Biso   1.000  C
  H61      1.0000 0.50733  0.90699  0.84266  Biso   1.000  H
  H62      1.0000 0.54694  0.98094  0.85926  Biso   1.000  H
  H63      1.0000 0.55719  0.49119  0.56189  Biso   1.000  H
  C83      1.0000 0.61062  0.51544  0.60312  Biso   1.000  C
  H64      1.0000 0.76210  0.59172  0.55021  Biso   1.000  H
  C84      1.0000 0.73104  0.57627  0.59606  Biso   1.000  C
  H65      1.0000 0.82300  0.68391  0.34630  Biso   1.000  H
  H66      1.0000 0.88180  0.70910  0.37290  Biso   1.000  H
  C85      1.0000 0.91908  0.71069  0.32745  Biso   1.000  C
  C86      1.0000 0.98050  0.70472  0.33594  Biso   1.000  C
  H67      1.0000 0.94013  0.60202  0.32421  Biso   1.000  H
  H68      1.0000 0.00031  0.62782  0.35000  Biso   1.000  H
  H69      1.0000 0.93399  0.44282  0.56189  Biso   1.000  H
  C87      1.0000 0.90485  0.38936  0.60312  Biso   1.000  C
  H70      1.0000 0.82961  0.23789  0.55021  Biso   1.000  H
  C88      1.0000 0.84522  0.26895  0.59606  Biso   1.000  C
  C89      1.0000 0.65855  0.49979  0.76414  Biso   1.000  C
  H71      1.0000 0.61271  0.46574  0.80847  Biso   1.000  H
  H72      1.0000 0.39964  0.49268  0.84266  Biso   1.000  H
  H73      1.0000 0.43403  0.45307  0.85926  Biso   1.000  H
  C90      1.0000 0.76493  0.22059  0.75299  Biso   1.000  C
  H74      1.0000 0.69624  0.11506  0.74737  Biso   1.000  H
  H75      1.0000 0.62563  0.94546  0.84857  Biso   1.000  H
  H76      1.0000 0.60314  0.93269  0.81208  Biso   1.000  H
  C91      1.0000 0.67483  0.54619  0.61619  Biso   1.000  C
  H77      1.0000 0.57125  0.49628  0.61647  Biso   1.000  H
  H78      1.0000 0.77612  0.60068  0.60476  Biso   1.000  H
  H79      1.0000 0.93370  0.75972  0.32399  Biso   1.000  H
  H80      1.0000 0.89932  0.68571  0.30740  Biso   1.000  H
  H81      1.0000 0.01350  0.72120  0.31811  Biso   1.000  H
  H82      1.0000 0.00381  0.73402  0.35460  Biso   1.000  H
  C92      1.0000 0.87134  0.32519  0.61619  Biso   1.000  C
  H83      1.0000 0.92504  0.42876  0.61647  Biso   1.000  H
  H84      1.0000 0.82452  0.22388  0.60476  Biso   1.000  H
  C93      1.0000 0.64823  0.50957  0.73237  Biso   1.000  C
  C94      1.0000 0.72442  0.51735  0.77353  Biso   1.000  C
  C95      1.0000 0.78562  0.23218  0.72136  Biso   1.000  C
  C96      1.0000 0.79290  0.27554  0.77353  Biso   1.000  C
  C97      1.0000 0.68384  0.54547  0.65016  Biso   1.000  C
  C98      1.0000 0.86166  0.31618  0.65016  Biso   1.000  C
  C99      1.0000 0.70134  0.53568  0.71110  Biso   1.000  C
  H85      1.0000 0.60336  0.49788  0.72537  Biso   1.000  H
  C100     1.0000 0.77946  0.54439  0.75299  Biso   1.000  C
  H86      1.0000 0.73193  0.51024  0.79508  Biso   1.000  H
  C101     1.0000 0.83435  0.29867  0.71110  Biso   1.000  C
  H87      1.0000 0.76670  0.19504  0.70666  Biso   1.000  H
  C102     1.0000 0.84125  0.34147  0.76414  Biso   1.000  C
  H88      1.0000 0.77833  0.26807  0.79508  Biso   1.000  H
  C103     1.0000 0.69116  0.54217  0.67783  Biso   1.000  C
  C104     1.0000 0.85104  0.30886  0.67783  Biso   1.000  C
  C105     1.0000 0.76781  0.55345  0.72136  Biso   1.000  C
  C106     1.0000 0.84913  0.56195  0.76267  Biso   1.000  C
  C107     1.0000 0.86134  0.35177  0.73237  Biso   1.000  C
  C108     1.0000 0.86941  0.39735  0.78723  Biso   1.000  C
  H89      1.0000 0.80493  0.57168  0.70666  Biso   1.000  H
  N11      1.0000 0.86363  0.55268  0.79060  Biso   1.000  N
  H90      1.0000 0.88492  0.58116  0.74737  Biso   1.000  H
  H91      1.0000 0.89455  0.39668  0.72537  Biso   1.000  H
  N12      1.0000 0.91436  0.45869  0.78057  Biso   1.000  N
  H92      1.0000 0.85304  0.38725  0.80847  Biso   1.000  H
  C109     1.0000 0.93511  0.57246  0.79688  Biso   1.000  C
  C110     1.0000 0.93982  0.50916  0.80617  Biso   1.000  C
  C111     1.0000 0.96374  0.62597  0.82320  Biso   1.000  C
  H93      1.0000 0.96284  0.59285  0.77718  Biso   1.000  H
  H94      1.0000 0.91144  0.48799  0.82557  Biso   1.000  H
  C112     1.0000 0.01465  0.53038  0.81329  Biso   1.000  C
  H95      1.0000 0.93532  0.60676  0.84247  Biso   1.000  H
  H96      1.0000 0.96114  0.66697  0.81668  Biso   1.000  H
  C113     1.0000 0.03805  0.64719  0.83071  Biso   1.000  C
  H97      1.0000 0.01724  0.48969  0.82038  Biso   1.000  H
  H98      1.0000 0.04243  0.54846  0.79377  Biso   1.000  H
  C114     1.0000 0.04403  0.58575  0.83923  Biso   1.000  C
  H99      1.0000 0.05453  0.68015  0.84857  Biso   1.000  H
  H100     1.0000 0.06735  0.67047  0.81208  Biso   1.000  H
  H101     1.0000 0.09305  0.60037  0.84266  Biso   1.000  H
  H102     1.0000 0.01902  0.56597  0.85926  Biso   1.000  H
  C115     1.0000 0.34799  0.19705  0.47995  Biso   1.000  C
  C116     1.0000 0.27315  0.17583  0.47284  Biso   1.000  C
  H103     1.0000 0.35055  0.15631  0.48704  Biso   1.000  H
  H104     1.0000 0.37576  0.21513  0.46044  Biso   1.000  H
  C117     1.0000 0.37737  0.25242  0.50589  Biso   1.000  C
  H105     1.0000 0.35057  0.15636  0.48704  Biso   1.000  H
  C118     1.0000 0.37739  0.25247  0.50589  Biso   1.000  C
  N13      1.0000 0.24769  0.12536  0.44723  Biso   1.000  N
  H106     1.0000 0.24475  0.15461  0.49224  Biso   1.000  H
  C119     1.0000 0.26845  0.23913  0.46355  Biso   1.000  C
  H107     1.0000 0.24477  0.15466  0.49224  Biso   1.000  H
  H108     1.0000 0.42639  0.26704  0.50933  Biso   1.000  H
  H109     1.0000 0.35236  0.23264  0.52593  Biso   1.000  H
  C120     1.0000 0.37136  0.31381  0.49738  Biso   1.000  C
  C121     1.0000 0.37138  0.31386  0.49738  Biso   1.000  C
  C122     1.0000 0.20275  0.06402  0.45390  Biso   1.000  C
  C123     1.0000 0.20278  0.06407  0.45390  Biso   1.000  C
  N14      1.0000 0.19696  0.21935  0.45726  Biso   1.000  N
  C124     1.0000 0.29708  0.29264  0.48986  Biso   1.000  C
  H110     1.0000 0.29618  0.25952  0.44384  Biso   1.000  H
  N15      1.0000 0.19699  0.21940  0.45726  Biso   1.000  N
  H111     1.0000 0.38786  0.34682  0.51523  Biso   1.000  H
  H112     1.0000 0.40068  0.33714  0.47874  Biso   1.000  H
  H113     1.0000 0.38789  0.34687  0.51523  Biso   1.000  H
  C125     1.0000 0.17459  0.00814  0.43080  Biso   1.000  C
  H114     1.0000 0.18637  0.05392  0.47514  Biso   1.000  H
  C126     1.0000 0.18246  0.22862  0.42933  Biso   1.000  C
  C127     1.0000 0.18249  0.22867  0.42933  Biso   1.000  C
  H115     1.0000 0.26865  0.27343  0.50914  Biso   1.000  H
  H116     1.0000 0.29447  0.33364  0.48334  Biso   1.000  H
  C128     1.0000 0.19468  0.01844  0.39903  Biso   1.000  C
  C129     1.0000 0.12624  0.94221  0.44019  Biso   1.000  C
  C130     1.0000 0.12626  0.94226  0.44019  Biso   1.000  C
  C131     1.0000 0.11277  0.21101  0.41966  Biso   1.000  C
  H117     1.0000 0.21825  0.24783  0.41404  Biso   1.000  H
  C132     1.0000 0.11280  0.21106  0.41966  Biso   1.000  C
  C133     1.0000 0.16768  0.96534  0.37777  Biso   1.000  C
  H118     1.0000 0.22788  0.06335  0.39204  Biso   1.000  H
  C134     1.0000 0.09824  0.88721  0.41966  Biso   1.000  C
  C135     1.0000 0.09827  0.88726  0.41966  Biso   1.000  C
  H119     1.0000 0.11166  0.93475  0.46174  Biso   1.000  H
  C136     1.0000 0.10114  0.22012  0.38803  Biso   1.000  C
  C137     1.0000 0.05776  0.18402  0.44019  Biso   1.000  C
  C138     1.0000 0.05778  0.18407  0.44019  Biso   1.000  C
  C139     1.0000 0.18438  0.97554  0.34450  Biso   1.000  C
  C140     1.0000 0.11896  0.89885  0.38803  Biso   1.000  C
  C141     1.0000 0.04618  0.81752  0.42933  Biso   1.000  C
  C142     1.0000 0.03467  0.20236  0.37777  Biso   1.000  C
  H120     1.0000 0.13827  0.23836  0.37333  Biso   1.000  H
  H121     1.0000 0.06526  0.17691  0.46174  Biso   1.000  H
  H122     1.0000 0.06529  0.17696  0.46174  Biso   1.000  H
  C143     1.0000 0.99188  0.16646  0.43080  Biso   1.000  C
  C144     1.0000 0.19499  0.98285  0.31683  Biso   1.000  C
  H123     1.0000 0.10004  0.86171  0.37333  Biso   1.000  H
  H124     1.0000 0.10006  0.86177  0.37333  Biso   1.000  H
  N16      1.0000 0.02240  0.80305  0.45726  Biso   1.000  N
  H125     1.0000 0.02958  0.78173  0.41404  Biso   1.000  H
  C145     1.0000 0.02449  0.20885  0.34450  Biso   1.000  C
  C146     1.0000 0.98157  0.17624  0.39903  Biso   1.000  C
  C147     1.0000 0.93597  0.13875  0.45390  Biso   1.000  C
  C148     1.0000 0.20465  0.99181  0.28286  Biso   1.000  C
  C149     1.0000 0.20467  0.99186  0.28286  Biso   1.000  C
  C150     1.0000 0.97066  0.73151  0.46355  Biso   1.000  C
  C151     1.0000 0.97069  0.73157  0.46355  Biso   1.000  C
  C152     1.0000 0.01718  0.21214  0.31683  Biso   1.000  C
  H126     1.0000 0.93669  0.16455  0.39204  Biso   1.000  H
  N17      1.0000 0.87466  0.12237  0.44723  Biso   1.000  N
  H127     1.0000 0.94605  0.13241  0.47514  Biso   1.000  H
  H128     1.0000 0.94607  0.13247  0.47514  Biso   1.000  H
  C153     1.0000 0.23819  0.05604  0.26979  Biso   1.000  C
  C154     1.0000 0.17856  0.93562  0.26273  Biso   1.000  C
  C155     1.0000 0.17859  0.93567  0.26273  Biso   1.000  C
  C156     1.0000 0.90266  0.72683  0.47284  Biso   1.000  C
  C157     1.0000 0.99558  0.70293  0.48986  Biso   1.000  C
  H129     1.0000 0.96339  0.70386  0.44384  Biso   1.000  H
  C158     1.0000 0.00815  0.21281  0.28286  Biso   1.000  C
  C159     1.0000 0.00817  0.21286  0.28286  Biso   1.000  C
  C160     1.0000 0.82418  0.09734  0.47284  Biso   1.000  C
  C161     1.0000 0.24294  0.06438  0.23729  Biso   1.000  C
  H130     1.0000 0.25838  0.09544  0.28314  Biso   1.000  H
  C162     1.0000 0.18215  0.94396  0.23022  Biso   1.000  C
  H131     1.0000 0.15786  0.89056  0.27143  Biso   1.000  H
  N18      1.0000 0.87763  0.75232  0.44723  Biso   1.000  N
  H132     1.0000 0.90988  0.75526  0.49224  Biso   1.000  H
  C163     1.0000 0.84908  0.65204  0.47995  Biso   1.000  C
  C164     1.0000 0.94245  0.62861  0.49738  Biso   1.000  C
  C165     1.0000 0.94248  0.62866  0.49738  Biso   1.000  C
  H133     1.0000 0.00477  0.73131  0.50914  Biso   1.000  H
  H134     1.0000 0.03917  0.70556  0.48334  Biso   1.000  H
  H135     1.0000 0.00480  0.73136  0.50914  Biso   1.000  H
  C166     1.0000 0.06438  0.24294  0.26273  Biso   1.000  C
  C167     1.0000 0.94396  0.18212  0.26979  Biso   1.000  C
  C168     1.0000 0.94398  0.18217  0.26979  Biso   1.000  C
  C169     1.0000 0.76089  0.02936  0.46355  Biso   1.000  C
  H136     1.0000 0.84538  0.09013  0.49224  Biso   1.000  H
  C170     1.0000 0.80300  0.15096  0.47995  Biso   1.000  C
  H137     1.0000 0.26730  0.10944  0.22856  Biso   1.000  H
  C171     1.0000 0.21284  0.00819  0.21713  Biso   1.000  C
  H138     1.0000 0.26733  0.10950  0.22856  Biso   1.000  H
  H139     1.0000 0.16294  0.90456  0.21687  Biso   1.000  H
  C172     1.0000 0.86128  0.79723  0.45390  Biso   1.000  C
  H140     1.0000 0.80575  0.64942  0.48704  Biso   1.000  H
  H141     1.0000 0.83937  0.62423  0.46044  Biso   1.000  H
  C173     1.0000 0.87506  0.62264  0.50589  Biso   1.000  C
  H142     1.0000 0.80578  0.64947  0.48704  Biso   1.000  H
  H143     1.0000 0.95896  0.61213  0.51523  Biso   1.000  H
  H144     1.0000 0.93648  0.59936  0.47874  Biso   1.000  H
  C174     1.0000 0.05601  0.23815  0.23022  Biso   1.000  C
  C175     1.0000 0.05603  0.23820  0.23022  Biso   1.000  C
  H145     1.0000 0.10946  0.26735  0.27143  Biso   1.000  H
  C176     1.0000 0.93562  0.17856  0.23729  Biso   1.000  C
  H146     1.0000 0.90458  0.16296  0.28314  Biso   1.000  H
  N19      1.0000 0.78064  0.97760  0.45726  Biso   1.000  N
  C177     1.0000 0.70734  0.00443  0.48986  Biso   1.000  C
  H147     1.0000 0.74048  0.03662  0.44384  Biso   1.000  H
  H148     1.0000 0.74050  0.03667  0.44384  Biso   1.000  H
  H149     1.0000 0.84367  0.19422  0.48704  Biso   1.000  H
  H150     1.0000 0.78487  0.16064  0.46044  Biso   1.000  H
  C178     1.0000 0.74758  0.12495  0.50589  Biso   1.000  C
  H151     1.0000 0.84370  0.19427  0.48704  Biso   1.000  H
  C179     1.0000 0.21214  0.01715  0.18316  Biso   1.000  C
  C180     1.0000 0.21217  0.01720  0.18316  Biso   1.000  C
  C181     1.0000 0.83356  0.82546  0.43080  Biso   1.000  C
  H152     1.0000 0.86755  0.81361  0.47514  Biso   1.000  H
  H153     1.0000 0.86758  0.81366  0.47514  Biso   1.000  H
  H154     1.0000 0.84066  0.57366  0.50933  Biso   1.000  H
  H155     1.0000 0.88028  0.64762  0.52593  Biso   1.000  H
  H156     1.0000 0.88030  0.64767  0.52593  Biso   1.000  H
  C182     1.0000 0.99186  0.20467  0.21713  Biso   1.000  C
  H157     1.0000 0.09543  0.25839  0.21687  Biso   1.000  H
  H158     1.0000 0.89053  0.15786  0.22856  Biso   1.000  H
  C183     1.0000 0.77140  0.95385  0.42933  Biso   1.000  C
  H159     1.0000 0.72655  0.99521  0.50914  Biso   1.000  H
  H160     1.0000 0.66638  0.96086  0.48334  Biso   1.000  H
  H161     1.0000 0.72658  0.99526  0.50914  Biso   1.000  H
  C184     1.0000 0.68617  0.05753  0.49738  Biso   1.000  C
  H162     1.0000 0.73298  0.15935  0.50933  Biso   1.000  H
  H163     1.0000 0.76737  0.11974  0.52593  Biso   1.000  H
  C185     1.0000 0.20884  0.02446  0.15551  Biso   1.000  C
  C186     1.0000 0.81594  0.87371  0.44019  Biso   1.000  C
  C187     1.0000 0.82376  0.80532  0.39903  Biso   1.000  C
  C188     1.0000 0.81596  0.87377  0.44019  Biso   1.000  C
  C189     1.0000 0.82378  0.80537  0.39903  Biso   1.000  C
  C190     1.0000 0.98287  0.19499  0.18316  Biso   1.000  C
  C191     1.0000 0.78896  0.90173  0.41966  Biso   1.000  C
  H164     1.0000 0.75217  0.97044  0.41404  Biso   1.000  H
  H165     1.0000 0.65317  0.04105  0.51523  Biso   1.000  H
  H166     1.0000 0.66287  0.06355  0.47874  Biso   1.000  H
  C192     1.0000 0.20234  0.03466  0.12222  Biso   1.000  C
  H167     1.0000 0.82307  0.88834  0.46174  Biso   1.000  H
  C193     1.0000 0.79767  0.83236  0.37777  Biso   1.000  C
  H168     1.0000 0.83550  0.77215  0.39204  Biso   1.000  H
  C194     1.0000 0.97555  0.18438  0.15551  Biso   1.000  C
  C195     1.0000 0.77985  0.88103  0.38803  Biso   1.000  C
  C196     1.0000 0.22011  0.10115  0.11196  Biso   1.000  C
  C197     1.0000 0.22014  0.10120  0.11196  Biso   1.000  C
  C198     1.0000 0.17624  0.98156  0.10096  Biso   1.000  C
  C199     1.0000 0.79117  0.81562  0.34450  Biso   1.000  C
  C200     1.0000 0.79120  0.81567  0.34450  Biso   1.000  C
  C201     1.0000 0.96531  0.16764  0.12222  Biso   1.000  C
  C202     1.0000 0.96534  0.16769  0.12222  Biso   1.000  C
  H169     1.0000 0.76165  0.89993  0.37333  Biso   1.000  H
  H170     1.0000 0.23832  0.13829  0.12666  Biso   1.000  H
  C203     1.0000 0.21103  0.11279  0.08033  Biso   1.000  C
  C204     1.0000 0.16645  0.99186  0.06921  Biso   1.000  C
  H171     1.0000 0.16453  0.93665  0.10797  Biso   1.000  H
  H172     1.0000 0.16456  0.93670  0.10797  Biso   1.000  H
  C205     1.0000 0.78787  0.80501  0.31683  Biso   1.000  C
  C206     1.0000 0.78790  0.80506  0.31683  Biso   1.000  C
  C207     1.0000 0.01844  0.19468  0.10096  Biso   1.000  C
  C208     1.0000 0.89883  0.11897  0.11196  Biso   1.000  C
  C209     1.0000 0.22866  0.18248  0.07065  Biso   1.000  C
  C210     1.0000 0.18402  0.05779  0.05980  Biso   1.000  C
  C211     1.0000 0.13873  0.93598  0.04612  Biso   1.000  C
  C212     1.0000 0.78718  0.79533  0.28286  Biso   1.000  C
  C213     1.0000 0.00810  0.17454  0.06921  Biso   1.000  C
  C214     1.0000 0.00813  0.17460  0.06921  Biso   1.000  C
  H173     1.0000 0.06335  0.22785  0.10797  Biso   1.000  H
  H174     1.0000 0.06337  0.22790  0.10797  Biso   1.000  H
  C215     1.0000 0.88722  0.09827  0.08033  Biso   1.000  C
  H175     1.0000 0.86172  0.10007  0.12666  Biso   1.000  H
  N20      1.0000 0.21935  0.19695  0.04272  Biso   1.000  N
  H176     1.0000 0.24785  0.21827  0.08597  Biso   1.000  H
  N21      1.0000 0.21937  0.19700  0.04272  Biso   1.000  N
  H177     1.0000 0.17692  0.06525  0.03827  Biso   1.000  H
  H178     1.0000 0.17694  0.06531  0.03827  Biso   1.000  H
  N22      1.0000 0.12233  0.87464  0.05278  Biso   1.000  N
  H179     1.0000 0.13245  0.94608  0.02487  Biso   1.000  H
  N23      1.0000 0.12236  0.87469  0.05278  Biso   1.000  N
  C216     1.0000 0.81786  0.76185  0.26979  Biso   1.000  C
  C217     1.0000 0.75706  0.82144  0.26273  Biso   1.000  C
  C218     1.0000 0.06405  0.20277  0.04612  Biso   1.000  C
  C219     1.0000 0.94222  0.12629  0.05980  Biso   1.000  C
  C220     1.0000 0.81754  0.04615  0.07065  Biso   1.000  C
  C221     1.0000 0.81757  0.04620  0.07065  Biso   1.000  C
  C222     1.0000 0.23915  0.26849  0.03644  Biso   1.000  C
  C223     1.0000 0.09732  0.82417  0.02715  Biso   1.000  C
  C224     1.0000 0.82144  0.75706  0.23729  Biso   1.000  C
  H180     1.0000 0.83704  0.74161  0.28314  Biso   1.000  H
  H181     1.0000 0.83707  0.74166  0.28314  Biso   1.000  H
  C225     1.0000 0.76184  0.81788  0.23022  Biso   1.000  C
  H182     1.0000 0.73267  0.84214  0.27143  Biso   1.000  H
  N24      1.0000 0.12531  0.24768  0.05278  Biso   1.000  N
  N25      1.0000 0.12534  0.24773  0.05278  Biso   1.000  N
  H183     1.0000 0.05394  0.18639  0.02487  Biso   1.000  H
  H184     1.0000 0.93473  0.11166  0.03827  Biso   1.000  H
  N26      1.0000 0.80304  0.02240  0.04272  Biso   1.000  N
  H185     1.0000 0.78173  0.02956  0.08597  Biso   1.000  H
  C226     1.0000 0.17584  0.27317  0.02715  Biso   1.000  C
  C227     1.0000 0.29265  0.29707  0.01015  Biso   1.000  C
  H186     1.0000 0.25953  0.29614  0.05617  Biso   1.000  H
  H187     1.0000 0.25956  0.29619  0.05617  Biso   1.000  H
  H188     1.0000 0.09013  0.84539  0.00778  Biso   1.000  H
  C228     1.0000 0.15094  0.80295  0.02003  Biso   1.000  C
  C229     1.0000 0.02932  0.76087  0.03644  Biso   1.000  C
  C230     1.0000 0.15096  0.80300  0.02003  Biso   1.000  C
  C231     1.0000 0.79533  0.78719  0.21713  Biso   1.000  C
  H189     1.0000 0.84210  0.73265  0.22856  Biso   1.000  H
  H190     1.0000 0.84213  0.73270  0.22856  Biso   1.000  H
  H191     1.0000 0.74163  0.83704  0.21687  Biso   1.000  H
  H192     1.0000 0.74165  0.83710  0.21687  Biso   1.000  H
  C232     1.0000 0.73153  0.97064  0.03644  Biso   1.000  C
  C233     1.0000 0.73156  0.97069  0.03644  Biso   1.000  C
  H193     1.0000 0.15462  0.24474  0.00778  Biso   1.000  H
  C234     1.0000 0.19704  0.34796  0.02003  Biso   1.000  C
  H194     1.0000 0.15465  0.24479  0.00778  Biso   1.000  H
  C235     1.0000 0.19706  0.34801  0.02003  Biso   1.000  C
  C236     1.0000 0.31384  0.37139  0.00261  Biso   1.000  C
  H195     1.0000 0.33362  0.29444  0.01667  Biso   1.000  H
  H196     1.0000 0.33364  0.29449  0.01667  Biso   1.000  H
  H197     1.0000 0.27346  0.26869  0.99087  Biso   1.000  H
  C237     1.0000 0.12495  0.74758  0.99412  Biso   1.000  C
  H198     1.0000 0.19423  0.84369  0.01297  Biso   1.000  H
  H199     1.0000 0.16063  0.78487  0.03957  Biso   1.000  H
  N27      1.0000 0.97761  0.78065  0.04272  Biso   1.000  N
  C238     1.0000 0.00444  0.70736  0.01015  Biso   1.000  C
  H200     1.0000 0.03665  0.74048  0.05617  Biso   1.000  H
  C239     1.0000 0.80504  0.78786  0.18316  Biso   1.000  C
  C240     1.0000 0.72684  0.90266  0.02715  Biso   1.000  C
  C241     1.0000 0.70291  0.99557  0.01015  Biso   1.000  C
  H201     1.0000 0.70386  0.96338  0.05617  Biso   1.000  H
  H202     1.0000 0.15633  0.35058  0.01297  Biso   1.000  H
  H203     1.0000 0.21514  0.37577  0.03957  Biso   1.000  H
  C242     1.0000 0.25242  0.37736  0.99412  Biso   1.000  C
  H204     1.0000 0.33712  0.40064  0.02127  Biso   1.000  H
  H205     1.0000 0.33714  0.40069  0.02127  Biso   1.000  H
  H206     1.0000 0.34683  0.38787  0.98478  Biso   1.000  H
  H207     1.0000 0.15934  0.73296  0.99066  Biso   1.000  H
  H208     1.0000 0.11972  0.76736  0.97406  Biso   1.000  H
  C243     1.0000 0.05755  0.68619  0.00261  Biso   1.000  C
  C244     1.0000 0.95384  0.77138  0.07065  Biso   1.000  C
  H209     1.0000 0.99522  0.72657  0.99087  Biso   1.000  H
  H210     1.0000 0.96084  0.66636  0.01667  Biso   1.000  H
  C245     1.0000 0.81565  0.79115  0.15551  Biso   1.000  C
  C246     1.0000 0.81567  0.79121  0.15551  Biso   1.000  C
  N28      1.0000 0.75228  0.87763  0.05278  Biso   1.000  N
  H211     1.0000 0.75525  0.90987  0.00778  Biso   1.000  H
  C247     1.0000 0.65204  0.84904  0.02003  Biso   1.000  C
  C248     1.0000 0.65207  0.84910  0.02003  Biso   1.000  C
  C249     1.0000 0.62864  0.94247  0.00261  Biso   1.000  C
  H212     1.0000 0.73134  0.00479  0.99087  Biso   1.000  H
  H213     1.0000 0.70552  0.03914  0.01667  Biso   1.000  H
  H214     1.0000 0.70555  0.03919  0.01667  Biso   1.000  H
  H215     1.0000 0.26701  0.42634  0.99066  Biso   1.000  H
  H216     1.0000 0.23266  0.35238  0.97406  Biso   1.000  H
  H217     1.0000 0.26703  0.42639  0.99066  Biso   1.000  H
  H218     1.0000 0.04104  0.65318  0.98478  Biso   1.000  H
  H219     1.0000 0.06354  0.66286  0.02127  Biso   1.000  H
  C250     1.0000 0.90177  0.78899  0.08033  Biso   1.000  C
  H220     1.0000 0.97042  0.75217  0.08597  Biso   1.000  H
  C251     1.0000 0.83232  0.79764  0.12222  Biso   1.000  C
  C252     1.0000 0.83234  0.79770  0.12222  Biso   1.000  C
  C253     1.0000 0.79722  0.86125  0.04612  Biso   1.000  C
  C254     1.0000 0.79724  0.86130  0.04612  Biso   1.000  C
  C255     1.0000 0.62263  0.87505  0.99412  Biso   1.000  C
  C256     1.0000 0.62266  0.87510  0.99412  Biso   1.000  C
  H221     1.0000 0.64946  0.80578  0.01297  Biso   1.000  H
  H222     1.0000 0.62423  0.83936  0.03957  Biso   1.000  H
  H223     1.0000 0.61213  0.95895  0.98478  Biso   1.000  H
  H224     1.0000 0.61215  0.95900  0.98478  Biso   1.000  H
  H225     1.0000 0.59931  0.93645  0.02127  Biso   1.000  H
  H226     1.0000 0.59934  0.93650  0.02127  Biso   1.000  H
  C257     1.0000 0.88102  0.77988  0.11196  Biso   1.000  C
  C258     1.0000 0.87373  0.81598  0.05980  Biso   1.000  C
  C259     1.0000 0.80532  0.82376  0.10096  Biso   1.000  C
  C260     1.0000 0.82542  0.83354  0.06921  Biso   1.000  C
  C261     1.0000 0.82545  0.83359  0.06921  Biso   1.000  C
  H227     1.0000 0.81363  0.86759  0.02487  Biso   1.000  H
  H228     1.0000 0.57363  0.84065  0.99066  Biso   1.000  H
  H229     1.0000 0.64762  0.88026  0.97406  Biso   1.000  H
  H230     1.0000 0.57365  0.84070  0.99066  Biso   1.000  H
  H231     1.0000 0.64765  0.88031  0.97406  Biso   1.000  H
  H232     1.0000 0.89991  0.76164  0.12666  Biso   1.000  H
  H233     1.0000 0.89994  0.76169  0.12666  Biso   1.000  H
  H234     1.0000 0.88835  0.82309  0.03827  Biso   1.000  H
  H235     1.0000 0.77214  0.83545  0.10797  Biso   1.000  H
  H236     1.0000 0.77217  0.83550  0.10797  Biso   1.000  H
  C262     1.0000 0.34799  0.19705  0.47995  Biso   1.000  C
  C263     1.0000 0.27315  0.17583  0.47284  Biso   1.000  C
  H237     1.0000 0.37576  0.21513  0.46044  Biso   1.000  H
  H238     1.0000 0.35055  0.15631  0.48704  Biso   1.000  H
  C264     1.0000 0.37737  0.25242  0.50589  Biso   1.000  C
  H239     1.0000 0.35057  0.15636  0.48704  Biso   1.000  H
  C265     1.0000 0.37739  0.25247  0.50589  Biso   1.000  C
  N29      1.0000 0.24769  0.12536  0.44723  Biso   1.000  N
  C266     1.0000 0.26845  0.23913  0.46355  Biso   1.000  C
  H240     1.0000 0.24475  0.15461  0.49224  Biso   1.000  H
  H241     1.0000 0.24477  0.15466  0.49224  Biso   1.000  H
  H242     1.0000 0.42639  0.26704  0.50933  Biso   1.000  H
  H243     1.0000 0.35236  0.23264  0.52593  Biso   1.000  H
  C267     1.0000 0.37136  0.31381  0.49738  Biso   1.000  C
  C268     1.0000 0.37138  0.31386  0.49738  Biso   1.000  C
  C269     1.0000 0.20275  0.06402  0.45390  Biso   1.000  C
  C270     1.0000 0.20278  0.06407  0.45390  Biso   1.000  C
  C271     1.0000 0.29708  0.29264  0.48986  Biso   1.000  C
  H244     1.0000 0.29618  0.25952  0.44384  Biso   1.000  H
  N30      1.0000 0.19696  0.21935  0.45726  Biso   1.000  N
  N31      1.0000 0.19699  0.21940  0.45726  Biso   1.000  N
  H245     1.0000 0.40068  0.33714  0.47874  Biso   1.000  H
  H246     1.0000 0.38786  0.34682  0.51523  Biso   1.000  H
  H247     1.0000 0.38789  0.34687  0.51523  Biso   1.000  H
  C272     1.0000 0.17459  0.00814  0.43080  Biso   1.000  C
  H248     1.0000 0.18637  0.05392  0.47514  Biso   1.000  H
  H249     1.0000 0.26865  0.27343  0.50914  Biso   1.000  H
  H250     1.0000 0.29447  0.33364  0.48334  Biso   1.000  H
  C273     1.0000 0.18246  0.22862  0.42933  Biso   1.000  C
  C274     1.0000 0.18249  0.22867  0.42933  Biso   1.000  C
  C275     1.0000 0.19468  0.01844  0.39903  Biso   1.000  C
  C276     1.0000 0.12624  0.94221  0.44019  Biso   1.000  C
  C277     1.0000 0.12626  0.94226  0.44019  Biso   1.000  C
  H251     1.0000 0.21825  0.24783  0.41404  Biso   1.000  H
  C278     1.0000 0.11277  0.21101  0.41966  Biso   1.000  C
  C279     1.0000 0.11280  0.21106  0.41966  Biso   1.000  C
  C280     1.0000 0.16768  0.96534  0.37777  Biso   1.000  C
  H252     1.0000 0.22788  0.06335  0.39204  Biso   1.000  H
  C281     1.0000 0.09824  0.88721  0.41966  Biso   1.000  C
  C282     1.0000 0.09827  0.88726  0.41966  Biso   1.000  C
  H253     1.0000 0.11166  0.93475  0.46174  Biso   1.000  H
  C283     1.0000 0.10114  0.22012  0.38803  Biso   1.000  C
  C284     1.0000 0.05776  0.18402  0.44019  Biso   1.000  C
  C285     1.0000 0.05778  0.18407  0.44019  Biso   1.000  C
  C286     1.0000 0.18438  0.97554  0.34450  Biso   1.000  C
  C287     1.0000 0.11896  0.89885  0.38803  Biso   1.000  C
  C288     1.0000 0.04618  0.81752  0.42933  Biso   1.000  C
  C289     1.0000 0.03467  0.20236  0.37777  Biso   1.000  C
  H254     1.0000 0.13827  0.23836  0.37333  Biso   1.000  H
  H255     1.0000 0.06526  0.17691  0.46174  Biso   1.000  H
  H256     1.0000 0.06529  0.17696  0.46174  Biso   1.000  H
  C290     1.0000 0.99188  0.16646  0.43080  Biso   1.000  C
  C291     1.0000 0.19499  0.98285  0.31683  Biso   1.000  C
  H257     1.0000 0.10004  0.86171  0.37333  Biso   1.000  H
  H258     1.0000 0.10006  0.86177  0.37333  Biso   1.000  H
  N32      1.0000 0.02240  0.80305  0.45726  Biso   1.000  N
  H259     1.0000 0.02958  0.78173  0.41404  Biso   1.000  H
  C292     1.0000 0.02449  0.20885  0.34450  Biso   1.000  C
  C293     1.0000 0.98157  0.17624  0.39903  Biso   1.000  C
  C294     1.0000 0.93597  0.13875  0.45390  Biso   1.000  C
  C295     1.0000 0.20465  0.99181  0.28286  Biso   1.000  C
  C296     1.0000 0.20467  0.99186  0.28286  Biso   1.000  C
  C297     1.0000 0.97066  0.73151  0.46355  Biso   1.000  C
  C298     1.0000 0.97069  0.73157  0.46355  Biso   1.000  C
  C299     1.0000 0.01718  0.21214  0.31683  Biso   1.000  C
  H260     1.0000 0.93669  0.16455  0.39204  Biso   1.000  H
  N33      1.0000 0.87466  0.12237  0.44723  Biso   1.000  N
  H261     1.0000 0.94605  0.13241  0.47514  Biso   1.000  H
  H262     1.0000 0.94607  0.13247  0.47514  Biso   1.000  H
  C300     1.0000 0.23819  0.05604  0.26979  Biso   1.000  C
  C301     1.0000 0.17856  0.93562  0.26273  Biso   1.000  C
  C302     1.0000 0.17859  0.93567  0.26273  Biso   1.000  C
  C303     1.0000 0.90266  0.72683  0.47284  Biso   1.000  C
  C304     1.0000 0.99558  0.70293  0.48986  Biso   1.000  C
  H263     1.0000 0.96339  0.70386  0.44384  Biso   1.000  H
  C305     1.0000 0.00815  0.21281  0.28286  Biso   1.000  C
  C306     1.0000 0.00817  0.21286  0.28286  Biso   1.000  C
  C307     1.0000 0.82418  0.09734  0.47284  Biso   1.000  C
  C308     1.0000 0.24294  0.06438  0.23729  Biso   1.000  C
  H264     1.0000 0.25838  0.09544  0.28314  Biso   1.000  H
  C309     1.0000 0.18215  0.94396  0.23022  Biso   1.000  C
  H265     1.0000 0.15786  0.89056  0.27143  Biso   1.000  H
  N34      1.0000 0.87763  0.75232  0.44723  Biso   1.000  N
  H266     1.0000 0.90988  0.75526  0.49224  Biso   1.000  H
  C310     1.0000 0.84908  0.65204  0.47995  Biso   1.000  C
  C311     1.0000 0.94245  0.62861  0.49738  Biso   1.000  C
  C312     1.0000 0.94248  0.62866  0.49738  Biso   1.000  C
  H267     1.0000 0.00477  0.73131  0.50914  Biso   1.000  H
  H268     1.0000 0.03917  0.70556  0.48334  Biso   1.000  H
  H269     1.0000 0.00480  0.73136  0.50914  Biso   1.000  H
  C313     1.0000 0.06438  0.24294  0.26273  Biso   1.000  C
  C314     1.0000 0.94396  0.18212  0.26979  Biso   1.000  C
  C315     1.0000 0.94398  0.18217  0.26979  Biso   1.000  C
  C316     1.0000 0.76089  0.02936  0.46355  Biso   1.000  C
  H270     1.0000 0.84538  0.09013  0.49224  Biso   1.000  H
  C317     1.0000 0.80300  0.15096  0.47995  Biso   1.000  C
  C318     1.0000 0.21284  0.00819  0.21713  Biso   1.000  C
  H271     1.0000 0.26730  0.10944  0.22856  Biso   1.000  H
  H272     1.0000 0.26733  0.10950  0.22856  Biso   1.000  H
  H273     1.0000 0.16294  0.90456  0.21687  Biso   1.000  H
  C319     1.0000 0.86128  0.79723  0.45390  Biso   1.000  C
  H274     1.0000 0.80575  0.64942  0.48704  Biso   1.000  H
  H275     1.0000 0.83937  0.62423  0.46044  Biso   1.000  H
  C320     1.0000 0.87506  0.62264  0.50589  Biso   1.000  C
  H276     1.0000 0.80578  0.64947  0.48704  Biso   1.000  H
  H277     1.0000 0.95896  0.61213  0.51523  Biso   1.000  H
  H278     1.0000 0.93648  0.59936  0.47874  Biso   1.000  H
  C321     1.0000 0.05601  0.23815  0.23022  Biso   1.000  C
  C322     1.0000 0.05603  0.23820  0.23022  Biso   1.000  C
  H279     1.0000 0.10946  0.26735  0.27143  Biso   1.000  H
  C323     1.0000 0.93562  0.17856  0.23729  Biso   1.000  C
  H280     1.0000 0.90458  0.16296  0.28314  Biso   1.000  H
  N35      1.0000 0.78064  0.97760  0.45726  Biso   1.000  N
  C324     1.0000 0.70734  0.00443  0.48986  Biso   1.000  C
  H281     1.0000 0.74048  0.03662  0.44384  Biso   1.000  H
  H282     1.0000 0.74050  0.03667  0.44384  Biso   1.000  H
  H283     1.0000 0.84367  0.19422  0.48704  Biso   1.000  H
  H284     1.0000 0.78487  0.16064  0.46044  Biso   1.000  H
  C325     1.0000 0.74758  0.12495  0.50589  Biso   1.000  C
  H285     1.0000 0.84370  0.19427  0.48704  Biso   1.000  H
  C326     1.0000 0.21214  0.01715  0.18316  Biso   1.000  C
  C327     1.0000 0.21217  0.01720  0.18316  Biso   1.000  C
  C328     1.0000 0.83356  0.82546  0.43080  Biso   1.000  C
  H286     1.0000 0.86755  0.81361  0.47514  Biso   1.000  H
  H287     1.0000 0.86758  0.81366  0.47514  Biso   1.000  H
  H288     1.0000 0.84066  0.57366  0.50933  Biso   1.000  H
  H289     1.0000 0.88028  0.64762  0.52593  Biso   1.000  H
  H290     1.0000 0.88030  0.64767  0.52593  Biso   1.000  H
  C329     1.0000 0.99186  0.20467  0.21713  Biso   1.000  C
  H291     1.0000 0.09543  0.25839  0.21687  Biso   1.000  H
  H292     1.0000 0.89053  0.15786  0.22856  Biso   1.000  H
  C330     1.0000 0.77140  0.95385  0.42933  Biso   1.000  C
  H293     1.0000 0.72655  0.99521  0.50914  Biso   1.000  H
  H294     1.0000 0.66638  0.96086  0.48334  Biso   1.000  H
  H295     1.0000 0.72658  0.99526  0.50914  Biso   1.000  H
  C331     1.0000 0.68617  0.05753  0.49738  Biso   1.000  C
  H296     1.0000 0.73298  0.15935  0.50933  Biso   1.000  H
  H297     1.0000 0.76737  0.11974  0.52593  Biso   1.000  H
  C332     1.0000 0.20884  0.02446  0.15551  Biso   1.000  C
  C333     1.0000 0.81594  0.87371  0.44019  Biso   1.000  C
  C334     1.0000 0.82376  0.80532  0.39903  Biso   1.000  C
  C335     1.0000 0.81596  0.87377  0.44019  Biso   1.000  C
  C336     1.0000 0.82378  0.80537  0.39903  Biso   1.000  C
  C337     1.0000 0.98287  0.19499  0.18316  Biso   1.000  C
  C338     1.0000 0.78896  0.90173  0.41966  Biso   1.000  C
  H298     1.0000 0.75217  0.97044  0.41404  Biso   1.000  H
  H299     1.0000 0.65317  0.04105  0.51523  Biso   1.000  H
  H300     1.0000 0.66287  0.06355  0.47874  Biso   1.000  H
  C339     1.0000 0.20234  0.03466  0.12222  Biso   1.000  C
  H301     1.0000 0.82307  0.88834  0.46174  Biso   1.000  H
  C340     1.0000 0.79767  0.83236  0.37777  Biso   1.000  C
  H302     1.0000 0.83550  0.77215  0.39204  Biso   1.000  H
  C341     1.0000 0.97555  0.18438  0.15551  Biso   1.000  C
  C342     1.0000 0.77985  0.88103  0.38803  Biso   1.000  C
  C343     1.0000 0.22011  0.10115  0.11196  Biso   1.000  C
  C344     1.0000 0.22014  0.10120  0.11196  Biso   1.000  C
  C345     1.0000 0.17624  0.98156  0.10096  Biso   1.000  C
  C346     1.0000 0.79117  0.81562  0.34450  Biso   1.000  C
  C347     1.0000 0.79120  0.81567  0.34450  Biso   1.000  C
  C348     1.0000 0.96531  0.16764  0.12222  Biso   1.000  C
  C349     1.0000 0.96534  0.16769  0.12222  Biso   1.000  C
  H303     1.0000 0.76165  0.89993  0.37333  Biso   1.000  H
  H304     1.0000 0.23832  0.13829  0.12666  Biso   1.000  H
  C350     1.0000 0.21103  0.11279  0.08033  Biso   1.000  C
  C351     1.0000 0.16645  0.99186  0.06921  Biso   1.000  C
  H305     1.0000 0.16453  0.93665  0.10797  Biso   1.000  H
  H306     1.0000 0.16456  0.93670  0.10797  Biso   1.000  H
  C352     1.0000 0.78787  0.80501  0.31683  Biso   1.000  C
  C353     1.0000 0.78790  0.80506  0.31683  Biso   1.000  C
  C354     1.0000 0.01844  0.19468  0.10096  Biso   1.000  C
  C355     1.0000 0.89883  0.11897  0.11196  Biso   1.000  C
  C356     1.0000 0.22866  0.18248  0.07065  Biso   1.000  C
  C357     1.0000 0.18402  0.05779  0.05980  Biso   1.000  C
  C358     1.0000 0.13873  0.93598  0.04612  Biso   1.000  C
  C359     1.0000 0.78718  0.79533  0.28286  Biso   1.000  C
  C360     1.0000 0.00810  0.17454  0.06921  Biso   1.000  C
  C361     1.0000 0.00813  0.17460  0.06921  Biso   1.000  C
  H307     1.0000 0.06335  0.22785  0.10797  Biso   1.000  H
  H308     1.0000 0.06337  0.22790  0.10797  Biso   1.000  H
  C362     1.0000 0.88722  0.09827  0.08033  Biso   1.000  C
  H309     1.0000 0.86172  0.10007  0.12666  Biso   1.000  H
  H310     1.0000 0.24785  0.21827  0.08597  Biso   1.000  H
  N36      1.0000 0.21935  0.19695  0.04272  Biso   1.000  N
  N37      1.0000 0.21937  0.19700  0.04272  Biso   1.000  N
  H311     1.0000 0.17692  0.06525  0.03827  Biso   1.000  H
  H312     1.0000 0.17694  0.06531  0.03827  Biso   1.000  H
  N38      1.0000 0.12233  0.87464  0.05278  Biso   1.000  N
  H313     1.0000 0.13245  0.94608  0.02487  Biso   1.000  H
  N39      1.0000 0.12236  0.87469  0.05278  Biso   1.000  N
  C363     1.0000 0.81786  0.76185  0.26979  Biso   1.000  C
  C364     1.0000 0.75706  0.82144  0.26273  Biso   1.000  C
  C365     1.0000 0.06405  0.20277  0.04612  Biso   1.000  C
  C366     1.0000 0.94222  0.12629  0.05980  Biso   1.000  C
  C367     1.0000 0.81754  0.04615  0.07065  Biso   1.000  C
  C368     1.0000 0.81757  0.04620  0.07065  Biso   1.000  C
  C369     1.0000 0.23915  0.26849  0.03644  Biso   1.000  C
  C370     1.0000 0.09732  0.82417  0.02715  Biso   1.000  C
  C371     1.0000 0.82144  0.75706  0.23729  Biso   1.000  C
  H314     1.0000 0.83704  0.74161  0.28314  Biso   1.000  H
  H315     1.0000 0.83707  0.74166  0.28314  Biso   1.000  H
  C372     1.0000 0.76184  0.81788  0.23022  Biso   1.000  C
  H316     1.0000 0.73267  0.84214  0.27143  Biso   1.000  H
  N40      1.0000 0.12531  0.24768  0.05278  Biso   1.000  N
  N41      1.0000 0.12534  0.24773  0.05278  Biso   1.000  N
  H317     1.0000 0.05394  0.18639  0.02487  Biso   1.000  H
  H318     1.0000 0.93473  0.11166  0.03827  Biso   1.000  H
  N42      1.0000 0.80304  0.02240  0.04272  Biso   1.000  N
  H319     1.0000 0.78173  0.02956  0.08597  Biso   1.000  H
  C373     1.0000 0.17584  0.27317  0.02715  Biso   1.000  C
  C374     1.0000 0.29265  0.29707  0.01015  Biso   1.000  C
  H320     1.0000 0.25953  0.29614  0.05617  Biso   1.000  H
  H321     1.0000 0.25956  0.29619  0.05617  Biso   1.000  H
  H322     1.0000 0.09013  0.84539  0.00778  Biso   1.000  H
  C375     1.0000 0.15094  0.80295  0.02003  Biso   1.000  C
  C376     1.0000 0.02932  0.76087  0.03644  Biso   1.000  C
  C377     1.0000 0.15096  0.80300  0.02003  Biso   1.000  C
  C378     1.0000 0.79533  0.78719  0.21713  Biso   1.000  C
  H323     1.0000 0.84210  0.73265  0.22856  Biso   1.000  H
  H324     1.0000 0.84213  0.73270  0.22856  Biso   1.000  H
  H325     1.0000 0.74163  0.83704  0.21687  Biso   1.000  H
  H326     1.0000 0.74165  0.83710  0.21687  Biso   1.000  H
  C379     1.0000 0.73153  0.97064  0.03644  Biso   1.000  C
  C380     1.0000 0.73156  0.97069  0.03644  Biso   1.000  C
  H327     1.0000 0.15462  0.24474  0.00778  Biso   1.000  H
  C381     1.0000 0.19704  0.34796  0.02003  Biso   1.000  C
  H328     1.0000 0.15465  0.24479  0.00778  Biso   1.000  H
  C382     1.0000 0.19706  0.34801  0.02003  Biso   1.000  C
  C383     1.0000 0.31384  0.37139  0.00261  Biso   1.000  C
  H329     1.0000 0.33362  0.29444  0.01667  Biso   1.000  H
  H330     1.0000 0.33364  0.29449  0.01667  Biso   1.000  H
  H331     1.0000 0.27346  0.26869  0.99087  Biso   1.000  H
  C384     1.0000 0.12495  0.74758  0.99412  Biso   1.000  C
  H332     1.0000 0.19423  0.84369  0.01297  Biso   1.000  H
  H333     1.0000 0.16063  0.78487  0.03957  Biso   1.000  H
  N43      1.0000 0.97761  0.78065  0.04272  Biso   1.000  N
  C385     1.0000 0.00444  0.70736  0.01015  Biso   1.000  C
  H334     1.0000 0.03665  0.74048  0.05617  Biso   1.000  H
  C386     1.0000 0.80504  0.78786  0.18316  Biso   1.000  C
  C387     1.0000 0.72684  0.90266  0.02715  Biso   1.000  C
  C388     1.0000 0.70291  0.99557  0.01015  Biso   1.000  C
  H335     1.0000 0.70386  0.96338  0.05617  Biso   1.000  H
  H336     1.0000 0.15633  0.35058  0.01297  Biso   1.000  H
  H337     1.0000 0.21514  0.37577  0.03957  Biso   1.000  H
  C389     1.0000 0.25242  0.37736  0.99412  Biso   1.000  C
  H338     1.0000 0.33712  0.40064  0.02127  Biso   1.000  H
  H339     1.0000 0.33714  0.40069  0.02127  Biso   1.000  H
  H340     1.0000 0.34683  0.38787  0.98478  Biso   1.000  H
  H341     1.0000 0.15934  0.73296  0.99066  Biso   1.000  H
  H342     1.0000 0.11972  0.76736  0.97406  Biso   1.000  H
  C390     1.0000 0.05755  0.68619  0.00261  Biso   1.000  C
  C391     1.0000 0.95384  0.77138  0.07065  Biso   1.000  C
  H343     1.0000 0.99522  0.72657  0.99087  Biso   1.000  H
  H344     1.0000 0.96084  0.66636  0.01667  Biso   1.000  H
  C392     1.0000 0.81565  0.79115  0.15551  Biso   1.000  C
  C393     1.0000 0.81567  0.79121  0.15551  Biso   1.000  C
  N44      1.0000 0.75228  0.87763  0.05278  Biso   1.000  N
  H345     1.0000 0.75525  0.90987  0.00778  Biso   1.000  H
  C394     1.0000 0.65204  0.84904  0.02003  Biso   1.000  C
  C395     1.0000 0.65207  0.84910  0.02003  Biso   1.000  C
  C396     1.0000 0.62864  0.94247  0.00261  Biso   1.000  C
  H346     1.0000 0.73134  0.00479  0.99087  Biso   1.000  H
  H347     1.0000 0.70552  0.03914  0.01667  Biso   1.000  H
  H348     1.0000 0.70555  0.03919  0.01667  Biso   1.000  H
  H349     1.0000 0.26701  0.42634  0.99066  Biso   1.000  H
  H350     1.0000 0.23266  0.35238  0.97406  Biso   1.000  H
  H351     1.0000 0.26703  0.42639  0.99066  Biso   1.000  H
  H352     1.0000 0.04104  0.65318  0.98478  Biso   1.000  H
  H353     1.0000 0.06354  0.66286  0.02127  Biso   1.000  H
  C397     1.0000 0.90177  0.78899  0.08033  Biso   1.000  C
  H354     1.0000 0.97042  0.75217  0.08597  Biso   1.000  H
  C398     1.0000 0.83232  0.79764  0.12222  Biso   1.000  C
  C399     1.0000 0.83234  0.79770  0.12222  Biso   1.000  C
  C400     1.0000 0.79722  0.86125  0.04612  Biso   1.000  C
  C401     1.0000 0.79724  0.86130  0.04612  Biso   1.000  C
  C402     1.0000 0.62263  0.87505  0.99412  Biso   1.000  C
  C403     1.0000 0.62266  0.87510  0.99412  Biso   1.000  C
  H355     1.0000 0.64946  0.80578  0.01297  Biso   1.000  H
  H356     1.0000 0.62423  0.83936  0.03957  Biso   1.000  H
  H357     1.0000 0.61213  0.95895  0.98478  Biso   1.000  H
  H358     1.0000 0.61215  0.95900  0.98478  Biso   1.000  H
  H359     1.0000 0.59931  0.93645  0.02127  Biso   1.000  H
  H360     1.0000 0.59934  0.93650  0.02127  Biso   1.000  H
  C404     1.0000 0.88102  0.77988  0.11196  Biso   1.000  C
  C405     1.0000 0.87373  0.81598  0.05980  Biso   1.000  C
  C406     1.0000 0.80532  0.82376  0.10096  Biso   1.000  C
  C407     1.0000 0.82542  0.83354  0.06921  Biso   1.000  C
  C408     1.0000 0.82545  0.83359  0.06921  Biso   1.000  C
  H361     1.0000 0.81363  0.86759  0.02487  Biso   1.000  H
  H362     1.0000 0.57363  0.84065  0.99066  Biso   1.000  H
  H363     1.0000 0.64762  0.88026  0.97406  Biso   1.000  H
  H364     1.0000 0.57365  0.84070  0.99066  Biso   1.000  H
  H365     1.0000 0.64765  0.88031  0.97406  Biso   1.000  H
  H366     1.0000 0.89991  0.76164  0.12666  Biso   1.000  H
  H367     1.0000 0.89994  0.76169  0.12666  Biso   1.000  H
  H368     1.0000 0.88835  0.82309  0.03827  Biso   1.000  H
  H369     1.0000 0.77214  0.83545  0.10797  Biso   1.000  H
  H370     1.0000 0.77217  0.83550  0.10797  Biso   1.000  H
  C409     1.0000 0.34799  0.19705  0.47995  Biso   1.000  C
  C410     1.0000 0.27315  0.17583  0.47284  Biso   1.000  C
  H371     1.0000 0.37576  0.21513  0.46044  Biso   1.000  H
  H372     1.0000 0.35055  0.15631  0.48704  Biso   1.000  H
  C411     1.0000 0.37737  0.25242  0.50589  Biso   1.000  C
  H373     1.0000 0.35057  0.15636  0.48704  Biso   1.000  H
  C412     1.0000 0.37739  0.25247  0.50589  Biso   1.000  C
  N45      1.0000 0.24769  0.12536  0.44723  Biso   1.000  N
  C413     1.0000 0.26845  0.23913  0.46355  Biso   1.000  C
  H374     1.0000 0.24475  0.15461  0.49224  Biso   1.000  H
  H375     1.0000 0.24477  0.15466  0.49224  Biso   1.000  H
  H376     1.0000 0.42639  0.26704  0.50933  Biso   1.000  H
  H377     1.0000 0.35236  0.23264  0.52593  Biso   1.000  H
  C414     1.0000 0.37136  0.31381  0.49738  Biso   1.000  C
  C415     1.0000 0.37138  0.31386  0.49738  Biso   1.000  C
  C416     1.0000 0.20275  0.06402  0.45390  Biso   1.000  C
  C417     1.0000 0.20278  0.06407  0.45390  Biso   1.000  C
  C418     1.0000 0.29708  0.29264  0.48986  Biso   1.000  C
  H378     1.0000 0.29618  0.25952  0.44384  Biso   1.000  H
  N46      1.0000 0.19696  0.21935  0.45726  Biso   1.000  N
  N47      1.0000 0.19699  0.21940  0.45726  Biso   1.000  N
  H379     1.0000 0.40068  0.33714  0.47874  Biso   1.000  H
  H380     1.0000 0.38786  0.34682  0.51523  Biso   1.000  H
  H381     1.0000 0.38789  0.34687  0.51523  Biso   1.000  H
  C419     1.0000 0.17459  0.00814  0.43080  Biso   1.000  C
  H382     1.0000 0.18637  0.05392  0.47514  Biso   1.000  H
  H383     1.0000 0.26865  0.27343  0.50914  Biso   1.000  H
  H384     1.0000 0.29447  0.33364  0.48334  Biso   1.000  H
  C420     1.0000 0.18246  0.22862  0.42933  Biso   1.000  C
  C421     1.0000 0.18249  0.22867  0.42933  Biso   1.000  C
  C422     1.0000 0.19468  0.01844  0.39903  Biso   1.000  C
  C423     1.0000 0.12624  0.94221  0.44019  Biso   1.000  C
  C424     1.0000 0.12626  0.94226  0.44019  Biso   1.000  C
  H385     1.0000 0.21825  0.24783  0.41404  Biso   1.000  H
  C425     1.0000 0.11277  0.21101  0.41966  Biso   1.000  C
  C426     1.0000 0.11280  0.21106  0.41966  Biso   1.000  C
  C427     1.0000 0.16768  0.96534  0.37777  Biso   1.000  C
  H386     1.0000 0.22788  0.06335  0.39204  Biso   1.000  H
  C428     1.0000 0.09824  0.88721  0.41966  Biso   1.000  C
  C429     1.0000 0.09827  0.88726  0.41966  Biso   1.000  C
  H387     1.0000 0.11166  0.93475  0.46174  Biso   1.000  H
  C430     1.0000 0.10114  0.22012  0.38803  Biso   1.000  C
  C431     1.0000 0.05776  0.18402  0.44019  Biso   1.000  C
  C432     1.0000 0.05778  0.18407  0.44019  Biso   1.000  C
  C433     1.0000 0.18438  0.97554  0.34450  Biso   1.000  C
  C434     1.0000 0.11896  0.89885  0.38803  Biso   1.000  C
  C435     1.0000 0.04618  0.81752  0.42933  Biso   1.000  C
  C436     1.0000 0.03467  0.20236  0.37777  Biso   1.000  C
  H388     1.0000 0.13827  0.23836  0.37333  Biso   1.000  H
  C437     1.0000 0.99188  0.16646  0.43080  Biso   1.000  C
  H389     1.0000 0.06526  0.17691  0.46174  Biso   1.000  H
  H390     1.0000 0.06529  0.17696  0.46174  Biso   1.000  H
  C438     1.0000 0.19499  0.98285  0.31683  Biso   1.000  C
  H391     1.0000 0.10004  0.86171  0.37333  Biso   1.000  H
  H392     1.0000 0.10006  0.86177  0.37333  Biso   1.000  H
  N48      1.0000 0.02240  0.80305  0.45726  Biso   1.000  N
  H393     1.0000 0.02958  0.78173  0.41404  Biso   1.000  H
  C439     1.0000 0.02449  0.20885  0.34450  Biso   1.000  C
  C440     1.0000 0.98157  0.17624  0.39903  Biso   1.000  C
  C441     1.0000 0.93597  0.13875  0.45390  Biso   1.000  C
  C442     1.0000 0.20465  0.99181  0.28286  Biso   1.000  C
  C443     1.0000 0.20467  0.99186  0.28286  Biso   1.000  C
  C444     1.0000 0.97066  0.73151  0.46355  Biso   1.000  C
  C445     1.0000 0.97069  0.73157  0.46355  Biso   1.000  C
  C446     1.0000 0.01718  0.21214  0.31683  Biso   1.000  C
  H394     1.0000 0.93669  0.16455  0.39204  Biso   1.000  H
  N49      1.0000 0.87466  0.12237  0.44723  Biso   1.000  N
  H395     1.0000 0.94605  0.13241  0.47514  Biso   1.000  H
  H396     1.0000 0.94607  0.13247  0.47514  Biso   1.000  H
  C447     1.0000 0.23819  0.05604  0.26979  Biso   1.000  C
  C448     1.0000 0.17856  0.93562  0.26273  Biso   1.000  C
  C449     1.0000 0.17859  0.93567  0.26273  Biso   1.000  C
  C450     1.0000 0.90266  0.72683  0.47284  Biso   1.000  C
  C451     1.0000 0.99558  0.70293  0.48986  Biso   1.000  C
  H397     1.0000 0.96339  0.70386  0.44384  Biso   1.000  H
  C452     1.0000 0.00815  0.21281  0.28286  Biso   1.000  C
  C453     1.0000 0.00817  0.21286  0.28286  Biso   1.000  C
  C454     1.0000 0.82418  0.09734  0.47284  Biso   1.000  C
  C455     1.0000 0.24294  0.06438  0.23729  Biso   1.000  C
  H398     1.0000 0.25838  0.09544  0.28314  Biso   1.000  H
  C456     1.0000 0.18215  0.94396  0.23022  Biso   1.000  C
  H399     1.0000 0.15786  0.89056  0.27143  Biso   1.000  H
  N50      1.0000 0.87763  0.75232  0.44723  Biso   1.000  N
  H400     1.0000 0.90988  0.75526  0.49224  Biso   1.000  H
  C457     1.0000 0.84908  0.65204  0.47995  Biso   1.000  C
  C458     1.0000 0.94245  0.62861  0.49738  Biso   1.000  C
  C459     1.0000 0.94248  0.62866  0.49738  Biso   1.000  C
  H401     1.0000 0.00477  0.73131  0.50914  Biso   1.000  H
  H402     1.0000 0.03917  0.70556  0.48334  Biso   1.000  H
  H403     1.0000 0.00480  0.73136  0.50914  Biso   1.000  H
  C460     1.0000 0.94396  0.18212  0.26979  Biso   1.000  C
  C461     1.0000 0.94398  0.18217  0.26979  Biso   1.000  C
  C462     1.0000 0.06438  0.24294  0.26273  Biso   1.000  C
  C463     1.0000 0.76089  0.02936  0.46355  Biso   1.000  C
  H404     1.0000 0.84538  0.09013  0.49224  Biso   1.000  H
  C464     1.0000 0.80300  0.15096  0.47995  Biso   1.000  C
  C465     1.0000 0.21284  0.00819  0.21713  Biso   1.000  C
  H405     1.0000 0.26730  0.10944  0.22856  Biso   1.000  H
  H406     1.0000 0.26733  0.10950  0.22856  Biso   1.000  H
  H407     1.0000 0.16294  0.90456  0.21687  Biso   1.000  H
  C466     1.0000 0.86128  0.79723  0.45390  Biso   1.000  C
  H408     1.0000 0.80575  0.64942  0.48704  Biso   1.000  H
  H409     1.0000 0.83937  0.62423  0.46044  Biso   1.000  H
  C467     1.0000 0.87506  0.62264  0.50589  Biso   1.000  C
  H410     1.0000 0.80578  0.64947  0.48704  Biso   1.000  H
  H411     1.0000 0.95896  0.61213  0.51523  Biso   1.000  H
  H412     1.0000 0.93648  0.59936  0.47874  Biso   1.000  H
  C468     1.0000 0.93562  0.17856  0.23729  Biso   1.000  C
  H413     1.0000 0.90458  0.16296  0.28314  Biso   1.000  H
  C469     1.0000 0.05601  0.23815  0.23022  Biso   1.000  C
  C470     1.0000 0.05603  0.23820  0.23022  Biso   1.000  C
  H414     1.0000 0.10946  0.26735  0.27143  Biso   1.000  H
  N51      1.0000 0.78064  0.97760  0.45726  Biso   1.000  N
  C471     1.0000 0.70734  0.00443  0.48986  Biso   1.000  C
  H415     1.0000 0.74048  0.03662  0.44384  Biso   1.000  H
  H416     1.0000 0.74050  0.03667  0.44384  Biso   1.000  H
  H417     1.0000 0.84367  0.19422  0.48704  Biso   1.000  H
  H418     1.0000 0.78487  0.16064  0.46044  Biso   1.000  H
  C472     1.0000 0.74758  0.12495  0.50589  Biso   1.000  C
  H419     1.0000 0.84370  0.19427  0.48704  Biso   1.000  H
  C473     1.0000 0.21214  0.01715  0.18316  Biso   1.000  C
  C474     1.0000 0.21217  0.01720  0.18316  Biso   1.000  C
  C475     1.0000 0.83356  0.82546  0.43080  Biso   1.000  C
  H420     1.0000 0.86755  0.81361  0.47514  Biso   1.000  H
  H421     1.0000 0.86758  0.81366  0.47514  Biso   1.000  H
  H422     1.0000 0.84066  0.57366  0.50933  Biso   1.000  H
  H423     1.0000 0.88028  0.64762  0.52593  Biso   1.000  H
  H424     1.0000 0.88030  0.64767  0.52593  Biso   1.000  H
  C476     1.0000 0.99186  0.20467  0.21713  Biso   1.000  C
  H425     1.0000 0.89053  0.15786  0.22856  Biso   1.000  H
  H426     1.0000 0.09543  0.25839  0.21687  Biso   1.000  H
  C477     1.0000 0.77140  0.95385  0.42933  Biso   1.000  C
  H427     1.0000 0.72655  0.99521  0.50914  Biso   1.000  H
  H428     1.0000 0.66638  0.96086  0.48334  Biso   1.000  H
  H429     1.0000 0.72658  0.99526  0.50914  Biso   1.000  H
  C478     1.0000 0.68617  0.05753  0.49738  Biso   1.000  C
  H430     1.0000 0.73298  0.15935  0.50933  Biso   1.000  H
  H431     1.0000 0.76737  0.11974  0.52593  Biso   1.000  H
  C479     1.0000 0.20884  0.02446  0.15551  Biso   1.000  C
  C480     1.0000 0.81594  0.87371  0.44019  Biso   1.000  C
  C481     1.0000 0.82376  0.80532  0.39903  Biso   1.000  C
  C482     1.0000 0.81596  0.87377  0.44019  Biso   1.000  C
  C483     1.0000 0.82378  0.80537  0.39903  Biso   1.000  C
  C484     1.0000 0.98287  0.19499  0.18316  Biso   1.000  C
  C485     1.0000 0.78896  0.90173  0.41966  Biso   1.000  C
  H432     1.0000 0.75217  0.97044  0.41404  Biso   1.000  H
  H433     1.0000 0.65317  0.04105  0.51523  Biso   1.000  H
  H434     1.0000 0.66287  0.06355  0.47874  Biso   1.000  H
  C486     1.0000 0.20234  0.03466  0.12222  Biso   1.000  C
  H435     1.0000 0.82307  0.88834  0.46174  Biso   1.000  H
  C487     1.0000 0.79767  0.83236  0.37777  Biso   1.000  C
  H436     1.0000 0.83550  0.77215  0.39204  Biso   1.000  H
  C488     1.0000 0.97555  0.18438  0.15551  Biso   1.000  C
  C489     1.0000 0.77985  0.88103  0.38803  Biso   1.000  C
  C490     1.0000 0.17624  0.98156  0.10096  Biso   1.000  C
  C491     1.0000 0.22011  0.10115  0.11196  Biso   1.000  C
  C492     1.0000 0.22014  0.10120  0.11196  Biso   1.000  C
  C493     1.0000 0.79117  0.81562  0.34450  Biso   1.000  C
  C494     1.0000 0.79120  0.81567  0.34450  Biso   1.000  C
  C495     1.0000 0.96531  0.16764  0.12222  Biso   1.000  C
  C496     1.0000 0.96534  0.16769  0.12222  Biso   1.000  C
  H437     1.0000 0.76165  0.89993  0.37333  Biso   1.000  H
  C497     1.0000 0.16645  0.99186  0.06921  Biso   1.000  C
  H438     1.0000 0.16453  0.93665  0.10797  Biso   1.000  H
  H439     1.0000 0.16456  0.93670  0.10797  Biso   1.000  H
  H440     1.0000 0.23832  0.13829  0.12666  Biso   1.000  H
  C498     1.0000 0.21103  0.11279  0.08033  Biso   1.000  C
  C499     1.0000 0.78787  0.80501  0.31683  Biso   1.000  C
  C500     1.0000 0.78790  0.80506  0.31683  Biso   1.000  C
  C501     1.0000 0.01844  0.19468  0.10096  Biso   1.000  C
  C502     1.0000 0.89883  0.11897  0.11196  Biso   1.000  C
  C503     1.0000 0.18402  0.05779  0.05980  Biso   1.000  C
  C504     1.0000 0.13873  0.93598  0.04612  Biso   1.000  C
  C505     1.0000 0.22866  0.18248  0.07065  Biso   1.000  C
  C506     1.0000 0.78718  0.79533  0.28286  Biso   1.000  C
  C507     1.0000 0.00810  0.17454  0.06921  Biso   1.000  C
  C508     1.0000 0.00813  0.17460  0.06921  Biso   1.000  C
  H441     1.0000 0.06335  0.22785  0.10797  Biso   1.000  H
  H442     1.0000 0.06337  0.22790  0.10797  Biso   1.000  H
  C509     1.0000 0.88722  0.09827  0.08033  Biso   1.000  C
  H443     1.0000 0.86172  0.10007  0.12666  Biso   1.000  H
  H444     1.0000 0.17692  0.06525  0.03827  Biso   1.000  H
  H445     1.0000 0.17694  0.06531  0.03827  Biso   1.000  H
  N52      1.0000 0.12233  0.87464  0.05278  Biso   1.000  N
  H446     1.0000 0.13245  0.94608  0.02487  Biso   1.000  H
  N53      1.0000 0.12236  0.87469  0.05278  Biso   1.000  N
  H447     1.0000 0.24785  0.21827  0.08597  Biso   1.000  H
  N54      1.0000 0.21935  0.19695  0.04272  Biso   1.000  N
  N55      1.0000 0.21937  0.19700  0.04272  Biso   1.000  N
  C510     1.0000 0.81786  0.76185  0.26979  Biso   1.000  C
  C511     1.0000 0.75706  0.82144  0.26273  Biso   1.000  C
  C512     1.0000 0.06405  0.20277  0.04612  Biso   1.000  C
  C513     1.0000 0.94222  0.12629  0.05980  Biso   1.000  C
  C514     1.0000 0.81754  0.04615  0.07065  Biso   1.000  C
  C515     1.0000 0.81757  0.04620  0.07065  Biso   1.000  C
  C516     1.0000 0.09732  0.82417  0.02715  Biso   1.000  C
  C517     1.0000 0.23915  0.26849  0.03644  Biso   1.000  C
  C518     1.0000 0.82144  0.75706  0.23729  Biso   1.000  C
  H448     1.0000 0.83704  0.74161  0.28314  Biso   1.000  H
  H449     1.0000 0.83707  0.74166  0.28314  Biso   1.000  H
  C519     1.0000 0.76184  0.81788  0.23022  Biso   1.000  C
  H450     1.0000 0.73267  0.84214  0.27143  Biso   1.000  H
  N56      1.0000 0.12531  0.24768  0.05278  Biso   1.000  N
  N57      1.0000 0.12534  0.24773  0.05278  Biso   1.000  N
  H451     1.0000 0.05394  0.18639  0.02487  Biso   1.000  H
  H452     1.0000 0.93473  0.11166  0.03827  Biso   1.000  H
  N58      1.0000 0.80304  0.02240  0.04272  Biso   1.000  N
  H453     1.0000 0.78173  0.02956  0.08597  Biso   1.000  H
  H454     1.0000 0.09013  0.84539  0.00778  Biso   1.000  H
  C520     1.0000 0.15094  0.80295  0.02003  Biso   1.000  C
  C521     1.0000 0.02932  0.76087  0.03644  Biso   1.000  C
  C522     1.0000 0.15096  0.80300  0.02003  Biso   1.000  C
  C523     1.0000 0.17584  0.27317  0.02715  Biso   1.000  C
  C524     1.0000 0.29265  0.29707  0.01015  Biso   1.000  C
  H455     1.0000 0.25953  0.29614  0.05617  Biso   1.000  H
  H456     1.0000 0.25956  0.29619  0.05617  Biso   1.000  H
  C525     1.0000 0.79533  0.78719  0.21713  Biso   1.000  C
  H457     1.0000 0.84210  0.73265  0.22856  Biso   1.000  H
  H458     1.0000 0.84213  0.73270  0.22856  Biso   1.000  H
  H459     1.0000 0.74163  0.83704  0.21687  Biso   1.000  H
  H460     1.0000 0.74165  0.83710  0.21687  Biso   1.000  H
  C526     1.0000 0.73153  0.97064  0.03644  Biso   1.000  C
  C527     1.0000 0.73156  0.97069  0.03644  Biso   1.000  C
  C528     1.0000 0.12495  0.74758  0.99412  Biso   1.000  C
  H461     1.0000 0.19423  0.84369  0.01297  Biso   1.000  H
  H462     1.0000 0.16063  0.78487  0.03957  Biso   1.000  H
  N59      1.0000 0.97761  0.78065  0.04272  Biso   1.000  N
  C529     1.0000 0.00444  0.70736  0.01015  Biso   1.000  C
  H463     1.0000 0.03665  0.74048  0.05617  Biso   1.000  H
  H464     1.0000 0.15462  0.24474  0.00778  Biso   1.000  H
  C530     1.0000 0.19704  0.34796  0.02003  Biso   1.000  C
  H465     1.0000 0.15465  0.24479  0.00778  Biso   1.000  H
  C531     1.0000 0.19706  0.34801  0.02003  Biso   1.000  C
  C532     1.0000 0.31384  0.37139  0.00261  Biso   1.000  C
  H466     1.0000 0.27346  0.26869  0.99087  Biso   1.000  H
  H467     1.0000 0.33362  0.29444  0.01667  Biso   1.000  H
  H468     1.0000 0.33364  0.29449  0.01667  Biso   1.000  H
  C533     1.0000 0.80504  0.78786  0.18316  Biso   1.000  C
  C534     1.0000 0.72684  0.90266  0.02715  Biso   1.000  C
  C535     1.0000 0.70291  0.99557  0.01015  Biso   1.000  C
  H469     1.0000 0.70386  0.96338  0.05617  Biso   1.000  H
  H470     1.0000 0.15934  0.73296  0.99066  Biso   1.000  H
  H471     1.0000 0.11972  0.76736  0.97406  Biso   1.000  H
  C536     1.0000 0.05755  0.68619  0.00261  Biso   1.000  C
  C537     1.0000 0.95384  0.77138  0.07065  Biso   1.000  C
  H472     1.0000 0.99522  0.72657  0.99087  Biso   1.000  H
  H473     1.0000 0.96084  0.66636  0.01667  Biso   1.000  H
  H474     1.0000 0.15633  0.35058  0.01297  Biso   1.000  H
  H475     1.0000 0.21514  0.37577  0.03957  Biso   1.000  H
  C538     1.0000 0.25242  0.37736  0.99412  Biso   1.000  C
  H476     1.0000 0.34683  0.38787  0.98478  Biso   1.000  H
  H477     1.0000 0.33712  0.40064  0.02127  Biso   1.000  H
  H478     1.0000 0.33714  0.40069  0.02127  Biso   1.000  H
  C539     1.0000 0.81565  0.79115  0.15551  Biso   1.000  C
  C540     1.0000 0.81567  0.79121  0.15551  Biso   1.000  C
  N60      1.0000 0.75228  0.87763  0.05278  Biso   1.000  N
  H479     1.0000 0.75525  0.90987  0.00778  Biso   1.000  H
  C541     1.0000 0.65204  0.84904  0.02003  Biso   1.000  C
  C542     1.0000 0.65207  0.84910  0.02003  Biso   1.000  C
  C543     1.0000 0.62864  0.94247  0.00261  Biso   1.000  C
  H480     1.0000 0.73134  0.00479  0.99087  Biso   1.000  H
  H481     1.0000 0.70552  0.03914  0.01667  Biso   1.000  H
  H482     1.0000 0.70555  0.03919  0.01667  Biso   1.000  H
  H483     1.0000 0.04104  0.65318  0.98478  Biso   1.000  H
  H484     1.0000 0.06354  0.66286  0.02127  Biso   1.000  H
  C544     1.0000 0.90177  0.78899  0.08033  Biso   1.000  C
  H485     1.0000 0.97042  0.75217  0.08597  Biso   1.000  H
  H486     1.0000 0.26701  0.42634  0.99066  Biso   1.000  H
  H487     1.0000 0.23266  0.35238  0.97406  Biso   1.000  H
  H488     1.0000 0.26703  0.42639  0.99066  Biso   1.000  H
  C545     1.0000 0.83232  0.79764  0.12222  Biso   1.000  C
  C546     1.0000 0.83234  0.79770  0.12222  Biso   1.000  C
  C547     1.0000 0.79722  0.86125  0.04612  Biso   1.000  C
  C548     1.0000 0.79724  0.86130  0.04612  Biso   1.000  C
  C549     1.0000 0.62263  0.87505  0.99412  Biso   1.000  C
  C550     1.0000 0.62266  0.87510  0.99412  Biso   1.000  C
  H489     1.0000 0.64946  0.80578  0.01297  Biso   1.000  H
  H490     1.0000 0.62423  0.83936  0.03957  Biso   1.000  H
  H491     1.0000 0.61213  0.95895  0.98478  Biso   1.000  H
  H492     1.0000 0.61215  0.95900  0.98478  Biso   1.000  H
  H493     1.0000 0.59931  0.93645  0.02127  Biso   1.000  H
  H494     1.0000 0.59934  0.93650  0.02127  Biso   1.000  H
  C551     1.0000 0.88102  0.77988  0.11196  Biso   1.000  C
  C552     1.0000 0.87373  0.81598  0.05980  Biso   1.000  C
  C553     1.0000 0.80532  0.82376  0.10096  Biso   1.000  C
  C554     1.0000 0.82542  0.83354  0.06921  Biso   1.000  C
  C555     1.0000 0.82545  0.83359  0.06921  Biso   1.000  C
  H495     1.0000 0.81363  0.86759  0.02487  Biso   1.000  H
  H496     1.0000 0.57363  0.84065  0.99066  Biso   1.000  H
  H497     1.0000 0.64762  0.88026  0.97406  Biso   1.000  H
  H498     1.0000 0.57365  0.84070  0.99066  Biso   1.000  H
  H499     1.0000 0.64765  0.88031  0.97406  Biso   1.000  H
  H500     1.0000 0.89991  0.76164  0.12666  Biso   1.000  H
  H501     1.0000 0.89994  0.76169  0.12666  Biso   1.000  H
  H502     1.0000 0.88835  0.82309  0.03827  Biso   1.000  H
  H503     1.0000 0.77214  0.83545  0.10797  Biso   1.000  H
  H504     1.0000 0.77217  0.83550  0.10797  Biso   1.000  H
  C556     1.0000 0.34799  0.19705  0.47995  Biso   1.000  C
  C557     1.0000 0.27315  0.17583  0.47284  Biso   1.000  C
  H505     1.0000 0.37576  0.21513  0.46044  Biso   1.000  H
  H506     1.0000 0.35055  0.15631  0.48704  Biso   1.000  H
  C558     1.0000 0.37737  0.25242  0.50589  Biso   1.000  C
  H507     1.0000 0.35057  0.15636  0.48704  Biso   1.000  H
  C559     1.0000 0.37739  0.25247  0.50589  Biso   1.000  C
  N61      1.0000 0.24769  0.12536  0.44723  Biso   1.000  N
  C560     1.0000 0.26845  0.23913  0.46355  Biso   1.000  C
  H508     1.0000 0.24475  0.15461  0.49224  Biso   1.000  H
  H509     1.0000 0.24477  0.15466  0.49224  Biso   1.000  H
  H510     1.0000 0.42639  0.26704  0.50933  Biso   1.000  H
  H511     1.0000 0.35236  0.23264  0.52593  Biso   1.000  H
  C561     1.0000 0.37136  0.31381  0.49738  Biso   1.000  C
  C562     1.0000 0.37138  0.31386  0.49738  Biso   1.000  C
  C563     1.0000 0.20275  0.06402  0.45390  Biso   1.000  C
  C564     1.0000 0.20278  0.06407  0.45390  Biso   1.000  C
  C565     1.0000 0.29708  0.29264  0.48986  Biso   1.000  C
  H512     1.0000 0.29618  0.25952  0.44384  Biso   1.000  H
  N62      1.0000 0.19696  0.21935  0.45726  Biso   1.000  N
  N63      1.0000 0.19699  0.21940  0.45726  Biso   1.000  N
  H513     1.0000 0.40068  0.33714  0.47874  Biso   1.000  H
  H514     1.0000 0.38786  0.34682  0.51523  Biso   1.000  H
  H515     1.0000 0.38789  0.34687  0.51523  Biso   1.000  H
  C566     1.0000 0.17459  0.00814  0.43080  Biso   1.000  C
  H516     1.0000 0.18637  0.05392  0.47514  Biso   1.000  H
  H517     1.0000 0.26865  0.27343  0.50914  Biso   1.000  H
  H518     1.0000 0.29447  0.33364  0.48334  Biso   1.000  H
  C567     1.0000 0.18246  0.22862  0.42933  Biso   1.000  C
  C568     1.0000 0.18249  0.22867  0.42933  Biso   1.000  C
  C569     1.0000 0.19468  0.01844  0.39903  Biso   1.000  C
  C570     1.0000 0.12624  0.94221  0.44019  Biso   1.000  C
  C571     1.0000 0.12626  0.94226  0.44019  Biso   1.000  C
  H519     1.0000 0.21825  0.24783  0.41404  Biso   1.000  H
  C572     1.0000 0.11277  0.21101  0.41966  Biso   1.000  C
  C573     1.0000 0.11280  0.21106  0.41966  Biso   1.000  C
  C574     1.0000 0.16768  0.96534  0.37777  Biso   1.000  C
  H520     1.0000 0.22788  0.06335  0.39204  Biso   1.000  H
  C575     1.0000 0.09824  0.88721  0.41966  Biso   1.000  C
  C576     1.0000 0.09827  0.88726  0.41966  Biso   1.000  C
  H521     1.0000 0.11166  0.93475  0.46174  Biso   1.000  H
  C577     1.0000 0.10114  0.22012  0.38803  Biso   1.000  C
  C578     1.0000 0.05776  0.18402  0.44019  Biso   1.000  C
  C579     1.0000 0.05778  0.18407  0.44019  Biso   1.000  C
  C580     1.0000 0.18438  0.97554  0.34450  Biso   1.000  C
  C581     1.0000 0.11896  0.89885  0.38803  Biso   1.000  C
  C582     1.0000 0.04618  0.81752  0.42933  Biso   1.000  C
  C583     1.0000 0.03467  0.20236  0.37777  Biso   1.000  C
  H522     1.0000 0.13827  0.23836  0.37333  Biso   1.000  H
  C584     1.0000 0.99188  0.16646  0.43080  Biso   1.000  C
  H523     1.0000 0.06526  0.17691  0.46174  Biso   1.000  H
  H524     1.0000 0.06529  0.17696  0.46174  Biso   1.000  H
  C585     1.0000 0.19499  0.98285  0.31683  Biso   1.000  C
  H525     1.0000 0.10004  0.86171  0.37333  Biso   1.000  H
  H526     1.0000 0.10006  0.86177  0.37333  Biso   1.000  H
  N64      1.0000 0.02240  0.80305  0.45726  Biso   1.000  N
  H527     1.0000 0.02958  0.78173  0.41404  Biso   1.000  H
  C586     1.0000 0.02449  0.20885  0.34450  Biso   1.000  C
  C587     1.0000 0.98157  0.17624  0.39903  Biso   1.000  C
  C588     1.0000 0.93597  0.13875  0.45390  Biso   1.000  C
  C589     1.0000 0.20465  0.99181  0.28286  Biso   1.000  C
  C590     1.0000 0.20467  0.99186  0.28286  Biso   1.000  C
  C591     1.0000 0.97066  0.73151  0.46355  Biso   1.000  C
  C592     1.0000 0.97069  0.73157  0.46355  Biso   1.000  C
  C593     1.0000 0.01718  0.21214  0.31683  Biso   1.000  C
  H528     1.0000 0.93669  0.16455  0.39204  Biso   1.000  H
  N65      1.0000 0.87466  0.12237  0.44723  Biso   1.000  N
  H529     1.0000 0.94605  0.13241  0.47514  Biso   1.000  H
  H530     1.0000 0.94607  0.13247  0.47514  Biso   1.000  H
  C594     1.0000 0.23819  0.05604  0.26979  Biso   1.000  C
  C595     1.0000 0.17856  0.93562  0.26273  Biso   1.000  C
  C596     1.0000 0.17859  0.93567  0.26273  Biso   1.000  C
  C597     1.0000 0.90266  0.72683  0.47284  Biso   1.000  C
  C598     1.0000 0.99558  0.70293  0.48986  Biso   1.000  C
  H531     1.0000 0.96339  0.70386  0.44384  Biso   1.000  H
  C599     1.0000 0.00815  0.21281  0.28286  Biso   1.000  C
  C600     1.0000 0.00817  0.21286  0.28286  Biso   1.000  C
  C601     1.0000 0.82418  0.09734  0.47284  Biso   1.000  C
  C602     1.0000 0.24294  0.06438  0.23729  Biso   1.000  C
  H532     1.0000 0.25838  0.09544  0.28314  Biso   1.000  H
  C603     1.0000 0.18215  0.94396  0.23022  Biso   1.000  C
  H533     1.0000 0.15786  0.89056  0.27143  Biso   1.000  H
  N66      1.0000 0.87763  0.75232  0.44723  Biso   1.000  N
  H534     1.0000 0.90988  0.75526  0.49224  Biso   1.000  H
  C604     1.0000 0.84908  0.65204  0.47995  Biso   1.000  C
  C605     1.0000 0.94245  0.62861  0.49738  Biso   1.000  C
  C606     1.0000 0.94248  0.62866  0.49738  Biso   1.000  C
  H535     1.0000 0.00477  0.73131  0.50914  Biso   1.000  H
  H536     1.0000 0.03917  0.70556  0.48334  Biso   1.000  H
  H537     1.0000 0.00480  0.73136  0.50914  Biso   1.000  H
  C607     1.0000 0.94396  0.18212  0.26979  Biso   1.000  C
  C608     1.0000 0.94398  0.18217  0.26979  Biso   1.000  C
  C609     1.0000 0.06438  0.24294  0.26273  Biso   1.000  C
  C610     1.0000 0.76089  0.02936  0.46355  Biso   1.000  C
  H538     1.0000 0.84538  0.09013  0.49224  Biso   1.000  H
  C611     1.0000 0.80300  0.15096  0.47995  Biso   1.000  C
  C612     1.0000 0.21284  0.00819  0.21713  Biso   1.000  C
  H539     1.0000 0.26730  0.10944  0.22856  Biso   1.000  H
  H540     1.0000 0.26733  0.10950  0.22856  Biso   1.000  H
  H541     1.0000 0.16294  0.90456  0.21687  Biso   1.000  H
  C613     1.0000 0.86128  0.79723  0.45390  Biso   1.000  C
  H542     1.0000 0.80575  0.64942  0.48704  Biso   1.000  H
  H543     1.0000 0.83937  0.62423  0.46044  Biso   1.000  H
  C614     1.0000 0.87506  0.62264  0.50589  Biso   1.000  C
  H544     1.0000 0.80578  0.64947  0.48704  Biso   1.000  H
  H545     1.0000 0.95896  0.61213  0.51523  Biso   1.000  H
  H546     1.0000 0.93648  0.59936  0.47874  Biso   1.000  H
  C615     1.0000 0.93562  0.17856  0.23729  Biso   1.000  C
  H547     1.0000 0.90458  0.16296  0.28314  Biso   1.000  H
  C616     1.0000 0.05601  0.23815  0.23022  Biso   1.000  C
  C617     1.0000 0.05603  0.23820  0.23022  Biso   1.000  C
  H548     1.0000 0.10946  0.26735  0.27143  Biso   1.000  H
  N67      1.0000 0.78064  0.97760  0.45726  Biso   1.000  N
  C618     1.0000 0.70734  0.00443  0.48986  Biso   1.000  C
  H549     1.0000 0.74048  0.03662  0.44384  Biso   1.000  H
  H550     1.0000 0.74050  0.03667  0.44384  Biso   1.000  H
  H551     1.0000 0.84367  0.19422  0.48704  Biso   1.000  H
  H552     1.0000 0.78487  0.16064  0.46044  Biso   1.000  H
  C619     1.0000 0.74758  0.12495  0.50589  Biso   1.000  C
  H553     1.0000 0.84370  0.19427  0.48704  Biso   1.000  H
  C620     1.0000 0.21214  0.01715  0.18316  Biso   1.000  C
  C621     1.0000 0.21217  0.01720  0.18316  Biso   1.000  C
  C622     1.0000 0.83356  0.82546  0.43080  Biso   1.000  C
  H554     1.0000 0.86755  0.81361  0.47514  Biso   1.000  H
  H555     1.0000 0.86758  0.81366  0.47514  Biso   1.000  H
  H556     1.0000 0.84066  0.57366  0.50933  Biso   1.000  H
  H557     1.0000 0.88028  0.64762  0.52593  Biso   1.000  H
  H558     1.0000 0.88030  0.64767  0.52593  Biso   1.000  H
  C623     1.0000 0.99186  0.20467  0.21713  Biso   1.000  C
  H559     1.0000 0.89053  0.15786  0.22856  Biso   1.000  H
  H560     1.0000 0.09543  0.25839  0.21687  Biso   1.000  H
  C624     1.0000 0.77140  0.95385  0.42933  Biso   1.000  C
  H561     1.0000 0.72655  0.99521  0.50914  Biso   1.000  H
  H562     1.0000 0.66638  0.96086  0.48334  Biso   1.000  H
  H563     1.0000 0.72658  0.99526  0.50914  Biso   1.000  H
  C625     1.0000 0.68617  0.05753  0.49738  Biso   1.000  C
  H564     1.0000 0.73298  0.15935  0.50933  Biso   1.000  H
  H565     1.0000 0.76737  0.11974  0.52593  Biso   1.000  H
  C626     1.0000 0.20884  0.02446  0.15551  Biso   1.000  C
  C627     1.0000 0.81594  0.87371  0.44019  Biso   1.000  C
  C628     1.0000 0.82376  0.80532  0.39903  Biso   1.000  C
  C629     1.0000 0.81596  0.87377  0.44019  Biso   1.000  C
  C630     1.0000 0.82378  0.80537  0.39903  Biso   1.000  C
  C631     1.0000 0.98287  0.19499  0.18316  Biso   1.000  C
  C632     1.0000 0.78896  0.90173  0.41966  Biso   1.000  C
  H566     1.0000 0.75217  0.97044  0.41404  Biso   1.000  H
  H567     1.0000 0.65317  0.04105  0.51523  Biso   1.000  H
  H568     1.0000 0.66287  0.06355  0.47874  Biso   1.000  H
  C633     1.0000 0.20234  0.03466  0.12222  Biso   1.000  C
  H569     1.0000 0.82307  0.88834  0.46174  Biso   1.000  H
  C634     1.0000 0.79767  0.83236  0.37777  Biso   1.000  C
  H570     1.0000 0.83550  0.77215  0.39204  Biso   1.000  H
  C635     1.0000 0.97555  0.18438  0.15551  Biso   1.000  C
  C636     1.0000 0.77985  0.88103  0.38803  Biso   1.000  C
  C637     1.0000 0.17624  0.98156  0.10096  Biso   1.000  C
  C638     1.0000 0.22011  0.10115  0.11196  Biso   1.000  C
  C639     1.0000 0.22014  0.10120  0.11196  Biso   1.000  C
  C640     1.0000 0.79117  0.81562  0.34450  Biso   1.000  C
  C641     1.0000 0.79120  0.81567  0.34450  Biso   1.000  C
  C642     1.0000 0.96531  0.16764  0.12222  Biso   1.000  C
  C643     1.0000 0.96534  0.16769  0.12222  Biso   1.000  C
  H571     1.0000 0.76165  0.89993  0.37333  Biso   1.000  H
  C644     1.0000 0.16645  0.99186  0.06921  Biso   1.000  C
  H572     1.0000 0.16453  0.93665  0.10797  Biso   1.000  H
  H573     1.0000 0.16456  0.93670  0.10797  Biso   1.000  H
  H574     1.0000 0.23832  0.13829  0.12666  Biso   1.000  H
  C645     1.0000 0.21103  0.11279  0.08033  Biso   1.000  C
  C646     1.0000 0.78787  0.80501  0.31683  Biso   1.000  C
  C647     1.0000 0.78790  0.80506  0.31683  Biso   1.000  C
  C648     1.0000 0.01844  0.19468  0.10096  Biso   1.000  C
  C649     1.0000 0.89883  0.11897  0.11196  Biso   1.000  C
  C650     1.0000 0.18402  0.05779  0.05980  Biso   1.000  C
  C651     1.0000 0.13873  0.93598  0.04612  Biso   1.000  C
  C652     1.0000 0.22866  0.18248  0.07065  Biso   1.000  C
  C653     1.0000 0.78718  0.79533  0.28286  Biso   1.000  C
  C654     1.0000 0.00810  0.17454  0.06921  Biso   1.000  C
  C655     1.0000 0.00813  0.17460  0.06921  Biso   1.000  C
  H575     1.0000 0.06335  0.22785  0.10797  Biso   1.000  H
  H576     1.0000 0.06337  0.22790  0.10797  Biso   1.000  H
  C656     1.0000 0.88722  0.09827  0.08033  Biso   1.000  C
  H577     1.0000 0.86172  0.10007  0.12666  Biso   1.000  H
  H578     1.0000 0.17692  0.06525  0.03827  Biso   1.000  H
  H579     1.0000 0.17694  0.06531  0.03827  Biso   1.000  H
  N68      1.0000 0.12233  0.87464  0.05278  Biso   1.000  N
  H580     1.0000 0.13245  0.94608  0.02487  Biso   1.000  H
  N69      1.0000 0.12236  0.87469  0.05278  Biso   1.000  N
  H581     1.0000 0.24785  0.21827  0.08597  Biso   1.000  H
  N70      1.0000 0.21935  0.19695  0.04272  Biso   1.000  N
  N71      1.0000 0.21937  0.19700  0.04272  Biso   1.000  N
  C657     1.0000 0.81786  0.76185  0.26979  Biso   1.000  C
  C658     1.0000 0.75706  0.82144  0.26273  Biso   1.000  C
  C659     1.0000 0.06405  0.20277  0.04612  Biso   1.000  C
  C660     1.0000 0.94222  0.12629  0.05980  Biso   1.000  C
  C661     1.0000 0.81754  0.04615  0.07065  Biso   1.000  C
  C662     1.0000 0.81757  0.04620  0.07065  Biso   1.000  C
  C663     1.0000 0.09732  0.82417  0.02715  Biso   1.000  C
  C664     1.0000 0.23915  0.26849  0.03644  Biso   1.000  C
  C665     1.0000 0.82144  0.75706  0.23729  Biso   1.000  C
  H582     1.0000 0.83704  0.74161  0.28314  Biso   1.000  H
  H583     1.0000 0.83707  0.74166  0.28314  Biso   1.000  H
  C666     1.0000 0.76184  0.81788  0.23022  Biso   1.000  C
  H584     1.0000 0.73267  0.84214  0.27143  Biso   1.000  H
  N72      1.0000 0.12531  0.24768  0.05278  Biso   1.000  N
  N73      1.0000 0.12534  0.24773  0.05278  Biso   1.000  N
  H585     1.0000 0.05394  0.18639  0.02487  Biso   1.000  H
  H586     1.0000 0.93473  0.11166  0.03827  Biso   1.000  H
  N74      1.0000 0.80304  0.02240  0.04272  Biso   1.000  N
  H587     1.0000 0.78173  0.02956  0.08597  Biso   1.000  H
  H588     1.0000 0.09013  0.84539  0.00778  Biso   1.000  H
  C667     1.0000 0.15094  0.80295  0.02003  Biso   1.000  C
  C668     1.0000 0.02932  0.76087  0.03644  Biso   1.000  C
  C669     1.0000 0.15096  0.80300  0.02003  Biso   1.000  C
  C670     1.0000 0.17584  0.27317  0.02715  Biso   1.000  C
  C671     1.0000 0.29265  0.29707  0.01015  Biso   1.000  C
  H589     1.0000 0.25953  0.29614  0.05617  Biso   1.000  H
  H590     1.0000 0.25956  0.29619  0.05617  Biso   1.000  H
  C672     1.0000 0.79533  0.78719  0.21713  Biso   1.000  C
  H591     1.0000 0.84210  0.73265  0.22856  Biso   1.000  H
  H592     1.0000 0.84213  0.73270  0.22856  Biso   1.000  H
  H593     1.0000 0.74163  0.83704  0.21687  Biso   1.000  H
  H594     1.0000 0.74165  0.83710  0.21687  Biso   1.000  H
  C673     1.0000 0.73153  0.97064  0.03644  Biso   1.000  C
  C674     1.0000 0.73156  0.97069  0.03644  Biso   1.000  C
  C675     1.0000 0.12495  0.74758  0.99412  Biso   1.000  C
  H595     1.0000 0.19423  0.84369  0.01297  Biso   1.000  H
  H596     1.0000 0.16063  0.78487  0.03957  Biso   1.000  H
  N75      1.0000 0.97761  0.78065  0.04272  Biso   1.000  N
  C676     1.0000 0.00444  0.70736  0.01015  Biso   1.000  C
  H597     1.0000 0.03665  0.74048  0.05617  Biso   1.000  H
  H598     1.0000 0.15462  0.24474  0.00778  Biso   1.000  H
  C677     1.0000 0.19704  0.34796  0.02003  Biso   1.000  C
  H599     1.0000 0.15465  0.24479  0.00778  Biso   1.000  H
  C678     1.0000 0.19706  0.34801  0.02003  Biso   1.000  C
  C679     1.0000 0.31384  0.37139  0.00261  Biso   1.000  C
  H600     1.0000 0.27346  0.26869  0.99087  Biso   1.000  H
  H601     1.0000 0.33362  0.29444  0.01667  Biso   1.000  H
  H602     1.0000 0.33364  0.29449  0.01667  Biso   1.000  H
  C680     1.0000 0.80504  0.78786  0.18316  Biso   1.000  C
  C681     1.0000 0.72684  0.90266  0.02715  Biso   1.000  C
  C682     1.0000 0.70291  0.99557  0.01015  Biso   1.000  C
  H603     1.0000 0.70386  0.96338  0.05617  Biso   1.000  H
  H604     1.0000 0.15934  0.73296  0.99066  Biso   1.000  H
  H605     1.0000 0.11972  0.76736  0.97406  Biso   1.000  H
  C683     1.0000 0.05755  0.68619  0.00261  Biso   1.000  C
  C684     1.0000 0.95384  0.77138  0.07065  Biso   1.000  C
  H606     1.0000 0.99522  0.72657  0.99087  Biso   1.000  H
  H607     1.0000 0.96084  0.66636  0.01667  Biso   1.000  H
  H608     1.0000 0.15633  0.35058  0.01297  Biso   1.000  H
  H609     1.0000 0.21514  0.37577  0.03957  Biso   1.000  H
  C685     1.0000 0.25242  0.37736  0.99412  Biso   1.000  C
  H610     1.0000 0.34683  0.38787  0.98478  Biso   1.000  H
  H611     1.0000 0.33712  0.40064  0.02127  Biso   1.000  H
  H612     1.0000 0.33714  0.40069  0.02127  Biso   1.000  H
  C686     1.0000 0.81565  0.79115  0.15551  Biso   1.000  C
  C687     1.0000 0.81567  0.79121  0.15551  Biso   1.000  C
  N76      1.0000 0.75228  0.87763  0.05278  Biso   1.000  N
  H613     1.0000 0.75525  0.90987  0.00778  Biso   1.000  H
  C688     1.0000 0.65204  0.84904  0.02003  Biso   1.000  C
  C689     1.0000 0.65207  0.84910  0.02003  Biso   1.000  C
  C690     1.0000 0.62864  0.94247  0.00261  Biso   1.000  C
  H614     1.0000 0.73134  0.00479  0.99087  Biso   1.000  H
  H615     1.0000 0.70552  0.03914  0.01667  Biso   1.000  H
  H616     1.0000 0.70555  0.03919  0.01667  Biso   1.000  H
  H617     1.0000 0.04104  0.65318  0.98478  Biso   1.000  H
  H618     1.0000 0.06354  0.66286  0.02127  Biso   1.000  H
  C691     1.0000 0.90177  0.78899  0.08033  Biso   1.000  C
  H619     1.0000 0.97042  0.75217  0.08597  Biso   1.000  H
  H620     1.0000 0.26701  0.42634  0.99066  Biso   1.000  H
  H621     1.0000 0.23266  0.35238  0.97406  Biso   1.000  H
  H622     1.0000 0.26703  0.42639  0.99066  Biso   1.000  H
  C692     1.0000 0.83232  0.79764  0.12222  Biso   1.000  C
  C693     1.0000 0.83234  0.79770  0.12222  Biso   1.000  C
  C694     1.0000 0.79722  0.86125  0.04612  Biso   1.000  C
  C695     1.0000 0.79724  0.86130  0.04612  Biso   1.000  C
  C696     1.0000 0.62263  0.87505  0.99412  Biso   1.000  C
  C697     1.0000 0.62266  0.87510  0.99412  Biso   1.000  C
  H623     1.0000 0.64946  0.80578  0.01297  Biso   1.000  H
  H624     1.0000 0.62423  0.83936  0.03957  Biso   1.000  H
  H625     1.0000 0.61213  0.95895  0.98478  Biso   1.000  H
  H626     1.0000 0.61215  0.95900  0.98478  Biso   1.000  H
  H627     1.0000 0.59931  0.93645  0.02127  Biso   1.000  H
  H628     1.0000 0.59934  0.93650  0.02127  Biso   1.000  H
  C698     1.0000 0.88102  0.77988  0.11196  Biso   1.000  C
  C699     1.0000 0.87373  0.81598  0.05980  Biso   1.000  C
  C700     1.0000 0.80532  0.82376  0.10096  Biso   1.000  C
  C701     1.0000 0.82542  0.83354  0.06921  Biso   1.000  C
  C702     1.0000 0.82545  0.83359  0.06921  Biso   1.000  C
  H629     1.0000 0.81363  0.86759  0.02487  Biso   1.000  H
  H630     1.0000 0.57363  0.84065  0.99066  Biso   1.000  H
  H631     1.0000 0.64762  0.88026  0.97406  Biso   1.000  H
  H632     1.0000 0.57365  0.84070  0.99066  Biso   1.000  H
  H633     1.0000 0.64765  0.88031  0.97406  Biso   1.000  H
  H634     1.0000 0.89991  0.76164  0.12666  Biso   1.000  H
  H635     1.0000 0.89994  0.76169  0.12666  Biso   1.000  H
  H636     1.0000 0.88835  0.82309  0.03827  Biso   1.000  H
  H637     1.0000 0.77214  0.83545  0.10797  Biso   1.000  H
  H638     1.0000 0.77217  0.83550  0.10797  Biso   1.000  H
  C703     1.0000 0.41424  0.95596  0.33921  Biso   1.000  C
  C704     1.0000 0.46963  0.98537  0.31330  Biso   1.000  C
  C705     1.0000 0.35285  0.96199  0.33073  Biso   1.000  C
  H639     1.0000 0.39966  0.90699  0.34267  Biso   1.000  H
  H640     1.0000 0.43400  0.98094  0.35927  Biso   1.000  H
  C706     1.0000 0.49083  0.06016  0.30619  Biso   1.000  C
  H641     1.0000 0.51033  0.98275  0.32036  Biso   1.000  H
  H642     1.0000 0.45153  0.95756  0.29376  Biso   1.000  H
  C707     1.0000 0.37402  0.03626  0.32319  Biso   1.000  C
  H643     1.0000 0.31983  0.94546  0.34855  Biso   1.000  H
  H644     1.0000 0.32955  0.93269  0.31207  Biso   1.000  H
  C708     1.0000 0.42751  0.06484  0.29689  Biso   1.000  C
  N77      1.0000 0.54135  0.08565  0.28056  Biso   1.000  N
  H645     1.0000 0.51204  0.08859  0.32556  Biso   1.000  H
  H646     1.0000 0.39323  0.06469  0.34246  Biso   1.000  H
  H647     1.0000 0.33305  0.03888  0.31667  Biso   1.000  H
  N78      1.0000 0.44732  0.13638  0.29061  Biso   1.000  N
  H648     1.0000 0.40713  0.03719  0.27717  Biso   1.000  H
  C709     1.0000 0.60261  0.13056  0.28722  Biso   1.000  C
  C710     1.0000 0.43800  0.15085  0.26268  Biso   1.000  C
  C711     1.0000 0.65856  0.15878  0.26412  Biso   1.000  C
  H649     1.0000 0.61275  0.14699  0.30846  Biso   1.000  H
  C712     1.0000 0.45566  0.22059  0.25301  Biso   1.000  C
  H650     1.0000 0.41881  0.11506  0.24736  Biso   1.000  H
  C713     1.0000 0.72444  0.20704  0.27354  Biso   1.000  C
  C714     1.0000 0.64823  0.13865  0.23238  Biso   1.000  C
  C715     1.0000 0.44655  0.23218  0.22138  Biso   1.000  C
  C716     1.0000 0.48264  0.27554  0.27354  Biso   1.000  C
  C717     1.0000 0.77944  0.23506  0.25301  Biso   1.000  C
  H651     1.0000 0.73193  0.22167  0.29507  Biso   1.000  H
  C718     1.0000 0.70135  0.16569  0.21111  Biso   1.000  C
  H652     1.0000 0.60332  0.10548  0.22536  Biso   1.000  H
  C719     1.0000 0.46432  0.29867  0.21111  Biso   1.000  C
  H653     1.0000 0.42834  0.19504  0.20668  Biso   1.000  H
  C720     1.0000 0.50022  0.34147  0.26412  Biso   1.000  C
  H654     1.0000 0.48975  0.26807  0.29507  Biso   1.000  H
  C721     1.0000 0.84912  0.28718  0.26268  Biso   1.000  C
  C722     1.0000 0.76784  0.21436  0.22138  Biso   1.000  C
  C723     1.0000 0.69111  0.14895  0.17782  Biso   1.000  C
  C724     1.0000 0.45782  0.30886  0.17782  Biso   1.000  C
  C725     1.0000 0.49042  0.35177  0.23238  Biso   1.000  C
  C726     1.0000 0.52793  0.39735  0.28722  Biso   1.000  C
  N79      1.0000 0.86362  0.31092  0.29061  Biso   1.000  N
  H655     1.0000 0.88493  0.30377  0.24736  Biso   1.000  H
  H656     1.0000 0.80494  0.23326  0.20668  Biso   1.000  H
  C727     1.0000 0.68382  0.13839  0.15018  Biso   1.000  C
  C728     1.0000 0.45452  0.31618  0.15018  Biso   1.000  C
  H657     1.0000 0.50213  0.39668  0.22536  Biso   1.000  H
  N80      1.0000 0.54433  0.45869  0.28056  Biso   1.000  N
  H658     1.0000 0.53421  0.38725  0.30846  Biso   1.000  H
  C729     1.0000 0.93513  0.36269  0.29689  Biso   1.000  C
  C730     1.0000 0.67481  0.12865  0.11620  Biso   1.000  C
  C731     1.0000 0.45385  0.32519  0.11620  Biso   1.000  C
  C732     1.0000 0.56934  0.50916  0.30619  Biso   1.000  C
  C733     1.0000 0.93982  0.43067  0.30619  Biso   1.000  C
  C734     1.0000 0.96375  0.33776  0.32319  Biso   1.000  C
  H659     1.0000 0.96281  0.36995  0.27717  Biso   1.000  H
  C735     1.0000 0.73104  0.15477  0.09605  Biso   1.000  C
  C736     1.0000 0.61066  0.09518  0.10311  Biso   1.000  C
  C737     1.0000 0.42373  0.26895  0.09605  Biso   1.000  C
  C738     1.0000 0.48451  0.38936  0.10311  Biso   1.000  C
  H660     1.0000 0.57656  0.48799  0.32556  Biso   1.000  H
  C739     1.0000 0.51572  0.53038  0.31330  Biso   1.000  C
  C740     1.0000 0.63734  0.57246  0.29689  Biso   1.000  C
  N81      1.0000 0.91438  0.45570  0.28056  Biso   1.000  N
  H661     1.0000 0.91142  0.42346  0.32556  Biso   1.000  H
  C741     1.0000 0.01462  0.48428  0.31330  Biso   1.000  C
  H662     1.0000 0.93535  0.32859  0.34246  Biso   1.000  H
  H663     1.0000 0.96114  0.29419  0.31667  Biso   1.000  H
  C742     1.0000 0.03802  0.39086  0.33073  Biso   1.000  C
  C743     1.0000 0.72271  0.15121  0.06354  Biso   1.000  C
  H664     1.0000 0.77614  0.17547  0.10477  Biso   1.000  H
  C744     1.0000 0.60229  0.09039  0.07061  Biso   1.000  C
  H665     1.0000 0.57126  0.07499  0.11646  Biso   1.000  H
  C745     1.0000 0.42848  0.27729  0.06354  Biso   1.000  C
  H666     1.0000 0.39936  0.22388  0.10477  Biso   1.000  H
  C746     1.0000 0.48810  0.39771  0.07061  Biso   1.000  C
  H667     1.0000 0.50372  0.42876  0.11646  Biso   1.000  H
  H668     1.0000 0.47246  0.48969  0.32036  Biso   1.000  H
  H669     1.0000 0.50603  0.54846  0.29376  Biso   1.000  H
  C747     1.0000 0.54171  0.58575  0.33921  Biso   1.000  C
  N82      1.0000 0.68905  0.55268  0.29061  Biso   1.000  N
  C748     1.0000 0.66223  0.62597  0.32319  Biso   1.000  C
  H670     1.0000 0.63001  0.59285  0.27717  Biso   1.000  H
  C749     1.0000 0.86945  0.47208  0.28722  Biso   1.000  C
  H671     1.0000 0.01721  0.52755  0.32036  Biso   1.000  H
  H672     1.0000 0.04243  0.49397  0.29376  Biso   1.000  H
  C750     1.0000 0.04403  0.45827  0.33921  Biso   1.000  C
  H673     1.0000 0.05454  0.37438  0.34855  Biso   1.000  H
  H674     1.0000 0.06735  0.39688  0.31207  Biso   1.000  H
  C751     1.0000 0.65852  0.12052  0.05048  Biso   1.000  C
  H675     1.0000 0.76211  0.17042  0.05019  Biso   1.000  H
  H676     1.0000 0.55721  0.06598  0.06191  Biso   1.000  H
  C752     1.0000 0.46202  0.34152  0.05048  Biso   1.000  C
  H677     1.0000 0.40829  0.23789  0.05019  Biso   1.000  H
  H678     1.0000 0.50883  0.44282  0.06191  Biso   1.000  H
  H679     1.0000 0.50732  0.60037  0.34267  Biso   1.000  H
  H680     1.0000 0.54694  0.56597  0.35927  Biso   1.000  H
  C753     1.0000 0.60914  0.64719  0.33073  Biso   1.000  C
  C754     1.0000 0.71282  0.56195  0.26268  Biso   1.000  C
  H681     1.0000 0.67144  0.60676  0.34246  Biso   1.000  H
  H682     1.0000 0.70583  0.66697  0.31667  Biso   1.000  H
  C755     1.0000 0.84124  0.49979  0.26412  Biso   1.000  C
  H683     1.0000 0.85303  0.46574  0.30846  Biso   1.000  H
  H684     1.0000 0.09304  0.49268  0.34267  Biso   1.000  H
  H685     1.0000 0.01904  0.45307  0.35927  Biso   1.000  H
  C756     1.0000 0.64949  0.12119  0.01650  Biso   1.000  C
  C757     1.0000 0.47167  0.35048  0.01650  Biso   1.000  C
  H686     1.0000 0.62562  0.68015  0.34855  Biso   1.000  H
  H687     1.0000 0.60312  0.67047  0.31207  Biso   1.000  H
  C758     1.0000 0.76492  0.54439  0.25301  Biso   1.000  C
  H688     1.0000 0.69625  0.58116  0.24736  Biso   1.000  H
  C759     1.0000 0.79293  0.51735  0.27354  Biso   1.000  C
  C760     1.0000 0.86134  0.50957  0.23238  Biso   1.000  C
  C761     1.0000 0.64217  0.12448  0.98883  Biso   1.000  C
  C762     1.0000 0.48229  0.35779  0.98883  Biso   1.000  C
  C763     1.0000 0.78565  0.55345  0.22138  Biso   1.000  C
  H689     1.0000 0.77831  0.51024  0.29507  Biso   1.000  H
  C764     1.0000 0.83435  0.53568  0.21111  Biso   1.000  C
  H690     1.0000 0.89452  0.49788  0.22536  Biso   1.000  H
  C765     1.0000 0.63202  0.13102  0.95557  Biso   1.000  C
  C766     1.0000 0.49898  0.36799  0.95557  Biso   1.000  C
  H691     1.0000 0.76675  0.57168  0.20668  Biso   1.000  H
  C767     1.0000 0.85102  0.54217  0.17782  Biso   1.000  C
  C768     1.0000 0.56552  0.11320  0.94530  Biso   1.000  C
  C769     1.0000 0.68510  0.15708  0.93430  Biso   1.000  C
  C770     1.0000 0.54770  0.43448  0.94530  Biso   1.000  C
  C771     1.0000 0.47199  0.31489  0.93430  Biso   1.000  C
  C772     1.0000 0.86163  0.54547  0.15018  Biso   1.000  C
  C773     1.0000 0.55389  0.12232  0.91367  Biso   1.000  C
  H692     1.0000 0.52842  0.09502  0.96000  Biso   1.000  H
  C774     1.0000 0.67481  0.16692  0.90253  Biso   1.000  C
  H693     1.0000 0.72997  0.16878  0.94130  Biso   1.000  H
  H694     1.0000 0.56663  0.47161  0.96000  Biso   1.000  H
  C775     1.0000 0.56842  0.44612  0.91367  Biso   1.000  C
  C776     1.0000 0.49208  0.32519  0.90253  Biso   1.000  C
  H695     1.0000 0.43878  0.26998  0.94130  Biso   1.000  H
  C777     1.0000 0.87136  0.54619  0.11620  Biso   1.000  C
  C778     1.0000 0.48420  0.10471  0.90400  Biso   1.000  C
  C779     1.0000 0.60891  0.14931  0.89314  Biso   1.000  C
  C780     1.0000 0.73070  0.19458  0.87944  Biso   1.000  C
  C781     1.0000 0.62048  0.51580  0.90400  Biso   1.000  C
  C782     1.0000 0.54043  0.39111  0.89314  Biso   1.000  C
  C783     1.0000 0.46391  0.26931  0.87944  Biso   1.000  C
  C784     1.0000 0.84523  0.57627  0.09605  Biso   1.000  C
  C785     1.0000 0.90482  0.51544  0.10311  Biso   1.000  C
  N83      1.0000 0.46970  0.11398  0.87607  Biso   1.000  N
  H696     1.0000 0.44841  0.08550  0.91929  Biso   1.000  H
  H697     1.0000 0.60140  0.15642  0.87159  Biso   1.000  H
  N84      1.0000 0.79201  0.21096  0.88610  Biso   1.000  N
  H698     1.0000 0.72062  0.20091  0.85819  Biso   1.000  H
  N85      1.0000 0.64426  0.53028  0.87607  Biso   1.000  N
  H699     1.0000 0.63708  0.55160  0.91929  Biso   1.000  H
  H700     1.0000 0.55500  0.39858  0.87159  Biso   1.000  H
  N86      1.0000 0.41900  0.20802  0.88610  Biso   1.000  N
  H701     1.0000 0.48029  0.27940  0.85819  Biso   1.000  H
  C786     1.0000 0.84881  0.57148  0.06354  Biso   1.000  C
  H702     1.0000 0.82456  0.60068  0.10477  Biso   1.000  H
  C787     1.0000 0.90960  0.51189  0.07061  Biso   1.000  C
  H703     1.0000 0.92504  0.49628  0.11646  Biso   1.000  H
  C788     1.0000 0.39821  0.09420  0.86979  Biso   1.000  C
  C789     1.0000 0.84248  0.23599  0.86049  Biso   1.000  C
  C790     1.0000 0.69600  0.60181  0.86979  Biso   1.000  C
  C791     1.0000 0.39351  0.15750  0.86049  Biso   1.000  C
  C792     1.0000 0.87948  0.53800  0.05048  Biso   1.000  C
  H704     1.0000 0.82962  0.59172  0.05019  Biso   1.000  H
  H705     1.0000 0.93400  0.49119  0.06191  Biso   1.000  H
  C793     1.0000 0.36959  0.04069  0.84347  Biso   1.000  C
  H706     1.0000 0.37049  0.07380  0.88949  Biso   1.000  H
  C794     1.0000 0.90580  0.30402  0.86979  Biso   1.000  C
  H707     1.0000 0.82129  0.24320  0.84110  Biso   1.000  H
  C795     1.0000 0.86369  0.18242  0.85338  Biso   1.000  C
  C796     1.0000 0.76400  0.60650  0.86049  Biso   1.000  C
  C797     1.0000 0.67109  0.63040  0.84347  Biso   1.000  C
  H708     1.0000 0.70330  0.62952  0.88949  Biso   1.000  H
  H709     1.0000 0.42192  0.17872  0.84110  Biso   1.000  H
  C798     1.0000 0.31867  0.13628  0.85338  Biso   1.000  C
  C799     1.0000 0.87879  0.52832  0.01650  Biso   1.000  C
  C800     1.0000 0.29531  0.01952  0.83595  Biso   1.000  C
  H710     1.0000 0.37219  0.99969  0.84999  Biso   1.000  H
  H711     1.0000 0.39801  0.05990  0.82419  Biso   1.000  H
  N87      1.0000 0.88603  0.35573  0.87607  Biso   1.000  N
  C801     1.0000 0.95932  0.32890  0.84347  Biso   1.000  C
  H712     1.0000 0.92619  0.29671  0.88949  Biso   1.000  H
  H713     1.0000 0.82299  0.13911  0.84629  Biso   1.000  H
  H714     1.0000 0.88180  0.17269  0.87289  Biso   1.000  H
  C802     1.0000 0.91909  0.20838  0.82744  Biso   1.000  C
  N88      1.0000 0.78903  0.58101  0.88610  Biso   1.000  N
  H715     1.0000 0.75681  0.57812  0.84110  Biso   1.000  H
  C803     1.0000 0.81758  0.68128  0.85338  Biso   1.000  C
  C804     1.0000 0.72421  0.70472  0.83595  Biso   1.000  C
  H716     1.0000 0.66189  0.60202  0.82419  Biso   1.000  H
  H717     1.0000 0.62752  0.62782  0.84999  Biso   1.000  H
  H718     1.0000 0.31612  0.17702  0.84629  Biso   1.000  H
  H719     1.0000 0.29090  0.11820  0.87289  Biso   1.000  H
  C805     1.0000 0.28930  0.08091  0.82744  Biso   1.000  C
  C806     1.0000 0.87549  0.51771  0.98883  Biso   1.000  C
  H720     1.0000 0.27880  0.98651  0.81810  Biso   1.000  H
  H721     1.0000 0.26598  0.99619  0.85459  Biso   1.000  H
  C807     1.0000 0.89527  0.37948  0.90400  Biso   1.000  C
  C808     1.0000 0.98050  0.27580  0.83595  Biso   1.000  C
  H722     1.0000 0.94011  0.33812  0.82419  Biso   1.000  H
  H723     1.0000 0.00031  0.37252  0.84999  Biso   1.000  H
  H724     1.0000 0.93369  0.17398  0.82400  Biso   1.000  H
  H725     1.0000 0.89930  0.21358  0.80741  Biso   1.000  H
  C809     1.0000 0.80538  0.53610  0.87944  Biso   1.000  C
  H726     1.0000 0.86091  0.68391  0.84629  Biso   1.000  H
  H727     1.0000 0.82730  0.70910  0.87289  Biso   1.000  H
  C810     1.0000 0.79161  0.71069  0.82744  Biso   1.000  C
  H728     1.0000 0.70770  0.72120  0.81810  Biso   1.000  H
  H729     1.0000 0.73021  0.73402  0.85459  Biso   1.000  H
  H730     1.0000 0.24028  0.06628  0.82400  Biso   1.000  H
  H731     1.0000 0.31431  0.10069  0.80741  Biso   1.000  H
  C811     1.0000 0.86902  0.50102  0.95557  Biso   1.000  C
  C812     1.0000 0.87771  0.43160  0.91367  Biso   1.000  C
  H732     1.0000 0.91450  0.36289  0.91929  Biso   1.000  H
  H733     1.0000 0.01349  0.29228  0.81810  Biso   1.000  H
  H734     1.0000 0.00382  0.26982  0.85459  Biso   1.000  H
  C813     1.0000 0.83313  0.50792  0.90253  Biso   1.000  C
  H735     1.0000 0.79911  0.51972  0.85819  Biso   1.000  H
  H736     1.0000 0.82603  0.75972  0.82400  Biso   1.000  H
  H737     1.0000 0.78639  0.68571  0.80741  Biso   1.000  H
  C814     1.0000 0.84291  0.52801  0.93430  Biso   1.000  C
  C815     1.0000 0.88681  0.45230  0.94530  Biso   1.000  C
  C816     1.0000 0.85073  0.45961  0.89314  Biso   1.000  C
  H738     1.0000 0.83117  0.56118  0.94130  Biso   1.000  H
  H739     1.0000 0.90501  0.43340  0.96000  Biso   1.000  H
  H740     1.0000 0.84359  0.44499  0.87159  Biso   1.000  H
  C817     1.0000 0.45828  0.41424  0.66079  Biso   1.000  C
  C818     1.0000 0.48429  0.46966  0.68670  Biso   1.000  C
  H741     1.0000 0.49267  0.39961  0.65733  Biso   1.000  H
  H742     1.0000 0.45305  0.43402  0.64073  Biso   1.000  H
  C819     1.0000 0.39088  0.35285  0.66927  Biso   1.000  C
  C820     1.0000 0.43065  0.49082  0.69381  Biso   1.000  C
  H743     1.0000 0.52756  0.51034  0.67964  Biso   1.000  H
  H744     1.0000 0.49396  0.45153  0.70624  Biso   1.000  H
  H745     1.0000 0.37437  0.31983  0.65145  Biso   1.000  H
  H746     1.0000 0.39687  0.32952  0.68793  Biso   1.000  H
  C821     1.0000 0.33777  0.37402  0.67681  Biso   1.000  C
  N89      1.0000 0.45569  0.54135  0.71944  Biso   1.000  N
  H747     1.0000 0.42346  0.51204  0.67444  Biso   1.000  H
  C822     1.0000 0.36265  0.42753  0.70311  Biso   1.000  C
  H748     1.0000 0.32855  0.39323  0.65754  Biso   1.000  H
  H749     1.0000 0.29416  0.33302  0.68333  Biso   1.000  H
  C823     1.0000 0.47206  0.60264  0.71278  Biso   1.000  C
  N90      1.0000 0.31094  0.44730  0.70939  Biso   1.000  N
  H750     1.0000 0.36998  0.40713  0.72283  Biso   1.000  H
  C824     1.0000 0.49978  0.65852  0.73588  Biso   1.000  C
  H751     1.0000 0.46578  0.61273  0.69154  Biso   1.000  H
  C825     1.0000 0.28717  0.43803  0.73732  Biso   1.000  C
  C826     1.0000 0.51735  0.72444  0.72646  Biso   1.000  C
  C827     1.0000 0.50957  0.64822  0.76762  Biso   1.000  C
  C828     1.0000 0.23509  0.45565  0.74699  Biso   1.000  C
  H752     1.0000 0.30375  0.41882  0.75264  Biso   1.000  H
  C829     1.0000 0.54436  0.77945  0.74699  Biso   1.000  C
  H753     1.0000 0.51025  0.73191  0.70493  Biso   1.000  H
  C830     1.0000 0.53567  0.70132  0.78889  Biso   1.000  C
  H754     1.0000 0.49786  0.60331  0.77464  Biso   1.000  H
  C831     1.0000 0.21435  0.44653  0.77862  Biso   1.000  C
  C832     1.0000 0.20706  0.48264  0.72646  Biso   1.000  C
  C833     1.0000 0.55344  0.76781  0.77862  Biso   1.000  C
  C834     1.0000 0.56199  0.84913  0.73732  Biso   1.000  C
  C835     1.0000 0.54217  0.69112  0.82218  Biso   1.000  C
  C836     1.0000 0.16567  0.46435  0.78889  Biso   1.000  C
  H755     1.0000 0.23327  0.42835  0.79332  Biso   1.000  H
  H756     1.0000 0.22168  0.48974  0.70493  Biso   1.000  H
  C837     1.0000 0.15878  0.50025  0.73588  Biso   1.000  C
  H757     1.0000 0.57165  0.80494  0.79332  Biso   1.000  H
  N91      1.0000 0.55270  0.86366  0.70939  Biso   1.000  N
  H758     1.0000 0.58118  0.88493  0.75264  Biso   1.000  H
  C838     1.0000 0.54550  0.68386  0.84982  Biso   1.000  C
  C839     1.0000 0.14898  0.45781  0.82218  Biso   1.000  C
  C840     1.0000 0.13865  0.49041  0.76762  Biso   1.000  C
  C841     1.0000 0.13057  0.52796  0.71278  Biso   1.000  C
  C842     1.0000 0.57248  0.93514  0.70311  Biso   1.000  C
  C843     1.0000 0.54617  0.67485  0.88380  Biso   1.000  C
  C844     1.0000 0.13836  0.45452  0.84982  Biso   1.000  C
  H759     1.0000 0.10549  0.50216  0.77464  Biso   1.000  H
  N92      1.0000 0.08561  0.54429  0.71944  Biso   1.000  N
  H760     1.0000 0.14696  0.53424  0.69154  Biso   1.000  H
  C845     1.0000 0.50917  0.93983  0.69381  Biso   1.000  C
  C846     1.0000 0.62598  0.96373  0.67681  Biso   1.000  C
  H761     1.0000 0.59289  0.96285  0.72283  Biso   1.000  H
  C847     1.0000 0.57627  0.73104  0.90395  Biso   1.000  C
  C848     1.0000 0.51548  0.61062  0.89689  Biso   1.000  C
  C849     1.0000 0.12866  0.45385  0.88380  Biso   1.000  C
  C850     1.0000 0.06017  0.56932  0.69381  Biso   1.000  C
  N93      1.0000 0.45867  0.91439  0.71944  Biso   1.000  N
  H762     1.0000 0.48797  0.91145  0.67444  Biso   1.000  H
  C851     1.0000 0.53037  0.01461  0.68670  Biso   1.000  C
  H763     1.0000 0.60679  0.93535  0.65754  Biso   1.000  H
  H764     1.0000 0.66697  0.96115  0.68333  Biso   1.000  H
  C852     1.0000 0.64717  0.03805  0.66927  Biso   1.000  C
  C853     1.0000 0.57152  0.72269  0.93646  Biso   1.000  C
  H765     1.0000 0.60065  0.77615  0.89523  Biso   1.000  H
  C854     1.0000 0.51189  0.60228  0.92939  Biso   1.000  C
  H766     1.0000 0.49627  0.57122  0.88354  Biso   1.000  H
  C855     1.0000 0.15477  0.42372  0.90395  Biso   1.000  C
  C856     1.0000 0.09517  0.48454  0.89689  Biso   1.000  C
  H767     1.0000 0.08858  0.57653  0.67444  Biso   1.000  H
  C857     1.0000 0.06488  0.63735  0.70311  Biso   1.000  C
  C858     1.0000 0.98540  0.51575  0.68670  Biso   1.000  C
  C859     1.0000 0.39738  0.86942  0.71278  Biso   1.000  C
  H768     1.0000 0.48966  0.01724  0.67964  Biso   1.000  H
  H769     1.0000 0.54846  0.04242  0.70624  Biso   1.000  H
  C860     1.0000 0.58575  0.04402  0.66079  Biso   1.000  C
  H770     1.0000 0.68016  0.05453  0.65145  Biso   1.000  H
  H771     1.0000 0.67047  0.06735  0.68793  Biso   1.000  H
  C861     1.0000 0.53800  0.65852  0.94952  Biso   1.000  C
  H772     1.0000 0.59171  0.76209  0.94981  Biso   1.000  H
  H773     1.0000 0.49118  0.55721  0.93809  Biso   1.000  H
  C862     1.0000 0.15118  0.42851  0.93646  Biso   1.000  C
  H774     1.0000 0.17546  0.39936  0.89523  Biso   1.000  H
  C863     1.0000 0.09039  0.48810  0.92939  Biso   1.000  C
  H775     1.0000 0.07498  0.50375  0.88354  Biso   1.000  H
  N94      1.0000 0.13637  0.68906  0.70939  Biso   1.000  N
  C864     1.0000 0.03624  0.66223  0.67681  Biso   1.000  C
  H776     1.0000 0.03719  0.63004  0.72283  Biso   1.000  H
  H777     1.0000 0.98278  0.47244  0.67964  Biso   1.000  H
  H778     1.0000 0.95756  0.50602  0.70624  Biso   1.000  H
  C865     1.0000 0.95596  0.54171  0.66079  Biso   1.000  C
  C866     1.0000 0.34146  0.84125  0.73588  Biso   1.000  C
  H779     1.0000 0.38727  0.85305  0.69154  Biso   1.000  H
  H780     1.0000 0.60036  0.09305  0.65733  Biso   1.000  H
  H781     1.0000 0.56599  0.01904  0.64073  Biso   1.000  H
  C867     1.0000 0.52832  0.64951  0.98350  Biso   1.000  C
  C868     1.0000 0.12051  0.46198  0.94952  Biso   1.000  C
  H782     1.0000 0.17039  0.40832  0.94981  Biso   1.000  H
  H783     1.0000 0.06600  0.50880  0.93809  Biso   1.000  H
  C869     1.0000 0.15090  0.71286  0.73732  Biso   1.000  C
  H784     1.0000 0.06467  0.67145  0.65754  Biso   1.000  H
  H785     1.0000 0.03888  0.70585  0.68333  Biso   1.000  H
  C870     1.0000 0.96197  0.60913  0.66927  Biso   1.000  C
  H786     1.0000 0.90698  0.50736  0.65733  Biso   1.000  H
  H787     1.0000 0.98095  0.54691  0.64073  Biso   1.000  H
  C871     1.0000 0.27555  0.79294  0.72646  Biso   1.000  C
  C872     1.0000 0.35177  0.86134  0.76762  Biso   1.000  C
  C873     1.0000 0.51771  0.64219  0.01117  Biso   1.000  C
  C874     1.0000 0.12123  0.47172  0.98350  Biso   1.000  C
  H788     1.0000 0.11506  0.69622  0.75264  Biso   1.000  H
  C875     1.0000 0.22055  0.76492  0.74699  Biso   1.000  C
  H789     1.0000 0.94545  0.62561  0.65145  Biso   1.000  H
  H790     1.0000 0.93266  0.60315  0.68793  Biso   1.000  H
  H791     1.0000 0.26806  0.77832  0.70493  Biso   1.000  H
  C876     1.0000 0.29867  0.83435  0.78889  Biso   1.000  C
  H792     1.0000 0.39670  0.89456  0.77464  Biso   1.000  H
  C877     1.0000 0.50101  0.63200  0.04443  Biso   1.000  C
  C878     1.0000 0.12450  0.48228  0.01117  Biso   1.000  C
  C879     1.0000 0.23215  0.78563  0.77862  Biso   1.000  C
  C880     1.0000 0.30888  0.85104  0.82218  Biso   1.000  C
  C881     1.0000 0.45229  0.56550  0.05470  Biso   1.000  C
  C882     1.0000 0.52801  0.68509  0.06570  Biso   1.000  C
  C883     1.0000 0.13100  0.49901  0.04443  Biso   1.000  C
  H793     1.0000 0.19505  0.76673  0.79332  Biso   1.000  H
  C884     1.0000 0.31619  0.86165  0.84982  Biso   1.000  C
  H794     1.0000 0.43339  0.52842  0.04000  Biso   1.000  H
  C885     1.0000 0.43160  0.55392  0.08633  Biso   1.000  C
  C886     1.0000 0.50791  0.67479  0.09747  Biso   1.000  C
  H795     1.0000 0.56121  0.73001  0.05870  Biso   1.000  H
  C887     1.0000 0.11318  0.54768  0.05470  Biso   1.000  C
  C888     1.0000 0.15708  0.47197  0.06570  Biso   1.000  C
  C889     1.0000 0.32518  0.87133  0.88380  Biso   1.000  C
  C890     1.0000 0.37951  0.48418  0.09600  Biso   1.000  C
  C891     1.0000 0.45959  0.60892  0.10686  Biso   1.000  C
  C892     1.0000 0.53608  0.73068  0.12056  Biso   1.000  C
  H796     1.0000 0.09498  0.56659  0.04000  Biso   1.000  H
  C893     1.0000 0.12229  0.56839  0.08633  Biso   1.000  C
  C894     1.0000 0.16689  0.49211  0.09747  Biso   1.000  C
  H797     1.0000 0.16882  0.43881  0.05870  Biso   1.000  H
  C895     1.0000 0.26895  0.84522  0.90395  Biso   1.000  C
  C896     1.0000 0.38936  0.90486  0.89689  Biso   1.000  C
  N95      1.0000 0.35573  0.46971  0.12393  Biso   1.000  N
  H798     1.0000 0.36291  0.44839  0.08071  Biso   1.000  H
  H799     1.0000 0.44499  0.60140  0.12841  Biso   1.000  H
  N96      1.0000 0.58102  0.79202  0.11390  Biso   1.000  N
  H800     1.0000 0.51970  0.72058  0.14181  Biso   1.000  H
  C897     1.0000 0.14929  0.54042  0.10686  Biso   1.000  C
  C898     1.0000 0.10472  0.62051  0.09600  Biso   1.000  C
  C899     1.0000 0.19461  0.46389  0.12056  Biso   1.000  C
  C900     1.0000 0.27731  0.84882  0.93646  Biso   1.000  C
  H801     1.0000 0.22385  0.82451  0.89523  Biso   1.000  H
  C901     1.0000 0.39771  0.90960  0.92939  Biso   1.000  C
  H802     1.0000 0.42876  0.92505  0.88354  Biso   1.000  H
  C902     1.0000 0.30402  0.39822  0.13021  Biso   1.000  C
  C903     1.0000 0.60648  0.84249  0.13951  Biso   1.000  C
  H803     1.0000 0.15640  0.55500  0.12841  Biso   1.000  H
  N97      1.0000 0.11396  0.64425  0.12393  Biso   1.000  N
  H804     1.0000 0.08550  0.63709  0.08071  Biso   1.000  H
  N98      1.0000 0.21096  0.41898  0.11390  Biso   1.000  N
  H805     1.0000 0.20091  0.48032  0.14181  Biso   1.000  H
  C904     1.0000 0.34150  0.87952  0.94952  Biso   1.000  C
  H806     1.0000 0.23791  0.82961  0.94981  Biso   1.000  H
  H807     1.0000 0.44279  0.93401  0.93809  Biso   1.000  H
  C905     1.0000 0.23599  0.39348  0.13951  Biso   1.000  C
  C906     1.0000 0.32891  0.36959  0.15653  Biso   1.000  C
  H808     1.0000 0.29672  0.37051  0.11051  Biso   1.000  H
  H809     1.0000 0.57810  0.82132  0.15890  Biso   1.000  H
  C907     1.0000 0.68132  0.86371  0.14662  Biso   1.000  C
  C908     1.0000 0.60178  0.90579  0.13021  Biso   1.000  C
  C909     1.0000 0.09422  0.69601  0.13021  Biso   1.000  C
  C910     1.0000 0.35051  0.87880  0.98350  Biso   1.000  C
  H810     1.0000 0.24320  0.42191  0.15890  Biso   1.000  H
  C911     1.0000 0.18241  0.31870  0.14662  Biso   1.000  C
  C912     1.0000 0.27580  0.29532  0.16405  Biso   1.000  C
  H811     1.0000 0.33813  0.39802  0.17581  Biso   1.000  H
  H812     1.0000 0.37250  0.37221  0.15001  Biso   1.000  H
  H813     1.0000 0.68390  0.82302  0.15371  Biso   1.000  H
  H814     1.0000 0.70909  0.88179  0.12711  Biso   1.000  H
  C913     1.0000 0.71072  0.91913  0.17256  Biso   1.000  C
  N99      1.0000 0.53029  0.88601  0.12393  Biso   1.000  N
  C914     1.0000 0.63041  0.95930  0.15653  Biso   1.000  C
  H815     1.0000 0.62950  0.92618  0.11051  Biso   1.000  H
  C915     1.0000 0.15751  0.76400  0.13951  Biso   1.000  C
  C916     1.0000 0.04067  0.67109  0.15653  Biso   1.000  C
  H816     1.0000 0.07381  0.70328  0.11051  Biso   1.000  H
  C917     1.0000 0.35782  0.87550  0.01117  Biso   1.000  C
  H817     1.0000 0.13908  0.31607  0.15371  Biso   1.000  H
  H818     1.0000 0.17270  0.29089  0.12711  Biso   1.000  H
  C918     1.0000 0.20838  0.28929  0.17256  Biso   1.000  C
  H819     1.0000 0.29229  0.27879  0.18190  Biso   1.000  H
  H820     1.0000 0.26980  0.26601  0.14541  Biso   1.000  H
  H821     1.0000 0.75971  0.93370  0.17600  Biso   1.000  H
  H822     1.0000 0.68569  0.89930  0.19259  Biso   1.000  H
  C919     1.0000 0.70471  0.98052  0.16405  Biso   1.000  C
  C920     1.0000 0.51579  0.89528  0.09600  Biso   1.000  C
  H823     1.0000 0.60198  0.94009  0.17581  Biso   1.000  H
  H824     1.0000 0.62780  0.00029  0.15001  Biso   1.000  H
  N100     1.0000 0.20798  0.78903  0.11390  Biso   1.000  N
  H825     1.0000 0.17871  0.75679  0.15890  Biso   1.000  H
  C921     1.0000 0.13633  0.81761  0.14662  Biso   1.000  C
  H826     1.0000 0.99971  0.62751  0.15001  Biso   1.000  H
  C922     1.0000 0.01950  0.72419  0.16405  Biso   1.000  C
  H827     1.0000 0.05991  0.66192  0.17581  Biso   1.000  H
  C923     1.0000 0.36800  0.86901  0.04443  Biso   1.000  C
  H828     1.0000 0.17399  0.24031  0.17600  Biso   1.000  H
  H829     1.0000 0.21363  0.31432  0.19259  Biso   1.000  H
  H830     1.0000 0.72119  0.01348  0.18190  Biso   1.000  H
  H831     1.0000 0.73401  0.00380  0.14541  Biso   1.000  H
  C924     1.0000 0.44613  0.87772  0.08633  Biso   1.000  C
  H832     1.0000 0.55158  0.91449  0.08071  Biso   1.000  H
  C925     1.0000 0.26930  0.80541  0.12056  Biso   1.000  C
  H833     1.0000 0.17700  0.86088  0.15371  Biso   1.000  H
  H834     1.0000 0.11820  0.82730  0.12711  Biso   1.000  H
  C926     1.0000 0.08090  0.79160  0.17256  Biso   1.000  C
  H835     1.0000 0.98650  0.70770  0.18190  Biso   1.000  H
  H836     1.0000 0.99619  0.73021  0.14541  Biso   1.000  H
  C927     1.0000 0.43447  0.88678  0.05470  Biso   1.000  C
  C928     1.0000 0.31489  0.84290  0.06570  Biso   1.000  C
  C929     1.0000 0.39108  0.85068  0.10686  Biso   1.000  C
  C930     1.0000 0.32521  0.83311  0.09747  Biso   1.000  C
  H837     1.0000 0.27940  0.79912  0.14181  Biso   1.000  H
  H838     1.0000 0.06630  0.82601  0.17600  Biso   1.000  H
  H839     1.0000 0.10069  0.78640  0.19259  Biso   1.000  H
  H840     1.0000 0.47160  0.90501  0.04000  Biso   1.000  H
  H841     1.0000 0.27002  0.83121  0.05870  Biso   1.000  H
  H842     1.0000 0.39862  0.84362  0.12841  Biso   1.000  H
  C931     1.0000 0.35049  0.47172  0.48351  Biso   1.000  C
  C932     1.0000 0.34147  0.46198  0.44953  Biso   1.000  C
  C933     1.0000 0.35777  0.48228  0.51116  Biso   1.000  C
  C934     1.0000 0.27732  0.42851  0.43645  Biso   1.000  C
  C935     1.0000 0.39771  0.48810  0.42938  Biso   1.000  C
  C936     1.0000 0.36802  0.49901  0.54444  Biso   1.000  C
  C937     1.0000 0.26895  0.42372  0.40394  Biso   1.000  C
  H843     1.0000 0.23792  0.40832  0.44979  Biso   1.000  H
  C938     1.0000 0.38937  0.48454  0.39688  Biso   1.000  C
  H844     1.0000 0.44280  0.50880  0.43811  Biso   1.000  H
  C939     1.0000 0.43450  0.54768  0.55471  Biso   1.000  C
  C940     1.0000 0.31489  0.47197  0.56571  Biso   1.000  C
  C941     1.0000 0.32518  0.45385  0.38381  Biso   1.000  C
  H845     1.0000 0.22390  0.39936  0.39524  Biso   1.000  H
  H846     1.0000 0.42877  0.50375  0.38353  Biso   1.000  H
  H847     1.0000 0.47161  0.56659  0.54001  Biso   1.000  H
  C942     1.0000 0.44610  0.56839  0.58634  Biso   1.000  C
  C943     1.0000 0.32523  0.49211  0.59746  Biso   1.000  C
  H848     1.0000 0.26998  0.43881  0.55869  Biso   1.000  H
  C944     1.0000 0.31615  0.45452  0.34984  Biso   1.000  C
  C945     1.0000 0.39113  0.54042  0.60687  Biso   1.000  C
  C946     1.0000 0.51579  0.62051  0.59601  Biso   1.000  C
  C947     1.0000 0.26928  0.46389  0.62055  Biso   1.000  C
  C948     1.0000 0.30883  0.45781  0.32217  Biso   1.000  C
  H849     1.0000 0.39860  0.55500  0.62840  Biso   1.000  H
  N101     1.0000 0.53029  0.64425  0.62394  Biso   1.000  N
  H850     1.0000 0.55160  0.63709  0.58070  Biso   1.000  H
  N102     1.0000 0.20802  0.41898  0.61389  Biso   1.000  N
  H851     1.0000 0.27941  0.48032  0.64180  Biso   1.000  H
  C949     1.0000 0.29868  0.46435  0.28890  Biso   1.000  C
  C950     1.0000 0.60180  0.69601  0.63023  Biso   1.000  C
  C951     1.0000 0.15749  0.39348  0.63952  Biso   1.000  C
  C952     1.0000 0.23219  0.44653  0.27864  Biso   1.000  C
  C953     1.0000 0.35176  0.49041  0.26763  Biso   1.000  C
  C954     1.0000 0.60649  0.76400  0.63952  Biso   1.000  C
  C955     1.0000 0.63041  0.67109  0.65652  Biso   1.000  C
  H852     1.0000 0.62947  0.70328  0.61050  Biso   1.000  H
  H853     1.0000 0.17871  0.42191  0.65889  Biso   1.000  H
  C956     1.0000 0.13629  0.31870  0.64663  Biso   1.000  C
  C957     1.0000 0.09420  0.39822  0.63023  Biso   1.000  C
  H854     1.0000 0.19509  0.42835  0.29334  Biso   1.000  H
  C958     1.0000 0.22055  0.45565  0.24701  Biso   1.000  C
  C959     1.0000 0.34147  0.50025  0.23586  Biso   1.000  C
  H855     1.0000 0.39666  0.50216  0.27463  Biso   1.000  H
  N103     1.0000 0.58104  0.78903  0.61389  Biso   1.000  N
  H856     1.0000 0.57808  0.75679  0.65889  Biso   1.000  H
  C960     1.0000 0.68129  0.81761  0.64663  Biso   1.000  C
  C961     1.0000 0.70469  0.72419  0.66406  Biso   1.000  C
  H857     1.0000 0.60201  0.66192  0.67579  Biso   1.000  H
  H858     1.0000 0.62781  0.62751  0.65000  Biso   1.000  H
  H859     1.0000 0.17699  0.31607  0.65370  Biso   1.000  H
  H860     1.0000 0.11819  0.29089  0.62710  Biso   1.000  H
  C962     1.0000 0.08091  0.28929  0.67255  Biso   1.000  C
  N104     1.0000 0.11398  0.46971  0.62394  Biso   1.000  N
  C963     1.0000 0.04068  0.36959  0.65652  Biso   1.000  C
  H861     1.0000 0.07379  0.37051  0.61050  Biso   1.000  H
  C964     1.0000 0.27557  0.48264  0.22647  Biso   1.000  C
  C965     1.0000 0.15086  0.43803  0.23733  Biso   1.000  C
  C966     1.0000 0.39739  0.52796  0.21277  Biso   1.000  C
  C967     1.0000 0.53611  0.80541  0.62055  Biso   1.000  C
  H862     1.0000 0.68387  0.86088  0.65370  Biso   1.000  H
  H863     1.0000 0.70910  0.82730  0.62710  Biso   1.000  H
  C968     1.0000 0.71070  0.79160  0.67255  Biso   1.000  C
  H864     1.0000 0.72120  0.70770  0.68189  Biso   1.000  H
  H865     1.0000 0.73402  0.73021  0.64540  Biso   1.000  H
  H866     1.0000 0.06632  0.24031  0.67601  Biso   1.000  H
  H867     1.0000 0.10069  0.31432  0.69260  Biso   1.000  H
  C969     1.0000 0.01952  0.29532  0.66406  Biso   1.000  C
  C970     1.0000 0.10467  0.48418  0.59601  Biso   1.000  C
  H868     1.0000 0.05989  0.39802  0.67579  Biso   1.000  H
  H869     1.0000 0.99971  0.37221  0.65000  Biso   1.000  H
  H870     1.0000 0.26807  0.48974  0.20492  Biso   1.000  H
  N105     1.0000 0.13636  0.44730  0.20940  Biso   1.000  N
  H871     1.0000 0.11508  0.41882  0.25263  Biso   1.000  H
  N106     1.0000 0.45867  0.54429  0.21943  Biso   1.000  N
  H872     1.0000 0.38728  0.53424  0.19153  Biso   1.000  H
  C971     1.0000 0.50790  0.83311  0.59746  Biso   1.000  C
  H873     1.0000 0.51972  0.79912  0.64180  Biso   1.000  H
  H874     1.0000 0.75970  0.82601  0.67601  Biso   1.000  H
  H875     1.0000 0.68571  0.78640  0.69260  Biso   1.000  H
  H876     1.0000 0.98649  0.27879  0.68189  Biso   1.000  H
  H877     1.0000 0.99621  0.26601  0.64540  Biso   1.000  H
  H878     1.0000 0.08548  0.44839  0.58070  Biso   1.000  H
  C972     1.0000 0.12232  0.55392  0.58634  Biso   1.000  C
  C973     1.0000 0.06488  0.42753  0.20312  Biso   1.000  C
  C974     1.0000 0.50914  0.56932  0.19383  Biso   1.000  C
  C975     1.0000 0.45959  0.85068  0.60687  Biso   1.000  C
  C976     1.0000 0.52801  0.84290  0.56571  Biso   1.000  C
  C977     1.0000 0.11322  0.56550  0.55471  Biso   1.000  C
  C978     1.0000 0.14933  0.60892  0.60687  Biso   1.000  C
  C979     1.0000 0.06018  0.49082  0.19383  Biso   1.000  C
  C980     1.0000 0.03625  0.37402  0.17680  Biso   1.000  C
  H879     1.0000 0.03715  0.40713  0.22282  Biso   1.000  H
  H880     1.0000 0.48795  0.57653  0.17443  Biso   1.000  H
  C981     1.0000 0.53036  0.51575  0.18671  Biso   1.000  C
  C982     1.0000 0.57247  0.63735  0.20312  Biso   1.000  C
  C983     1.0000 0.43159  0.87772  0.58634  Biso   1.000  C
  H881     1.0000 0.44500  0.84362  0.62840  Biso   1.000  H
  C984     1.0000 0.50101  0.86901  0.54444  Biso   1.000  C
  H882     1.0000 0.56119  0.83121  0.55869  Biso   1.000  H
  C985     1.0000 0.13098  0.63200  0.54444  Biso   1.000  C
  H883     1.0000 0.09503  0.52842  0.54001  Biso   1.000  H
  H884     1.0000 0.15641  0.60140  0.62840  Biso   1.000  H
  C986     1.0000 0.16688  0.67479  0.59746  Biso   1.000  C
  N107     1.0000 0.08566  0.54135  0.21943  Biso   1.000  N
  H885     1.0000 0.08858  0.51204  0.17443  Biso   1.000  H
  C987     1.0000 0.98536  0.46966  0.18671  Biso   1.000  C
  H886     1.0000 0.06468  0.39323  0.15753  Biso   1.000  H
  H887     1.0000 0.03886  0.33302  0.18332  Biso   1.000  H
  C988     1.0000 0.96197  0.35285  0.16929  Biso   1.000  C
  H888     1.0000 0.48965  0.47244  0.17962  Biso   1.000  H
  H889     1.0000 0.54846  0.50602  0.20623  Biso   1.000  H
  C989     1.0000 0.58575  0.54171  0.16077  Biso   1.000  C
  N108     1.0000 0.55269  0.68906  0.20940  Biso   1.000  N
  C990     1.0000 0.62598  0.66223  0.17680  Biso   1.000  C
  H890     1.0000 0.59285  0.63004  0.22282  Biso   1.000  H
  C991     1.0000 0.45231  0.88678  0.55471  Biso   1.000  C
  C992     1.0000 0.37949  0.89528  0.59601  Biso   1.000  C
  C993     1.0000 0.51768  0.87550  0.51116  Biso   1.000  C
  C994     1.0000 0.12449  0.64219  0.51116  Biso   1.000  C
  C995     1.0000 0.15709  0.68509  0.56571  Biso   1.000  C
  C996     1.0000 0.19460  0.73068  0.62055  Biso   1.000  C
  C997     1.0000 0.13058  0.60264  0.21277  Biso   1.000  C
  H891     1.0000 0.98278  0.51034  0.17962  Biso   1.000  H
  H892     1.0000 0.95757  0.45153  0.20623  Biso   1.000  H
  C998     1.0000 0.95596  0.41424  0.16077  Biso   1.000  C
  H893     1.0000 0.94547  0.31983  0.15143  Biso   1.000  H
  H894     1.0000 0.93264  0.32952  0.18792  Biso   1.000  H
  H895     1.0000 0.60038  0.50736  0.15734  Biso   1.000  H
  H896     1.0000 0.56596  0.54691  0.14074  Biso   1.000  H
  C999     1.0000 0.64716  0.60913  0.16929  Biso   1.000  C
  C1000    1.0000 0.56196  0.71286  0.23733  Biso   1.000  C
  H897     1.0000 0.60678  0.67145  0.15753  Biso   1.000  H
  H898     1.0000 0.66698  0.70585  0.18332  Biso   1.000  H
  H899     1.0000 0.43342  0.90501  0.54001  Biso   1.000  H
  N109     1.0000 0.35572  0.88601  0.62394  Biso   1.000  N
  H900     1.0000 0.36291  0.91449  0.58070  Biso   1.000  H
  C1001    1.0000 0.52829  0.87880  0.48351  Biso   1.000  C
  C1002    1.0000 0.12118  0.64951  0.48351  Biso   1.000  C
  H901     1.0000 0.16879  0.73001  0.55869  Biso   1.000  H
  N110     1.0000 0.21099  0.79202  0.61389  Biso   1.000  N
  H902     1.0000 0.20088  0.72058  0.64180  Biso   1.000  H
  C1003    1.0000 0.15874  0.65852  0.23586  Biso   1.000  C
  H903     1.0000 0.14696  0.61273  0.19153  Biso   1.000  H
  H904     1.0000 0.90694  0.39961  0.15734  Biso   1.000  H
  H905     1.0000 0.98097  0.43402  0.14074  Biso   1.000  H
  H906     1.0000 0.68015  0.62561  0.15143  Biso   1.000  H
  H907     1.0000 0.67049  0.60315  0.18792  Biso   1.000  H
  H908     1.0000 0.58116  0.69622  0.25263  Biso   1.000  H
  C1004    1.0000 0.54437  0.76492  0.24701  Biso   1.000  C
  C1005    1.0000 0.30401  0.90579  0.63023  Biso   1.000  C
  C1006    1.0000 0.53802  0.87952  0.44953  Biso   1.000  C
  C1007    1.0000 0.12052  0.65852  0.44953  Biso   1.000  C
  C1008    1.0000 0.23601  0.84249  0.63952  Biso   1.000  C
  C1009    1.0000 0.20709  0.72444  0.22647  Biso   1.000  C
  C1010    1.0000 0.13865  0.64822  0.26763  Biso   1.000  C
  C1011    1.0000 0.55347  0.78563  0.27864  Biso   1.000  C
  C1012    1.0000 0.51739  0.79294  0.22647  Biso   1.000  C
  C1013    1.0000 0.32889  0.95930  0.65652  Biso   1.000  C
  H909     1.0000 0.29668  0.92618  0.61050  Biso   1.000  H
  C1014    1.0000 0.57151  0.84882  0.43645  Biso   1.000  C
  C1015    1.0000 0.51189  0.90960  0.42938  Biso   1.000  C
  C1016    1.0000 0.15118  0.72269  0.43645  Biso   1.000  C
  C1017    1.0000 0.09039  0.60228  0.42938  Biso   1.000  C
  H910     1.0000 0.24322  0.82132  0.65889  Biso   1.000  H
  C1018    1.0000 0.18239  0.86371  0.64663  Biso   1.000  C
  C1019    1.0000 0.23509  0.77945  0.24701  Biso   1.000  C
  H911     1.0000 0.22166  0.73191  0.20492  Biso   1.000  H
  C1020    1.0000 0.16565  0.70132  0.28890  Biso   1.000  C
  H912     1.0000 0.10545  0.60331  0.27463  Biso   1.000  H
  C1021    1.0000 0.53569  0.83435  0.28890  Biso   1.000  C
  H913     1.0000 0.57168  0.76673  0.29334  Biso   1.000  H
  H914     1.0000 0.51026  0.77832  0.20492  Biso   1.000  H
  C1022    1.0000 0.49980  0.84125  0.23586  Biso   1.000  C
  C1023    1.0000 0.27581  0.98052  0.66406  Biso   1.000  C
  H915     1.0000 0.33811  0.94009  0.67579  Biso   1.000  H
  H916     1.0000 0.37249  0.00029  0.65000  Biso   1.000  H
  C1024    1.0000 0.57627  0.84522  0.40394  Biso   1.000  C
  H917     1.0000 0.59170  0.82961  0.44979  Biso   1.000  H
  C1025    1.0000 0.51550  0.90486  0.39688  Biso   1.000  C
  H918     1.0000 0.49122  0.93401  0.43811  Biso   1.000  H
  C1026    1.0000 0.15477  0.73104  0.40394  Biso   1.000  C
  H919     1.0000 0.17039  0.76209  0.44979  Biso   1.000  H
  C1027    1.0000 0.09514  0.61062  0.39688  Biso   1.000  C
  H920     1.0000 0.06603  0.55721  0.43811  Biso   1.000  H
  H921     1.0000 0.13912  0.82302  0.65370  Biso   1.000  H
  H922     1.0000 0.17269  0.88179  0.62710  Biso   1.000  H
  C1028    1.0000 0.20840  0.91913  0.67255  Biso   1.000  C
  C1029    1.0000 0.21437  0.76781  0.27864  Biso   1.000  C
  C1030    1.0000 0.28714  0.84913  0.23733  Biso   1.000  C
  C1031    1.0000 0.14895  0.69112  0.32217  Biso   1.000  C
  C1032    1.0000 0.54216  0.85104  0.32217  Biso   1.000  C
  C1033    1.0000 0.50957  0.86134  0.26763  Biso   1.000  C
  C1034    1.0000 0.47205  0.86942  0.21277  Biso   1.000  C
  H923     1.0000 0.29229  0.01348  0.68189  Biso   1.000  H
  H924     1.0000 0.26978  0.00380  0.64540  Biso   1.000  H
  C1035    1.0000 0.54615  0.87133  0.38381  Biso   1.000  C
  H925     1.0000 0.60066  0.82451  0.39524  Biso   1.000  H
  H926     1.0000 0.49629  0.92505  0.38353  Biso   1.000  H
  C1036    1.0000 0.12868  0.67485  0.38381  Biso   1.000  C
  H927     1.0000 0.17550  0.77615  0.39524  Biso   1.000  H
  H928     1.0000 0.07495  0.57122  0.38353  Biso   1.000  H
  H929     1.0000 0.17399  0.93370  0.67601  Biso   1.000  H
  H930     1.0000 0.21361  0.89930  0.69260  Biso   1.000  H
  H931     1.0000 0.23329  0.80494  0.29334  Biso   1.000  H
  N111     1.0000 0.31095  0.86366  0.20940  Biso   1.000  N
  H932     1.0000 0.30375  0.88493  0.25263  Biso   1.000  H
  C1037    1.0000 0.13836  0.68386  0.34984  Biso   1.000  C
  C1038    1.0000 0.54545  0.86165  0.34984  Biso   1.000  C
  H933     1.0000 0.49786  0.89456  0.27463  Biso   1.000  H
  N112     1.0000 0.45572  0.91439  0.21943  Biso   1.000  N
  H934     1.0000 0.46577  0.85305  0.19153  Biso   1.000  H
  C1039    1.0000 0.36266  0.93514  0.20312  Biso   1.000  C
  C1040    1.0000 0.43066  0.93983  0.19383  Biso   1.000  C
  C1041    1.0000 0.33775  0.96373  0.17680  Biso   1.000  C
  H935     1.0000 0.36996  0.96285  0.22282  Biso   1.000  H
  H936     1.0000 0.42348  0.91145  0.17443  Biso   1.000  H
  C1042    1.0000 0.48425  0.01461  0.18671  Biso   1.000  C
  H937     1.0000 0.32856  0.93535  0.15753  Biso   1.000  H
  H938     1.0000 0.29418  0.96115  0.18332  Biso   1.000  H
  C1043    1.0000 0.39088  0.03805  0.16929  Biso   1.000  C
  H939     1.0000 0.52758  0.01724  0.17962  Biso   1.000  H
  H940     1.0000 0.49396  0.04242  0.20623  Biso   1.000  H
  C1044    1.0000 0.45827  0.04402  0.16077  Biso   1.000  C
  H941     1.0000 0.37436  0.05453  0.15143  Biso   1.000  H
  H942     1.0000 0.39688  0.06735  0.18792  Biso   1.000  H
  H943     1.0000 0.49269  0.09305  0.15734  Biso   1.000  H
  H944     1.0000 0.45305  0.01904  0.14074  Biso   1.000  H
  C1045    1.0000 0.65204  0.80300  0.52005  Biso   1.000  C
  C1046    1.0000 0.72685  0.82417  0.52716  Biso   1.000  C
  H945     1.0000 0.64945  0.84369  0.51296  Biso   1.000  H
  H946     1.0000 0.62424  0.78487  0.53956  Biso   1.000  H
  C1047    1.0000 0.62263  0.74758  0.49411  Biso   1.000  C
  N113     1.0000 0.75231  0.87464  0.55277  Biso   1.000  N
  N114     1.0000 0.75233  0.87469  0.55277  Biso   1.000  N
  H947     1.0000 0.75525  0.84539  0.50776  Biso   1.000  H
  C1048    1.0000 0.65201  0.80295  0.52005  Biso   1.000  C
  C1049    1.0000 0.73155  0.76087  0.53645  Biso   1.000  C
  H948     1.0000 0.57361  0.73296  0.49067  Biso   1.000  H
  H949     1.0000 0.64764  0.76736  0.47407  Biso   1.000  H
  C1050    1.0000 0.62864  0.68619  0.50262  Biso   1.000  C
  C1051    1.0000 0.79725  0.93598  0.54610  Biso   1.000  C
  N115     1.0000 0.80304  0.78065  0.54274  Biso   1.000  N
  C1052    1.0000 0.70292  0.70736  0.51014  Biso   1.000  C
  H950     1.0000 0.70382  0.74048  0.55616  Biso   1.000  H
  H951     1.0000 0.61214  0.65318  0.48477  Biso   1.000  H
  H952     1.0000 0.59932  0.66286  0.52126  Biso   1.000  H
  C1053    1.0000 0.82541  0.99186  0.56920  Biso   1.000  C
  H953     1.0000 0.81363  0.94608  0.52486  Biso   1.000  H
  C1054    1.0000 0.81754  0.77138  0.57067  Biso   1.000  C
  H954     1.0000 0.73135  0.72657  0.49086  Biso   1.000  H
  H955     1.0000 0.70553  0.66636  0.51666  Biso   1.000  H
  C1055    1.0000 0.87376  0.05779  0.55981  Biso   1.000  C
  C1056    1.0000 0.80532  0.98156  0.60097  Biso   1.000  C
  C1057    1.0000 0.88723  0.78899  0.58034  Biso   1.000  C
  H956     1.0000 0.78175  0.75217  0.58596  Biso   1.000  H
  C1058    1.0000 0.90176  0.11279  0.58034  Biso   1.000  C
  H957     1.0000 0.88834  0.06525  0.53826  Biso   1.000  H
  H958     1.0000 0.88836  0.06531  0.53826  Biso   1.000  H
  C1059    1.0000 0.83232  0.03466  0.62223  Biso   1.000  C
  H959     1.0000 0.77212  0.93665  0.60796  Biso   1.000  H
  H960     1.0000 0.77214  0.93670  0.60796  Biso   1.000  H
  C1060    1.0000 0.89886  0.77988  0.61197  Biso   1.000  C
  C1061    1.0000 0.94224  0.81598  0.55981  Biso   1.000  C
  C1062    1.0000 0.95382  0.18248  0.57067  Biso   1.000  C
  C1063    1.0000 0.88104  0.10115  0.61197  Biso   1.000  C
  C1064    1.0000 0.88107  0.10120  0.61197  Biso   1.000  C
  C1065    1.0000 0.81562  0.02446  0.65550  Biso   1.000  C
  C1066    1.0000 0.96533  0.79764  0.62223  Biso   1.000  C
  H961     1.0000 0.86173  0.76164  0.62667  Biso   1.000  H
  C1067    1.0000 0.96535  0.79770  0.62223  Biso   1.000  C
  H962     1.0000 0.86176  0.76169  0.62667  Biso   1.000  H
  H963     1.0000 0.93474  0.82309  0.53826  Biso   1.000  H
  C1068    1.0000 0.00812  0.83354  0.56920  Biso   1.000  C
  C1069    1.0000 0.00814  0.83359  0.56920  Biso   1.000  C
  N116     1.0000 0.97763  0.19700  0.54274  Biso   1.000  N
  N117     1.0000 0.97760  0.19695  0.54274  Biso   1.000  N
  H964     1.0000 0.97042  0.21827  0.58596  Biso   1.000  H
  H965     1.0000 0.89996  0.13829  0.62667  Biso   1.000  H
  C1070    1.0000 0.80501  0.01715  0.68317  Biso   1.000  C
  C1071    1.0000 0.80503  0.01720  0.68317  Biso   1.000  C
  C1072    1.0000 0.97551  0.79115  0.65550  Biso   1.000  C
  C1073    1.0000 0.97553  0.79121  0.65550  Biso   1.000  C
  C1074    1.0000 0.01843  0.82376  0.60097  Biso   1.000  C
  C1075    1.0000 0.06403  0.86125  0.54610  Biso   1.000  C
  C1076    1.0000 0.06406  0.86130  0.54610  Biso   1.000  C
  C1077    1.0000 0.02934  0.26849  0.53645  Biso   1.000  C
  C1078    1.0000 0.79535  0.00819  0.71714  Biso   1.000  C
  C1079    1.0000 0.98282  0.78786  0.68317  Biso   1.000  C
  H966     1.0000 0.06331  0.83545  0.60796  Biso   1.000  H
  H967     1.0000 0.06333  0.83550  0.60796  Biso   1.000  H
  N118     1.0000 0.12534  0.87763  0.55277  Biso   1.000  N
  H968     1.0000 0.05395  0.86759  0.52486  Biso   1.000  H
  C1080    1.0000 0.09734  0.27317  0.52716  Biso   1.000  C
  C1081    1.0000 0.00442  0.29707  0.51014  Biso   1.000  C
  H969     1.0000 0.03661  0.29614  0.55616  Biso   1.000  H
  H970     1.0000 0.03663  0.29619  0.55616  Biso   1.000  H
  C1082    1.0000 0.82144  0.06438  0.73727  Biso   1.000  C
  C1083    1.0000 0.76181  0.94396  0.73021  Biso   1.000  C
  C1084    1.0000 0.99185  0.78719  0.71714  Biso   1.000  C
  C1085    1.0000 0.17582  0.90266  0.52716  Biso   1.000  C
  N119     1.0000 0.12237  0.24768  0.55277  Biso   1.000  N
  H971     1.0000 0.09012  0.24474  0.50776  Biso   1.000  H
  C1086    1.0000 0.15092  0.34796  0.52005  Biso   1.000  C
  N120     1.0000 0.12239  0.24773  0.55277  Biso   1.000  N
  H972     1.0000 0.09015  0.24479  0.50776  Biso   1.000  H
  C1087    1.0000 0.15094  0.34801  0.52005  Biso   1.000  C
  H973     1.0000 0.99523  0.26869  0.49086  Biso   1.000  H
  H974     1.0000 0.96083  0.29444  0.51666  Biso   1.000  H
  H975     1.0000 0.96085  0.29449  0.51666  Biso   1.000  H
  C1088    1.0000 0.05755  0.37139  0.50262  Biso   1.000  C
  C1089    1.0000 0.81785  0.05604  0.76978  Biso   1.000  C
  H976     1.0000 0.84214  0.10944  0.72857  Biso   1.000  H
  H977     1.0000 0.84217  0.10950  0.72857  Biso   1.000  H
  C1090    1.0000 0.75706  0.93562  0.76271  Biso   1.000  C
  H978     1.0000 0.74162  0.90456  0.71686  Biso   1.000  H
  C1091    1.0000 0.75709  0.93567  0.76271  Biso   1.000  C
  C1092    1.0000 0.93562  0.75706  0.73727  Biso   1.000  C
  C1093    1.0000 0.05604  0.81788  0.73021  Biso   1.000  C
  C1094    1.0000 0.23911  0.97064  0.53645  Biso   1.000  C
  C1095    1.0000 0.23914  0.97069  0.53645  Biso   1.000  C
  H979     1.0000 0.15462  0.90987  0.50776  Biso   1.000  H
  C1096    1.0000 0.19700  0.84904  0.52005  Biso   1.000  C
  C1097    1.0000 0.19703  0.84910  0.52005  Biso   1.000  C
  C1098    1.0000 0.13872  0.20277  0.54610  Biso   1.000  C
  H980     1.0000 0.19425  0.35058  0.51296  Biso   1.000  H
  H981     1.0000 0.16063  0.37577  0.53956  Biso   1.000  H
  C1099    1.0000 0.12494  0.37736  0.49411  Biso   1.000  C
  H982     1.0000 0.04104  0.38787  0.48477  Biso   1.000  H
  H983     1.0000 0.06352  0.40064  0.52126  Biso   1.000  H
  H984     1.0000 0.06355  0.40069  0.52126  Biso   1.000  H
  H985     1.0000 0.83706  0.09544  0.78313  Biso   1.000  H
  C1100    1.0000 0.78716  0.99181  0.78287  Biso   1.000  C
  C1101    1.0000 0.78719  0.99186  0.78287  Biso   1.000  C
  H986     1.0000 0.73270  0.89056  0.77144  Biso   1.000  H
  C1102    1.0000 0.94399  0.76185  0.76978  Biso   1.000  C
  H987     1.0000 0.89054  0.73265  0.72857  Biso   1.000  H
  H988     1.0000 0.89057  0.73270  0.72857  Biso   1.000  H
  C1103    1.0000 0.06438  0.82144  0.76271  Biso   1.000  C
  H989     1.0000 0.09542  0.83704  0.71686  Biso   1.000  H
  H990     1.0000 0.09544  0.83710  0.71686  Biso   1.000  H
  N121     1.0000 0.21936  0.02240  0.54274  Biso   1.000  N
  C1104    1.0000 0.29266  0.99557  0.51014  Biso   1.000  C
  H991     1.0000 0.25952  0.96338  0.55616  Biso   1.000  H
  H992     1.0000 0.15633  0.80578  0.51296  Biso   1.000  H
  H993     1.0000 0.21513  0.83936  0.53956  Biso   1.000  H
  C1105    1.0000 0.25242  0.87505  0.49411  Biso   1.000  C
  C1106    1.0000 0.25245  0.87510  0.49411  Biso   1.000  C
  C1107    1.0000 0.16644  0.17454  0.56920  Biso   1.000  C
  H994     1.0000 0.13245  0.18639  0.52486  Biso   1.000  H
  C1108    1.0000 0.16647  0.17460  0.56920  Biso   1.000  C
  H995     1.0000 0.15934  0.42634  0.49067  Biso   1.000  H
  H996     1.0000 0.11972  0.35238  0.47407  Biso   1.000  H
  H997     1.0000 0.15936  0.42639  0.49067  Biso   1.000  H
  C1109    1.0000 0.78786  0.98285  0.81684  Biso   1.000  C
  H998     1.0000 0.90457  0.74161  0.78313  Biso   1.000  H
  H999     1.0000 0.90459  0.74166  0.78313  Biso   1.000  H
  C1110    1.0000 0.00814  0.79533  0.78287  Biso   1.000  C
  H1000    1.0000 0.10947  0.84214  0.77144  Biso   1.000  H
  C1111    1.0000 0.22860  0.04615  0.57067  Biso   1.000  C
  C1112    1.0000 0.22863  0.04620  0.57067  Biso   1.000  C
  C1113    1.0000 0.31383  0.94247  0.50262  Biso   1.000  C
  H1001    1.0000 0.27345  0.00479  0.49086  Biso   1.000  H
  H1002    1.0000 0.33362  0.03914  0.51666  Biso   1.000  H
  H1003    1.0000 0.33365  0.03919  0.51666  Biso   1.000  H
  H1004    1.0000 0.26702  0.84065  0.49067  Biso   1.000  H
  H1005    1.0000 0.23263  0.88026  0.47407  Biso   1.000  H
  H1006    1.0000 0.26705  0.84070  0.49067  Biso   1.000  H
  H1007    1.0000 0.23266  0.88031  0.47407  Biso   1.000  H
  C1114    1.0000 0.18406  0.12629  0.55981  Biso   1.000  C
  C1115    1.0000 0.17624  0.19468  0.60097  Biso   1.000  C
  C1116    1.0000 0.79116  0.97554  0.84449  Biso   1.000  C
  C1117    1.0000 0.01713  0.80501  0.81684  Biso   1.000  C
  C1118    1.0000 0.01716  0.80506  0.81684  Biso   1.000  C
  C1119    1.0000 0.21104  0.09827  0.58034  Biso   1.000  C
  H1008    1.0000 0.24783  0.02956  0.58596  Biso   1.000  H
  H1009    1.0000 0.34683  0.95895  0.48477  Biso   1.000  H
  H1010    1.0000 0.33713  0.93645  0.52126  Biso   1.000  H
  H1011    1.0000 0.34685  0.95900  0.48477  Biso   1.000  H
  H1012    1.0000 0.33716  0.93650  0.52126  Biso   1.000  H
  H1013    1.0000 0.17693  0.11166  0.53826  Biso   1.000  H
  C1120    1.0000 0.20233  0.16764  0.62223  Biso   1.000  C
  H1014    1.0000 0.16450  0.22785  0.60796  Biso   1.000  H
  C1121    1.0000 0.20236  0.16769  0.62223  Biso   1.000  C
  H1015    1.0000 0.16453  0.22790  0.60796  Biso   1.000  H
  C1122    1.0000 0.79766  0.96534  0.87778  Biso   1.000  C
  C1123    1.0000 0.02445  0.81562  0.84449  Biso   1.000  C
  C1124    1.0000 0.02447  0.81567  0.84449  Biso   1.000  C
  C1125    1.0000 0.22015  0.11897  0.61197  Biso   1.000  C
  C1126    1.0000 0.20883  0.18438  0.65550  Biso   1.000  C
  C1127    1.0000 0.82376  0.01844  0.89904  Biso   1.000  C
  C1128    1.0000 0.77989  0.89885  0.88804  Biso   1.000  C
  C1129    1.0000 0.03469  0.83236  0.87778  Biso   1.000  C
  H1016    1.0000 0.23835  0.10007  0.62667  Biso   1.000  H
  C1130    1.0000 0.21213  0.19499  0.68317  Biso   1.000  C
  C1131    1.0000 0.83355  0.00814  0.93079  Biso   1.000  C
  H1017    1.0000 0.83547  0.06335  0.89203  Biso   1.000  H
  H1018    1.0000 0.76168  0.86171  0.87334  Biso   1.000  H
  C1132    1.0000 0.78897  0.88721  0.91967  Biso   1.000  C
  H1019    1.0000 0.76170  0.86177  0.87334  Biso   1.000  H
  C1133    1.0000 0.78899  0.88726  0.91967  Biso   1.000  C
  C1134    1.0000 0.98156  0.80532  0.89904  Biso   1.000  C
  C1135    1.0000 0.98159  0.80537  0.89904  Biso   1.000  C
  C1136    1.0000 0.10117  0.88103  0.88804  Biso   1.000  C
  C1137    1.0000 0.21282  0.20467  0.71714  Biso   1.000  C
  C1138    1.0000 0.86127  0.06402  0.95388  Biso   1.000  C
  C1139    1.0000 0.86129  0.06407  0.95388  Biso   1.000  C
  C1140    1.0000 0.81598  0.94221  0.94020  Biso   1.000  C
  C1141    1.0000 0.81600  0.94226  0.94020  Biso   1.000  C
  C1142    1.0000 0.77134  0.81752  0.92935  Biso   1.000  C
  C1143    1.0000 0.99190  0.82546  0.93079  Biso   1.000  C
  H1020    1.0000 0.93665  0.77215  0.89203  Biso   1.000  H
  C1144    1.0000 0.11278  0.90173  0.91967  Biso   1.000  C
  H1021    1.0000 0.13828  0.89993  0.87334  Biso   1.000  H
  C1145    1.0000 0.24294  0.17856  0.73727  Biso   1.000  C
  C1146    1.0000 0.18214  0.23815  0.73021  Biso   1.000  C
  C1147    1.0000 0.18217  0.23820  0.73021  Biso   1.000  C
  N122     1.0000 0.87767  0.12536  0.94722  Biso   1.000  N
  H1022    1.0000 0.86755  0.05392  0.97513  Biso   1.000  H
  H1023    1.0000 0.82308  0.93475  0.96173  Biso   1.000  H
  N123     1.0000 0.78065  0.80305  0.95728  Biso   1.000  N
  H1024    1.0000 0.75215  0.78173  0.91403  Biso   1.000  H
  C1148    1.0000 0.93595  0.79723  0.95388  Biso   1.000  C
  C1149    1.0000 0.05778  0.87371  0.94020  Biso   1.000  C
  C1150    1.0000 0.05780  0.87377  0.94020  Biso   1.000  C
  C1151    1.0000 0.18246  0.95385  0.92935  Biso   1.000  C
  C1152    1.0000 0.23816  0.18212  0.76978  Biso   1.000  C
  H1025    1.0000 0.26733  0.15786  0.72857  Biso   1.000  H
  C1153    1.0000 0.23818  0.18217  0.76978  Biso   1.000  C
  C1154    1.0000 0.17856  0.24294  0.76271  Biso   1.000  C
  H1026    1.0000 0.16296  0.25839  0.71686  Biso   1.000  H
  C1155    1.0000 0.90268  0.17583  0.97285  Biso   1.000  C
  C1156    1.0000 0.76085  0.73151  0.96356  Biso   1.000  C
  C1157    1.0000 0.76088  0.73157  0.96356  Biso   1.000  C
  N124     1.0000 0.87469  0.75232  0.94722  Biso   1.000  N
  H1027    1.0000 0.94606  0.81361  0.97513  Biso   1.000  H
  H1028    1.0000 0.94608  0.81366  0.97513  Biso   1.000  H
  H1029    1.0000 0.06527  0.88834  0.96173  Biso   1.000  H
  N125     1.0000 0.19696  0.97760  0.95728  Biso   1.000  N
  H1030    1.0000 0.21827  0.97044  0.91403  Biso   1.000  H
  C1158    1.0000 0.20467  0.21281  0.78287  Biso   1.000  C
  H1031    1.0000 0.25837  0.16296  0.78313  Biso   1.000  H
  C1159    1.0000 0.20469  0.21286  0.78287  Biso   1.000  C
  H1032    1.0000 0.15790  0.26735  0.77144  Biso   1.000  H
  H1033    1.0000 0.90987  0.15461  0.99222  Biso   1.000  H
  C1160    1.0000 0.84906  0.19705  0.97997  Biso   1.000  C
  C1161    1.0000 0.97068  0.23913  0.96356  Biso   1.000  C
  H1034    1.0000 0.90989  0.15466  0.99222  Biso   1.000  H
  C1162    1.0000 0.82416  0.72683  0.97285  Biso   1.000  C
  C1163    1.0000 0.70735  0.70293  0.98985  Biso   1.000  C
  H1035    1.0000 0.74047  0.70386  0.94383  Biso   1.000  H
  C1164    1.0000 0.26847  0.02936  0.96356  Biso   1.000  C
  C1165    1.0000 0.19496  0.21214  0.81684  Biso   1.000  C
  H1036    1.0000 0.80577  0.15631  0.98703  Biso   1.000  H
  H1037    1.0000 0.83937  0.21513  0.96043  Biso   1.000  H
  H1038    1.0000 0.80579  0.15636  0.98703  Biso   1.000  H
  C1166    1.0000 0.87505  0.25242  0.00588  Biso   1.000  C
  C1167    1.0000 0.87507  0.25247  0.00588  Biso   1.000  C
  C1168    1.0000 0.99556  0.29264  0.98985  Biso   1.000  C
  H1039    1.0000 0.96335  0.25952  0.94383  Biso   1.000  H
  N126     1.0000 0.02239  0.21935  0.95728  Biso   1.000  N
  N127     1.0000 0.02241  0.21940  0.95728  Biso   1.000  N
  H1040    1.0000 0.84538  0.75526  0.99222  Biso   1.000  H
  C1169    1.0000 0.80296  0.65204  0.97997  Biso   1.000  C
  C1170    1.0000 0.68616  0.62861  0.99739  Biso   1.000  C
  H1041    1.0000 0.66638  0.70556  0.98333  Biso   1.000  H
  C1171    1.0000 0.68619  0.62866  0.99739  Biso   1.000  C
  H1042    1.0000 0.72654  0.73131  0.00913  Biso   1.000  H
  H1043    1.0000 0.72656  0.73136  0.00913  Biso   1.000  H
  C1172    1.0000 0.27316  0.09734  0.97285  Biso   1.000  C
  C1173    1.0000 0.29709  0.00443  0.98985  Biso   1.000  C
  H1044    1.0000 0.29614  0.03662  0.94383  Biso   1.000  H
  H1045    1.0000 0.29617  0.03667  0.94383  Biso   1.000  H
  C1174    1.0000 0.18435  0.20885  0.84449  Biso   1.000  C
  C1175    1.0000 0.94245  0.31381  0.99739  Biso   1.000  C
  C1176    1.0000 0.94248  0.31386  0.99739  Biso   1.000  C
  H1046    1.0000 0.84066  0.26704  0.00934  Biso   1.000  H
  H1047    1.0000 0.88028  0.23264  0.02594  Biso   1.000  H
  H1048    1.0000 0.03916  0.33364  0.98333  Biso   1.000  H
  H1049    1.0000 0.00478  0.27343  0.00913  Biso   1.000  H
  C1177    1.0000 0.04616  0.22862  0.92935  Biso   1.000  C
  C1178    1.0000 0.04618  0.22867  0.92935  Biso   1.000  C
  H1050    1.0000 0.84367  0.64942  0.98703  Biso   1.000  H
  H1051    1.0000 0.78486  0.62423  0.96043  Biso   1.000  H
  H1052    1.0000 0.84369  0.64947  0.98703  Biso   1.000  H
  C1179    1.0000 0.74758  0.62264  0.00588  Biso   1.000  C
  H1053    1.0000 0.66288  0.59936  0.97873  Biso   1.000  H
  H1054    1.0000 0.65317  0.61213  0.01522  Biso   1.000  H
  N128     1.0000 0.24772  0.12237  0.94722  Biso   1.000  N
  H1055    1.0000 0.24475  0.09013  0.99222  Biso   1.000  H
  C1180    1.0000 0.34796  0.15096  0.97997  Biso   1.000  C
  C1181    1.0000 0.37136  0.05753  0.99739  Biso   1.000  C
  H1056    1.0000 0.29448  0.96086  0.98333  Biso   1.000  H
  H1057    1.0000 0.26866  0.99521  0.00913  Biso   1.000  H
  H1058    1.0000 0.26868  0.99526  0.00913  Biso   1.000  H
  C1182    1.0000 0.16768  0.20236  0.87778  Biso   1.000  C
  H1059    1.0000 0.93646  0.33714  0.97873  Biso   1.000  H
  H1060    1.0000 0.95896  0.34682  0.01522  Biso   1.000  H
  H1061    1.0000 0.95899  0.34687  0.01522  Biso   1.000  H
  C1183    1.0000 0.09823  0.21101  0.91967  Biso   1.000  C
  C1184    1.0000 0.09826  0.21106  0.91967  Biso   1.000  C
  H1062    1.0000 0.02958  0.24783  0.91403  Biso   1.000  H
  H1063    1.0000 0.73299  0.57366  0.00934  Biso   1.000  H
  H1064    1.0000 0.76734  0.64762  0.02594  Biso   1.000  H
  H1065    1.0000 0.76737  0.64767  0.02594  Biso   1.000  H
  C1185    1.0000 0.20278  0.13875  0.95388  Biso   1.000  C
  H1066    1.0000 0.35054  0.19422  0.98703  Biso   1.000  H
  H1067    1.0000 0.37577  0.16064  0.96043  Biso   1.000  H
  H1068    1.0000 0.35057  0.19427  0.98703  Biso   1.000  H
  C1186    1.0000 0.37737  0.12495  0.00588  Biso   1.000  C
  H1069    1.0000 0.40069  0.06355  0.97873  Biso   1.000  H
  H1070    1.0000 0.38787  0.04105  0.01522  Biso   1.000  H
  C1187    1.0000 0.11898  0.22012  0.88804  Biso   1.000  C
  C1188    1.0000 0.19468  0.17624  0.89904  Biso   1.000  C
  C1189    1.0000 0.12627  0.18402  0.94020  Biso   1.000  C
  C1190    1.0000 0.12629  0.18407  0.94020  Biso   1.000  C
  C1191    1.0000 0.17458  0.16646  0.93079  Biso   1.000  C
  H1071    1.0000 0.18637  0.13241  0.97513  Biso   1.000  H
  H1072    1.0000 0.18639  0.13247  0.97513  Biso   1.000  H
  H1073    1.0000 0.42637  0.15935  0.00934  Biso   1.000  H
  H1074    1.0000 0.35238  0.11974  0.02594  Biso   1.000  H
  H1075    1.0000 0.10009  0.23836  0.87334  Biso   1.000  H
  H1076    1.0000 0.22786  0.16455  0.89203  Biso   1.000  H
  H1077    1.0000 0.11165  0.17691  0.96173  Biso   1.000  H
  H1078    1.0000 0.11168  0.17696  0.96173  Biso   1.000  H
  C1192    1.0000 0.65204  0.80300  0.52005  Biso   1.000  C
  C1193    1.0000 0.72685  0.82417  0.52716  Biso   1.000  C
  H1079    1.0000 0.64945  0.84369  0.51296  Biso   1.000  H
  H1080    1.0000 0.62424  0.78487  0.53956  Biso   1.000  H
  C1194    1.0000 0.62263  0.74758  0.49411  Biso   1.000  C
  N129     1.0000 0.75231  0.87464  0.55277  Biso   1.000  N
  N130     1.0000 0.75233  0.87469  0.55277  Biso   1.000  N
  H1081    1.0000 0.75525  0.84539  0.50776  Biso   1.000  H
  C1195    1.0000 0.65201  0.80295  0.52005  Biso   1.000  C
  C1196    1.0000 0.73155  0.76087  0.53645  Biso   1.000  C
  H1082    1.0000 0.57361  0.73296  0.49067  Biso   1.000  H
  H1083    1.0000 0.64764  0.76736  0.47407  Biso   1.000  H
  C1197    1.0000 0.62864  0.68619  0.50262  Biso   1.000  C
  C1198    1.0000 0.79725  0.93598  0.54610  Biso   1.000  C
  N131     1.0000 0.80304  0.78065  0.54274  Biso   1.000  N
  C1199    1.0000 0.70292  0.70736  0.51014  Biso   1.000  C
  H1084    1.0000 0.70382  0.74048  0.55616  Biso   1.000  H
  H1085    1.0000 0.61214  0.65318  0.48477  Biso   1.000  H
  H1086    1.0000 0.59932  0.66286  0.52126  Biso   1.000  H
  C1200    1.0000 0.82541  0.99186  0.56920  Biso   1.000  C
  H1087    1.0000 0.81363  0.94608  0.52486  Biso   1.000  H
  C1201    1.0000 0.81754  0.77138  0.57067  Biso   1.000  C
  H1088    1.0000 0.73135  0.72657  0.49086  Biso   1.000  H
  H1089    1.0000 0.70553  0.66636  0.51666  Biso   1.000  H
  C1202    1.0000 0.87376  0.05779  0.55981  Biso   1.000  C
  C1203    1.0000 0.80532  0.98156  0.60097  Biso   1.000  C
  C1204    1.0000 0.88723  0.78899  0.58034  Biso   1.000  C
  H1090    1.0000 0.78175  0.75217  0.58596  Biso   1.000  H
  C1205    1.0000 0.90176  0.11279  0.58034  Biso   1.000  C
  H1091    1.0000 0.88834  0.06525  0.53826  Biso   1.000  H
  H1092    1.0000 0.88836  0.06531  0.53826  Biso   1.000  H
  C1206    1.0000 0.83232  0.03466  0.62223  Biso   1.000  C
  H1093    1.0000 0.77212  0.93665  0.60796  Biso   1.000  H
  H1094    1.0000 0.77214  0.93670  0.60796  Biso   1.000  H
  C1207    1.0000 0.89886  0.77988  0.61197  Biso   1.000  C
  C1208    1.0000 0.94224  0.81598  0.55981  Biso   1.000  C
  C1209    1.0000 0.95382  0.18248  0.57067  Biso   1.000  C
  C1210    1.0000 0.88104  0.10115  0.61197  Biso   1.000  C
  C1211    1.0000 0.88107  0.10120  0.61197  Biso   1.000  C
  C1212    1.0000 0.81562  0.02446  0.65550  Biso   1.000  C
  C1213    1.0000 0.96533  0.79764  0.62223  Biso   1.000  C
  H1095    1.0000 0.86173  0.76164  0.62667  Biso   1.000  H
  C1214    1.0000 0.96535  0.79770  0.62223  Biso   1.000  C
  H1096    1.0000 0.86176  0.76169  0.62667  Biso   1.000  H
  H1097    1.0000 0.93474  0.82309  0.53826  Biso   1.000  H
  C1215    1.0000 0.00812  0.83354  0.56920  Biso   1.000  C
  C1216    1.0000 0.00814  0.83359  0.56920  Biso   1.000  C
  N132     1.0000 0.97763  0.19700  0.54274  Biso   1.000  N
  H1098    1.0000 0.97042  0.21827  0.58596  Biso   1.000  H
  N133     1.0000 0.97760  0.19695  0.54274  Biso   1.000  N
  H1099    1.0000 0.89996  0.13829  0.62667  Biso   1.000  H
  C1217    1.0000 0.80501  0.01715  0.68317  Biso   1.000  C
  C1218    1.0000 0.80503  0.01720  0.68317  Biso   1.000  C
  C1219    1.0000 0.97551  0.79115  0.65550  Biso   1.000  C
  C1220    1.0000 0.97553  0.79121  0.65550  Biso   1.000  C
  C1221    1.0000 0.01843  0.82376  0.60097  Biso   1.000  C
  C1222    1.0000 0.06403  0.86125  0.54610  Biso   1.000  C
  C1223    1.0000 0.06406  0.86130  0.54610  Biso   1.000  C
  C1224    1.0000 0.02934  0.26849  0.53645  Biso   1.000  C
  C1225    1.0000 0.79535  0.00819  0.71714  Biso   1.000  C
  C1226    1.0000 0.98282  0.78786  0.68317  Biso   1.000  C
  H1100    1.0000 0.06331  0.83545  0.60796  Biso   1.000  H
  H1101    1.0000 0.06333  0.83550  0.60796  Biso   1.000  H
  N134     1.0000 0.12534  0.87763  0.55277  Biso   1.000  N
  H1102    1.0000 0.05395  0.86759  0.52486  Biso   1.000  H
  C1227    1.0000 0.09734  0.27317  0.52716  Biso   1.000  C
  C1228    1.0000 0.00442  0.29707  0.51014  Biso   1.000  C
  H1103    1.0000 0.03661  0.29614  0.55616  Biso   1.000  H
  H1104    1.0000 0.03663  0.29619  0.55616  Biso   1.000  H
  C1229    1.0000 0.82144  0.06438  0.73727  Biso   1.000  C
  C1230    1.0000 0.76181  0.94396  0.73021  Biso   1.000  C
  C1231    1.0000 0.99185  0.78719  0.71714  Biso   1.000  C
  C1232    1.0000 0.17582  0.90266  0.52716  Biso   1.000  C
  N135     1.0000 0.12237  0.24768  0.55277  Biso   1.000  N
  H1105    1.0000 0.09012  0.24474  0.50776  Biso   1.000  H
  C1233    1.0000 0.15092  0.34796  0.52005  Biso   1.000  C
  N136     1.0000 0.12239  0.24773  0.55277  Biso   1.000  N
  H1106    1.0000 0.09015  0.24479  0.50776  Biso   1.000  H
  C1234    1.0000 0.15094  0.34801  0.52005  Biso   1.000  C
  H1107    1.0000 0.99523  0.26869  0.49086  Biso   1.000  H
  H1108    1.0000 0.96083  0.29444  0.51666  Biso   1.000  H
  H1109    1.0000 0.96085  0.29449  0.51666  Biso   1.000  H
  C1235    1.0000 0.05755  0.37139  0.50262  Biso   1.000  C
  C1236    1.0000 0.81785  0.05604  0.76978  Biso   1.000  C
  H1110    1.0000 0.84214  0.10944  0.72857  Biso   1.000  H
  H1111    1.0000 0.84217  0.10950  0.72857  Biso   1.000  H
  C1237    1.0000 0.75706  0.93562  0.76271  Biso   1.000  C
  H1112    1.0000 0.74162  0.90456  0.71686  Biso   1.000  H
  C1238    1.0000 0.75709  0.93567  0.76271  Biso   1.000  C
  C1239    1.0000 0.93562  0.75706  0.73727  Biso   1.000  C
  C1240    1.0000 0.05604  0.81788  0.73021  Biso   1.000  C
  C1241    1.0000 0.23911  0.97064  0.53645  Biso   1.000  C
  C1242    1.0000 0.23914  0.97069  0.53645  Biso   1.000  C
  H1113    1.0000 0.15462  0.90987  0.50776  Biso   1.000  H
  C1243    1.0000 0.19700  0.84904  0.52005  Biso   1.000  C
  C1244    1.0000 0.19703  0.84910  0.52005  Biso   1.000  C
  C1245    1.0000 0.13872  0.20277  0.54610  Biso   1.000  C
  H1114    1.0000 0.19425  0.35058  0.51296  Biso   1.000  H
  H1115    1.0000 0.16063  0.37577  0.53956  Biso   1.000  H
  C1246    1.0000 0.12494  0.37736  0.49411  Biso   1.000  C
  H1116    1.0000 0.04104  0.38787  0.48477  Biso   1.000  H
  H1117    1.0000 0.06352  0.40064  0.52126  Biso   1.000  H
  H1118    1.0000 0.06355  0.40069  0.52126  Biso   1.000  H
  H1119    1.0000 0.83706  0.09544  0.78313  Biso   1.000  H
  C1247    1.0000 0.78716  0.99181  0.78287  Biso   1.000  C
  C1248    1.0000 0.78719  0.99186  0.78287  Biso   1.000  C
  H1120    1.0000 0.73270  0.89056  0.77144  Biso   1.000  H
  C1249    1.0000 0.94399  0.76185  0.76978  Biso   1.000  C
  H1121    1.0000 0.89054  0.73265  0.72857  Biso   1.000  H
  H1122    1.0000 0.89057  0.73270  0.72857  Biso   1.000  H
  C1250    1.0000 0.06438  0.82144  0.76271  Biso   1.000  C
  H1123    1.0000 0.09542  0.83704  0.71686  Biso   1.000  H
  H1124    1.0000 0.09544  0.83710  0.71686  Biso   1.000  H
  N137     1.0000 0.21936  0.02240  0.54274  Biso   1.000  N
  C1251    1.0000 0.29266  0.99557  0.51014  Biso   1.000  C
  H1125    1.0000 0.25952  0.96338  0.55616  Biso   1.000  H
  H1126    1.0000 0.15633  0.80578  0.51296  Biso   1.000  H
  H1127    1.0000 0.21513  0.83936  0.53956  Biso   1.000  H
  C1252    1.0000 0.25242  0.87505  0.49411  Biso   1.000  C
  C1253    1.0000 0.25245  0.87510  0.49411  Biso   1.000  C
  C1254    1.0000 0.16644  0.17454  0.56920  Biso   1.000  C
  H1128    1.0000 0.13245  0.18639  0.52486  Biso   1.000  H
  C1255    1.0000 0.16647  0.17460  0.56920  Biso   1.000  C
  H1129    1.0000 0.15934  0.42634  0.49067  Biso   1.000  H
  H1130    1.0000 0.11972  0.35238  0.47407  Biso   1.000  H
  H1131    1.0000 0.15936  0.42639  0.49067  Biso   1.000  H
  C1256    1.0000 0.78786  0.98285  0.81684  Biso   1.000  C
  H1132    1.0000 0.90457  0.74161  0.78313  Biso   1.000  H
  H1133    1.0000 0.90459  0.74166  0.78313  Biso   1.000  H
  C1257    1.0000 0.00814  0.79533  0.78287  Biso   1.000  C
  H1134    1.0000 0.10947  0.84214  0.77144  Biso   1.000  H
  C1258    1.0000 0.22860  0.04615  0.57067  Biso   1.000  C
  C1259    1.0000 0.22863  0.04620  0.57067  Biso   1.000  C
  C1260    1.0000 0.31383  0.94247  0.50262  Biso   1.000  C
  H1135    1.0000 0.27345  0.00479  0.49086  Biso   1.000  H
  H1136    1.0000 0.33362  0.03914  0.51666  Biso   1.000  H
  H1137    1.0000 0.33365  0.03919  0.51666  Biso   1.000  H
  H1138    1.0000 0.26702  0.84065  0.49067  Biso   1.000  H
  H1139    1.0000 0.23263  0.88026  0.47407  Biso   1.000  H
  H1140    1.0000 0.26705  0.84070  0.49067  Biso   1.000  H
  H1141    1.0000 0.23266  0.88031  0.47407  Biso   1.000  H
  C1261    1.0000 0.18406  0.12629  0.55981  Biso   1.000  C
  C1262    1.0000 0.17624  0.19468  0.60097  Biso   1.000  C
  C1263    1.0000 0.79116  0.97554  0.84449  Biso   1.000  C
  C1264    1.0000 0.01713  0.80501  0.81684  Biso   1.000  C
  C1265    1.0000 0.01716  0.80506  0.81684  Biso   1.000  C
  C1266    1.0000 0.21104  0.09827  0.58034  Biso   1.000  C
  H1142    1.0000 0.24783  0.02956  0.58596  Biso   1.000  H
  H1143    1.0000 0.34683  0.95895  0.48477  Biso   1.000  H
  H1144    1.0000 0.33713  0.93645  0.52126  Biso   1.000  H
  H1145    1.0000 0.34685  0.95900  0.48477  Biso   1.000  H
  H1146    1.0000 0.33716  0.93650  0.52126  Biso   1.000  H
  H1147    1.0000 0.17693  0.11166  0.53826  Biso   1.000  H
  C1267    1.0000 0.20233  0.16764  0.62223  Biso   1.000  C
  H1148    1.0000 0.16450  0.22785  0.60796  Biso   1.000  H
  C1268    1.0000 0.20236  0.16769  0.62223  Biso   1.000  C
  H1149    1.0000 0.16453  0.22790  0.60796  Biso   1.000  H
  C1269    1.0000 0.79766  0.96534  0.87778  Biso   1.000  C
  C1270    1.0000 0.02445  0.81562  0.84449  Biso   1.000  C
  C1271    1.0000 0.02447  0.81567  0.84449  Biso   1.000  C
  C1272    1.0000 0.22015  0.11897  0.61197  Biso   1.000  C
  C1273    1.0000 0.20883  0.18438  0.65550  Biso   1.000  C
  C1274    1.0000 0.82376  0.01844  0.89904  Biso   1.000  C
  C1275    1.0000 0.77989  0.89885  0.88804  Biso   1.000  C
  C1276    1.0000 0.03469  0.83236  0.87778  Biso   1.000  C
  H1150    1.0000 0.23835  0.10007  0.62667  Biso   1.000  H
  C1277    1.0000 0.21213  0.19499  0.68317  Biso   1.000  C
  C1278    1.0000 0.83355  0.00814  0.93079  Biso   1.000  C
  H1151    1.0000 0.83547  0.06335  0.89203  Biso   1.000  H
  H1152    1.0000 0.76168  0.86171  0.87334  Biso   1.000  H
  C1279    1.0000 0.78897  0.88721  0.91967  Biso   1.000  C
  H1153    1.0000 0.76170  0.86177  0.87334  Biso   1.000  H
  C1280    1.0000 0.78899  0.88726  0.91967  Biso   1.000  C
  C1281    1.0000 0.98156  0.80532  0.89904  Biso   1.000  C
  C1282    1.0000 0.98159  0.80537  0.89904  Biso   1.000  C
  C1283    1.0000 0.10117  0.88103  0.88804  Biso   1.000  C
  C1284    1.0000 0.21282  0.20467  0.71714  Biso   1.000  C
  C1285    1.0000 0.86127  0.06402  0.95388  Biso   1.000  C
  C1286    1.0000 0.86129  0.06407  0.95388  Biso   1.000  C
  C1287    1.0000 0.81598  0.94221  0.94020  Biso   1.000  C
  C1288    1.0000 0.81600  0.94226  0.94020  Biso   1.000  C
  C1289    1.0000 0.77134  0.81752  0.92935  Biso   1.000  C
  C1290    1.0000 0.99190  0.82546  0.93079  Biso   1.000  C
  H1154    1.0000 0.93665  0.77215  0.89203  Biso   1.000  H
  H1155    1.0000 0.13828  0.89993  0.87334  Biso   1.000  H
  C1291    1.0000 0.11278  0.90173  0.91967  Biso   1.000  C
  C1292    1.0000 0.24294  0.17856  0.73727  Biso   1.000  C
  C1293    1.0000 0.18214  0.23815  0.73021  Biso   1.000  C
  C1294    1.0000 0.18217  0.23820  0.73021  Biso   1.000  C
  N138     1.0000 0.87767  0.12536  0.94722  Biso   1.000  N
  H1156    1.0000 0.86755  0.05392  0.97513  Biso   1.000  H
  H1157    1.0000 0.82308  0.93475  0.96173  Biso   1.000  H
  N139     1.0000 0.78065  0.80305  0.95728  Biso   1.000  N
  H1158    1.0000 0.75215  0.78173  0.91403  Biso   1.000  H
  C1295    1.0000 0.93595  0.79723  0.95388  Biso   1.000  C
  C1296    1.0000 0.05778  0.87371  0.94020  Biso   1.000  C
  C1297    1.0000 0.05780  0.87377  0.94020  Biso   1.000  C
  C1298    1.0000 0.18246  0.95385  0.92935  Biso   1.000  C
  C1299    1.0000 0.23816  0.18212  0.76978  Biso   1.000  C
  H1159    1.0000 0.26733  0.15786  0.72857  Biso   1.000  H
  C1300    1.0000 0.23818  0.18217  0.76978  Biso   1.000  C
  C1301    1.0000 0.17856  0.24294  0.76271  Biso   1.000  C
  H1160    1.0000 0.16296  0.25839  0.71686  Biso   1.000  H
  C1302    1.0000 0.90268  0.17583  0.97285  Biso   1.000  C
  C1303    1.0000 0.76085  0.73151  0.96356  Biso   1.000  C
  C1304    1.0000 0.76088  0.73157  0.96356  Biso   1.000  C
  N140     1.0000 0.87469  0.75232  0.94722  Biso   1.000  N
  H1161    1.0000 0.94606  0.81361  0.97513  Biso   1.000  H
  H1162    1.0000 0.94608  0.81366  0.97513  Biso   1.000  H
  H1163    1.0000 0.06527  0.88834  0.96173  Biso   1.000  H
  N141     1.0000 0.19696  0.97760  0.95728  Biso   1.000  N
  H1164    1.0000 0.21827  0.97044  0.91403  Biso   1.000  H
  C1305    1.0000 0.20467  0.21281  0.78287  Biso   1.000  C
  H1165    1.0000 0.25837  0.16296  0.78313  Biso   1.000  H
  C1306    1.0000 0.20469  0.21286  0.78287  Biso   1.000  C
  H1166    1.0000 0.15790  0.26735  0.77144  Biso   1.000  H
  C1307    1.0000 0.84906  0.19705  0.97997  Biso   1.000  C
  C1308    1.0000 0.97068  0.23913  0.96356  Biso   1.000  C
  H1167    1.0000 0.90987  0.15461  0.99222  Biso   1.000  H
  H1168    1.0000 0.90989  0.15466  0.99222  Biso   1.000  H
  C1309    1.0000 0.82416  0.72683  0.97285  Biso   1.000  C
  C1310    1.0000 0.70735  0.70293  0.98985  Biso   1.000  C
  H1169    1.0000 0.74047  0.70386  0.94383  Biso   1.000  H
  C1311    1.0000 0.26847  0.02936  0.96356  Biso   1.000  C
  C1312    1.0000 0.19496  0.21214  0.81684  Biso   1.000  C
  H1170    1.0000 0.83937  0.21513  0.96043  Biso   1.000  H
  H1171    1.0000 0.80577  0.15631  0.98703  Biso   1.000  H
  H1172    1.0000 0.80579  0.15636  0.98703  Biso   1.000  H
  C1313    1.0000 0.87505  0.25242  0.00588  Biso   1.000  C
  C1314    1.0000 0.87507  0.25247  0.00588  Biso   1.000  C
  C1315    1.0000 0.99556  0.29264  0.98985  Biso   1.000  C
  H1173    1.0000 0.96335  0.25952  0.94383  Biso   1.000  H
  N142     1.0000 0.02239  0.21935  0.95728  Biso   1.000  N
  N143     1.0000 0.02241  0.21940  0.95728  Biso   1.000  N
  H1174    1.0000 0.84538  0.75526  0.99222  Biso   1.000  H
  C1316    1.0000 0.80296  0.65204  0.97997  Biso   1.000  C
  C1317    1.0000 0.68616  0.62861  0.99739  Biso   1.000  C
  H1175    1.0000 0.66638  0.70556  0.98333  Biso   1.000  H
  C1318    1.0000 0.68619  0.62866  0.99739  Biso   1.000  C
  H1176    1.0000 0.72654  0.73131  0.00913  Biso   1.000  H
  H1177    1.0000 0.72656  0.73136  0.00913  Biso   1.000  H
  C1319    1.0000 0.27316  0.09734  0.97285  Biso   1.000  C
  C1320    1.0000 0.29709  0.00443  0.98985  Biso   1.000  C
  H1178    1.0000 0.29614  0.03662  0.94383  Biso   1.000  H
  H1179    1.0000 0.29617  0.03667  0.94383  Biso   1.000  H
  C1321    1.0000 0.18435  0.20885  0.84449  Biso   1.000  C
  C1322    1.0000 0.94245  0.31381  0.99739  Biso   1.000  C
  C1323    1.0000 0.94248  0.31386  0.99739  Biso   1.000  C
  H1180    1.0000 0.84066  0.26704  0.00934  Biso   1.000  H
  H1181    1.0000 0.88028  0.23264  0.02594  Biso   1.000  H
  H1182    1.0000 0.03916  0.33364  0.98333  Biso   1.000  H
  H1183    1.0000 0.00478  0.27343  0.00913  Biso   1.000  H
  C1324    1.0000 0.04616  0.22862  0.92935  Biso   1.000  C
  C1325    1.0000 0.04618  0.22867  0.92935  Biso   1.000  C
  H1184    1.0000 0.84367  0.64942  0.98703  Biso   1.000  H
  H1185    1.0000 0.78486  0.62423  0.96043  Biso   1.000  H
  H1186    1.0000 0.84369  0.64947  0.98703  Biso   1.000  H
  C1326    1.0000 0.74758  0.62264  0.00588  Biso   1.000  C
  H1187    1.0000 0.66288  0.59936  0.97873  Biso   1.000  H
  H1188    1.0000 0.65317  0.61213  0.01522  Biso   1.000  H
  N144     1.0000 0.24772  0.12237  0.94722  Biso   1.000  N
  H1189    1.0000 0.24475  0.09013  0.99222  Biso   1.000  H
  C1327    1.0000 0.34796  0.15096  0.97997  Biso   1.000  C
  C1328    1.0000 0.37136  0.05753  0.99739  Biso   1.000  C
  H1190    1.0000 0.29448  0.96086  0.98333  Biso   1.000  H
  H1191    1.0000 0.26866  0.99521  0.00913  Biso   1.000  H
  H1192    1.0000 0.26868  0.99526  0.00913  Biso   1.000  H
  C1329    1.0000 0.16768  0.20236  0.87778  Biso   1.000  C
  H1193    1.0000 0.93646  0.33714  0.97873  Biso   1.000  H
  H1194    1.0000 0.95896  0.34682  0.01522  Biso   1.000  H
  H1195    1.0000 0.95899  0.34687  0.01522  Biso   1.000  H
  C1330    1.0000 0.09823  0.21101  0.91967  Biso   1.000  C
  C1331    1.0000 0.09826  0.21106  0.91967  Biso   1.000  C
  H1196    1.0000 0.02958  0.24783  0.91403  Biso   1.000  H
  H1197    1.0000 0.73299  0.57366  0.00934  Biso   1.000  H
  H1198    1.0000 0.76734  0.64762  0.02594  Biso   1.000  H
  H1199    1.0000 0.76737  0.64767  0.02594  Biso   1.000  H
  C1332    1.0000 0.20278  0.13875  0.95388  Biso   1.000  C
  H1200    1.0000 0.35054  0.19422  0.98703  Biso   1.000  H
  H1201    1.0000 0.37577  0.16064  0.96043  Biso   1.000  H
  H1202    1.0000 0.35057  0.19427  0.98703  Biso   1.000  H
  C1333    1.0000 0.37737  0.12495  0.00588  Biso   1.000  C
  H1203    1.0000 0.40069  0.06355  0.97873  Biso   1.000  H
  H1204    1.0000 0.38787  0.04105  0.01522  Biso   1.000  H
  C1334    1.0000 0.11898  0.22012  0.88804  Biso   1.000  C
  C1335    1.0000 0.19468  0.17624  0.89904  Biso   1.000  C
  C1336    1.0000 0.12627  0.18402  0.94020  Biso   1.000  C
  C1337    1.0000 0.12629  0.18407  0.94020  Biso   1.000  C
  C1338    1.0000 0.17458  0.16646  0.93079  Biso   1.000  C
  H1205    1.0000 0.18637  0.13241  0.97513  Biso   1.000  H
  H1206    1.0000 0.18639  0.13247  0.97513  Biso   1.000  H
  H1207    1.0000 0.42637  0.15935  0.00934  Biso   1.000  H
  H1208    1.0000 0.35238  0.11974  0.02594  Biso   1.000  H
  H1209    1.0000 0.10009  0.23836  0.87334  Biso   1.000  H
  H1210    1.0000 0.22786  0.16455  0.89203  Biso   1.000  H
  H1211    1.0000 0.11165  0.17691  0.96173  Biso   1.000  H
  H1212    1.0000 0.11168  0.17696  0.96173  Biso   1.000  H
  C1339    1.0000 0.65204  0.80300  0.52005  Biso   1.000  C
  C1340    1.0000 0.72685  0.82417  0.52716  Biso   1.000  C
  H1213    1.0000 0.64945  0.84369  0.51296  Biso   1.000  H
  H1214    1.0000 0.62424  0.78487  0.53956  Biso   1.000  H
  C1341    1.0000 0.62263  0.74758  0.49411  Biso   1.000  C
  N145     1.0000 0.75231  0.87464  0.55277  Biso   1.000  N
  N146     1.0000 0.75233  0.87469  0.55277  Biso   1.000  N
  H1215    1.0000 0.75525  0.84539  0.50776  Biso   1.000  H
  C1342    1.0000 0.65201  0.80295  0.52005  Biso   1.000  C
  C1343    1.0000 0.73155  0.76087  0.53645  Biso   1.000  C
  H1216    1.0000 0.57361  0.73296  0.49067  Biso   1.000  H
  H1217    1.0000 0.64764  0.76736  0.47407  Biso   1.000  H
  C1344    1.0000 0.62864  0.68619  0.50262  Biso   1.000  C
  C1345    1.0000 0.79725  0.93598  0.54610  Biso   1.000  C
  N147     1.0000 0.80304  0.78065  0.54274  Biso   1.000  N
  C1346    1.0000 0.70292  0.70736  0.51014  Biso   1.000  C
  H1218    1.0000 0.70382  0.74048  0.55616  Biso   1.000  H
  H1219    1.0000 0.61214  0.65318  0.48477  Biso   1.000  H
  H1220    1.0000 0.59932  0.66286  0.52126  Biso   1.000  H
  C1347    1.0000 0.82541  0.99186  0.56920  Biso   1.000  C
  H1221    1.0000 0.81363  0.94608  0.52486  Biso   1.000  H
  C1348    1.0000 0.81754  0.77138  0.57067  Biso   1.000  C
  H1222    1.0000 0.73135  0.72657  0.49086  Biso   1.000  H
  H1223    1.0000 0.70553  0.66636  0.51666  Biso   1.000  H
  C1349    1.0000 0.87376  0.05779  0.55981  Biso   1.000  C
  C1350    1.0000 0.80532  0.98156  0.60097  Biso   1.000  C
  C1351    1.0000 0.88723  0.78899  0.58034  Biso   1.000  C
  H1224    1.0000 0.78175  0.75217  0.58596  Biso   1.000  H
  C1352    1.0000 0.90176  0.11279  0.58034  Biso   1.000  C
  H1225    1.0000 0.88834  0.06525  0.53826  Biso   1.000  H
  H1226    1.0000 0.88836  0.06531  0.53826  Biso   1.000  H
  C1353    1.0000 0.83232  0.03466  0.62223  Biso   1.000  C
  H1227    1.0000 0.77212  0.93665  0.60796  Biso   1.000  H
  H1228    1.0000 0.77214  0.93670  0.60796  Biso   1.000  H
  C1354    1.0000 0.89886  0.77988  0.61197  Biso   1.000  C
  C1355    1.0000 0.94224  0.81598  0.55981  Biso   1.000  C
  C1356    1.0000 0.95382  0.18248  0.57067  Biso   1.000  C
  C1357    1.0000 0.88104  0.10115  0.61197  Biso   1.000  C
  C1358    1.0000 0.88107  0.10120  0.61197  Biso   1.000  C
  C1359    1.0000 0.81562  0.02446  0.65550  Biso   1.000  C
  C1360    1.0000 0.96533  0.79764  0.62223  Biso   1.000  C
  H1229    1.0000 0.86173  0.76164  0.62667  Biso   1.000  H
  C1361    1.0000 0.96535  0.79770  0.62223  Biso   1.000  C
  H1230    1.0000 0.86176  0.76169  0.62667  Biso   1.000  H
  H1231    1.0000 0.93474  0.82309  0.53826  Biso   1.000  H
  C1362    1.0000 0.00812  0.83354  0.56920  Biso   1.000  C
  C1363    1.0000 0.00814  0.83359  0.56920  Biso   1.000  C
  H1232    1.0000 0.97042  0.21827  0.58596  Biso   1.000  H
  N148     1.0000 0.97760  0.19695  0.54274  Biso   1.000  N
  N149     1.0000 0.97763  0.19700  0.54274  Biso   1.000  N
  H1233    1.0000 0.89996  0.13829  0.62667  Biso   1.000  H
  C1364    1.0000 0.80501  0.01715  0.68317  Biso   1.000  C
  C1365    1.0000 0.80503  0.01720  0.68317  Biso   1.000  C
  C1366    1.0000 0.97551  0.79115  0.65550  Biso   1.000  C
  C1367    1.0000 0.97553  0.79121  0.65550  Biso   1.000  C
  C1368    1.0000 0.01843  0.82376  0.60097  Biso   1.000  C
  C1369    1.0000 0.06403  0.86125  0.54610  Biso   1.000  C
  C1370    1.0000 0.06406  0.86130  0.54610  Biso   1.000  C
  C1371    1.0000 0.02934  0.26849  0.53645  Biso   1.000  C
  C1372    1.0000 0.79535  0.00819  0.71714  Biso   1.000  C
  C1373    1.0000 0.98282  0.78786  0.68317  Biso   1.000  C
  H1234    1.0000 0.06331  0.83545  0.60796  Biso   1.000  H
  H1235    1.0000 0.06333  0.83550  0.60796  Biso   1.000  H
  N150     1.0000 0.12534  0.87763  0.55277  Biso   1.000  N
  H1236    1.0000 0.05395  0.86759  0.52486  Biso   1.000  H
  C1374    1.0000 0.09734  0.27317  0.52716  Biso   1.000  C
  C1375    1.0000 0.00442  0.29707  0.51014  Biso   1.000  C
  H1237    1.0000 0.03661  0.29614  0.55616  Biso   1.000  H
  H1238    1.0000 0.03663  0.29619  0.55616  Biso   1.000  H
  C1376    1.0000 0.82144  0.06438  0.73727  Biso   1.000  C
  C1377    1.0000 0.76181  0.94396  0.73021  Biso   1.000  C
  C1378    1.0000 0.99185  0.78719  0.71714  Biso   1.000  C
  C1379    1.0000 0.17582  0.90266  0.52716  Biso   1.000  C
  N151     1.0000 0.12237  0.24768  0.55277  Biso   1.000  N
  H1239    1.0000 0.09012  0.24474  0.50776  Biso   1.000  H
  C1380    1.0000 0.15092  0.34796  0.52005  Biso   1.000  C
  N152     1.0000 0.12239  0.24773  0.55277  Biso   1.000  N
  H1240    1.0000 0.09015  0.24479  0.50776  Biso   1.000  H
  C1381    1.0000 0.15094  0.34801  0.52005  Biso   1.000  C
  H1241    1.0000 0.99523  0.26869  0.49086  Biso   1.000  H
  H1242    1.0000 0.96083  0.29444  0.51666  Biso   1.000  H
  H1243    1.0000 0.96085  0.29449  0.51666  Biso   1.000  H
  C1382    1.0000 0.05755  0.37139  0.50262  Biso   1.000  C
  C1383    1.0000 0.81785  0.05604  0.76978  Biso   1.000  C
  H1244    1.0000 0.84214  0.10944  0.72857  Biso   1.000  H
  H1245    1.0000 0.84217  0.10950  0.72857  Biso   1.000  H
  C1384    1.0000 0.75706  0.93562  0.76271  Biso   1.000  C
  H1246    1.0000 0.74162  0.90456  0.71686  Biso   1.000  H
  C1385    1.0000 0.75709  0.93567  0.76271  Biso   1.000  C
  C1386    1.0000 0.93562  0.75706  0.73727  Biso   1.000  C
  C1387    1.0000 0.05604  0.81788  0.73021  Biso   1.000  C
  C1388    1.0000 0.23911  0.97064  0.53645  Biso   1.000  C
  C1389    1.0000 0.23914  0.97069  0.53645  Biso   1.000  C
  H1247    1.0000 0.15462  0.90987  0.50776  Biso   1.000  H
  C1390    1.0000 0.19700  0.84904  0.52005  Biso   1.000  C
  C1391    1.0000 0.19703  0.84910  0.52005  Biso   1.000  C
  C1392    1.0000 0.13872  0.20277  0.54610  Biso   1.000  C
  H1248    1.0000 0.19425  0.35058  0.51296  Biso   1.000  H
  H1249    1.0000 0.16063  0.37577  0.53956  Biso   1.000  H
  C1393    1.0000 0.12494  0.37736  0.49411  Biso   1.000  C
  H1250    1.0000 0.04104  0.38787  0.48477  Biso   1.000  H
  H1251    1.0000 0.06352  0.40064  0.52126  Biso   1.000  H
  H1252    1.0000 0.06355  0.40069  0.52126  Biso   1.000  H
  H1253    1.0000 0.83706  0.09544  0.78313  Biso   1.000  H
  C1394    1.0000 0.78716  0.99181  0.78287  Biso   1.000  C
  C1395    1.0000 0.78719  0.99186  0.78287  Biso   1.000  C
  H1254    1.0000 0.73270  0.89056  0.77144  Biso   1.000  H
  C1396    1.0000 0.94399  0.76185  0.76978  Biso   1.000  C
  H1255    1.0000 0.89054  0.73265  0.72857  Biso   1.000  H
  H1256    1.0000 0.89057  0.73270  0.72857  Biso   1.000  H
  C1397    1.0000 0.06438  0.82144  0.76271  Biso   1.000  C
  H1257    1.0000 0.09542  0.83704  0.71686  Biso   1.000  H
  H1258    1.0000 0.09544  0.83710  0.71686  Biso   1.000  H
  N153     1.0000 0.21936  0.02240  0.54274  Biso   1.000  N
  C1398    1.0000 0.29266  0.99557  0.51014  Biso   1.000  C
  H1259    1.0000 0.25952  0.96338  0.55616  Biso   1.000  H
  H1260    1.0000 0.15633  0.80578  0.51296  Biso   1.000  H
  H1261    1.0000 0.21513  0.83936  0.53956  Biso   1.000  H
  C1399    1.0000 0.25242  0.87505  0.49411  Biso   1.000  C
  C1400    1.0000 0.25245  0.87510  0.49411  Biso   1.000  C
  C1401    1.0000 0.16644  0.17454  0.56920  Biso   1.000  C
  H1262    1.0000 0.13245  0.18639  0.52486  Biso   1.000  H
  C1402    1.0000 0.16647  0.17460  0.56920  Biso   1.000  C
  H1263    1.0000 0.15934  0.42634  0.49067  Biso   1.000  H
  H1264    1.0000 0.11972  0.35238  0.47407  Biso   1.000  H
  H1265    1.0000 0.15936  0.42639  0.49067  Biso   1.000  H
  C1403    1.0000 0.78786  0.98285  0.81684  Biso   1.000  C
  H1266    1.0000 0.90457  0.74161  0.78313  Biso   1.000  H
  H1267    1.0000 0.90459  0.74166  0.78313  Biso   1.000  H
  C1404    1.0000 0.00814  0.79533  0.78287  Biso   1.000  C
  H1268    1.0000 0.10947  0.84214  0.77144  Biso   1.000  H
  C1405    1.0000 0.22860  0.04615  0.57067  Biso   1.000  C
  C1406    1.0000 0.22863  0.04620  0.57067  Biso   1.000  C
  C1407    1.0000 0.31383  0.94247  0.50262  Biso   1.000  C
  H1269    1.0000 0.27345  0.00479  0.49086  Biso   1.000  H
  H1270    1.0000 0.33362  0.03914  0.51666  Biso   1.000  H
  H1271    1.0000 0.33365  0.03919  0.51666  Biso   1.000  H
  H1272    1.0000 0.26702  0.84065  0.49067  Biso   1.000  H
  H1273    1.0000 0.23263  0.88026  0.47407  Biso   1.000  H
  H1274    1.0000 0.26705  0.84070  0.49067  Biso   1.000  H
  H1275    1.0000 0.23266  0.88031  0.47407  Biso   1.000  H
  C1408    1.0000 0.18406  0.12629  0.55981  Biso   1.000  C
  C1409    1.0000 0.17624  0.19468  0.60097  Biso   1.000  C
  C1410    1.0000 0.79116  0.97554  0.84449  Biso   1.000  C
  C1411    1.0000 0.01713  0.80501  0.81684  Biso   1.000  C
  C1412    1.0000 0.01716  0.80506  0.81684  Biso   1.000  C
  C1413    1.0000 0.21104  0.09827  0.58034  Biso   1.000  C
  H1276    1.0000 0.24783  0.02956  0.58596  Biso   1.000  H
  H1277    1.0000 0.34683  0.95895  0.48477  Biso   1.000  H
  H1278    1.0000 0.33713  0.93645  0.52126  Biso   1.000  H
  H1279    1.0000 0.34685  0.95900  0.48477  Biso   1.000  H
  H1280    1.0000 0.33716  0.93650  0.52126  Biso   1.000  H
  H1281    1.0000 0.17693  0.11166  0.53826  Biso   1.000  H
  C1414    1.0000 0.20233  0.16764  0.62223  Biso   1.000  C
  H1282    1.0000 0.16450  0.22785  0.60796  Biso   1.000  H
  C1415    1.0000 0.20236  0.16769  0.62223  Biso   1.000  C
  H1283    1.0000 0.16453  0.22790  0.60796  Biso   1.000  H
  C1416    1.0000 0.79766  0.96534  0.87778  Biso   1.000  C
  C1417    1.0000 0.02445  0.81562  0.84449  Biso   1.000  C
  C1418    1.0000 0.02447  0.81567  0.84449  Biso   1.000  C
  C1419    1.0000 0.22015  0.11897  0.61197  Biso   1.000  C
  C1420    1.0000 0.20883  0.18438  0.65550  Biso   1.000  C
  C1421    1.0000 0.82376  0.01844  0.89904  Biso   1.000  C
  C1422    1.0000 0.77989  0.89885  0.88804  Biso   1.000  C
  C1423    1.0000 0.03469  0.83236  0.87778  Biso   1.000  C
  H1284    1.0000 0.23835  0.10007  0.62667  Biso   1.000  H
  C1424    1.0000 0.21213  0.19499  0.68317  Biso   1.000  C
  C1425    1.0000 0.83355  0.00814  0.93079  Biso   1.000  C
  H1285    1.0000 0.83547  0.06335  0.89203  Biso   1.000  H
  H1286    1.0000 0.76168  0.86171  0.87334  Biso   1.000  H
  C1426    1.0000 0.78897  0.88721  0.91967  Biso   1.000  C
  H1287    1.0000 0.76170  0.86177  0.87334  Biso   1.000  H
  C1427    1.0000 0.78899  0.88726  0.91967  Biso   1.000  C
  C1428    1.0000 0.98156  0.80532  0.89904  Biso   1.000  C
  C1429    1.0000 0.98159  0.80537  0.89904  Biso   1.000  C
  C1430    1.0000 0.10117  0.88103  0.88804  Biso   1.000  C
  C1431    1.0000 0.21282  0.20467  0.71714  Biso   1.000  C
  C1432    1.0000 0.81598  0.94221  0.94020  Biso   1.000  C
  C1433    1.0000 0.81600  0.94226  0.94020  Biso   1.000  C
  C1434    1.0000 0.86127  0.06402  0.95388  Biso   1.000  C
  C1435    1.0000 0.86129  0.06407  0.95388  Biso   1.000  C
  C1436    1.0000 0.77134  0.81752  0.92935  Biso   1.000  C
  C1437    1.0000 0.99190  0.82546  0.93079  Biso   1.000  C
  H1288    1.0000 0.93665  0.77215  0.89203  Biso   1.000  H
  H1289    1.0000 0.13828  0.89993  0.87334  Biso   1.000  H
  C1438    1.0000 0.11278  0.90173  0.91967  Biso   1.000  C
  C1439    1.0000 0.24294  0.17856  0.73727  Biso   1.000  C
  C1440    1.0000 0.18214  0.23815  0.73021  Biso   1.000  C
  C1441    1.0000 0.18217  0.23820  0.73021  Biso   1.000  C
  H1290    1.0000 0.82308  0.93475  0.96173  Biso   1.000  H
  N154     1.0000 0.87767  0.12536  0.94722  Biso   1.000  N
  H1291    1.0000 0.86755  0.05392  0.97513  Biso   1.000  H
  N155     1.0000 0.78065  0.80305  0.95728  Biso   1.000  N
  H1292    1.0000 0.75215  0.78173  0.91403  Biso   1.000  H
  C1442    1.0000 0.93595  0.79723  0.95388  Biso   1.000  C
  C1443    1.0000 0.05778  0.87371  0.94020  Biso   1.000  C
  C1444    1.0000 0.05780  0.87377  0.94020  Biso   1.000  C
  C1445    1.0000 0.18246  0.95385  0.92935  Biso   1.000  C
  C1446    1.0000 0.23816  0.18212  0.76978  Biso   1.000  C
  H1293    1.0000 0.26733  0.15786  0.72857  Biso   1.000  H
  C1447    1.0000 0.23818  0.18217  0.76978  Biso   1.000  C
  C1448    1.0000 0.17856  0.24294  0.76271  Biso   1.000  C
  H1294    1.0000 0.16296  0.25839  0.71686  Biso   1.000  H
  C1449    1.0000 0.90268  0.17583  0.97285  Biso   1.000  C
  C1450    1.0000 0.76085  0.73151  0.96356  Biso   1.000  C
  C1451    1.0000 0.76088  0.73157  0.96356  Biso   1.000  C
  N156     1.0000 0.87469  0.75232  0.94722  Biso   1.000  N
  H1295    1.0000 0.94606  0.81361  0.97513  Biso   1.000  H
  H1296    1.0000 0.94608  0.81366  0.97513  Biso   1.000  H
  H1297    1.0000 0.06527  0.88834  0.96173  Biso   1.000  H
  N157     1.0000 0.19696  0.97760  0.95728  Biso   1.000  N
  H1298    1.0000 0.21827  0.97044  0.91403  Biso   1.000  H
  C1452    1.0000 0.20467  0.21281  0.78287  Biso   1.000  C
  H1299    1.0000 0.25837  0.16296  0.78313  Biso   1.000  H
  C1453    1.0000 0.20469  0.21286  0.78287  Biso   1.000  C
  H1300    1.0000 0.15790  0.26735  0.77144  Biso   1.000  H
  C1454    1.0000 0.84906  0.19705  0.97997  Biso   1.000  C
  C1455    1.0000 0.97068  0.23913  0.96356  Biso   1.000  C
  H1301    1.0000 0.90987  0.15461  0.99222  Biso   1.000  H
  H1302    1.0000 0.90989  0.15466  0.99222  Biso   1.000  H
  C1456    1.0000 0.82416  0.72683  0.97285  Biso   1.000  C
  C1457    1.0000 0.70735  0.70293  0.98985  Biso   1.000  C
  H1303    1.0000 0.74047  0.70386  0.94383  Biso   1.000  H
  C1458    1.0000 0.26847  0.02936  0.96356  Biso   1.000  C
  C1459    1.0000 0.19496  0.21214  0.81684  Biso   1.000  C
  H1304    1.0000 0.83937  0.21513  0.96043  Biso   1.000  H
  H1305    1.0000 0.80577  0.15631  0.98703  Biso   1.000  H
  H1306    1.0000 0.80579  0.15636  0.98703  Biso   1.000  H
  C1460    1.0000 0.87505  0.25242  0.00588  Biso   1.000  C
  C1461    1.0000 0.87507  0.25247  0.00588  Biso   1.000  C
  C1462    1.0000 0.99556  0.29264  0.98985  Biso   1.000  C
  H1307    1.0000 0.96335  0.25952  0.94383  Biso   1.000  H
  N158     1.0000 0.02239  0.21935  0.95728  Biso   1.000  N
  N159     1.0000 0.02241  0.21940  0.95728  Biso   1.000  N
  H1308    1.0000 0.84538  0.75526  0.99222  Biso   1.000  H
  C1463    1.0000 0.80296  0.65204  0.97997  Biso   1.000  C
  C1464    1.0000 0.68616  0.62861  0.99739  Biso   1.000  C
  H1309    1.0000 0.66638  0.70556  0.98333  Biso   1.000  H
  C1465    1.0000 0.68619  0.62866  0.99739  Biso   1.000  C
  H1310    1.0000 0.72654  0.73131  0.00913  Biso   1.000  H
  H1311    1.0000 0.72656  0.73136  0.00913  Biso   1.000  H
  C1466    1.0000 0.27316  0.09734  0.97285  Biso   1.000  C
  C1467    1.0000 0.29709  0.00443  0.98985  Biso   1.000  C
  H1312    1.0000 0.29614  0.03662  0.94383  Biso   1.000  H
  H1313    1.0000 0.29617  0.03667  0.94383  Biso   1.000  H
  C1468    1.0000 0.18435  0.20885  0.84449  Biso   1.000  C
  C1469    1.0000 0.94245  0.31381  0.99739  Biso   1.000  C
  C1470    1.0000 0.94248  0.31386  0.99739  Biso   1.000  C
  H1314    1.0000 0.84066  0.26704  0.00934  Biso   1.000  H
  H1315    1.0000 0.88028  0.23264  0.02594  Biso   1.000  H
  H1316    1.0000 0.03916  0.33364  0.98333  Biso   1.000  H
  H1317    1.0000 0.00478  0.27343  0.00913  Biso   1.000  H
  C1471    1.0000 0.04616  0.22862  0.92935  Biso   1.000  C
  C1472    1.0000 0.04618  0.22867  0.92935  Biso   1.000  C
  H1318    1.0000 0.84367  0.64942  0.98703  Biso   1.000  H
  H1319    1.0000 0.78486  0.62423  0.96043  Biso   1.000  H
  H1320    1.0000 0.84369  0.64947  0.98703  Biso   1.000  H
  C1473    1.0000 0.74758  0.62264  0.00588  Biso   1.000  C
  H1321    1.0000 0.66288  0.59936  0.97873  Biso   1.000  H
  H1322    1.0000 0.65317  0.61213  0.01522  Biso   1.000  H
  N160     1.0000 0.24772  0.12237  0.94722  Biso   1.000  N
  H1323    1.0000 0.24475  0.09013  0.99222  Biso   1.000  H
  C1474    1.0000 0.34796  0.15096  0.97997  Biso   1.000  C
  H1324    1.0000 0.29448  0.96086  0.98333  Biso   1.000  H
  H1325    1.0000 0.26866  0.99521  0.00913  Biso   1.000  H
  H1326    1.0000 0.26868  0.99526  0.00913  Biso   1.000  H
  C1475    1.0000 0.37136  0.05753  0.99739  Biso   1.000  C
  C1476    1.0000 0.16768  0.20236  0.87778  Biso   1.000  C
  H1327    1.0000 0.93646  0.33714  0.97873  Biso   1.000  H
  H1328    1.0000 0.95896  0.34682  0.01522  Biso   1.000  H
  H1329    1.0000 0.95899  0.34687  0.01522  Biso   1.000  H
  C1477    1.0000 0.09823  0.21101  0.91967  Biso   1.000  C
  C1478    1.0000 0.09826  0.21106  0.91967  Biso   1.000  C
  H1330    1.0000 0.02958  0.24783  0.91403  Biso   1.000  H
  H1331    1.0000 0.73299  0.57366  0.00934  Biso   1.000  H
  H1332    1.0000 0.76734  0.64762  0.02594  Biso   1.000  H
  H1333    1.0000 0.76737  0.64767  0.02594  Biso   1.000  H
  C1479    1.0000 0.20278  0.13875  0.95388  Biso   1.000  C
  H1334    1.0000 0.35054  0.19422  0.98703  Biso   1.000  H
  H1335    1.0000 0.37577  0.16064  0.96043  Biso   1.000  H
  H1336    1.0000 0.35057  0.19427  0.98703  Biso   1.000  H
  C1480    1.0000 0.37737  0.12495  0.00588  Biso   1.000  C
  H1337    1.0000 0.40069  0.06355  0.97873  Biso   1.000  H
  H1338    1.0000 0.38787  0.04105  0.01522  Biso   1.000  H
  C1481    1.0000 0.11898  0.22012  0.88804  Biso   1.000  C
  C1482    1.0000 0.19468  0.17624  0.89904  Biso   1.000  C
  C1483    1.0000 0.12627  0.18402  0.94020  Biso   1.000  C
  C1484    1.0000 0.12629  0.18407  0.94020  Biso   1.000  C
  C1485    1.0000 0.17458  0.16646  0.93079  Biso   1.000  C
  H1339    1.0000 0.18637  0.13241  0.97513  Biso   1.000  H
  H1340    1.0000 0.18639  0.13247  0.97513  Biso   1.000  H
  H1341    1.0000 0.42637  0.15935  0.00934  Biso   1.000  H
  H1342    1.0000 0.35238  0.11974  0.02594  Biso   1.000  H
  H1343    1.0000 0.10009  0.23836  0.87334  Biso   1.000  H
  H1344    1.0000 0.22786  0.16455  0.89203  Biso   1.000  H
  H1345    1.0000 0.11165  0.17691  0.96173  Biso   1.000  H
  H1346    1.0000 0.11168  0.17696  0.96173  Biso   1.000  H
  C1486    1.0000 0.65204  0.80300  0.52005  Biso   1.000  C
  C1487    1.0000 0.72685  0.82417  0.52716  Biso   1.000  C
  H1347    1.0000 0.64945  0.84369  0.51296  Biso   1.000  H
  H1348    1.0000 0.62424  0.78487  0.53956  Biso   1.000  H
  C1488    1.0000 0.62263  0.74758  0.49411  Biso   1.000  C
  N161     1.0000 0.75231  0.87464  0.55277  Biso   1.000  N
  N162     1.0000 0.75233  0.87469  0.55277  Biso   1.000  N
  H1349    1.0000 0.75525  0.84539  0.50776  Biso   1.000  H
  C1489    1.0000 0.65201  0.80295  0.52005  Biso   1.000  C
  C1490    1.0000 0.73155  0.76087  0.53645  Biso   1.000  C
  H1350    1.0000 0.57361  0.73296  0.49067  Biso   1.000  H
  H1351    1.0000 0.64764  0.76736  0.47407  Biso   1.000  H
  C1491    1.0000 0.62864  0.68619  0.50262  Biso   1.000  C
  C1492    1.0000 0.79725  0.93598  0.54610  Biso   1.000  C
  N163     1.0000 0.80304  0.78065  0.54274  Biso   1.000  N
  C1493    1.0000 0.70292  0.70736  0.51014  Biso   1.000  C
  H1352    1.0000 0.70382  0.74048  0.55616  Biso   1.000  H
  H1353    1.0000 0.61214  0.65318  0.48477  Biso   1.000  H
  H1354    1.0000 0.59932  0.66286  0.52126  Biso   1.000  H
  C1494    1.0000 0.82541  0.99186  0.56920  Biso   1.000  C
  H1355    1.0000 0.81363  0.94608  0.52486  Biso   1.000  H
  C1495    1.0000 0.81754  0.77138  0.57067  Biso   1.000  C
  H1356    1.0000 0.73135  0.72657  0.49086  Biso   1.000  H
  H1357    1.0000 0.70553  0.66636  0.51666  Biso   1.000  H
  C1496    1.0000 0.87376  0.05779  0.55981  Biso   1.000  C
  C1497    1.0000 0.80532  0.98156  0.60097  Biso   1.000  C
  C1498    1.0000 0.88723  0.78899  0.58034  Biso   1.000  C
  H1358    1.0000 0.78175  0.75217  0.58596  Biso   1.000  H
  C1499    1.0000 0.90176  0.11279  0.58034  Biso   1.000  C
  H1359    1.0000 0.88834  0.06525  0.53826  Biso   1.000  H
  H1360    1.0000 0.88836  0.06531  0.53826  Biso   1.000  H
  C1500    1.0000 0.83232  0.03466  0.62223  Biso   1.000  C
  H1361    1.0000 0.77212  0.93665  0.60796  Biso   1.000  H
  H1362    1.0000 0.77214  0.93670  0.60796  Biso   1.000  H
  C1501    1.0000 0.89886  0.77988  0.61197  Biso   1.000  C
  C1502    1.0000 0.94224  0.81598  0.55981  Biso   1.000  C
  C1503    1.0000 0.95382  0.18248  0.57067  Biso   1.000  C
  C1504    1.0000 0.88104  0.10115  0.61197  Biso   1.000  C
  C1505    1.0000 0.88107  0.10120  0.61197  Biso   1.000  C
  C1506    1.0000 0.81562  0.02446  0.65550  Biso   1.000  C
  C1507    1.0000 0.96533  0.79764  0.62223  Biso   1.000  C
  H1363    1.0000 0.86173  0.76164  0.62667  Biso   1.000  H
  C1508    1.0000 0.96535  0.79770  0.62223  Biso   1.000  C
  H1364    1.0000 0.86176  0.76169  0.62667  Biso   1.000  H
  H1365    1.0000 0.93474  0.82309  0.53826  Biso   1.000  H
  C1509    1.0000 0.00812  0.83354  0.56920  Biso   1.000  C
  C1510    1.0000 0.00814  0.83359  0.56920  Biso   1.000  C
  H1366    1.0000 0.97042  0.21827  0.58596  Biso   1.000  H
  N164     1.0000 0.97760  0.19695  0.54274  Biso   1.000  N
  N165     1.0000 0.97763  0.19700  0.54274  Biso   1.000  N
  H1367    1.0000 0.89996  0.13829  0.62667  Biso   1.000  H
  C1511    1.0000 0.80501  0.01715  0.68317  Biso   1.000  C
  C1512    1.0000 0.80503  0.01720  0.68317  Biso   1.000  C
  C1513    1.0000 0.97551  0.79115  0.65550  Biso   1.000  C
  C1514    1.0000 0.97553  0.79121  0.65550  Biso   1.000  C
  C1515    1.0000 0.01843  0.82376  0.60097  Biso   1.000  C
  C1516    1.0000 0.06403  0.86125  0.54610  Biso   1.000  C
  C1517    1.0000 0.06406  0.86130  0.54610  Biso   1.000  C
  C1518    1.0000 0.02934  0.26849  0.53645  Biso   1.000  C
  C1519    1.0000 0.79535  0.00819  0.71714  Biso   1.000  C
  C1520    1.0000 0.98282  0.78786  0.68317  Biso   1.000  C
  H1368    1.0000 0.06331  0.83545  0.60796  Biso   1.000  H
  H1369    1.0000 0.06333  0.83550  0.60796  Biso   1.000  H
  N166     1.0000 0.12534  0.87763  0.55277  Biso   1.000  N
  H1370    1.0000 0.05395  0.86759  0.52486  Biso   1.000  H
  C1521    1.0000 0.09734  0.27317  0.52716  Biso   1.000  C
  C1522    1.0000 0.00442  0.29707  0.51014  Biso   1.000  C
  H1371    1.0000 0.03661  0.29614  0.55616  Biso   1.000  H
  H1372    1.0000 0.03663  0.29619  0.55616  Biso   1.000  H
  C1523    1.0000 0.82144  0.06438  0.73727  Biso   1.000  C
  C1524    1.0000 0.76181  0.94396  0.73021  Biso   1.000  C
  C1525    1.0000 0.99185  0.78719  0.71714  Biso   1.000  C
  C1526    1.0000 0.17582  0.90266  0.52716  Biso   1.000  C
  N167     1.0000 0.12237  0.24768  0.55277  Biso   1.000  N
  H1373    1.0000 0.09012  0.24474  0.50776  Biso   1.000  H
  C1527    1.0000 0.15092  0.34796  0.52005  Biso   1.000  C
  N168     1.0000 0.12239  0.24773  0.55277  Biso   1.000  N
  H1374    1.0000 0.09015  0.24479  0.50776  Biso   1.000  H
  C1528    1.0000 0.15094  0.34801  0.52005  Biso   1.000  C
  H1375    1.0000 0.99523  0.26869  0.49086  Biso   1.000  H
  H1376    1.0000 0.96083  0.29444  0.51666  Biso   1.000  H
  H1377    1.0000 0.96085  0.29449  0.51666  Biso   1.000  H
  C1529    1.0000 0.05755  0.37139  0.50262  Biso   1.000  C
  C1530    1.0000 0.81785  0.05604  0.76978  Biso   1.000  C
  H1378    1.0000 0.84214  0.10944  0.72857  Biso   1.000  H
  H1379    1.0000 0.84217  0.10950  0.72857  Biso   1.000  H
  C1531    1.0000 0.75706  0.93562  0.76271  Biso   1.000  C
  H1380    1.0000 0.74162  0.90456  0.71686  Biso   1.000  H
  C1532    1.0000 0.75709  0.93567  0.76271  Biso   1.000  C
  C1533    1.0000 0.93562  0.75706  0.73727  Biso   1.000  C
  C1534    1.0000 0.05604  0.81788  0.73021  Biso   1.000  C
  C1535    1.0000 0.23911  0.97064  0.53645  Biso   1.000  C
  C1536    1.0000 0.23914  0.97069  0.53645  Biso   1.000  C
  H1381    1.0000 0.15462  0.90987  0.50776  Biso   1.000  H
  C1537    1.0000 0.19700  0.84904  0.52005  Biso   1.000  C
  C1538    1.0000 0.19703  0.84910  0.52005  Biso   1.000  C
  C1539    1.0000 0.13872  0.20277  0.54610  Biso   1.000  C
  H1382    1.0000 0.19425  0.35058  0.51296  Biso   1.000  H
  H1383    1.0000 0.16063  0.37577  0.53956  Biso   1.000  H
  C1540    1.0000 0.12494  0.37736  0.49411  Biso   1.000  C
  H1384    1.0000 0.04104  0.38787  0.48477  Biso   1.000  H
  H1385    1.0000 0.06352  0.40064  0.52126  Biso   1.000  H
  H1386    1.0000 0.06355  0.40069  0.52126  Biso   1.000  H
  H1387    1.0000 0.83706  0.09544  0.78313  Biso   1.000  H
  C1541    1.0000 0.78716  0.99181  0.78287  Biso   1.000  C
  C1542    1.0000 0.78719  0.99186  0.78287  Biso   1.000  C
  H1388    1.0000 0.73270  0.89056  0.77144  Biso   1.000  H
  C1543    1.0000 0.94399  0.76185  0.76978  Biso   1.000  C
  H1389    1.0000 0.89054  0.73265  0.72857  Biso   1.000  H
  H1390    1.0000 0.89057  0.73270  0.72857  Biso   1.000  H
  C1544    1.0000 0.06438  0.82144  0.76271  Biso   1.000  C
  H1391    1.0000 0.09542  0.83704  0.71686  Biso   1.000  H
  H1392    1.0000 0.09544  0.83710  0.71686  Biso   1.000  H
  N169     1.0000 0.21936  0.02240  0.54274  Biso   1.000  N
  C1545    1.0000 0.29266  0.99557  0.51014  Biso   1.000  C
  H1393    1.0000 0.25952  0.96338  0.55616  Biso   1.000  H
  H1394    1.0000 0.15633  0.80578  0.51296  Biso   1.000  H
  H1395    1.0000 0.21513  0.83936  0.53956  Biso   1.000  H
  C1546    1.0000 0.25242  0.87505  0.49411  Biso   1.000  C
  C1547    1.0000 0.25245  0.87510  0.49411  Biso   1.000  C
  C1548    1.0000 0.16644  0.17454  0.56920  Biso   1.000  C
  H1396    1.0000 0.13245  0.18639  0.52486  Biso   1.000  H
  C1549    1.0000 0.16647  0.17460  0.56920  Biso   1.000  C
  H1397    1.0000 0.15934  0.42634  0.49067  Biso   1.000  H
  H1398    1.0000 0.11972  0.35238  0.47407  Biso   1.000  H
  H1399    1.0000 0.15936  0.42639  0.49067  Biso   1.000  H
  C1550    1.0000 0.78786  0.98285  0.81684  Biso   1.000  C
  H1400    1.0000 0.90457  0.74161  0.78313  Biso   1.000  H
  H1401    1.0000 0.90459  0.74166  0.78313  Biso   1.000  H
  C1551    1.0000 0.00814  0.79533  0.78287  Biso   1.000  C
  H1402    1.0000 0.10947  0.84214  0.77144  Biso   1.000  H
  C1552    1.0000 0.22860  0.04615  0.57067  Biso   1.000  C
  C1553    1.0000 0.22863  0.04620  0.57067  Biso   1.000  C
  C1554    1.0000 0.31383  0.94247  0.50262  Biso   1.000  C
  H1403    1.0000 0.27345  0.00479  0.49086  Biso   1.000  H
  H1404    1.0000 0.33362  0.03914  0.51666  Biso   1.000  H
  H1405    1.0000 0.33365  0.03919  0.51666  Biso   1.000  H
  H1406    1.0000 0.26702  0.84065  0.49067  Biso   1.000  H
  H1407    1.0000 0.23263  0.88026  0.47407  Biso   1.000  H
  H1408    1.0000 0.26705  0.84070  0.49067  Biso   1.000  H
  H1409    1.0000 0.23266  0.88031  0.47407  Biso   1.000  H
  C1555    1.0000 0.18406  0.12629  0.55981  Biso   1.000  C
  C1556    1.0000 0.17624  0.19468  0.60097  Biso   1.000  C
  C1557    1.0000 0.79116  0.97554  0.84449  Biso   1.000  C
  C1558    1.0000 0.01713  0.80501  0.81684  Biso   1.000  C
  C1559    1.0000 0.01716  0.80506  0.81684  Biso   1.000  C
  C1560    1.0000 0.21104  0.09827  0.58034  Biso   1.000  C
  H1410    1.0000 0.24783  0.02956  0.58596  Biso   1.000  H
  H1411    1.0000 0.34683  0.95895  0.48477  Biso   1.000  H
  H1412    1.0000 0.33713  0.93645  0.52126  Biso   1.000  H
  H1413    1.0000 0.34685  0.95900  0.48477  Biso   1.000  H
  H1414    1.0000 0.33716  0.93650  0.52126  Biso   1.000  H
  H1415    1.0000 0.17693  0.11166  0.53826  Biso   1.000  H
  C1561    1.0000 0.20233  0.16764  0.62223  Biso   1.000  C
  H1416    1.0000 0.16450  0.22785  0.60796  Biso   1.000  H
  C1562    1.0000 0.20236  0.16769  0.62223  Biso   1.000  C
  H1417    1.0000 0.16453  0.22790  0.60796  Biso   1.000  H
  C1563    1.0000 0.79766  0.96534  0.87778  Biso   1.000  C
  C1564    1.0000 0.02445  0.81562  0.84449  Biso   1.000  C
  C1565    1.0000 0.02447  0.81567  0.84449  Biso   1.000  C
  C1566    1.0000 0.22015  0.11897  0.61197  Biso   1.000  C
  C1567    1.0000 0.20883  0.18438  0.65550  Biso   1.000  C
  C1568    1.0000 0.82376  0.01844  0.89904  Biso   1.000  C
  C1569    1.0000 0.77989  0.89885  0.88804  Biso   1.000  C
  C1570    1.0000 0.03469  0.83236  0.87778  Biso   1.000  C
  H1418    1.0000 0.23835  0.10007  0.62667  Biso   1.000  H
  C1571    1.0000 0.21213  0.19499  0.68317  Biso   1.000  C
  C1572    1.0000 0.83355  0.00814  0.93079  Biso   1.000  C
  H1419    1.0000 0.83547  0.06335  0.89203  Biso   1.000  H
  H1420    1.0000 0.76168  0.86171  0.87334  Biso   1.000  H
  C1573    1.0000 0.78897  0.88721  0.91967  Biso   1.000  C
  H1421    1.0000 0.76170  0.86177  0.87334  Biso   1.000  H
  C1574    1.0000 0.78899  0.88726  0.91967  Biso   1.000  C
  C1575    1.0000 0.98156  0.80532  0.89904  Biso   1.000  C
  C1576    1.0000 0.98159  0.80537  0.89904  Biso   1.000  C
  C1577    1.0000 0.10117  0.88103  0.88804  Biso   1.000  C
  C1578    1.0000 0.21282  0.20467  0.71714  Biso   1.000  C
  C1579    1.0000 0.81598  0.94221  0.94020  Biso   1.000  C
  C1580    1.0000 0.81600  0.94226  0.94020  Biso   1.000  C
  C1581    1.0000 0.86127  0.06402  0.95388  Biso   1.000  C
  C1582    1.0000 0.86129  0.06407  0.95388  Biso   1.000  C
  C1583    1.0000 0.77134  0.81752  0.92935  Biso   1.000  C
  C1584    1.0000 0.99190  0.82546  0.93079  Biso   1.000  C
  H1422    1.0000 0.93665  0.77215  0.89203  Biso   1.000  H
  H1423    1.0000 0.13828  0.89993  0.87334  Biso   1.000  H
  C1585    1.0000 0.11278  0.90173  0.91967  Biso   1.000  C
  C1586    1.0000 0.24294  0.17856  0.73727  Biso   1.000  C
  C1587    1.0000 0.18214  0.23815  0.73021  Biso   1.000  C
  C1588    1.0000 0.18217  0.23820  0.73021  Biso   1.000  C
  H1424    1.0000 0.82308  0.93475  0.96173  Biso   1.000  H
  N170     1.0000 0.87767  0.12536  0.94722  Biso   1.000  N
  H1425    1.0000 0.86755  0.05392  0.97513  Biso   1.000  H
  N171     1.0000 0.78065  0.80305  0.95728  Biso   1.000  N
  H1426    1.0000 0.75215  0.78173  0.91403  Biso   1.000  H
  C1589    1.0000 0.93595  0.79723  0.95388  Biso   1.000  C
  C1590    1.0000 0.05778  0.87371  0.94020  Biso   1.000  C
  C1591    1.0000 0.05780  0.87377  0.94020  Biso   1.000  C
  C1592    1.0000 0.18246  0.95385  0.92935  Biso   1.000  C
  C1593    1.0000 0.23816  0.18212  0.76978  Biso   1.000  C
  H1427    1.0000 0.26733  0.15786  0.72857  Biso   1.000  H
  C1594    1.0000 0.23818  0.18217  0.76978  Biso   1.000  C
  C1595    1.0000 0.17856  0.24294  0.76271  Biso   1.000  C
  H1428    1.0000 0.16296  0.25839  0.71686  Biso   1.000  H
  C1596    1.0000 0.90268  0.17583  0.97285  Biso   1.000  C
  C1597    1.0000 0.76085  0.73151  0.96356  Biso   1.000  C
  C1598    1.0000 0.76088  0.73157  0.96356  Biso   1.000  C
  N172     1.0000 0.87469  0.75232  0.94722  Biso   1.000  N
  H1429    1.0000 0.94606  0.81361  0.97513  Biso   1.000  H
  H1430    1.0000 0.94608  0.81366  0.97513  Biso   1.000  H
  H1431    1.0000 0.06527  0.88834  0.96173  Biso   1.000  H
  N173     1.0000 0.19696  0.97760  0.95728  Biso   1.000  N
  H1432    1.0000 0.21827  0.97044  0.91403  Biso   1.000  H
  C1599    1.0000 0.20467  0.21281  0.78287  Biso   1.000  C
  H1433    1.0000 0.25837  0.16296  0.78313  Biso   1.000  H
  C1600    1.0000 0.20469  0.21286  0.78287  Biso   1.000  C
  H1434    1.0000 0.15790  0.26735  0.77144  Biso   1.000  H
  C1601    1.0000 0.84906  0.19705  0.97997  Biso   1.000  C
  C1602    1.0000 0.97068  0.23913  0.96356  Biso   1.000  C
  H1435    1.0000 0.90987  0.15461  0.99222  Biso   1.000  H
  H1436    1.0000 0.90989  0.15466  0.99222  Biso   1.000  H
  C1603    1.0000 0.82416  0.72683  0.97285  Biso   1.000  C
  C1604    1.0000 0.70735  0.70293  0.98985  Biso   1.000  C
  H1437    1.0000 0.74047  0.70386  0.94383  Biso   1.000  H
  C1605    1.0000 0.26847  0.02936  0.96356  Biso   1.000  C
  C1606    1.0000 0.19496  0.21214  0.81684  Biso   1.000  C
  H1438    1.0000 0.83937  0.21513  0.96043  Biso   1.000  H
  H1439    1.0000 0.80577  0.15631  0.98703  Biso   1.000  H
  H1440    1.0000 0.80579  0.15636  0.98703  Biso   1.000  H
  C1607    1.0000 0.87505  0.25242  0.00588  Biso   1.000  C
  C1608    1.0000 0.87507  0.25247  0.00588  Biso   1.000  C
  C1609    1.0000 0.99556  0.29264  0.98985  Biso   1.000  C
  H1441    1.0000 0.96335  0.25952  0.94383  Biso   1.000  H
  N174     1.0000 0.02239  0.21935  0.95728  Biso   1.000  N
  N175     1.0000 0.02241  0.21940  0.95728  Biso   1.000  N
  H1442    1.0000 0.84538  0.75526  0.99222  Biso   1.000  H
  C1610    1.0000 0.80296  0.65204  0.97997  Biso   1.000  C
  C1611    1.0000 0.68616  0.62861  0.99739  Biso   1.000  C
  H1443    1.0000 0.66638  0.70556  0.98333  Biso   1.000  H
  C1612    1.0000 0.68619  0.62866  0.99739  Biso   1.000  C
  H1444    1.0000 0.72654  0.73131  0.00913  Biso   1.000  H
  H1445    1.0000 0.72656  0.73136  0.00913  Biso   1.000  H
  C1613    1.0000 0.27316  0.09734  0.97285  Biso   1.000  C
  C1614    1.0000 0.29709  0.00443  0.98985  Biso   1.000  C
  H1446    1.0000 0.29614  0.03662  0.94383  Biso   1.000  H
  H1447    1.0000 0.29617  0.03667  0.94383  Biso   1.000  H
  C1615    1.0000 0.18435  0.20885  0.84449  Biso   1.000  C
  C1616    1.0000 0.94245  0.31381  0.99739  Biso   1.000  C
  C1617    1.0000 0.94248  0.31386  0.99739  Biso   1.000  C
  H1448    1.0000 0.84066  0.26704  0.00934  Biso   1.000  H
  H1449    1.0000 0.88028  0.23264  0.02594  Biso   1.000  H
  H1450    1.0000 0.03916  0.33364  0.98333  Biso   1.000  H
  H1451    1.0000 0.00478  0.27343  0.00913  Biso   1.000  H
  C1618    1.0000 0.04616  0.22862  0.92935  Biso   1.000  C
  C1619    1.0000 0.04618  0.22867  0.92935  Biso   1.000  C
  H1452    1.0000 0.84367  0.64942  0.98703  Biso   1.000  H
  H1453    1.0000 0.78486  0.62423  0.96043  Biso   1.000  H
  H1454    1.0000 0.84369  0.64947  0.98703  Biso   1.000  H
  C1620    1.0000 0.74758  0.62264  0.00588  Biso   1.000  C
  H1455    1.0000 0.66288  0.59936  0.97873  Biso   1.000  H
  H1456    1.0000 0.65317  0.61213  0.01522  Biso   1.000  H
  N176     1.0000 0.24772  0.12237  0.94722  Biso   1.000  N
  H1457    1.0000 0.24475  0.09013  0.99222  Biso   1.000  H
  C1621    1.0000 0.34796  0.15096  0.97997  Biso   1.000  C
  H1458    1.0000 0.29448  0.96086  0.98333  Biso   1.000  H
  H1459    1.0000 0.26866  0.99521  0.00913  Biso   1.000  H
  H1460    1.0000 0.26868  0.99526  0.00913  Biso   1.000  H
  C1622    1.0000 0.37136  0.05753  0.99739  Biso   1.000  C
  C1623    1.0000 0.16768  0.20236  0.87778  Biso   1.000  C
  H1461    1.0000 0.93646  0.33714  0.97873  Biso   1.000  H
  H1462    1.0000 0.95896  0.34682  0.01522  Biso   1.000  H
  H1463    1.0000 0.95899  0.34687  0.01522  Biso   1.000  H
  C1624    1.0000 0.09823  0.21101  0.91967  Biso   1.000  C
  C1625    1.0000 0.09826  0.21106  0.91967  Biso   1.000  C
  H1464    1.0000 0.02958  0.24783  0.91403  Biso   1.000  H
  H1465    1.0000 0.73299  0.57366  0.00934  Biso   1.000  H
  H1466    1.0000 0.76734  0.64762  0.02594  Biso   1.000  H
  H1467    1.0000 0.76737  0.64767  0.02594  Biso   1.000  H
  C1626    1.0000 0.20278  0.13875  0.95388  Biso   1.000  C
  H1468    1.0000 0.35054  0.19422  0.98703  Biso   1.000  H
  H1469    1.0000 0.37577  0.16064  0.96043  Biso   1.000  H
  H1470    1.0000 0.35057  0.19427  0.98703  Biso   1.000  H
  C1627    1.0000 0.37737  0.12495  0.00588  Biso   1.000  C
  H1471    1.0000 0.40069  0.06355  0.97873  Biso   1.000  H
  H1472    1.0000 0.38787  0.04105  0.01522  Biso   1.000  H
  C1628    1.0000 0.11898  0.22012  0.88804  Biso   1.000  C
  C1629    1.0000 0.19468  0.17624  0.89904  Biso   1.000  C
  C1630    1.0000 0.12627  0.18402  0.94020  Biso   1.000  C
  C1631    1.0000 0.12629  0.18407  0.94020  Biso   1.000  C
  C1632    1.0000 0.17458  0.16646  0.93079  Biso   1.000  C
  H1473    1.0000 0.18637  0.13241  0.97513  Biso   1.000  H
  H1474    1.0000 0.18639  0.13247  0.97513  Biso   1.000  H
  H1475    1.0000 0.42637  0.15935  0.00934  Biso   1.000  H
  H1476    1.0000 0.35238  0.11974  0.02594  Biso   1.000  H
  H1477    1.0000 0.10009  0.23836  0.87334  Biso   1.000  H
  H1478    1.0000 0.22786  0.16455  0.89203  Biso   1.000  H
  H1479    1.0000 0.11165  0.17691  0.96173  Biso   1.000  H
  H1480    1.0000 0.11168  0.17696  0.96173  Biso   1.000  H
