data_image0
_cell_length_a       18.299
_cell_length_b       24.192
_cell_length_c       23.679
_cell_angle_alpha    90
_cell_angle_beta     110
_cell_angle_gamma    90

_symmetry_space_group_name_H-M    "P 1"
_symmetry_int_tables_number       1

loop_
  _symmetry_equiv_pos_as_xyz
  'x, y, z'

loop_
  _atom_site_label
  _atom_site_occupancy
  _atom_site_fract_x
  _atom_site_fract_y
  _atom_site_fract_z
  _atom_site_thermal_displace_type
  _atom_site_B_iso_or_equiv
  _atom_site_type_symbol
  C1       1.0000 0.55027  0.56428  0.45149  Biso   1.000  C
  C2       1.0000 0.52235  0.60739  0.40272  Biso   1.000  C
  H1       1.0000 0.60509  0.57102  0.47521  Biso   1.000  H
  H2       1.0000 0.51907  0.56639  0.47791  Biso   1.000  H
  H3       1.0000 0.54479  0.52749  0.43328  Biso   1.000  H
  C3       1.0000 0.56661  0.60594  0.35751  Biso   1.000  C
  H4       1.0000 0.46627  0.60160  0.38070  Biso   1.000  H
  H5       1.0000 0.52870  0.64451  0.42151  Biso   1.000  H
  C4       1.0000 0.52913  0.64381  0.30345  Biso   1.000  C
  C5       1.0000 0.65345  0.61752  0.38654  Biso   1.000  C
  H6       1.0000 0.56177  0.56742  0.34151  Biso   1.000  H
  C6       1.0000 0.51547  0.62471  0.24493  Biso   1.000  C
  C7       1.0000 0.50449  0.69709  0.30951  Biso   1.000  C
  C8       1.0000 0.71037  0.58685  0.37315  Biso   1.000  C
  C9       1.0000 0.68000  0.65976  0.42924  Biso   1.000  C
  O1       1.0000 0.53778  0.57110  0.23878  Biso   1.000  O
  C10      1.0000 0.48190  0.65848  0.19514  Biso   1.000  C
  C11      1.0000 0.46759  0.73156  0.26071  Biso   1.000  C
  H7       1.0000 0.51295  0.71081  0.34888  Biso   1.000  H
  O2       1.0000 0.69491  0.54394  0.33279  Biso   1.000  O
  C12      1.0000 0.78937  0.59929  0.39890  Biso   1.000  C
  C13      1.0000 0.75829  0.67183  0.45859  Biso   1.000  C
  H8       1.0000 0.64237  0.68138  0.43868  Biso   1.000  H
  C14      1.0000 0.51180  0.55130  0.17761  Biso   1.000  C
  C15      1.0000 0.47233  0.63893  0.13177  Biso   1.000  C
  C16      1.0000 0.45856  0.71164  0.20363  Biso   1.000  C
  C17      1.0000 0.43609  0.78877  0.26943  Biso   1.000  C
  H9       1.0000 0.64670  0.53840  0.31882  Biso   1.000  H
  C18      1.0000 0.81198  0.64058  0.44223  Biso   1.000  C
  C19      1.0000 0.84830  0.56651  0.38057  Biso   1.000  C
  C20      1.0000 0.78425  0.71619  0.50712  Biso   1.000  C
  N1       1.0000 0.52364  0.59053  0.13608  Biso   1.000  N
  H10      1.0000 0.45572  0.54229  0.16512  Biso   1.000  H
  H11      1.0000 0.54002  0.51678  0.17581  Biso   1.000  H
  H12      1.0000 0.48662  0.66898  0.10912  Biso   1.000  H
  H13      1.0000 0.41748  0.62860  0.11020  Biso   1.000  H
  O3       1.0000 0.42384  0.74140  0.15186  Biso   1.000  O
  H14      1.0000 0.39590  0.79882  0.23010  Biso   1.000  H
  C21      1.0000 0.49918  0.83280  0.28246  Biso   1.000  C
  C22      1.0000 0.39436  0.78724  0.31590  Biso   1.000  C
  O4       1.0000 0.89075  0.65224  0.47153  Biso   1.000  O
  N2       1.0000 0.92518  0.59338  0.40263  Biso   1.000  N
  H15      1.0000 0.83058  0.56362  0.33621  Biso   1.000  H
  H16      1.0000 0.85238  0.52860  0.39720  Biso   1.000  H
  C23      1.0000 0.78866  0.77340  0.48128  Biso   1.000  C
  H17      1.0000 0.83877  0.70651  0.53238  Biso   1.000  H
  C24      1.0000 0.73767  0.71697  0.54991  Biso   1.000  C
  C25      1.0000 0.60089  0.60115  0.13901  Biso   1.000  C
  H18      1.0000 0.41147  0.77282  0.16071  Biso   1.000  H
  C26      1.0000 0.51176  0.86305  0.23581  Biso   1.000  C
  C27      1.0000 0.54716  0.84586  0.34048  Biso   1.000  C
  H19      1.0000 0.43059  0.77228  0.35419  Biso   1.000  H
  C28      1.0000 0.32551  0.75471  0.29751  Biso   1.000  C
  H20      1.0000 0.38089  0.82548  0.32349  Biso   1.000  H
  C29      1.0000 0.34410  0.83441  0.31841  Biso   1.000  C
  C30      1.0000 0.94267  0.60875  0.46353  Biso   1.000  C
  C31      1.0000 0.94699  0.62901  0.36376  Biso   1.000  C
  C32      1.0000 0.85899  0.79489  0.48065  Biso   1.000  C
  C33      1.0000 0.72339  0.80795  0.45949  Biso   1.000  C
  H21      1.0000 0.68240  0.72441  0.52640  Biso   1.000  H
  H22      1.0000 0.75667  0.74769  0.57890  Biso   1.000  H
  C34      1.0000 0.74275  0.66357  0.58460  Biso   1.000  C
  C35      1.0000 0.61527  0.63943  0.10000  Biso   1.000  C
  C36      1.0000 0.66458  0.57259  0.17783  Biso   1.000  C
  O5       1.0000 0.46339  0.85065  0.17725  Biso   1.000  O
  C37      1.0000 0.56868  0.90294  0.24624  Biso   1.000  C
  C38      1.0000 0.60421  0.88695  0.35455  Biso   1.000  C
  H23      1.0000 0.54058  0.82548  0.37279  Biso   1.000  H
  H24      1.0000 0.33927  0.71561  0.29639  Biso   1.000  H
  H25      1.0000 0.29788  0.75959  0.32610  Biso   1.000  H
  H26      1.0000 0.29201  0.76629  0.25738  Biso   1.000  H
  H27      1.0000 0.30720  0.84181  0.27801  Biso   1.000  H
  H28      1.0000 0.31560  0.82548  0.34551  Biso   1.000  H
  H29      1.0000 0.37637  0.86719  0.33329  Biso   1.000  H
  H30      1.0000 0.93847  0.57581  0.48699  Biso   1.000  H
  H31      1.0000 0.99710  0.62198  0.47971  Biso   1.000  H
  C39      1.0000 0.93690  0.61252  0.30516  Biso   1.000  C
  C40      1.0000 0.98401  0.67960  0.38344  Biso   1.000  C
  O6       1.0000 0.92735  0.76534  0.49867  Biso   1.000  O
  C41      1.0000 0.86589  0.84908  0.46254  Biso   1.000  C
  C42      1.0000 0.72617  0.86169  0.44034  Biso   1.000  C
  H32      1.0000 0.67427  0.79361  0.45778  Biso   1.000  H
  H33      1.0000 0.79735  0.65571  0.60797  Biso   1.000  H
  H34      1.0000 0.71318  0.66720  0.61188  Biso   1.000  H
  H35      1.0000 0.72129  0.63318  0.55638  Biso   1.000  H
  H36      1.0000 0.57367  0.66121  0.07478  Biso   1.000  H
  C43      1.0000 0.68847  0.64633  0.09734  Biso   1.000  C
  C44      1.0000 0.73826  0.57887  0.17379  Biso   1.000  C
  H37      1.0000 0.65762  0.54861  0.20741  Biso   1.000  H
  C45      1.0000 0.46562  0.89368  0.13415  Biso   1.000  C
  C46      1.0000 0.61329  0.91596  0.30605  Biso   1.000  C
  C47      1.0000 0.58371  0.93386  0.19550  Biso   1.000  C
  C48      1.0000 0.65417  0.89893  0.41953  Biso   1.000  C
  H38      1.0000 0.91159  0.57841  0.29068  Biso   1.000  H
  C49      1.0000 0.96277  0.64472  0.26767  Biso   1.000  C
  H39      1.0000 0.99176  0.69188  0.42317  Biso   1.000  H
  C50      1.0000 0.00957  0.71205  0.34538  Biso   1.000  C
  H40      1.0000 0.91899  0.73330  0.50879  Biso   1.000  H
  C51      1.0000 0.79948  0.88207  0.44349  Biso   1.000  C
  C52      1.0000 0.94301  0.87095  0.46268  Biso   1.000  C
  H41      1.0000 0.69670  0.67278  0.07038  Biso   1.000  H
  C53      1.0000 0.75049  0.61541  0.13325  Biso   1.000  C
  H42      1.0000 0.78060  0.55779  0.19918  Biso   1.000  H
  N3       1.0000 0.54157  0.90799  0.13721  Biso   1.000  N
  H43      1.0000 0.43918  0.92721  0.14170  Biso   1.000  H
  H44      1.0000 0.43620  0.88058  0.09298  Biso   1.000  H
  O7       1.0000 0.66558  0.95780  0.31172  Biso   1.000  O
  H45      1.0000 0.64006  0.93390  0.20219  Biso   1.000  H
  H46      1.0000 0.56659  0.97272  0.19509  Biso   1.000  H
  H47      1.0000 0.67327  0.93779  0.42070  Biso   1.000  H
  C54      1.0000 0.60880  0.89596  0.46358  Biso   1.000  C
  H48      1.0000 0.95521  0.63248  0.22799  Biso   1.000  H
  C55      1.0000 0.99968  0.69486  0.28736  Biso   1.000  C
  H49      1.0000 0.03421  0.74649  0.35931  Biso   1.000  H
  O8       1.0000 0.80263  0.93638  0.42591  Biso   1.000  O
  N4       1.0000 0.92990  0.91807  0.42097  Biso   1.000  N
  H50      1.0000 0.97170  0.84139  0.45009  Biso   1.000  H
  H51      1.0000 0.97466  0.88290  0.50371  Biso   1.000  H
  N5       1.0000 0.82452  0.62244  0.12642  Biso   1.000  N
  C56      1.0000 0.58179  0.87145  0.11177  Biso   1.000  C
  H52      1.0000 0.69090  0.96300  0.34830  Biso   1.000  H
  H53      1.0000 0.64529  0.90270  0.50479  Biso   1.000  H
  H54      1.0000 0.58770  0.85809  0.46259  Biso   1.000  H
  C57      1.0000 0.54231  0.93705  0.44991  Biso   1.000  C
  N6       1.0000 0.02391  0.72768  0.24727  Biso   1.000  N
  C58      1.0000 0.88010  0.95718  0.43549  Biso   1.000  C
  C59      1.0000 0.91567  0.90551  0.35967  Biso   1.000  C
  H55      1.0000 0.84601  0.65538  0.13312  Biso   1.000  H
  C60      1.0000 0.86332  0.58151  0.11038  Biso   1.000  C
  C61      1.0000 0.65161  0.88860  0.10444  Biso   1.000  C
  C62      1.0000 0.55323  0.81924  0.08921  Biso   1.000  C
  H56      1.0000 0.50320  0.92828  0.41081  Biso   1.000  H
  H57      1.0000 0.51855  0.93481  0.48119  Biso   1.000  H
  H58      1.0000 0.56218  0.97450  0.44888  Biso   1.000  H
  H59      1.0000 0.99138  0.73148  0.21019  Biso   1.000  H
  C63      1.0000 0.09339  0.75343  0.26201  Biso   1.000  C
  H60      1.0000 0.90418  0.96809  0.47818  Biso   1.000  H
  H61      1.0000 0.87617  0.99078  0.41068  Biso   1.000  H
  C64      1.0000 0.96800  0.87136  0.34493  Biso   1.000  C
  C65      1.0000 0.85368  0.92812  0.31320  Biso   1.000  C
  O9       1.0000 0.83913  0.53381  0.10265  Biso   1.000  O
  C66      1.0000 0.93812  0.59805  0.10170  Biso   1.000  C
  H62      1.0000 0.67372  0.92328  0.12031  Biso   1.000  H
  C67      1.0000 0.68851  0.85582  0.07447  Biso   1.000  C
  C68      1.0000 0.58918  0.78716  0.05820  Biso   1.000  C
  H63      1.0000 0.50788  0.80560  0.09541  Biso   1.000  H
  O10      1.0000 0.14330  0.75058  0.31145  Biso   1.000  O
  C69      1.0000 0.10587  0.78559  0.21069  Biso   1.000  C
  C70      1.0000 0.95991  0.86202  0.28516  Biso   1.000  C
  H64      1.0000 0.00945  0.85441  0.37598  Biso   1.000  H
  C71      1.0000 0.84660  0.91960  0.25374  Biso   1.000  C
  H65      1.0000 0.81588  0.94969  0.32250  Biso   1.000  H
  H66      1.0000 0.93511  0.58912  0.06058  Biso   1.000  H
  H67      1.0000 0.94632  0.63790  0.10849  Biso   1.000  H
  H68      1.0000 0.98148  0.57792  0.13029  Biso   1.000  H
  H69      1.0000 0.73578  0.86810  0.07051  Biso   1.000  H
  C72      1.0000 0.65731  0.80518  0.05016  Biso   1.000  C
  H70      1.0000 0.56740  0.75248  0.04220  Biso   1.000  H
  H71      1.0000 0.14452  0.76649  0.19752  Biso   1.000  H
  H72      1.0000 0.05669  0.78811  0.17698  Biso   1.000  H
  H73      1.0000 0.12460  0.82292  0.22448  Biso   1.000  H
  H74      1.0000 0.99557  0.83850  0.27558  Biso   1.000  H
  C73      1.0000 0.89985  0.88678  0.23923  Biso   1.000  C
  H75      1.0000 0.80500  0.93630  0.22260  Biso   1.000  H
  N7       1.0000 0.69682  0.77381  0.01879  Biso   1.000  N
  N8       1.0000 0.89403  0.87851  0.17779  Biso   1.000  N
  H76      1.0000 0.74641  0.78142  0.02710  Biso   1.000  H
  C74      1.0000 0.66699  0.73330  0.97744  Biso   1.000  C
  H77      1.0000 0.88428  0.84511  0.16242  Biso   1.000  H
  C75      1.0000 0.90287  0.91985  0.14283  Biso   1.000  C
  O11      1.0000 0.59920  0.71883  0.96144  Biso   1.000  O
  C76      1.0000 0.72480  0.70759  0.95322  Biso   1.000  C
  O12      1.0000 0.91622  0.96768  0.16112  Biso   1.000  O
  C77      1.0000 0.89562  0.90435  0.08000  Biso   1.000  C
  H78      1.0000 0.72351  0.72702  0.91659  Biso   1.000  H
  H79      1.0000 0.77702  0.71032  0.98342  Biso   1.000  H
  H80      1.0000 0.71160  0.66861  0.94400  Biso   1.000  H
  H81      1.0000 0.94470  0.91200  0.07348  Biso   1.000  H
  H82      1.0000 0.88347  0.86491  0.07379  Biso   1.000  H
  H83      1.0000 0.85382  0.92601  0.05150  Biso   1.000  H
  C78      1.0000 0.55027  0.56428  0.45149  Biso   1.000  C
  C79      1.0000 0.52235  0.60739  0.40272  Biso   1.000  C
  H84      1.0000 0.60509  0.57102  0.47521  Biso   1.000  H
  H85      1.0000 0.51907  0.56639  0.47791  Biso   1.000  H
  H86      1.0000 0.54479  0.52749  0.43328  Biso   1.000  H
  C80      1.0000 0.56661  0.60594  0.35751  Biso   1.000  C
  H87      1.0000 0.46627  0.60160  0.38070  Biso   1.000  H
  H88      1.0000 0.52870  0.64451  0.42151  Biso   1.000  H
  C81      1.0000 0.52913  0.64381  0.30345  Biso   1.000  C
  C82      1.0000 0.65345  0.61752  0.38654  Biso   1.000  C
  H89      1.0000 0.56177  0.56742  0.34151  Biso   1.000  H
  C83      1.0000 0.50449  0.69709  0.30951  Biso   1.000  C
  C84      1.0000 0.51547  0.62471  0.24493  Biso   1.000  C
  C85      1.0000 0.71037  0.58685  0.37315  Biso   1.000  C
  C86      1.0000 0.68000  0.65976  0.42924  Biso   1.000  C
  C87      1.0000 0.46759  0.73156  0.26071  Biso   1.000  C
  H90      1.0000 0.51295  0.71081  0.34888  Biso   1.000  H
  C88      1.0000 0.48190  0.65848  0.19514  Biso   1.000  C
  O13      1.0000 0.53778  0.57110  0.23878  Biso   1.000  O
  O14      1.0000 0.69491  0.54394  0.33279  Biso   1.000  O
  C89      1.0000 0.78937  0.59929  0.39890  Biso   1.000  C
  C90      1.0000 0.75829  0.67183  0.45859  Biso   1.000  C
  H91      1.0000 0.64237  0.68138  0.43868  Biso   1.000  H
  C91      1.0000 0.43609  0.78877  0.26943  Biso   1.000  C
  C92      1.0000 0.45856  0.71164  0.20363  Biso   1.000  C
  C93      1.0000 0.47233  0.63893  0.13177  Biso   1.000  C
  C94      1.0000 0.51180  0.55130  0.17761  Biso   1.000  C
  H92      1.0000 0.64670  0.53840  0.31882  Biso   1.000  H
  C95      1.0000 0.81198  0.64058  0.44223  Biso   1.000  C
  C96      1.0000 0.84830  0.56651  0.38057  Biso   1.000  C
  C97      1.0000 0.78425  0.71619  0.50712  Biso   1.000  C
  C98      1.0000 0.39436  0.78724  0.31590  Biso   1.000  C
  H93      1.0000 0.39590  0.79882  0.23010  Biso   1.000  H
  C99      1.0000 0.49918  0.83280  0.28246  Biso   1.000  C
  O15      1.0000 0.42384  0.74140  0.15186  Biso   1.000  O
  N9       1.0000 0.52364  0.59053  0.13608  Biso   1.000  N
  H94      1.0000 0.48662  0.66898  0.10912  Biso   1.000  H
  H95      1.0000 0.41748  0.62860  0.11020  Biso   1.000  H
  H96      1.0000 0.45572  0.54229  0.16512  Biso   1.000  H
  H97      1.0000 0.54002  0.51678  0.17581  Biso   1.000  H
  O16      1.0000 0.89075  0.65224  0.47153  Biso   1.000  O
  N10      1.0000 0.92518  0.59338  0.40263  Biso   1.000  N
  H98      1.0000 0.83058  0.56362  0.33621  Biso   1.000  H
  H99      1.0000 0.85238  0.52860  0.39720  Biso   1.000  H
  C100     1.0000 0.78866  0.77340  0.48128  Biso   1.000  C
  H100     1.0000 0.83877  0.70651  0.53238  Biso   1.000  H
  C101     1.0000 0.73767  0.71697  0.54991  Biso   1.000  C
  H101     1.0000 0.43059  0.77228  0.35419  Biso   1.000  H
  C102     1.0000 0.32551  0.75471  0.29751  Biso   1.000  C
  H102     1.0000 0.38089  0.82548  0.32349  Biso   1.000  H
  C103     1.0000 0.34410  0.83441  0.31841  Biso   1.000  C
  C104     1.0000 0.51176  0.86305  0.23581  Biso   1.000  C
  C105     1.0000 0.54716  0.84586  0.34048  Biso   1.000  C
  H103     1.0000 0.41147  0.77282  0.16071  Biso   1.000  H
  C106     1.0000 0.60089  0.60115  0.13901  Biso   1.000  C
  C107     1.0000 0.94267  0.60875  0.46353  Biso   1.000  C
  C108     1.0000 0.94699  0.62901  0.36376  Biso   1.000  C
  C109     1.0000 0.72339  0.80795  0.45949  Biso   1.000  C
  C110     1.0000 0.85899  0.79489  0.48065  Biso   1.000  C
  H104     1.0000 0.68240  0.72441  0.52640  Biso   1.000  H
  H105     1.0000 0.75667  0.74769  0.57890  Biso   1.000  H
  C111     1.0000 0.74275  0.66357  0.58460  Biso   1.000  C
  H106     1.0000 0.33927  0.71561  0.29639  Biso   1.000  H
  H107     1.0000 0.29788  0.75959  0.32610  Biso   1.000  H
  H108     1.0000 0.29201  0.76629  0.25738  Biso   1.000  H
  H109     1.0000 0.30720  0.84181  0.27801  Biso   1.000  H
  H110     1.0000 0.31560  0.82548  0.34551  Biso   1.000  H
  H111     1.0000 0.37637  0.86719  0.33329  Biso   1.000  H
  O17      1.0000 0.46339  0.85065  0.17725  Biso   1.000  O
  C112     1.0000 0.56868  0.90294  0.24624  Biso   1.000  C
  C113     1.0000 0.60421  0.88695  0.35455  Biso   1.000  C
  H112     1.0000 0.54058  0.82548  0.37279  Biso   1.000  H
  C114     1.0000 0.61527  0.63943  0.10000  Biso   1.000  C
  C115     1.0000 0.66458  0.57259  0.17783  Biso   1.000  C
  H113     1.0000 0.93847  0.57581  0.48699  Biso   1.000  H
  H114     1.0000 0.99710  0.62198  0.47971  Biso   1.000  H
  C116     1.0000 0.93690  0.61252  0.30516  Biso   1.000  C
  C117     1.0000 0.98401  0.67960  0.38344  Biso   1.000  C
  C118     1.0000 0.72617  0.86169  0.44034  Biso   1.000  C
  H115     1.0000 0.67427  0.79361  0.45778  Biso   1.000  H
  C119     1.0000 0.86589  0.84908  0.46254  Biso   1.000  C
  O18      1.0000 0.92735  0.76534  0.49867  Biso   1.000  O
  H116     1.0000 0.79735  0.65571  0.60797  Biso   1.000  H
  H117     1.0000 0.71318  0.66720  0.61188  Biso   1.000  H
  H118     1.0000 0.72129  0.63318  0.55638  Biso   1.000  H
  C120     1.0000 0.46562  0.89368  0.13415  Biso   1.000  C
  C121     1.0000 0.61329  0.91596  0.30605  Biso   1.000  C
  C122     1.0000 0.58371  0.93386  0.19550  Biso   1.000  C
  C123     1.0000 0.65417  0.89893  0.41953  Biso   1.000  C
  H119     1.0000 0.57367  0.66121  0.07478  Biso   1.000  H
  C124     1.0000 0.68847  0.64633  0.09734  Biso   1.000  C
  C125     1.0000 0.73826  0.57887  0.17379  Biso   1.000  C
  H120     1.0000 0.65762  0.54861  0.20741  Biso   1.000  H
  H121     1.0000 0.91159  0.57841  0.29068  Biso   1.000  H
  C126     1.0000 0.96277  0.64472  0.26767  Biso   1.000  C
  H122     1.0000 0.99176  0.69188  0.42317  Biso   1.000  H
  C127     1.0000 0.00957  0.71205  0.34538  Biso   1.000  C
  C128     1.0000 0.79948  0.88207  0.44349  Biso   1.000  C
  C129     1.0000 0.94301  0.87095  0.46268  Biso   1.000  C
  H123     1.0000 0.91899  0.73330  0.50879  Biso   1.000  H
  N11      1.0000 0.54157  0.90799  0.13721  Biso   1.000  N
  H124     1.0000 0.43918  0.92721  0.14170  Biso   1.000  H
  H125     1.0000 0.43620  0.88058  0.09298  Biso   1.000  H
  O19      1.0000 0.66558  0.95780  0.31172  Biso   1.000  O
  H126     1.0000 0.64006  0.93390  0.20219  Biso   1.000  H
  H127     1.0000 0.56659  0.97272  0.19509  Biso   1.000  H
  H128     1.0000 0.67327  0.93779  0.42070  Biso   1.000  H
  C130     1.0000 0.60880  0.89596  0.46358  Biso   1.000  C
  H129     1.0000 0.69670  0.67278  0.07038  Biso   1.000  H
  C131     1.0000 0.75049  0.61541  0.13325  Biso   1.000  C
  H130     1.0000 0.78060  0.55779  0.19918  Biso   1.000  H
  H131     1.0000 0.95521  0.63248  0.22799  Biso   1.000  H
  C132     1.0000 0.99968  0.69486  0.28736  Biso   1.000  C
  H132     1.0000 0.03421  0.74649  0.35931  Biso   1.000  H
  O20      1.0000 0.80263  0.93638  0.42591  Biso   1.000  O
  N12      1.0000 0.92990  0.91807  0.42097  Biso   1.000  N
  H133     1.0000 0.97170  0.84139  0.45009  Biso   1.000  H
  H134     1.0000 0.97466  0.88290  0.50371  Biso   1.000  H
  C133     1.0000 0.58179  0.87145  0.11177  Biso   1.000  C
  H135     1.0000 0.69090  0.96300  0.34830  Biso   1.000  H
  H136     1.0000 0.64529  0.90270  0.50479  Biso   1.000  H
  H137     1.0000 0.58770  0.85809  0.46259  Biso   1.000  H
  C134     1.0000 0.54231  0.93705  0.44991  Biso   1.000  C
  N13      1.0000 0.82452  0.62244  0.12642  Biso   1.000  N
  N14      1.0000 0.02391  0.72768  0.24727  Biso   1.000  N
  C135     1.0000 0.88010  0.95718  0.43549  Biso   1.000  C
  C136     1.0000 0.91567  0.90551  0.35967  Biso   1.000  C
  C137     1.0000 0.65161  0.88860  0.10444  Biso   1.000  C
  C138     1.0000 0.55323  0.81924  0.08921  Biso   1.000  C
  H138     1.0000 0.50320  0.92828  0.41081  Biso   1.000  H
  H139     1.0000 0.51855  0.93481  0.48119  Biso   1.000  H
  H140     1.0000 0.56218  0.97450  0.44888  Biso   1.000  H
  H141     1.0000 0.84601  0.65538  0.13312  Biso   1.000  H
  C139     1.0000 0.86332  0.58151  0.11038  Biso   1.000  C
  H142     1.0000 0.99138  0.73148  0.21019  Biso   1.000  H
  C140     1.0000 0.09339  0.75343  0.26201  Biso   1.000  C
  H143     1.0000 0.90418  0.96809  0.47818  Biso   1.000  H
  H144     1.0000 0.87617  0.99078  0.41068  Biso   1.000  H
  C141     1.0000 0.96800  0.87136  0.34493  Biso   1.000  C
  C142     1.0000 0.85368  0.92812  0.31320  Biso   1.000  C
  H145     1.0000 0.67372  0.92328  0.12031  Biso   1.000  H
  C143     1.0000 0.68851  0.85582  0.07447  Biso   1.000  C
  C144     1.0000 0.58918  0.78716  0.05820  Biso   1.000  C
  H146     1.0000 0.50788  0.80560  0.09541  Biso   1.000  H
  O21      1.0000 0.83913  0.53381  0.10265  Biso   1.000  O
  C145     1.0000 0.93812  0.59805  0.10170  Biso   1.000  C
  O22      1.0000 0.14330  0.75058  0.31145  Biso   1.000  O
  C146     1.0000 0.10587  0.78559  0.21069  Biso   1.000  C
  C147     1.0000 0.95991  0.86202  0.28516  Biso   1.000  C
  H147     1.0000 0.00945  0.85441  0.37598  Biso   1.000  H
  C148     1.0000 0.84660  0.91960  0.25374  Biso   1.000  C
  H148     1.0000 0.81588  0.94969  0.32250  Biso   1.000  H
  H149     1.0000 0.73578  0.86810  0.07051  Biso   1.000  H
  C149     1.0000 0.65731  0.80518  0.05016  Biso   1.000  C
  H150     1.0000 0.56740  0.75248  0.04220  Biso   1.000  H
  H151     1.0000 0.93511  0.58912  0.06058  Biso   1.000  H
  H152     1.0000 0.94632  0.63790  0.10849  Biso   1.000  H
  H153     1.0000 0.98148  0.57792  0.13029  Biso   1.000  H
  H154     1.0000 0.14452  0.76649  0.19752  Biso   1.000  H
  H155     1.0000 0.05669  0.78811  0.17698  Biso   1.000  H
  H156     1.0000 0.12460  0.82292  0.22448  Biso   1.000  H
  H157     1.0000 0.99557  0.83850  0.27558  Biso   1.000  H
  C150     1.0000 0.89985  0.88678  0.23923  Biso   1.000  C
  H158     1.0000 0.80500  0.93630  0.22260  Biso   1.000  H
  N15      1.0000 0.69682  0.77381  0.01879  Biso   1.000  N
  N16      1.0000 0.89403  0.87851  0.17779  Biso   1.000  N
  C151     1.0000 0.66699  0.73330  0.97744  Biso   1.000  C
  H159     1.0000 0.74641  0.78142  0.02710  Biso   1.000  H
  H160     1.0000 0.88428  0.84511  0.16242  Biso   1.000  H
  C152     1.0000 0.90287  0.91985  0.14283  Biso   1.000  C
  O23      1.0000 0.59920  0.71883  0.96144  Biso   1.000  O
  C153     1.0000 0.72480  0.70759  0.95322  Biso   1.000  C
  O24      1.0000 0.91622  0.96768  0.16112  Biso   1.000  O
  C154     1.0000 0.89562  0.90435  0.08000  Biso   1.000  C
  H161     1.0000 0.72351  0.72702  0.91659  Biso   1.000  H
  H162     1.0000 0.77702  0.71032  0.98342  Biso   1.000  H
  H163     1.0000 0.71160  0.66861  0.94400  Biso   1.000  H
  H164     1.0000 0.94470  0.91200  0.07348  Biso   1.000  H
  H165     1.0000 0.88347  0.86491  0.07379  Biso   1.000  H
  H166     1.0000 0.85382  0.92601  0.05150  Biso   1.000  H
  C155     1.0000 0.44971  0.43572  0.54852  Biso   1.000  C
  C156     1.0000 0.47758  0.39261  0.59728  Biso   1.000  C
  H167     1.0000 0.39489  0.42898  0.52479  Biso   1.000  H
  H168     1.0000 0.48086  0.43361  0.52209  Biso   1.000  H
  H169     1.0000 0.45518  0.47251  0.56667  Biso   1.000  H
  C157     1.0000 0.43337  0.39406  0.64249  Biso   1.000  C
  H170     1.0000 0.53366  0.39840  0.61930  Biso   1.000  H
  H171     1.0000 0.47128  0.35549  0.57849  Biso   1.000  H
  C158     1.0000 0.34646  0.38248  0.61341  Biso   1.000  C
  H172     1.0000 0.43816  0.43258  0.65849  Biso   1.000  H
  C159     1.0000 0.47085  0.35619  0.69655  Biso   1.000  C
  C160     1.0000 0.31999  0.34024  0.57076  Biso   1.000  C
  C161     1.0000 0.28956  0.41315  0.62685  Biso   1.000  C
  C162     1.0000 0.48444  0.37529  0.75502  Biso   1.000  C
  C163     1.0000 0.49549  0.30291  0.69049  Biso   1.000  C
  C164     1.0000 0.24169  0.32817  0.54141  Biso   1.000  C
  H173     1.0000 0.35754  0.31862  0.56128  Biso   1.000  H
  C165     1.0000 0.21056  0.40071  0.60110  Biso   1.000  C
  O25      1.0000 0.30500  0.45606  0.66716  Biso   1.000  O
  O26      1.0000 0.46221  0.42890  0.76122  Biso   1.000  O
  C166     1.0000 0.51808  0.34152  0.80486  Biso   1.000  C
  C167     1.0000 0.53238  0.26844  0.73925  Biso   1.000  C
  H174     1.0000 0.48696  0.28919  0.65107  Biso   1.000  H
  C168     1.0000 0.21568  0.28381  0.49288  Biso   1.000  C
  C169     1.0000 0.18798  0.35942  0.55773  Biso   1.000  C
  C170     1.0000 0.15168  0.43349  0.61943  Biso   1.000  C
  H175     1.0000 0.35328  0.46160  0.68118  Biso   1.000  H
  C171     1.0000 0.48818  0.44870  0.82239  Biso   1.000  C
  C172     1.0000 0.54135  0.28836  0.79632  Biso   1.000  C
  C173     1.0000 0.52765  0.36107  0.86823  Biso   1.000  C
  C174     1.0000 0.56387  0.21123  0.73053  Biso   1.000  C
  C175     1.0000 0.26226  0.28303  0.45009  Biso   1.000  C
  C176     1.0000 0.21127  0.22660  0.51872  Biso   1.000  C
  H176     1.0000 0.16114  0.29349  0.46757  Biso   1.000  H
  O27      1.0000 0.10918  0.34776  0.52847  Biso   1.000  O
  N17      1.0000 0.07481  0.40662  0.59737  Biso   1.000  N
  H177     1.0000 0.16934  0.43638  0.66379  Biso   1.000  H
  H178     1.0000 0.14760  0.47140  0.60280  Biso   1.000  H
  N18      1.0000 0.47634  0.40947  0.86392  Biso   1.000  N
  H179     1.0000 0.54426  0.45771  0.83488  Biso   1.000  H
  H180     1.0000 0.45996  0.48322  0.82419  Biso   1.000  H
  O28      1.0000 0.57607  0.25860  0.84810  Biso   1.000  O
  H181     1.0000 0.51336  0.33102  0.89088  Biso   1.000  H
  H182     1.0000 0.58245  0.37140  0.88980  Biso   1.000  H
  C177     1.0000 0.50075  0.16720  0.71754  Biso   1.000  C
  H183     1.0000 0.60409  0.20118  0.76990  Biso   1.000  H
  C178     1.0000 0.60555  0.21276  0.68406  Biso   1.000  C
  C179     1.0000 0.25716  0.33643  0.41535  Biso   1.000  C
  H184     1.0000 0.31759  0.27559  0.47360  Biso   1.000  H
  H185     1.0000 0.24326  0.25231  0.42111  Biso   1.000  H
  C180     1.0000 0.14099  0.20511  0.51935  Biso   1.000  C
  C181     1.0000 0.27660  0.19205  0.54052  Biso   1.000  C
  C182     1.0000 0.05726  0.39125  0.53647  Biso   1.000  C
  C183     1.0000 0.05299  0.37099  0.63624  Biso   1.000  C
  C184     1.0000 0.39907  0.39885  0.86095  Biso   1.000  C
  H186     1.0000 0.58846  0.22718  0.83929  Biso   1.000  H
  C185     1.0000 0.45275  0.15414  0.65948  Biso   1.000  C
  C186     1.0000 0.48817  0.13695  0.76419  Biso   1.000  C
  H187     1.0000 0.56939  0.22772  0.64581  Biso   1.000  H
  C187     1.0000 0.67448  0.24529  0.70249  Biso   1.000  C
  H188     1.0000 0.61910  0.17452  0.67651  Biso   1.000  H
  C188     1.0000 0.65588  0.16559  0.68159  Biso   1.000  C
  H189     1.0000 0.20255  0.34429  0.39198  Biso   1.000  H
  H190     1.0000 0.28679  0.33280  0.38807  Biso   1.000  H
  H191     1.0000 0.27867  0.36682  0.44358  Biso   1.000  H
  O29      1.0000 0.07261  0.23466  0.50128  Biso   1.000  O
  C189     1.0000 0.13409  0.15092  0.53746  Biso   1.000  C
  C190     1.0000 0.27376  0.13831  0.55966  Biso   1.000  C
  H192     1.0000 0.32564  0.20639  0.54218  Biso   1.000  H
  H193     1.0000 0.06146  0.42419  0.51301  Biso   1.000  H
  H194     1.0000 0.00288  0.37802  0.52029  Biso   1.000  H
  C191     1.0000 0.06306  0.38748  0.69480  Biso   1.000  C
  C192     1.0000 0.01597  0.32040  0.61656  Biso   1.000  C
  C193     1.0000 0.38464  0.36057  0.89996  Biso   1.000  C
  C194     1.0000 0.33534  0.42741  0.82217  Biso   1.000  C
  C195     1.0000 0.39578  0.11305  0.64545  Biso   1.000  C
  H195     1.0000 0.45940  0.17452  0.62721  Biso   1.000  H
  C196     1.0000 0.43125  0.09706  0.75376  Biso   1.000  C
  O30      1.0000 0.53658  0.14935  0.82271  Biso   1.000  O
  H196     1.0000 0.66065  0.28439  0.70361  Biso   1.000  H
  H197     1.0000 0.70205  0.24041  0.67390  Biso   1.000  H
  H198     1.0000 0.70796  0.23371  0.74257  Biso   1.000  H
  H199     1.0000 0.69278  0.15819  0.72199  Biso   1.000  H
  H200     1.0000 0.68438  0.17452  0.65449  Biso   1.000  H
  H201     1.0000 0.62356  0.13281  0.66671  Biso   1.000  H
  H202     1.0000 0.08100  0.26670  0.49121  Biso   1.000  H
  C197     1.0000 0.20045  0.11793  0.55651  Biso   1.000  C
  C198     1.0000 0.05698  0.12905  0.53732  Biso   1.000  C
  C199     1.0000 0.34576  0.10107  0.58047  Biso   1.000  C
  H203     1.0000 0.08838  0.42159  0.70927  Biso   1.000  H
  C200     1.0000 0.03715  0.35528  0.73233  Biso   1.000  C
  H204     1.0000 0.00815  0.30812  0.57678  Biso   1.000  H
  C201     1.0000 0.99036  0.28795  0.65462  Biso   1.000  C
  H205     1.0000 0.42624  0.33879  0.92517  Biso   1.000  H
  C202     1.0000 0.31146  0.35367  0.90266  Biso   1.000  C
  C203     1.0000 0.26167  0.42113  0.82621  Biso   1.000  C
  H206     1.0000 0.34237  0.45139  0.79259  Biso   1.000  H
  C204     1.0000 0.38669  0.08404  0.69395  Biso   1.000  C
  C205     1.0000 0.41628  0.06614  0.80450  Biso   1.000  C
  C206     1.0000 0.53436  0.10632  0.86585  Biso   1.000  C
  O31      1.0000 0.19735  0.06362  0.57409  Biso   1.000  O
  N19      1.0000 0.07008  0.08193  0.57903  Biso   1.000  N
  H207     1.0000 0.02828  0.15861  0.54991  Biso   1.000  H
  H208     1.0000 0.02526  0.11710  0.49629  Biso   1.000  H
  H209     1.0000 0.32666  0.06221  0.57930  Biso   1.000  H
  C207     1.0000 0.39117  0.10404  0.53638  Biso   1.000  C
  H210     1.0000 0.04477  0.36752  0.77201  Biso   1.000  H
  C208     1.0000 0.00030  0.30514  0.71264  Biso   1.000  C
  H211     1.0000 0.96578  0.25351  0.64069  Biso   1.000  H
  H212     1.0000 0.30326  0.32722  0.92958  Biso   1.000  H
  C209     1.0000 0.24944  0.38459  0.86675  Biso   1.000  C
  H213     1.0000 0.21937  0.44221  0.80077  Biso   1.000  H
  O32      1.0000 0.33438  0.04220  0.68824  Biso   1.000  O
  N20      1.0000 0.45841  0.09201  0.86279  Biso   1.000  N
  H214     1.0000 0.35987  0.06610  0.79781  Biso   1.000  H
  H215     1.0000 0.43340  0.02728  0.80491  Biso   1.000  H
  H216     1.0000 0.56075  0.07279  0.85830  Biso   1.000  H
  H217     1.0000 0.56376  0.11942  0.90697  Biso   1.000  H
  C210     1.0000 0.11989  0.04282  0.56451  Biso   1.000  C
  C211     1.0000 0.08424  0.09449  0.64029  Biso   1.000  C
  H218     1.0000 0.35470  0.09730  0.49521  Biso   1.000  H
  H219     1.0000 0.41228  0.14191  0.53741  Biso   1.000  H
  C212     1.0000 0.45768  0.06295  0.55009  Biso   1.000  C
  N21      1.0000 0.97607  0.27232  0.75273  Biso   1.000  N
  N22      1.0000 0.17547  0.37756  0.87358  Biso   1.000  N
  H220     1.0000 0.30908  0.03700  0.65170  Biso   1.000  H
  C213     1.0000 0.41817  0.12855  0.88819  Biso   1.000  C
  H221     1.0000 0.09578  0.03191  0.52177  Biso   1.000  H
  H222     1.0000 0.12374  0.00922  0.58928  Biso   1.000  H
  C214     1.0000 0.03198  0.12864  0.65507  Biso   1.000  C
  C215     1.0000 0.14628  0.07188  0.68676  Biso   1.000  C
  H223     1.0000 0.49678  0.07172  0.58919  Biso   1.000  H
  H224     1.0000 0.48137  0.06519  0.51881  Biso   1.000  H
  H225     1.0000 0.43778  0.02550  0.55108  Biso   1.000  H
  H226     1.0000 0.00855  0.26852  0.78981  Biso   1.000  H
  C216     1.0000 0.90654  0.24657  0.73799  Biso   1.000  C
  H227     1.0000 0.15398  0.34462  0.86688  Biso   1.000  H
  C217     1.0000 0.13666  0.41849  0.88962  Biso   1.000  C
  C218     1.0000 0.34837  0.11140  0.89556  Biso   1.000  C
  C219     1.0000 0.44676  0.18076  0.91079  Biso   1.000  C
  C220     1.0000 0.04007  0.13798  0.71484  Biso   1.000  C
  H228     1.0000 0.99046  0.14559  0.62397  Biso   1.000  H
  C221     1.0000 0.15338  0.08040  0.74626  Biso   1.000  C
  H229     1.0000 0.18405  0.05031  0.67750  Biso   1.000  H
  O33      1.0000 0.85668  0.24942  0.68855  Biso   1.000  O
  C222     1.0000 0.89404  0.21441  0.78927  Biso   1.000  C
  O34      1.0000 0.16080  0.46619  0.89735  Biso   1.000  O
  C223     1.0000 0.06186  0.40195  0.89830  Biso   1.000  C
  H230     1.0000 0.32627  0.07672  0.87969  Biso   1.000  H
  C224     1.0000 0.31145  0.14418  0.92549  Biso   1.000  C
  C225     1.0000 0.41075  0.21284  0.94180  Biso   1.000  C
  H231     1.0000 0.49205  0.19440  0.90459  Biso   1.000  H
  H232     1.0000 0.00434  0.16150  0.72437  Biso   1.000  H
  C226     1.0000 0.10006  0.11322  0.76073  Biso   1.000  C
  H233     1.0000 0.19498  0.06370  0.77740  Biso   1.000  H
  H234     1.0000 0.85546  0.23351  0.80248  Biso   1.000  H
  H235     1.0000 0.94328  0.21189  0.82297  Biso   1.000  H
  H236     1.0000 0.87537  0.17708  0.77547  Biso   1.000  H
  H237     1.0000 0.06485  0.41088  0.93937  Biso   1.000  H
  H238     1.0000 0.05365  0.36210  0.89147  Biso   1.000  H
  H239     1.0000 0.01843  0.42208  0.86967  Biso   1.000  H
  H240     1.0000 0.26415  0.13190  0.92949  Biso   1.000  H
  C227     1.0000 0.34267  0.19482  0.94985  Biso   1.000  C
  H241     1.0000 0.43253  0.24752  0.95780  Biso   1.000  H
  N23      1.0000 0.10590  0.12149  0.82221  Biso   1.000  N
  N24      1.0000 0.30309  0.22619  0.98117  Biso   1.000  N
  H242     1.0000 0.11565  0.15489  0.83758  Biso   1.000  H
  C228     1.0000 0.09703  0.08015  0.85713  Biso   1.000  C
  H243     1.0000 0.25358  0.21858  0.97290  Biso   1.000  H
  C229     1.0000 0.33292  0.26670  0.02252  Biso   1.000  C
  O35      1.0000 0.08375  0.03232  0.83884  Biso   1.000  O
  C230     1.0000 0.10435  0.09565  0.91996  Biso   1.000  C
  O36      1.0000 0.40079  0.28117  0.03856  Biso   1.000  O
  C231     1.0000 0.27513  0.29241  0.04679  Biso   1.000  C
  H244     1.0000 0.05526  0.08800  0.92648  Biso   1.000  H
  H245     1.0000 0.11646  0.13509  0.92621  Biso   1.000  H
  H246     1.0000 0.14616  0.07399  0.94850  Biso   1.000  H
  H247     1.0000 0.27646  0.27298  0.08337  Biso   1.000  H
  H248     1.0000 0.22296  0.28968  0.01658  Biso   1.000  H
  H249     1.0000 0.28833  0.33139  0.05600  Biso   1.000  H
  C232     1.0000 0.44971  0.43572  0.54852  Biso   1.000  C
  C233     1.0000 0.47758  0.39261  0.59728  Biso   1.000  C
  H250     1.0000 0.39489  0.42898  0.52479  Biso   1.000  H
  H251     1.0000 0.48086  0.43361  0.52209  Biso   1.000  H
  H252     1.0000 0.45518  0.47251  0.56667  Biso   1.000  H
  C234     1.0000 0.43337  0.39406  0.64249  Biso   1.000  C
  H253     1.0000 0.53366  0.39840  0.61930  Biso   1.000  H
  H254     1.0000 0.47128  0.35549  0.57849  Biso   1.000  H
  C235     1.0000 0.47085  0.35619  0.69655  Biso   1.000  C
  C236     1.0000 0.34646  0.38248  0.61341  Biso   1.000  C
  H255     1.0000 0.43816  0.43258  0.65849  Biso   1.000  H
  C237     1.0000 0.49549  0.30291  0.69049  Biso   1.000  C
  C238     1.0000 0.48444  0.37529  0.75502  Biso   1.000  C
  C239     1.0000 0.28956  0.41315  0.62685  Biso   1.000  C
  C240     1.0000 0.31999  0.34024  0.57076  Biso   1.000  C
  C241     1.0000 0.53238  0.26844  0.73925  Biso   1.000  C
  H256     1.0000 0.48696  0.28919  0.65107  Biso   1.000  H
  C242     1.0000 0.51808  0.34152  0.80486  Biso   1.000  C
  O37      1.0000 0.46221  0.42890  0.76122  Biso   1.000  O
  O38      1.0000 0.30500  0.45606  0.66716  Biso   1.000  O
  C243     1.0000 0.21056  0.40071  0.60110  Biso   1.000  C
  C244     1.0000 0.24169  0.32817  0.54141  Biso   1.000  C
  H257     1.0000 0.35754  0.31862  0.56128  Biso   1.000  H
  C245     1.0000 0.56387  0.21123  0.73053  Biso   1.000  C
  C246     1.0000 0.54135  0.28836  0.79632  Biso   1.000  C
  C247     1.0000 0.52765  0.36107  0.86823  Biso   1.000  C
  C248     1.0000 0.48818  0.44870  0.82239  Biso   1.000  C
  H258     1.0000 0.35328  0.46160  0.68118  Biso   1.000  H
  C249     1.0000 0.18798  0.35942  0.55773  Biso   1.000  C
  C250     1.0000 0.15168  0.43349  0.61943  Biso   1.000  C
  C251     1.0000 0.21568  0.28381  0.49288  Biso   1.000  C
  C252     1.0000 0.60555  0.21276  0.68406  Biso   1.000  C
  H259     1.0000 0.60409  0.20118  0.76990  Biso   1.000  H
  C253     1.0000 0.50075  0.16720  0.71754  Biso   1.000  C
  O39      1.0000 0.57607  0.25860  0.84810  Biso   1.000  O
  N25      1.0000 0.47634  0.40947  0.86392  Biso   1.000  N
  H260     1.0000 0.51336  0.33102  0.89088  Biso   1.000  H
  H261     1.0000 0.58245  0.37140  0.88980  Biso   1.000  H
  H262     1.0000 0.54426  0.45771  0.83488  Biso   1.000  H
  H263     1.0000 0.45996  0.48322  0.82419  Biso   1.000  H
  O40      1.0000 0.10918  0.34776  0.52847  Biso   1.000  O
  N26      1.0000 0.07481  0.40662  0.59737  Biso   1.000  N
  H264     1.0000 0.16934  0.43638  0.66379  Biso   1.000  H
  H265     1.0000 0.14760  0.47140  0.60280  Biso   1.000  H
  C254     1.0000 0.21127  0.22660  0.51872  Biso   1.000  C
  H266     1.0000 0.16114  0.29349  0.46757  Biso   1.000  H
  C255     1.0000 0.26226  0.28303  0.45009  Biso   1.000  C
  H267     1.0000 0.56939  0.22772  0.64581  Biso   1.000  H
  C256     1.0000 0.67448  0.24529  0.70249  Biso   1.000  C
  H268     1.0000 0.61910  0.17452  0.67651  Biso   1.000  H
  C257     1.0000 0.65588  0.16559  0.68159  Biso   1.000  C
  C258     1.0000 0.48817  0.13695  0.76419  Biso   1.000  C
  C259     1.0000 0.45275  0.15414  0.65948  Biso   1.000  C
  H269     1.0000 0.58846  0.22718  0.83929  Biso   1.000  H
  C260     1.0000 0.39907  0.39885  0.86095  Biso   1.000  C
  C261     1.0000 0.05726  0.39125  0.53647  Biso   1.000  C
  C262     1.0000 0.05299  0.37099  0.63624  Biso   1.000  C
  C263     1.0000 0.27660  0.19205  0.54052  Biso   1.000  C
  C264     1.0000 0.14099  0.20511  0.51935  Biso   1.000  C
  H270     1.0000 0.31759  0.27559  0.47360  Biso   1.000  H
  H271     1.0000 0.24326  0.25231  0.42111  Biso   1.000  H
  C265     1.0000 0.25716  0.33643  0.41535  Biso   1.000  C
  H272     1.0000 0.66065  0.28439  0.70361  Biso   1.000  H
  H273     1.0000 0.70205  0.24041  0.67390  Biso   1.000  H
  H274     1.0000 0.70796  0.23371  0.74257  Biso   1.000  H
  H275     1.0000 0.69278  0.15819  0.72199  Biso   1.000  H
  H276     1.0000 0.68438  0.17452  0.65449  Biso   1.000  H
  H277     1.0000 0.62356  0.13281  0.66671  Biso   1.000  H
  O41      1.0000 0.53658  0.14935  0.82271  Biso   1.000  O
  C266     1.0000 0.43125  0.09706  0.75376  Biso   1.000  C
  C267     1.0000 0.39578  0.11305  0.64545  Biso   1.000  C
  H278     1.0000 0.45940  0.17452  0.62721  Biso   1.000  H
  C268     1.0000 0.38464  0.36057  0.89996  Biso   1.000  C
  C269     1.0000 0.33534  0.42741  0.82217  Biso   1.000  C
  H279     1.0000 0.06146  0.42419  0.51301  Biso   1.000  H
  H280     1.0000 0.00288  0.37802  0.52029  Biso   1.000  H
  C270     1.0000 0.06306  0.38748  0.69480  Biso   1.000  C
  C271     1.0000 0.01597  0.32040  0.61656  Biso   1.000  C
  C272     1.0000 0.27376  0.13831  0.55966  Biso   1.000  C
  H281     1.0000 0.32564  0.20639  0.54218  Biso   1.000  H
  C273     1.0000 0.13409  0.15092  0.53746  Biso   1.000  C
  O42      1.0000 0.07261  0.23466  0.50128  Biso   1.000  O
  H282     1.0000 0.20255  0.34429  0.39198  Biso   1.000  H
  H283     1.0000 0.28679  0.33280  0.38807  Biso   1.000  H
  H284     1.0000 0.27867  0.36682  0.44358  Biso   1.000  H
  C274     1.0000 0.53436  0.10632  0.86585  Biso   1.000  C
  C275     1.0000 0.38669  0.08404  0.69395  Biso   1.000  C
  C276     1.0000 0.41628  0.06614  0.80450  Biso   1.000  C
  C277     1.0000 0.34576  0.10107  0.58047  Biso   1.000  C
  H285     1.0000 0.42624  0.33879  0.92517  Biso   1.000  H
  C278     1.0000 0.31146  0.35367  0.90266  Biso   1.000  C
  C279     1.0000 0.26167  0.42113  0.82621  Biso   1.000  C
  H286     1.0000 0.34237  0.45139  0.79259  Biso   1.000  H
  H287     1.0000 0.08838  0.42159  0.70927  Biso   1.000  H
  C280     1.0000 0.03715  0.35528  0.73233  Biso   1.000  C
  C281     1.0000 0.99036  0.28795  0.65462  Biso   1.000  C
  H288     1.0000 0.00815  0.30812  0.57678  Biso   1.000  H
  C282     1.0000 0.20045  0.11793  0.55651  Biso   1.000  C
  C283     1.0000 0.05698  0.12905  0.53732  Biso   1.000  C
  H289     1.0000 0.08100  0.26670  0.49121  Biso   1.000  H
  N27      1.0000 0.45841  0.09201  0.86279  Biso   1.000  N
  H290     1.0000 0.56075  0.07279  0.85830  Biso   1.000  H
  H291     1.0000 0.56376  0.11942  0.90697  Biso   1.000  H
  O43      1.0000 0.33438  0.04220  0.68824  Biso   1.000  O
  H292     1.0000 0.35987  0.06610  0.79781  Biso   1.000  H
  H293     1.0000 0.43340  0.02728  0.80491  Biso   1.000  H
  H294     1.0000 0.32666  0.06221  0.57930  Biso   1.000  H
  C284     1.0000 0.39117  0.10404  0.53638  Biso   1.000  C
  H295     1.0000 0.30326  0.32722  0.92958  Biso   1.000  H
  C285     1.0000 0.24944  0.38459  0.86675  Biso   1.000  C
  H296     1.0000 0.21937  0.44221  0.80077  Biso   1.000  H
  H297     1.0000 0.04477  0.36752  0.77201  Biso   1.000  H
  C286     1.0000 0.00030  0.30514  0.71264  Biso   1.000  C
  H298     1.0000 0.96578  0.25351  0.64069  Biso   1.000  H
  O44      1.0000 0.19735  0.06362  0.57409  Biso   1.000  O
  N28      1.0000 0.07008  0.08193  0.57903  Biso   1.000  N
  H299     1.0000 0.02828  0.15861  0.54991  Biso   1.000  H
  H300     1.0000 0.02526  0.11710  0.49629  Biso   1.000  H
  C287     1.0000 0.41817  0.12855  0.88819  Biso   1.000  C
  H301     1.0000 0.30908  0.03700  0.65170  Biso   1.000  H
  H302     1.0000 0.35470  0.09730  0.49521  Biso   1.000  H
  H303     1.0000 0.41228  0.14191  0.53741  Biso   1.000  H
  C288     1.0000 0.45768  0.06295  0.55009  Biso   1.000  C
  N29      1.0000 0.17547  0.37756  0.87358  Biso   1.000  N
  N30      1.0000 0.97607  0.27232  0.75273  Biso   1.000  N
  C289     1.0000 0.11989  0.04282  0.56451  Biso   1.000  C
  C290     1.0000 0.08424  0.09449  0.64029  Biso   1.000  C
  C291     1.0000 0.34837  0.11140  0.89556  Biso   1.000  C
  C292     1.0000 0.44676  0.18076  0.91079  Biso   1.000  C
  H304     1.0000 0.49678  0.07172  0.58919  Biso   1.000  H
  H305     1.0000 0.48137  0.06519  0.51881  Biso   1.000  H
  H306     1.0000 0.43778  0.02550  0.55108  Biso   1.000  H
  H307     1.0000 0.15398  0.34462  0.86688  Biso   1.000  H
  C293     1.0000 0.13666  0.41849  0.88962  Biso   1.000  C
  C294     1.0000 0.90654  0.24657  0.73799  Biso   1.000  C
  H308     1.0000 0.00855  0.26852  0.78981  Biso   1.000  H
  H309     1.0000 0.09578  0.03191  0.52177  Biso   1.000  H
  H310     1.0000 0.12374  0.00922  0.58928  Biso   1.000  H
  C295     1.0000 0.03198  0.12864  0.65507  Biso   1.000  C
  C296     1.0000 0.14628  0.07188  0.68676  Biso   1.000  C
  H311     1.0000 0.32627  0.07672  0.87969  Biso   1.000  H
  C297     1.0000 0.31145  0.14418  0.92549  Biso   1.000  C
  C298     1.0000 0.41075  0.21284  0.94180  Biso   1.000  C
  H312     1.0000 0.49205  0.19440  0.90459  Biso   1.000  H
  O45      1.0000 0.16080  0.46619  0.89735  Biso   1.000  O
  C299     1.0000 0.06186  0.40195  0.89830  Biso   1.000  C
  O46      1.0000 0.85668  0.24942  0.68855  Biso   1.000  O
  C300     1.0000 0.89404  0.21441  0.78927  Biso   1.000  C
  H313     1.0000 0.99046  0.14559  0.62397  Biso   1.000  H
  C301     1.0000 0.04007  0.13798  0.71484  Biso   1.000  C
  C302     1.0000 0.15338  0.08040  0.74626  Biso   1.000  C
  H314     1.0000 0.18405  0.05031  0.67750  Biso   1.000  H
  H315     1.0000 0.26415  0.13190  0.92949  Biso   1.000  H
  C303     1.0000 0.34267  0.19482  0.94985  Biso   1.000  C
  H316     1.0000 0.43253  0.24752  0.95780  Biso   1.000  H
  H317     1.0000 0.06485  0.41088  0.93937  Biso   1.000  H
  H318     1.0000 0.05365  0.36210  0.89147  Biso   1.000  H
  H319     1.0000 0.01843  0.42208  0.86967  Biso   1.000  H
  H320     1.0000 0.85546  0.23351  0.80248  Biso   1.000  H
  H321     1.0000 0.94328  0.21189  0.82297  Biso   1.000  H
  H322     1.0000 0.87537  0.17708  0.77547  Biso   1.000  H
  H323     1.0000 0.00434  0.16150  0.72437  Biso   1.000  H
  C304     1.0000 0.10006  0.11322  0.76073  Biso   1.000  C
  H324     1.0000 0.19498  0.06370  0.77740  Biso   1.000  H
  N31      1.0000 0.30309  0.22619  0.98117  Biso   1.000  N
  N32      1.0000 0.10590  0.12149  0.82221  Biso   1.000  N
  H325     1.0000 0.25358  0.21858  0.97290  Biso   1.000  H
  C305     1.0000 0.33292  0.26670  0.02252  Biso   1.000  C
  H326     1.0000 0.11565  0.15489  0.83758  Biso   1.000  H
  C306     1.0000 0.09703  0.08015  0.85713  Biso   1.000  C
  O47      1.0000 0.40079  0.28117  0.03856  Biso   1.000  O
  C307     1.0000 0.27513  0.29241  0.04679  Biso   1.000  C
  O48      1.0000 0.08375  0.03232  0.83884  Biso   1.000  O
  C308     1.0000 0.10435  0.09565  0.91996  Biso   1.000  C
  H327     1.0000 0.27646  0.27298  0.08337  Biso   1.000  H
  H328     1.0000 0.22296  0.28968  0.01658  Biso   1.000  H
  H329     1.0000 0.28833  0.33139  0.05600  Biso   1.000  H
  H330     1.0000 0.05526  0.08800  0.92648  Biso   1.000  H
  H331     1.0000 0.11646  0.13509  0.92621  Biso   1.000  H
  H332     1.0000 0.14616  0.07399  0.94850  Biso   1.000  H
  C309     1.0000 0.60437  0.40435  0.41998  Biso   1.000  C
  C310     1.0000 0.59711  0.41985  0.35715  Biso   1.000  C
  H333     1.0000 0.55528  0.41200  0.42650  Biso   1.000  H
  H334     1.0000 0.61646  0.36491  0.42618  Biso   1.000  H
  H335     1.0000 0.64616  0.42601  0.44847  Biso   1.000  H
  N33      1.0000 0.60595  0.37851  0.32219  Biso   1.000  N
  O49      1.0000 0.58377  0.46768  0.33886  Biso   1.000  O
  C311     1.0000 0.60007  0.38678  0.26075  Biso   1.000  C
  H336     1.0000 0.61567  0.34511  0.33760  Biso   1.000  H
  C312     1.0000 0.54007  0.36202  0.21482  Biso   1.000  C
  C313     1.0000 0.65340  0.41960  0.24628  Biso   1.000  C
  C314     1.0000 0.53198  0.37136  0.15505  Biso   1.000  C
  H337     1.0000 0.50436  0.33850  0.22439  Biso   1.000  H
  C315     1.0000 0.64630  0.42812  0.18678  Biso   1.000  C
  H338     1.0000 0.69498  0.43630  0.27738  Biso   1.000  H
  C316     1.0000 0.58431  0.40551  0.14031  Biso   1.000  C
  H339     1.0000 0.49047  0.35441  0.12399  Biso   1.000  H
  H340     1.0000 0.68410  0.44969  0.17748  Biso   1.000  H
  N34      1.0000 0.57010  0.41807  0.07905  Biso   1.000  N
  C317     1.0000 0.55700  0.37095  0.03735  Biso   1.000  C
  C318     1.0000 0.61989  0.45718  0.06449  Biso   1.000  C
  C319     1.0000 0.63411  0.34908  0.03748  Biso   1.000  C
  H341     1.0000 0.52828  0.34139  0.04989  Biso   1.000  H
  H342     1.0000 0.52528  0.38290  0.99631  Biso   1.000  H
  O50      1.0000 0.69737  0.43638  0.07411  Biso   1.000  O
  H343     1.0000 0.59580  0.46809  0.02180  Biso   1.000  H
  H344     1.0000 0.62382  0.49078  0.08930  Biso   1.000  H
  C320     1.0000 0.64099  0.29489  0.01932  Biso   1.000  C
  C321     1.0000 0.70052  0.38207  0.05654  Biso   1.000  C
  C322     1.0000 0.71128  0.27340  0.01874  Biso   1.000  C
  O51      1.0000 0.57263  0.26534  0.00130  Biso   1.000  O
  C323     1.0000 0.77378  0.36169  0.05968  Biso   1.000  C
  C324     1.0000 0.71567  0.21619  0.99285  Biso   1.000  C
  C325     1.0000 0.77662  0.30795  0.04054  Biso   1.000  C
  H345     1.0000 0.58100  0.23330  0.99119  Biso   1.000  H
  C326     1.0000 0.84581  0.39893  0.08045  Biso   1.000  C
  C327     1.0000 0.74171  0.17183  0.04144  Biso   1.000  C
  H346     1.0000 0.66122  0.20651  0.96760  Biso   1.000  H
  C328     1.0000 0.76232  0.21697  0.95007  Biso   1.000  C
  H347     1.0000 0.82572  0.29361  0.04220  Biso   1.000  H
  C329     1.0000 0.89580  0.38695  0.14548  Biso   1.000  C
  H348     1.0000 0.82666  0.43779  0.07928  Biso   1.000  H
  C330     1.0000 0.89119  0.39596  0.03640  Biso   1.000  C
  C331     1.0000 0.68800  0.14058  0.05775  Biso   1.000  C
  C332     1.0000 0.82000  0.15976  0.07078  Biso   1.000  C
  H349     1.0000 0.81760  0.22441  0.97362  Biso   1.000  H
  H350     1.0000 0.74331  0.24769  0.92108  Biso   1.000  H
  C333     1.0000 0.75718  0.16357  0.91537  Biso   1.000  C
  C334     1.0000 0.88671  0.41596  0.19397  Biso   1.000  C
  C335     1.0000 0.95277  0.34586  0.15950  Biso   1.000  C
  H351     1.0000 0.91228  0.35809  0.03739  Biso   1.000  H
  C336     1.0000 0.95769  0.43705  0.05011  Biso   1.000  C
  H352     1.0000 0.85469  0.40270  0.99519  Biso   1.000  H
  C337     1.0000 0.71058  0.09929  0.10112  Biso   1.000  C
  O52      1.0000 0.60924  0.15224  0.02845  Biso   1.000  O
  C338     1.0000 0.84648  0.11752  0.11343  Biso   1.000  C
  H353     1.0000 0.85761  0.18138  0.06130  Biso   1.000  H
  H354     1.0000 0.70263  0.15571  0.89200  Biso   1.000  H
  H355     1.0000 0.78680  0.16720  0.88809  Biso   1.000  H
  H356     1.0000 0.77869  0.13318  0.94360  Biso   1.000  H
  O53      1.0000 0.83440  0.45780  0.18826  Biso   1.000  O
  C339     1.0000 0.93131  0.40294  0.25374  Biso   1.000  C
  C340     1.0000 0.00082  0.33280  0.21756  Biso   1.000  C
  H357     1.0000 0.95940  0.32548  0.12719  Biso   1.000  H
  H358     1.0000 0.99680  0.42828  0.08921  Biso   1.000  H
  H359     1.0000 0.98137  0.43481  0.01879  Biso   1.000  H
  H360     1.0000 0.93780  0.47450  0.05110  Biso   1.000  H
  C341     1.0000 0.65170  0.06651  0.11946  Biso   1.000  C
  C342     1.0000 0.78958  0.08685  0.12687  Biso   1.000  C
  C343     1.0000 0.55733  0.10875  0.03649  Biso   1.000  C
  C344     1.0000 0.93339  0.10594  0.14251  Biso   1.000  C
  H361     1.0000 0.80908  0.46300  0.15168  Biso   1.000  H
  C345     1.0000 0.98816  0.36305  0.26417  Biso   1.000  C
  C346     1.0000 0.91629  0.43386  0.30453  Biso   1.000  C
  C347     1.0000 0.06389  0.28877  0.23055  Biso   1.000  C
  N35      1.0000 0.57483  0.09338  0.09739  Biso   1.000  N
  H362     1.0000 0.66942  0.06362  0.16381  Biso   1.000  H
  H363     1.0000 0.64760  0.02860  0.10278  Biso   1.000  H
  O54      1.0000 0.80507  0.04394  0.16718  Biso   1.000  O
  H364     1.0000 0.56152  0.07581  0.01299  Biso   1.000  H
  H365     1.0000 0.50290  0.12198  0.02031  Biso   1.000  H
  H366     1.0000 0.93818  0.06742  0.15851  Biso   1.000  H
  C348     1.0000 0.97087  0.14381  0.19658  Biso   1.000  C
  C349     1.0000 0.97757  0.10739  0.09725  Biso   1.000  C
  O55      1.0000 0.03660  0.35065  0.32273  Biso   1.000  O
  N36      1.0000 0.95843  0.40799  0.36282  Biso   1.000  N
  H367     1.0000 0.85986  0.43390  0.29778  Biso   1.000  H
  H368     1.0000 0.93339  0.47272  0.30489  Biso   1.000  H
  C350     1.0000 0.03239  0.23156  0.23927  Biso   1.000  C
  H369     1.0000 0.10408  0.29882  0.26988  Biso   1.000  H
  C351     1.0000 0.10557  0.28724  0.18408  Biso   1.000  C
  C352     1.0000 0.55299  0.12901  0.13622  Biso   1.000  C
  H370     1.0000 0.85330  0.03840  0.18121  Biso   1.000  H
  C353     1.0000 0.98451  0.12471  0.25504  Biso   1.000  C
  C354     1.0000 0.99549  0.19709  0.19046  Biso   1.000  C
  H371     1.0000 0.97130  0.14451  0.07851  Biso   1.000  H
  C355     1.0000 0.94971  0.06428  0.04849  Biso   1.000  C
  H372     1.0000 0.03368  0.10160  0.11932  Biso   1.000  H
  C356     1.0000 0.03438  0.39368  0.36587  Biso   1.000  C
  C357     1.0000 0.91819  0.37145  0.38821  Biso   1.000  C
  C358     1.0000 0.04137  0.21164  0.29635  Biso   1.000  C
  H373     1.0000 0.06939  0.27228  0.14579  Biso   1.000  H
  C359     1.0000 0.17449  0.25471  0.20251  Biso   1.000  C
  H374     1.0000 0.11909  0.32548  0.17649  Biso   1.000  H
  C360     1.0000 0.15590  0.33441  0.18161  Biso   1.000  C
  C361     1.0000 0.56308  0.11252  0.19482  Biso   1.000  C
  C362     1.0000 0.51599  0.17960  0.11658  Biso   1.000  C
  O56      1.0000 0.96223  0.07110  0.26125  Biso   1.000  O
  C363     1.0000 0.01808  0.15848  0.30484  Biso   1.000  C
  H375     1.0000 0.98698  0.21081  0.15109  Biso   1.000  H
  H376     1.0000 0.89491  0.07102  0.02481  Biso   1.000  H
  H377     1.0000 0.98088  0.06639  0.02211  Biso   1.000  H
  H378     1.0000 0.95520  0.02749  0.06669  Biso   1.000  H
  H379     1.0000 0.06080  0.42721  0.35828  Biso   1.000  H
  H380     1.0000 0.06378  0.38058  0.40699  Biso   1.000  H
  C364     1.0000 0.84839  0.38860  0.39558  Biso   1.000  C
  C365     1.0000 0.94678  0.31924  0.41081  Biso   1.000  C
  O57      1.0000 0.07609  0.24140  0.34812  Biso   1.000  O
  H381     1.0000 0.16071  0.21561  0.20359  Biso   1.000  H
  H382     1.0000 0.20210  0.25959  0.17388  Biso   1.000  H
  H383     1.0000 0.20797  0.26629  0.24260  Biso   1.000  H
  H384     1.0000 0.19280  0.34181  0.22201  Biso   1.000  H
  H385     1.0000 0.18440  0.32548  0.15451  Biso   1.000  H
  H386     1.0000 0.12361  0.36719  0.16669  Biso   1.000  H
  C366     1.0000 0.53721  0.14472  0.23230  Biso   1.000  C
  H387     1.0000 0.58839  0.07841  0.20929  Biso   1.000  H
  C367     1.0000 0.49036  0.21205  0.15460  Biso   1.000  C
  H388     1.0000 0.50823  0.19188  0.07681  Biso   1.000  H
  C368     1.0000 0.98818  0.05130  0.32237  Biso   1.000  C
  C369     1.0000 0.02767  0.13893  0.36825  Biso   1.000  C
  H389     1.0000 0.82628  0.42328  0.37971  Biso   1.000  H
  C370     1.0000 0.81147  0.35582  0.42551  Biso   1.000  C
  C371     1.0000 0.91077  0.28716  0.44182  Biso   1.000  C
  H390     1.0000 0.99207  0.30560  0.40461  Biso   1.000  H
  H391     1.0000 0.08847  0.27282  0.33931  Biso   1.000  H
  C372     1.0000 0.50030  0.19486  0.21262  Biso   1.000  C
  H392     1.0000 0.54477  0.13248  0.27199  Biso   1.000  H
  H393     1.0000 0.46580  0.24649  0.14071  Biso   1.000  H
  N37      1.0000 0.97636  0.09053  0.36394  Biso   1.000  N
  H394     1.0000 0.95998  0.01678  0.32421  Biso   1.000  H
  H395     1.0000 0.04428  0.04229  0.33491  Biso   1.000  H
  H396     1.0000 0.01338  0.16898  0.39090  Biso   1.000  H
  H397     1.0000 0.08245  0.12860  0.38978  Biso   1.000  H
  H398     1.0000 0.76417  0.36810  0.42951  Biso   1.000  H
  C373     1.0000 0.84269  0.30518  0.44987  Biso   1.000  C
  H399     1.0000 0.93259  0.25248  0.45778  Biso   1.000  H
  N38      1.0000 0.47609  0.22768  0.25275  Biso   1.000  N
  C374     1.0000 0.89909  0.10115  0.36097  Biso   1.000  C
  N39      1.0000 0.80316  0.27381  0.48119  Biso   1.000  N
  C375     1.0000 0.40661  0.25343  0.23801  Biso   1.000  C
  H400     1.0000 0.50860  0.23148  0.28978  Biso   1.000  H
  C376     1.0000 0.88466  0.13943  0.39998  Biso   1.000  C
  C377     1.0000 0.83540  0.07259  0.32214  Biso   1.000  C
  H401     1.0000 0.75358  0.28142  0.47288  Biso   1.000  H
  C378     1.0000 0.83299  0.23330  0.52254  Biso   1.000  C
  C379     1.0000 0.39406  0.28559  0.28929  Biso   1.000  C
  O58      1.0000 0.35670  0.25058  0.18858  Biso   1.000  O
  H402     1.0000 0.92625  0.16121  0.42519  Biso   1.000  H
  C380     1.0000 0.81145  0.14633  0.40263  Biso   1.000  C
  C381     1.0000 0.76166  0.07887  0.32619  Biso   1.000  C
  H403     1.0000 0.84239  0.04861  0.29262  Biso   1.000  H
  O59      1.0000 0.90078  0.21883  0.53854  Biso   1.000  O
  C382     1.0000 0.77520  0.20759  0.54681  Biso   1.000  C
  H404     1.0000 0.35548  0.26649  0.30250  Biso   1.000  H
  H405     1.0000 0.44329  0.28811  0.32300  Biso   1.000  H
  H406     1.0000 0.37538  0.32292  0.27549  Biso   1.000  H
  H407     1.0000 0.80328  0.17278  0.42960  Biso   1.000  H
  C383     1.0000 0.74949  0.11541  0.36673  Biso   1.000  C
  H408     1.0000 0.71939  0.05779  0.30080  Biso   1.000  H
  H409     1.0000 0.77647  0.22702  0.58339  Biso   1.000  H
  H410     1.0000 0.72298  0.21032  0.51661  Biso   1.000  H
  H411     1.0000 0.78839  0.16861  0.55598  Biso   1.000  H
  N40      1.0000 0.67546  0.12244  0.37356  Biso   1.000  N
  H412     1.0000 0.65399  0.15538  0.36691  Biso   1.000  H
  C384     1.0000 0.63666  0.08151  0.38960  Biso   1.000  C
  O60      1.0000 0.66081  0.03381  0.39738  Biso   1.000  O
  C385     1.0000 0.56186  0.09805  0.39827  Biso   1.000  C
  H413     1.0000 0.56487  0.08912  0.43940  Biso   1.000  H
  H414     1.0000 0.55367  0.13790  0.39149  Biso   1.000  H
  H415     1.0000 0.51850  0.07792  0.36969  Biso   1.000  H
  C386     1.0000 0.39556  0.59565  0.58002  Biso   1.000  C
  C387     1.0000 0.40288  0.58015  0.64285  Biso   1.000  C
  H416     1.0000 0.44470  0.58800  0.57350  Biso   1.000  H
  H417     1.0000 0.38345  0.63509  0.57377  Biso   1.000  H
  H418     1.0000 0.35375  0.57399  0.55148  Biso   1.000  H
  O61      1.0000 0.41622  0.53232  0.66114  Biso   1.000  O
  N41      1.0000 0.39401  0.62149  0.67777  Biso   1.000  N
  H419     1.0000 0.38426  0.65489  0.66240  Biso   1.000  H
  C388     1.0000 0.39985  0.61322  0.73925  Biso   1.000  C
  C389     1.0000 0.45984  0.63798  0.78513  Biso   1.000  C
  C390     1.0000 0.34658  0.58040  0.75372  Biso   1.000  C
  C391     1.0000 0.46795  0.62864  0.84495  Biso   1.000  C
  H420     1.0000 0.49557  0.66150  0.77561  Biso   1.000  H
  H421     1.0000 0.30498  0.56370  0.72257  Biso   1.000  H
  C392     1.0000 0.35368  0.57188  0.81322  Biso   1.000  C
  C393     1.0000 0.41567  0.59449  0.85969  Biso   1.000  C
  H422     1.0000 0.50945  0.64559  0.87601  Biso   1.000  H
  H423     1.0000 0.31587  0.55031  0.82248  Biso   1.000  H
  N42      1.0000 0.42983  0.58193  0.92095  Biso   1.000  N
  C394     1.0000 0.44293  0.62905  0.96265  Biso   1.000  C
  C395     1.0000 0.38002  0.54282  0.93546  Biso   1.000  C
  C396     1.0000 0.36588  0.65092  0.96252  Biso   1.000  C
  H424     1.0000 0.47163  0.65861  0.95007  Biso   1.000  H
  H425     1.0000 0.47465  0.61710  0.00369  Biso   1.000  H
  O62      1.0000 0.30261  0.56362  0.92589  Biso   1.000  O
  H426     1.0000 0.40418  0.53191  0.97820  Biso   1.000  H
  H427     1.0000 0.37617  0.50922  0.91070  Biso   1.000  H
  C397     1.0000 0.29946  0.61793  0.94346  Biso   1.000  C
  C398     1.0000 0.35897  0.70511  0.98063  Biso   1.000  C
  C399     1.0000 0.22615  0.63831  0.94032  Biso   1.000  C
  O63      1.0000 0.42735  0.73466  0.99870  Biso   1.000  O
  C400     1.0000 0.28865  0.72660  0.98126  Biso   1.000  C
  C401     1.0000 0.15415  0.60107  0.91951  Biso   1.000  C
  C402     1.0000 0.22337  0.69205  0.95946  Biso   1.000  C
  H428     1.0000 0.41899  0.76670  0.00881  Biso   1.000  H
  C403     1.0000 0.28423  0.78381  0.00710  Biso   1.000  C
  C404     1.0000 0.10419  0.61305  0.85452  Biso   1.000  C
  H429     1.0000 0.17325  0.56221  0.92068  Biso   1.000  H
  C405     1.0000 0.10874  0.60404  0.96360  Biso   1.000  C
  H430     1.0000 0.17427  0.70639  0.95780  Biso   1.000  H
  C406     1.0000 0.25827  0.82817  0.95856  Biso   1.000  C
  H431     1.0000 0.33877  0.79349  0.03240  Biso   1.000  H
  C407     1.0000 0.23765  0.78303  0.04989  Biso   1.000  C
  C408     1.0000 0.11327  0.58404  0.80603  Biso   1.000  C
  C409     1.0000 0.04716  0.65414  0.84050  Biso   1.000  C
  H432     1.0000 0.08765  0.64191  0.96261  Biso   1.000  H
  C410     1.0000 0.04224  0.56295  0.94989  Biso   1.000  C
  H433     1.0000 0.14523  0.59730  0.00481  Biso   1.000  H
  C411     1.0000 0.31198  0.85942  0.94225  Biso   1.000  C
  C412     1.0000 0.17998  0.84024  0.92922  Biso   1.000  C
  H434     1.0000 0.18232  0.77559  0.02638  Biso   1.000  H
  H435     1.0000 0.25665  0.75231  0.07887  Biso   1.000  H
  C413     1.0000 0.24275  0.83643  0.08463  Biso   1.000  C
  O64      1.0000 0.16558  0.54220  0.81174  Biso   1.000  O
  C414     1.0000 0.06866  0.59706  0.74621  Biso   1.000  C
  H436     1.0000 0.04057  0.67452  0.87277  Biso   1.000  H
  C415     1.0000 0.99917  0.66720  0.78244  Biso   1.000  C
  H437     1.0000 0.00318  0.57172  0.91079  Biso   1.000  H
  H438     1.0000 0.01854  0.56519  0.98117  Biso   1.000  H
  H439     1.0000 0.06218  0.52550  0.94890  Biso   1.000  H
  O65      1.0000 0.39073  0.84776  0.97151  Biso   1.000  O
  C416     1.0000 0.28935  0.90071  0.89888  Biso   1.000  C
  C417     1.0000 0.15345  0.88248  0.88657  Biso   1.000  C
  H440     1.0000 0.14237  0.81862  0.93870  Biso   1.000  H
  H441     1.0000 0.29736  0.84429  0.10800  Biso   1.000  H
  H442     1.0000 0.21318  0.83280  0.11191  Biso   1.000  H
  H443     1.0000 0.22124  0.86682  0.05640  Biso   1.000  H
  H444     1.0000 0.19083  0.53700  0.84828  Biso   1.000  H
  C418     1.0000 0.01174  0.63695  0.73579  Biso   1.000  C
  C419     1.0000 0.08369  0.56614  0.69547  Biso   1.000  C
  C420     1.0000 0.93609  0.71123  0.76945  Biso   1.000  C
  C421     1.0000 0.44266  0.89125  0.96351  Biso   1.000  C
  C422     1.0000 0.21035  0.91315  0.87313  Biso   1.000  C
  C423     1.0000 0.34823  0.93349  0.88055  Biso   1.000  C
  C424     1.0000 0.06654  0.89406  0.85749  Biso   1.000  C
  O66      1.0000 0.96339  0.64935  0.67727  Biso   1.000  O
  N43      1.0000 0.04150  0.59201  0.63719  Biso   1.000  N
  H445     1.0000 0.14004  0.56610  0.70217  Biso   1.000  H
  H446     1.0000 0.06657  0.52728  0.69507  Biso   1.000  H
  C425     1.0000 0.96759  0.76844  0.76073  Biso   1.000  C
  H447     1.0000 0.89588  0.70118  0.73008  Biso   1.000  H
  C426     1.0000 0.89436  0.71276  0.81592  Biso   1.000  C
  N44      1.0000 0.42516  0.90662  0.90261  Biso   1.000  N
  H448     1.0000 0.43845  0.92419  0.98697  Biso   1.000  H
  H449     1.0000 0.49703  0.87802  0.97969  Biso   1.000  H
  O67      1.0000 0.19491  0.95606  0.83282  Biso   1.000  O
  H450     1.0000 0.33057  0.93638  0.83619  Biso   1.000  H
  H451     1.0000 0.35237  0.97140  0.89717  Biso   1.000  H
  H452     1.0000 0.06175  0.93258  0.84149  Biso   1.000  H
  C427     1.0000 0.02911  0.85619  0.80343  Biso   1.000  C
  C428     1.0000 0.02233  0.89261  0.90270  Biso   1.000  C
  C429     1.0000 0.96555  0.60632  0.63413  Biso   1.000  C
  C430     1.0000 0.08179  0.62855  0.61179  Biso   1.000  C
  C431     1.0000 0.00447  0.80291  0.80949  Biso   1.000  C
  C432     1.0000 0.95856  0.78836  0.70365  Biso   1.000  C
  H453     1.0000 0.93054  0.72772  0.85421  Biso   1.000  H
  C433     1.0000 0.82544  0.74529  0.79749  Biso   1.000  C
  H454     1.0000 0.88087  0.67452  0.82347  Biso   1.000  H
  C434     1.0000 0.84408  0.66559  0.81839  Biso   1.000  C
  C435     1.0000 0.44697  0.87099  0.86374  Biso   1.000  C
  H455     1.0000 0.14668  0.96160  0.81880  Biso   1.000  H
  C436     1.0000 0.01547  0.87529  0.74496  Biso   1.000  C
  H456     1.0000 0.02868  0.85549  0.92149  Biso   1.000  H
  C437     1.0000 0.05027  0.93572  0.95151  Biso   1.000  C
  H457     1.0000 0.96625  0.89840  0.88068  Biso   1.000  H
  H458     1.0000 0.93916  0.57279  0.64168  Biso   1.000  H
  H459     1.0000 0.93620  0.61942  0.59301  Biso   1.000  H
  C438     1.0000 0.15159  0.61140  0.60442  Biso   1.000  C
  C439     1.0000 0.05315  0.68076  0.58919  Biso   1.000  C
  H460     1.0000 0.01295  0.78919  0.84891  Biso   1.000  H
  O68      1.0000 0.92384  0.75860  0.65188  Biso   1.000  O
  C440     1.0000 0.98189  0.84152  0.69512  Biso   1.000  C
  H461     1.0000 0.83926  0.78439  0.79637  Biso   1.000  H
  H462     1.0000 0.79787  0.74041  0.82608  Biso   1.000  H
  H463     1.0000 0.79196  0.73371  0.75740  Biso   1.000  H
  H464     1.0000 0.80719  0.65819  0.77799  Biso   1.000  H
  H465     1.0000 0.81558  0.67452  0.84549  Biso   1.000  H
  H466     1.0000 0.87637  0.63281  0.83331  Biso   1.000  H
  C441     1.0000 0.43685  0.88748  0.80518  Biso   1.000  C
  C442     1.0000 0.48394  0.82040  0.88342  Biso   1.000  C
  O69      1.0000 0.03776  0.92890  0.73875  Biso   1.000  O
  H467     1.0000 0.10508  0.92898  0.97519  Biso   1.000  H
  H468     1.0000 0.01905  0.93361  0.97789  Biso   1.000  H
  H469     1.0000 0.04479  0.97251  0.93331  Biso   1.000  H
  H470     1.0000 0.17364  0.57672  0.62029  Biso   1.000  H
  C443     1.0000 0.18846  0.64418  0.57449  Biso   1.000  C
  C444     1.0000 0.08916  0.71284  0.55818  Biso   1.000  C
  H471     1.0000 0.00786  0.69440  0.59539  Biso   1.000  H
  H472     1.0000 0.91146  0.72718  0.66069  Biso   1.000  H
  C445     1.0000 0.97226  0.86107  0.63175  Biso   1.000  C
  H473     1.0000 0.41159  0.92159  0.79071  Biso   1.000  H
  C446     1.0000 0.46276  0.85528  0.76765  Biso   1.000  C
  C447     1.0000 0.50955  0.78795  0.84536  Biso   1.000  C
  H474     1.0000 0.49176  0.80812  0.92320  Biso   1.000  H
  C448     1.0000 0.01178  0.94870  0.67759  Biso   1.000  C
  H475     1.0000 0.23576  0.63190  0.57049  Biso   1.000  H
  C449     1.0000 0.15730  0.69482  0.55013  Biso   1.000  C
  H476     1.0000 0.06738  0.74752  0.54218  Biso   1.000  H
  N45      1.0000 0.02362  0.90947  0.63606  Biso   1.000  N
  H477     1.0000 0.98655  0.83102  0.60910  Biso   1.000  H
  H478     1.0000 0.91746  0.87140  0.61018  Biso   1.000  H
  H479     1.0000 0.45516  0.86752  0.72801  Biso   1.000  H
  C450     1.0000 0.49969  0.80514  0.78738  Biso   1.000  C
  H480     1.0000 0.53413  0.75351  0.85929  Biso   1.000  H
  H481     1.0000 0.03995  0.98322  0.67579  Biso   1.000  H
  H482     1.0000 0.95565  0.95771  0.66509  Biso   1.000  H
  N46      1.0000 0.19682  0.72619  0.51881  Biso   1.000  N
  C451     1.0000 0.10090  0.89885  0.63903  Biso   1.000  C
  N47      1.0000 0.52384  0.77232  0.74725  Biso   1.000  N
  H483     1.0000 0.24639  0.71858  0.52708  Biso   1.000  H
  C452     1.0000 0.16699  0.76670  0.47746  Biso   1.000  C
  C453     1.0000 0.11527  0.86057  0.60002  Biso   1.000  C
  C454     1.0000 0.16457  0.92741  0.67781  Biso   1.000  C
  H484     1.0000 0.49136  0.76852  0.71017  Biso   1.000  H
  C455     1.0000 0.59337  0.74657  0.76199  Biso   1.000  C
  O70      1.0000 0.09912  0.78117  0.46142  Biso   1.000  O
  C456     1.0000 0.22478  0.79241  0.45319  Biso   1.000  C
  H485     1.0000 0.07368  0.83879  0.57481  Biso   1.000  H
  C457     1.0000 0.18845  0.85367  0.59732  Biso   1.000  C
  C458     1.0000 0.23826  0.92113  0.67381  Biso   1.000  C
  H486     1.0000 0.15754  0.95139  0.70738  Biso   1.000  H
  O71      1.0000 0.64329  0.74942  0.81142  Biso   1.000  O
  C459     1.0000 0.60587  0.71441  0.71071  Biso   1.000  C
  H487     1.0000 0.22351  0.77298  0.41661  Biso   1.000  H
  H488     1.0000 0.27700  0.78968  0.48339  Biso   1.000  H
  H489     1.0000 0.21158  0.83139  0.44398  Biso   1.000  H
  H490     1.0000 0.19665  0.82722  0.57040  Biso   1.000  H
  C460     1.0000 0.25047  0.88459  0.63323  Biso   1.000  C
  H491     1.0000 0.28060  0.94221  0.69921  Biso   1.000  H
  H492     1.0000 0.64445  0.73351  0.69750  Biso   1.000  H
  H493     1.0000 0.55669  0.71189  0.67700  Biso   1.000  H
  H494     1.0000 0.62455  0.67708  0.72451  Biso   1.000  H
  N48      1.0000 0.32444  0.87756  0.62640  Biso   1.000  N
  H495     1.0000 0.34599  0.84462  0.63310  Biso   1.000  H
  C461     1.0000 0.36325  0.91849  0.61036  Biso   1.000  C
  O72      1.0000 0.33912  0.96619  0.60263  Biso   1.000  O
  C462     1.0000 0.43805  0.90195  0.60168  Biso   1.000  C
  H496     1.0000 0.43506  0.91088  0.56060  Biso   1.000  H
  H497     1.0000 0.44626  0.86210  0.60851  Biso   1.000  H
  H498     1.0000 0.48148  0.92208  0.63031  Biso   1.000  H
  Ne1      1.0000 0.77960  0.25117  0.22228  Biso   1.000  Ne
  He1      1.0000 0.61902  0.25325  0.39580  Biso   1.000  He
  He2      1.0000 0.91295  0.25708  0.09627  Biso   1.000  He
  He3      1.0000 0.54803  0.27749  0.09924  Biso   1.000  He
  Ar1      1.0000 0.76707  0.25122  0.22937  Biso   1.000  Ar
  Ne2      1.0000 0.27958  0.24883  0.72227  Biso   1.000  Ne
  He4      1.0000 0.16550  0.24521  0.87493  Biso   1.000  He
  He5      1.0000 0.27581  0.07652  0.74211  Biso   1.000  He
  He6      1.0000 0.17816  0.43227  0.73180  Biso   1.000  He
  He7      1.0000 0.41270  0.24289  0.59649  Biso   1.000  He
  Ar2      1.0000 0.26700  0.24876  0.72927  Biso   1.000  Ar
  Ne3      1.0000 0.27958  0.24883  0.72227  Biso   1.000  Ne
  He8      1.0000 0.16550  0.24521  0.87493  Biso   1.000  He
  He9      1.0000 0.27581  0.07652  0.74211  Biso   1.000  He
  He10     1.0000 0.17816  0.43227  0.73180  Biso   1.000  He
  He11     1.0000 0.41270  0.24289  0.59649  Biso   1.000  He
  Ar3      1.0000 0.26700  0.24876  0.72927  Biso   1.000  Ar
  Ne4      1.0000 0.72037  0.75117  0.27772  Biso   1.000  Ne
  He12     1.0000 0.58645  0.75703  0.40435  Biso   1.000  He
  He13     1.0000 0.00248  0.76954  0.43773  Biso   1.000  He
  He14     1.0000 0.75101  0.57705  0.27506  Biso   1.000  He
  He15     1.0000 0.72405  0.92284  0.25797  Biso   1.000  He
  He16     1.0000 0.86039  0.75394  0.11344  Biso   1.000  He
  Ar4      1.0000 0.73292  0.75121  0.27064  Biso   1.000  Ar
  Ne5      1.0000 0.72037  0.75117  0.27772  Biso   1.000  Ne
  He17     1.0000 0.58645  0.75703  0.40435  Biso   1.000  He
  He18     1.0000 0.00248  0.76954  0.43773  Biso   1.000  He
  He19     1.0000 0.75101  0.57705  0.27506  Biso   1.000  He
  He20     1.0000 0.72405  0.92284  0.25797  Biso   1.000  He
  He21     1.0000 0.86039  0.75394  0.11344  Biso   1.000  He
  Ar5      1.0000 0.73292  0.75121  0.27064  Biso   1.000  Ar
  Ne6      1.0000 0.22035  0.74883  0.77771  Biso   1.000  Ne
  He22     1.0000 0.08761  0.74288  0.90307  Biso   1.000  He
  He23     1.0000 0.45597  0.72286  0.90276  Biso   1.000  He
  He24     1.0000 0.25787  0.95599  0.77029  Biso   1.000  He
  He25     1.0000 0.22373  0.57888  0.75829  Biso   1.000  He
  He26     1.0000 0.33465  0.74522  0.62496  Biso   1.000  He
  Ar6      1.0000 0.23352  0.74894  0.77063  Biso   1.000  Ar
