data_image0
_cell_length_a       20.606
_cell_length_b       23.332
_cell_length_c       13.799
_cell_angle_alpha    90
_cell_angle_beta     90
_cell_angle_gamma    90

_symmetry_space_group_name_H-M    "P 1"
_symmetry_int_tables_number       1

loop_
  _symmetry_equiv_pos_as_xyz
  'x, y, z'

loop_
  _atom_site_label
  _atom_site_occupancy
  _atom_site_fract_x
  _atom_site_fract_y
  _atom_site_fract_z
  _atom_site_thermal_displace_type
  _atom_site_B_iso_or_equiv
  _atom_site_type_symbol
  O1       1.0000 0.10759  0.29702  0.34778  Biso   1.000  O
  B1       1.0000 0.13399  0.33979  0.29183  Biso   1.000  B
  C1       1.0000 0.08342  0.25321  0.28473  Biso   1.000  C
  O2       1.0000 0.12880  0.32912  0.19458  Biso   1.000  O
  C2       1.0000 0.15961  0.39688  0.33227  Biso   1.000  C
  C3       1.0000 0.08459  0.28099  0.18567  Biso   1.000  C
  C4       1.0000 0.01179  0.23761  0.30633  Biso   1.000  C
  H1       1.0000 0.11172  0.21841  0.28640  Biso   1.000  H
  C5       1.0000 0.16398  0.40558  0.43329  Biso   1.000  C
  C6       1.0000 0.16859  0.44330  0.27227  Biso   1.000  C
  H2       1.0000 0.09832  0.25369  0.13378  Biso   1.000  H
  C7       1.0000 0.01699  0.30070  0.17269  Biso   1.000  C
  C8       1.0000 0.97680  0.28000  0.24408  Biso   1.000  C
  C9       1.0000 0.99612  0.17658  0.26763  Biso   1.000  C
  C10      1.0000 0.99592  0.24160  0.41546  Biso   1.000  C
  H3       1.0000 0.15908  0.37369  0.47547  Biso   1.000  H
  C11      1.0000 0.17548  0.46018  0.47301  Biso   1.000  C
  C12      1.0000 0.18140  0.49790  0.30749  Biso   1.000  C
  H4       1.0000 0.16602  0.43768  0.20422  Biso   1.000  H
  C13      1.0000 0.99219  0.33932  0.10247  Biso   1.000  C
  C14      1.0000 0.91192  0.29680  0.24893  Biso   1.000  C
  H5       1.0000 0.01839  0.14799  0.30749  Biso   1.000  H
  H6       1.0000 0.01082  0.17328  0.20030  Biso   1.000  H
  H7       1.0000 0.94909  0.17011  0.27060  Biso   1.000  H
  H8       1.0000 0.02980  0.22210  0.45293  Biso   1.000  H
  H9       1.0000 0.99379  0.28202  0.43489  Biso   1.000  H
  H10      1.0000 0.95390  0.22330  0.42807  Biso   1.000  H
  C15      1.0000 0.18218  0.50621  0.40793  Biso   1.000  C
  B2       1.0000 0.16908  0.46618  0.58251  Biso   1.000  B
  B3       1.0000 0.18291  0.54959  0.23639  Biso   1.000  B
  H11      1.0000 0.01999  0.35321  0.05290  Biso   1.000  H
  C16      1.0000 0.93012  0.35651  0.10479  Biso   1.000  C
  C17      1.0000 0.88930  0.33542  0.17900  Biso   1.000  C
  H12      1.0000 0.88392  0.28249  0.29799  Biso   1.000  H
  H13      1.0000 0.18752  0.54389  0.43278  Biso   1.000  H
  O3       1.0000 0.15559  0.51329  0.63229  Biso   1.000  O
  O4       1.0000 0.17262  0.41690  0.64063  Biso   1.000  O
  O5       1.0000 0.17359  0.54059  0.13784  Biso   1.000  O
  O6       1.0000 0.18970  0.60539  0.26060  Biso   1.000  O
  C18      1.0000 0.89319  0.39559  0.03863  Biso   1.000  C
  C19      1.0000 0.82238  0.36109  0.17327  Biso   1.000  C
  C20      1.0000 0.13802  0.49601  0.73223  Biso   1.000  C
  C21      1.0000 0.14991  0.43010  0.73440  Biso   1.000  C
  C22      1.0000 0.17102  0.59421  0.08827  Biso   1.000  C
  C23      1.0000 0.17762  0.63891  0.17327  Biso   1.000  C
  C24      1.0000 0.87979  0.36349  0.94050  Biso   1.000  C
  C25      1.0000 0.82898  0.40579  0.08827  Biso   1.000  C
  C26      1.0000 0.93002  0.45208  0.01732  Biso   1.000  C
  H14      1.0000 0.78802  0.33182  0.16088  Biso   1.000  H
  O7       1.0000 0.81030  0.39461  0.26060  Biso   1.000  O
  C27      1.0000 0.06649  0.50261  0.74571  Biso   1.000  C
  H15      1.0000 0.16369  0.51689  0.78259  Biso   1.000  H
  H16      1.0000 0.18330  0.42011  0.78411  Biso   1.000  H
  C28      1.0000 0.08400  0.40138  0.75933  Biso   1.000  C
  C29      1.0000 0.10681  0.60441  0.03863  Biso   1.000  C
  H17      1.0000 0.20780  0.59789  0.04152  Biso   1.000  H
  H18      1.0000 0.21198  0.66818  0.16088  Biso   1.000  H
  C30      1.0000 0.11070  0.66458  0.17900  Biso   1.000  C
  H19      1.0000 0.86732  0.32380  0.95413  Biso   1.000  H
  H20      1.0000 0.91910  0.36392  0.90057  Biso   1.000  H
  H21      1.0000 0.84451  0.38278  0.90572  Biso   1.000  H
  H22      1.0000 0.79220  0.40211  0.04152  Biso   1.000  H
  O8       1.0000 0.82641  0.45941  0.13784  Biso   1.000  O
  H23      1.0000 0.90042  0.47951  0.98659  Biso   1.000  H
  H24      1.0000 0.96651  0.44428  0.97362  Biso   1.000  H
  H25      1.0000 0.94642  0.46820  0.07812  Biso   1.000  H
  B4       1.0000 0.81709  0.45041  0.23639  Biso   1.000  B
  C31      1.0000 0.03048  0.55319  0.74737  Biso   1.000  C
  C32      1.0000 0.03640  0.44981  0.74976  Biso   1.000  C
  C33      1.0000 0.06949  0.35321  0.68730  Biso   1.000  C
  C34      1.0000 0.08672  0.38111  0.86253  Biso   1.000  C
  C35      1.0000 0.06988  0.64349  0.10479  Biso   1.000  C
  C36      1.0000 0.06998  0.54792  0.01732  Biso   1.000  C
  C37      1.0000 0.12021  0.63651  0.94050  Biso   1.000  C
  C38      1.0000 0.08808  0.70320  0.24893  Biso   1.000  C
  C39      1.0000 0.81860  0.50210  0.30749  Biso   1.000  C
  H26      1.0000 0.06571  0.57929  0.75303  Biso   1.000  H
  C40      1.0000 0.96360  0.55019  0.74976  Biso   1.000  C
  C41      1.0000 0.96952  0.44681  0.74737  Biso   1.000  C
  H27      1.0000 0.02980  0.33319  0.70694  Biso   1.000  H
  H28      1.0000 0.10589  0.32612  0.68643  Biso   1.000  H
  H29      1.0000 0.06362  0.36941  0.62236  Biso   1.000  H
  H30      1.0000 0.08910  0.41428  0.90594  Biso   1.000  H
  H31      1.0000 0.12521  0.35702  0.87173  Biso   1.000  H
  H32      1.0000 0.04761  0.35882  0.87731  Biso   1.000  H
  C42      1.0000 0.00781  0.66068  0.10247  Biso   1.000  C
  H33      1.0000 0.05358  0.53180  0.07812  Biso   1.000  H
  H34      1.0000 0.09958  0.52049  0.98659  Biso   1.000  H
  H35      1.0000 0.03349  0.55572  0.97362  Biso   1.000  H
  H36      1.0000 0.13268  0.67620  0.95413  Biso   1.000  H
  H37      1.0000 0.08090  0.63608  0.90057  Biso   1.000  H
  H38      1.0000 0.15549  0.61722  0.90572  Biso   1.000  H
  H39      1.0000 0.11608  0.71751  0.29799  Biso   1.000  H
  C43      1.0000 0.02320  0.72000  0.24408  Biso   1.000  C
  C44      1.0000 0.81782  0.49379  0.40793  Biso   1.000  C
  C45      1.0000 0.83141  0.55670  0.27227  Biso   1.000  C
  C46      1.0000 0.91600  0.59862  0.75933  Biso   1.000  C
  C47      1.0000 0.93351  0.49739  0.74571  Biso   1.000  C
  H40      1.0000 0.93429  0.42071  0.75303  Biso   1.000  H
  C48      1.0000 0.98301  0.69930  0.17269  Biso   1.000  C
  H41      1.0000 0.98001  0.64679  0.05290  Biso   1.000  H
  C49      1.0000 0.98821  0.76239  0.30633  Biso   1.000  C
  C50      1.0000 0.82452  0.53982  0.47301  Biso   1.000  C
  H42      1.0000 0.81248  0.45611  0.43278  Biso   1.000  H
  C51      1.0000 0.84039  0.60312  0.33227  Biso   1.000  C
  H43      1.0000 0.83398  0.56232  0.20422  Biso   1.000  H
  C52      1.0000 0.93051  0.64679  0.68730  Biso   1.000  C
  C53      1.0000 0.85009  0.56990  0.73440  Biso   1.000  C
  C54      1.0000 0.91328  0.61889  0.86253  Biso   1.000  C
  C55      1.0000 0.86198  0.50399  0.73223  Biso   1.000  C
  C56      1.0000 0.91541  0.71901  0.18567  Biso   1.000  C
  C57      1.0000 0.00388  0.82342  0.26763  Biso   1.000  C
  C58      1.0000 0.00408  0.75840  0.41546  Biso   1.000  C
  C59      1.0000 0.91658  0.74679  0.28473  Biso   1.000  C
  C60      1.0000 0.83602  0.59442  0.43329  Biso   1.000  C
  B5       1.0000 0.83092  0.53382  0.58251  Biso   1.000  B
  B6       1.0000 0.86601  0.66021  0.29183  Biso   1.000  B
  H44      1.0000 0.97020  0.66681  0.70694  Biso   1.000  H
  H45      1.0000 0.89411  0.67388  0.68643  Biso   1.000  H
  H46      1.0000 0.93638  0.63059  0.62236  Biso   1.000  H
  O9       1.0000 0.82738  0.58310  0.64063  Biso   1.000  O
  H47      1.0000 0.81670  0.57989  0.78411  Biso   1.000  H
  H48      1.0000 0.91090  0.58572  0.90594  Biso   1.000  H
  H49      1.0000 0.87479  0.64298  0.87173  Biso   1.000  H
  H50      1.0000 0.95239  0.64118  0.87731  Biso   1.000  H
  O10      1.0000 0.84441  0.48671  0.63229  Biso   1.000  O
  H51      1.0000 0.83631  0.48311  0.78259  Biso   1.000  H
  O11      1.0000 0.87120  0.67088  0.19458  Biso   1.000  O
  H52      1.0000 0.90168  0.74631  0.13378  Biso   1.000  H
  H53      1.0000 0.05091  0.82989  0.27060  Biso   1.000  H
  H54      1.0000 0.98161  0.85201  0.30749  Biso   1.000  H
  H55      1.0000 0.98918  0.82672  0.20030  Biso   1.000  H
  H56      1.0000 0.00621  0.71798  0.43489  Biso   1.000  H
  H57      1.0000 0.04610  0.77670  0.42807  Biso   1.000  H
  H58      1.0000 0.97020  0.77790  0.45293  Biso   1.000  H
  O12      1.0000 0.89241  0.70298  0.34778  Biso   1.000  O
  H59      1.0000 0.88828  0.78159  0.28640  Biso   1.000  H
  H60      1.0000 0.84092  0.62631  0.47547  Biso   1.000  H
  O13      1.0000 0.10759  0.29702  0.34778  Biso   1.000  O
  B7       1.0000 0.13399  0.33979  0.29183  Biso   1.000  B
  C61      1.0000 0.08342  0.25321  0.28473  Biso   1.000  C
  O14      1.0000 0.12880  0.32912  0.19458  Biso   1.000  O
  C62      1.0000 0.15961  0.39688  0.33227  Biso   1.000  C
  C63      1.0000 0.08459  0.28099  0.18567  Biso   1.000  C
  C64      1.0000 0.01179  0.23761  0.30633  Biso   1.000  C
  H61      1.0000 0.11172  0.21841  0.28640  Biso   1.000  H
  C65      1.0000 0.16398  0.40558  0.43329  Biso   1.000  C
  C66      1.0000 0.16859  0.44330  0.27227  Biso   1.000  C
  H62      1.0000 0.09832  0.25369  0.13378  Biso   1.000  H
  C67      1.0000 0.01699  0.30070  0.17269  Biso   1.000  C
  C68      1.0000 0.97680  0.28000  0.24408  Biso   1.000  C
  C69      1.0000 0.99612  0.17658  0.26763  Biso   1.000  C
  C70      1.0000 0.99592  0.24160  0.41546  Biso   1.000  C
  H63      1.0000 0.15908  0.37369  0.47547  Biso   1.000  H
  C71      1.0000 0.17548  0.46018  0.47301  Biso   1.000  C
  C72      1.0000 0.18140  0.49790  0.30749  Biso   1.000  C
  H64      1.0000 0.16602  0.43768  0.20422  Biso   1.000  H
  C73      1.0000 0.99219  0.33932  0.10247  Biso   1.000  C
  C74      1.0000 0.91192  0.29680  0.24893  Biso   1.000  C
  H65      1.0000 0.01839  0.14799  0.30749  Biso   1.000  H
  H66      1.0000 0.01082  0.17328  0.20030  Biso   1.000  H
  H67      1.0000 0.94909  0.17011  0.27060  Biso   1.000  H
  H68      1.0000 0.02980  0.22210  0.45293  Biso   1.000  H
  H69      1.0000 0.99379  0.28202  0.43489  Biso   1.000  H
  H70      1.0000 0.95390  0.22330  0.42807  Biso   1.000  H
  C75      1.0000 0.18218  0.50621  0.40793  Biso   1.000  C
  B8       1.0000 0.16908  0.46618  0.58251  Biso   1.000  B
  B9       1.0000 0.18291  0.54959  0.23639  Biso   1.000  B
  H71      1.0000 0.01999  0.35321  0.05290  Biso   1.000  H
  C76      1.0000 0.93012  0.35651  0.10479  Biso   1.000  C
  C77      1.0000 0.88930  0.33542  0.17900  Biso   1.000  C
  H72      1.0000 0.88392  0.28249  0.29799  Biso   1.000  H
  H73      1.0000 0.18752  0.54389  0.43278  Biso   1.000  H
  O15      1.0000 0.15559  0.51329  0.63229  Biso   1.000  O
  O16      1.0000 0.17262  0.41690  0.64063  Biso   1.000  O
  O17      1.0000 0.17359  0.54059  0.13784  Biso   1.000  O
  O18      1.0000 0.18970  0.60539  0.26060  Biso   1.000  O
  C78      1.0000 0.89319  0.39559  0.03863  Biso   1.000  C
  C79      1.0000 0.82238  0.36109  0.17327  Biso   1.000  C
  C80      1.0000 0.13802  0.49601  0.73223  Biso   1.000  C
  C81      1.0000 0.14991  0.43010  0.73440  Biso   1.000  C
  C82      1.0000 0.17102  0.59421  0.08827  Biso   1.000  C
  C83      1.0000 0.17762  0.63891  0.17327  Biso   1.000  C
  C84      1.0000 0.87979  0.36349  0.94050  Biso   1.000  C
  C85      1.0000 0.82898  0.40579  0.08827  Biso   1.000  C
  C86      1.0000 0.93002  0.45208  0.01732  Biso   1.000  C
  H74      1.0000 0.78802  0.33182  0.16088  Biso   1.000  H
  O19      1.0000 0.81030  0.39461  0.26060  Biso   1.000  O
  C87      1.0000 0.06649  0.50261  0.74571  Biso   1.000  C
  H75      1.0000 0.16369  0.51689  0.78259  Biso   1.000  H
  H76      1.0000 0.18330  0.42011  0.78411  Biso   1.000  H
  C88      1.0000 0.08400  0.40138  0.75933  Biso   1.000  C
  C89      1.0000 0.10681  0.60441  0.03863  Biso   1.000  C
  H77      1.0000 0.20780  0.59789  0.04152  Biso   1.000  H
  H78      1.0000 0.21198  0.66818  0.16088  Biso   1.000  H
  C90      1.0000 0.11070  0.66458  0.17900  Biso   1.000  C
  H79      1.0000 0.86732  0.32380  0.95413  Biso   1.000  H
  H80      1.0000 0.91910  0.36392  0.90057  Biso   1.000  H
  H81      1.0000 0.84451  0.38278  0.90572  Biso   1.000  H
  H82      1.0000 0.79220  0.40211  0.04152  Biso   1.000  H
  O20      1.0000 0.82641  0.45941  0.13784  Biso   1.000  O
  H83      1.0000 0.90042  0.47951  0.98659  Biso   1.000  H
  H84      1.0000 0.96651  0.44428  0.97362  Biso   1.000  H
  H85      1.0000 0.94642  0.46820  0.07812  Biso   1.000  H
  B10      1.0000 0.81709  0.45041  0.23639  Biso   1.000  B
  C91      1.0000 0.03048  0.55319  0.74737  Biso   1.000  C
  C92      1.0000 0.03640  0.44981  0.74976  Biso   1.000  C
  C93      1.0000 0.06949  0.35321  0.68730  Biso   1.000  C
  C94      1.0000 0.08672  0.38111  0.86253  Biso   1.000  C
  C95      1.0000 0.06988  0.64349  0.10479  Biso   1.000  C
  C96      1.0000 0.06998  0.54792  0.01732  Biso   1.000  C
  C97      1.0000 0.12021  0.63651  0.94050  Biso   1.000  C
  C98      1.0000 0.08808  0.70320  0.24893  Biso   1.000  C
  C99      1.0000 0.81860  0.50210  0.30749  Biso   1.000  C
  H86      1.0000 0.06571  0.57929  0.75303  Biso   1.000  H
  C100     1.0000 0.96360  0.55019  0.74976  Biso   1.000  C
  C101     1.0000 0.96952  0.44681  0.74737  Biso   1.000  C
  H87      1.0000 0.02980  0.33319  0.70694  Biso   1.000  H
  H88      1.0000 0.10589  0.32612  0.68643  Biso   1.000  H
  H89      1.0000 0.06362  0.36941  0.62236  Biso   1.000  H
  H90      1.0000 0.08910  0.41428  0.90594  Biso   1.000  H
  H91      1.0000 0.12521  0.35702  0.87173  Biso   1.000  H
  H92      1.0000 0.04761  0.35882  0.87731  Biso   1.000  H
  C102     1.0000 0.00781  0.66068  0.10247  Biso   1.000  C
  H93      1.0000 0.05358  0.53180  0.07812  Biso   1.000  H
  H94      1.0000 0.09958  0.52049  0.98659  Biso   1.000  H
  H95      1.0000 0.03349  0.55572  0.97362  Biso   1.000  H
  H96      1.0000 0.13268  0.67620  0.95413  Biso   1.000  H
  H97      1.0000 0.08090  0.63608  0.90057  Biso   1.000  H
  H98      1.0000 0.15549  0.61722  0.90572  Biso   1.000  H
  H99      1.0000 0.11608  0.71751  0.29799  Biso   1.000  H
  C103     1.0000 0.02320  0.72000  0.24408  Biso   1.000  C
  C104     1.0000 0.81782  0.49379  0.40793  Biso   1.000  C
  C105     1.0000 0.83141  0.55670  0.27227  Biso   1.000  C
  C106     1.0000 0.91600  0.59862  0.75933  Biso   1.000  C
  C107     1.0000 0.93351  0.49739  0.74571  Biso   1.000  C
  H100     1.0000 0.93429  0.42071  0.75303  Biso   1.000  H
  C108     1.0000 0.98301  0.69930  0.17269  Biso   1.000  C
  H101     1.0000 0.98001  0.64679  0.05290  Biso   1.000  H
  C109     1.0000 0.98821  0.76239  0.30633  Biso   1.000  C
  C110     1.0000 0.82452  0.53982  0.47301  Biso   1.000  C
  H102     1.0000 0.81248  0.45611  0.43278  Biso   1.000  H
  C111     1.0000 0.84039  0.60312  0.33227  Biso   1.000  C
  H103     1.0000 0.83398  0.56232  0.20422  Biso   1.000  H
  C112     1.0000 0.93051  0.64679  0.68730  Biso   1.000  C
  C113     1.0000 0.85009  0.56990  0.73440  Biso   1.000  C
  C114     1.0000 0.91328  0.61889  0.86253  Biso   1.000  C
  C115     1.0000 0.86198  0.50399  0.73223  Biso   1.000  C
  C116     1.0000 0.91541  0.71901  0.18567  Biso   1.000  C
  C117     1.0000 0.00388  0.82342  0.26763  Biso   1.000  C
  C118     1.0000 0.00408  0.75840  0.41546  Biso   1.000  C
  C119     1.0000 0.91658  0.74679  0.28473  Biso   1.000  C
  C120     1.0000 0.83602  0.59442  0.43329  Biso   1.000  C
  B11      1.0000 0.83092  0.53382  0.58251  Biso   1.000  B
  B12      1.0000 0.86601  0.66021  0.29183  Biso   1.000  B
  H104     1.0000 0.97020  0.66681  0.70694  Biso   1.000  H
  H105     1.0000 0.89411  0.67388  0.68643  Biso   1.000  H
  H106     1.0000 0.93638  0.63059  0.62236  Biso   1.000  H
  O21      1.0000 0.82738  0.58310  0.64063  Biso   1.000  O
  H107     1.0000 0.81670  0.57989  0.78411  Biso   1.000  H
  H108     1.0000 0.91090  0.58572  0.90594  Biso   1.000  H
  H109     1.0000 0.87479  0.64298  0.87173  Biso   1.000  H
  H110     1.0000 0.95239  0.64118  0.87731  Biso   1.000  H
  O22      1.0000 0.84441  0.48671  0.63229  Biso   1.000  O
  H111     1.0000 0.83631  0.48311  0.78259  Biso   1.000  H
  O23      1.0000 0.87120  0.67088  0.19458  Biso   1.000  O
  H112     1.0000 0.90168  0.74631  0.13378  Biso   1.000  H
  H113     1.0000 0.05091  0.82989  0.27060  Biso   1.000  H
  H114     1.0000 0.98161  0.85201  0.30749  Biso   1.000  H
  H115     1.0000 0.98918  0.82672  0.20030  Biso   1.000  H
  H116     1.0000 0.00621  0.71798  0.43489  Biso   1.000  H
  H117     1.0000 0.04610  0.77670  0.42807  Biso   1.000  H
  H118     1.0000 0.97020  0.77790  0.45293  Biso   1.000  H
  O24      1.0000 0.89241  0.70298  0.34778  Biso   1.000  O
  H119     1.0000 0.88828  0.78159  0.28640  Biso   1.000  H
  H120     1.0000 0.84092  0.62631  0.47547  Biso   1.000  H
  O25      1.0000 0.12370  0.09421  0.36466  Biso   1.000  O
  B13      1.0000 0.16049  0.06022  0.30662  Biso   1.000  B
  C121     1.0000 0.11832  0.06442  0.45663  Biso   1.000  C
  C122     1.0000 0.16922  0.06729  0.19422  Biso   1.000  C
  O26      1.0000 0.18820  0.01410  0.35401  Biso   1.000  O
  C123     1.0000 0.16752  0.01522  0.45119  Biso   1.000  C
  H121     1.0000 0.12671  0.09031  0.51294  Biso   1.000  H
  C124     1.0000 0.05338  0.03450  0.46460  Biso   1.000  C
  C125     1.0000 0.14209  0.11032  0.14037  Biso   1.000  C
  C126     1.0000 0.19800  0.02182  0.14421  Biso   1.000  C
  H122     1.0000 0.20479  0.02212  0.49591  Biso   1.000  H
  C127     1.0000 0.13142  0.95830  0.47772  Biso   1.000  C
  C128     1.0000 0.99291  0.06039  0.46779  Biso   1.000  C
  C129     1.0000 0.06139  0.97600  0.46714  Biso   1.000  C
  H123     1.0000 0.12210  0.14178  0.17219  Biso   1.000  H
  C130     1.0000 0.14340  0.10839  0.03689  Biso   1.000  C
  C131     1.0000 0.19950  0.01830  0.04413  Biso   1.000  C
  H124     1.0000 0.21751  0.99190  0.18067  Biso   1.000  H
  C132     1.0000 0.14428  0.94488  0.58577  Biso   1.000  C
  C133     1.0000 0.15000  0.90909  0.41402  Biso   1.000  C
  H125     1.0000 0.98840  0.10081  0.47040  Biso   1.000  H
  C134     1.0000 0.93861  0.02400  0.46714  Biso   1.000  C
  C135     1.0000 0.00709  0.93961  0.46779  Biso   1.000  C
  B14      1.0000 0.10541  0.15309  0.97782  Biso   1.000  B
  C136     1.0000 0.17131  0.06240  0.99217  Biso   1.000  C
  B15      1.0000 0.22149  0.96181  0.99551  Biso   1.000  B
  H126     1.0000 0.17689  0.91441  0.59077  Biso   1.000  H
  H127     1.0000 0.10390  0.93228  0.61657  Biso   1.000  H
  H128     1.0000 0.16029  0.97938  0.61831  Biso   1.000  H
  H129     1.0000 0.16092  0.92328  0.34923  Biso   1.000  H
  H130     1.0000 0.11361  0.88218  0.40938  Biso   1.000  H
  H131     1.0000 0.18781  0.88938  0.44163  Biso   1.000  H
  C137     1.0000 0.94662  0.96550  0.46460  Biso   1.000  C
  C138     1.0000 0.86858  0.04170  0.47772  Biso   1.000  C
  H132     1.0000 0.01160  0.89919  0.47040  Biso   1.000  H
  O27      1.0000 0.06120  0.19120  0.01080  Biso   1.000  O
  O28      1.0000 0.10900  0.15399  0.87622  Biso   1.000  O
  H133     1.0000 0.17121  0.06069  0.92347  Biso   1.000  H
  O29      1.0000 0.21232  0.94810  0.89978  Biso   1.000  O
  O30      1.0000 0.24721  0.91801  0.04768  Biso   1.000  O
  C139     1.0000 0.88168  0.93558  0.45663  Biso   1.000  C
  C140     1.0000 0.83248  0.98478  0.45119  Biso   1.000  C
  C141     1.0000 0.85572  0.05512  0.58577  Biso   1.000  C
  C142     1.0000 0.85000  0.09091  0.41402  Biso   1.000  C
  C143     1.0000 0.02761  0.21738  0.93007  Biso   1.000  C
  C144     1.0000 0.06071  0.19300  0.83818  Biso   1.000  C
  C145     1.0000 0.22178  0.88651  0.89391  Biso   1.000  C
  C146     1.0000 0.25371  0.86761  0.98717  Biso   1.000  C
  H134     1.0000 0.87329  0.90969  0.51294  Biso   1.000  H
  O31      1.0000 0.87630  0.90579  0.36466  Biso   1.000  O
  H135     1.0000 0.79521  0.97788  0.49591  Biso   1.000  H
  O32      1.0000 0.81180  0.98590  0.35401  Biso   1.000  O
  H136     1.0000 0.82311  0.08559  0.59077  Biso   1.000  H
  H137     1.0000 0.89610  0.06772  0.61657  Biso   1.000  H
  H138     1.0000 0.83971  0.02062  0.61831  Biso   1.000  H
  H139     1.0000 0.83908  0.07672  0.34923  Biso   1.000  H
  H140     1.0000 0.88639  0.11782  0.40938  Biso   1.000  H
  H141     1.0000 0.81219  0.11062  0.44163  Biso   1.000  H
  C147     1.0000 0.95788  0.19630  0.92318  Biso   1.000  C
  H142     1.0000 0.02999  0.26020  0.93260  Biso   1.000  H
  C148     1.0000 0.01000  0.16029  0.77701  Biso   1.000  C
  H143     1.0000 0.08138  0.22420  0.79948  Biso   1.000  H
  C149     1.0000 0.15782  0.85749  0.89289  Biso   1.000  C
  H144     1.0000 0.24852  0.87571  0.83608  Biso   1.000  H
  H145     1.0000 0.30020  0.85702  0.97717  Biso   1.000  H
  C150     1.0000 0.21358  0.81660  0.02971  Biso   1.000  C
  B16      1.0000 0.83951  0.93978  0.30662  Biso   1.000  B
  C151     1.0000 0.90881  0.20521  0.98993  Biso   1.000  C
  C152     1.0000 0.95089  0.16171  0.84158  Biso   1.000  C
  C153     1.0000 0.99811  0.19218  0.68570  Biso   1.000  C
  C154     1.0000 0.02980  0.09751  0.75107  Biso   1.000  C
  C155     1.0000 0.15112  0.82140  0.97203  Biso   1.000  C
  C156     1.0000 0.10842  0.86619  0.82673  Biso   1.000  C
  C157     1.0000 0.25090  0.76131  0.00283  Biso   1.000  C
  C158     1.0000 0.20159  0.82140  0.13530  Biso   1.000  C
  C159     1.0000 0.83078  0.93271  0.19422  Biso   1.000  C
  C160     1.0000 0.84888  0.17860  0.97203  Biso   1.000  C
  H146     1.0000 0.91541  0.22848  0.04558  Biso   1.000  H
  C161     1.0000 0.89158  0.13381  0.82673  Biso   1.000  C
  H147     1.0000 0.95128  0.19548  0.67469  Biso   1.000  H
  H148     1.0000 0.01810  0.17170  0.63150  Biso   1.000  H
  H149     1.0000 0.01708  0.23058  0.69077  Biso   1.000  H
  H150     1.0000 0.00010  0.08229  0.70193  Biso   1.000  H
  H151     1.0000 0.02752  0.07359  0.80948  Biso   1.000  H
  H152     1.0000 0.07430  0.09721  0.72578  Biso   1.000  H
  C162     1.0000 0.09119  0.79479  0.98993  Biso   1.000  C
  C163     1.0000 0.04911  0.83829  0.84158  Biso   1.000  C
  H153     1.0000 0.11458  0.89058  0.77230  Biso   1.000  H
  H154     1.0000 0.26900  0.76509  0.93739  Biso   1.000  H
  H155     1.0000 0.28618  0.75510  0.04921  Biso   1.000  H
  H156     1.0000 0.22110  0.72861  0.00457  Biso   1.000  H
  H157     1.0000 0.20091  0.78309  0.16421  Biso   1.000  H
  H158     1.0000 0.15971  0.84022  0.14631  Biso   1.000  H
  H159     1.0000 0.23619  0.84421  0.16523  Biso   1.000  H
  C164     1.0000 0.80200  0.97818  0.14421  Biso   1.000  C
  C165     1.0000 0.85791  0.88968  0.14037  Biso   1.000  C
  C166     1.0000 0.84218  0.14251  0.89289  Biso   1.000  C
  C167     1.0000 0.78642  0.18340  0.02971  Biso   1.000  C
  H160     1.0000 0.88542  0.10942  0.77230  Biso   1.000  H
  C168     1.0000 0.04212  0.80370  0.92318  Biso   1.000  C
  H161     1.0000 0.08459  0.77152  0.04558  Biso   1.000  H
  C169     1.0000 0.99000  0.83971  0.77701  Biso   1.000  C
  C170     1.0000 0.80050  0.98170  0.04413  Biso   1.000  C
  H162     1.0000 0.78249  0.00810  0.18067  Biso   1.000  H
  C171     1.0000 0.85660  0.89161  0.03689  Biso   1.000  C
  H163     1.0000 0.87790  0.85822  0.17219  Biso   1.000  H
  C172     1.0000 0.77822  0.11349  0.89391  Biso   1.000  C
  C173     1.0000 0.74629  0.13239  0.98717  Biso   1.000  C
  C174     1.0000 0.74910  0.23869  0.00283  Biso   1.000  C
  C175     1.0000 0.79841  0.17860  0.13530  Biso   1.000  C
  C176     1.0000 0.97239  0.78262  0.93007  Biso   1.000  C
  C177     1.0000 0.93929  0.80700  0.83818  Biso   1.000  C
  C178     1.0000 0.97020  0.90249  0.75107  Biso   1.000  C
  C179     1.0000 0.00189  0.80782  0.68570  Biso   1.000  C
  B17      1.0000 0.77851  0.03819  0.99551  Biso   1.000  B
  C180     1.0000 0.82869  0.93760  0.99217  Biso   1.000  C
  B18      1.0000 0.89459  0.84691  0.97782  Biso   1.000  B
  H164     1.0000 0.75148  0.12429  0.83608  Biso   1.000  H
  O33      1.0000 0.78768  0.05190  0.89978  Biso   1.000  O
  H165     1.0000 0.69980  0.14298  0.97717  Biso   1.000  H
  O34      1.0000 0.75279  0.08199  0.04768  Biso   1.000  O
  H166     1.0000 0.73100  0.23491  0.93739  Biso   1.000  H
  H167     1.0000 0.71382  0.24490  0.04921  Biso   1.000  H
  H168     1.0000 0.77890  0.27139  0.00457  Biso   1.000  H
  H169     1.0000 0.79909  0.21691  0.16421  Biso   1.000  H
  H170     1.0000 0.84029  0.15978  0.14631  Biso   1.000  H
  H171     1.0000 0.76381  0.15579  0.16523  Biso   1.000  H
  H172     1.0000 0.97001  0.73980  0.93260  Biso   1.000  H
  O35      1.0000 0.93880  0.80880  0.01080  Biso   1.000  O
  O36      1.0000 0.89100  0.84601  0.87622  Biso   1.000  O
  H173     1.0000 0.91862  0.77580  0.79948  Biso   1.000  H
  H174     1.0000 0.99990  0.91771  0.70193  Biso   1.000  H
  H175     1.0000 0.97248  0.92641  0.80948  Biso   1.000  H
  H176     1.0000 0.92570  0.90279  0.72578  Biso   1.000  H
  H177     1.0000 0.98190  0.82830  0.63150  Biso   1.000  H
  H178     1.0000 0.98292  0.76942  0.69077  Biso   1.000  H
  H179     1.0000 0.04872  0.80452  0.67469  Biso   1.000  H
  H180     1.0000 0.82879  0.93931  0.92347  Biso   1.000  H
  O37      1.0000 0.12370  0.09421  0.36466  Biso   1.000  O
  B19      1.0000 0.16049  0.06022  0.30662  Biso   1.000  B
  C181     1.0000 0.11832  0.06442  0.45663  Biso   1.000  C
  C182     1.0000 0.16922  0.06729  0.19422  Biso   1.000  C
  O38      1.0000 0.18820  0.01410  0.35401  Biso   1.000  O
  C183     1.0000 0.16752  0.01522  0.45119  Biso   1.000  C
  H181     1.0000 0.12671  0.09031  0.51294  Biso   1.000  H
  C184     1.0000 0.05338  0.03450  0.46460  Biso   1.000  C
  C185     1.0000 0.14209  0.11032  0.14037  Biso   1.000  C
  C186     1.0000 0.19800  0.02182  0.14421  Biso   1.000  C
  H182     1.0000 0.20479  0.02212  0.49591  Biso   1.000  H
  C187     1.0000 0.13142  0.95830  0.47772  Biso   1.000  C
  C188     1.0000 0.99291  0.06039  0.46779  Biso   1.000  C
  C189     1.0000 0.06139  0.97600  0.46714  Biso   1.000  C
  H183     1.0000 0.12210  0.14178  0.17219  Biso   1.000  H
  C190     1.0000 0.14340  0.10839  0.03689  Biso   1.000  C
  C191     1.0000 0.19950  0.01830  0.04413  Biso   1.000  C
  H184     1.0000 0.21751  0.99190  0.18067  Biso   1.000  H
  C192     1.0000 0.14428  0.94488  0.58577  Biso   1.000  C
  C193     1.0000 0.15000  0.90909  0.41402  Biso   1.000  C
  H185     1.0000 0.98840  0.10081  0.47040  Biso   1.000  H
  C194     1.0000 0.93861  0.02400  0.46714  Biso   1.000  C
  C195     1.0000 0.00709  0.93961  0.46779  Biso   1.000  C
  B20      1.0000 0.10541  0.15309  0.97782  Biso   1.000  B
  C196     1.0000 0.17131  0.06240  0.99217  Biso   1.000  C
  B21      1.0000 0.22149  0.96181  0.99551  Biso   1.000  B
  H186     1.0000 0.17689  0.91441  0.59077  Biso   1.000  H
  H187     1.0000 0.10390  0.93228  0.61657  Biso   1.000  H
  H188     1.0000 0.16029  0.97938  0.61831  Biso   1.000  H
  H189     1.0000 0.16092  0.92328  0.34923  Biso   1.000  H
  H190     1.0000 0.11361  0.88218  0.40938  Biso   1.000  H
  H191     1.0000 0.18781  0.88938  0.44163  Biso   1.000  H
  C197     1.0000 0.94662  0.96550  0.46460  Biso   1.000  C
  C198     1.0000 0.86858  0.04170  0.47772  Biso   1.000  C
  H192     1.0000 0.01160  0.89919  0.47040  Biso   1.000  H
  O39      1.0000 0.06120  0.19120  0.01080  Biso   1.000  O
  O40      1.0000 0.10900  0.15399  0.87622  Biso   1.000  O
  H193     1.0000 0.17121  0.06069  0.92347  Biso   1.000  H
  O41      1.0000 0.21232  0.94810  0.89978  Biso   1.000  O
  O42      1.0000 0.24721  0.91801  0.04768  Biso   1.000  O
  C199     1.0000 0.88168  0.93558  0.45663  Biso   1.000  C
  C200     1.0000 0.83248  0.98478  0.45119  Biso   1.000  C
  C201     1.0000 0.85572  0.05512  0.58577  Biso   1.000  C
  C202     1.0000 0.85000  0.09091  0.41402  Biso   1.000  C
  C203     1.0000 0.02761  0.21738  0.93007  Biso   1.000  C
  C204     1.0000 0.06071  0.19300  0.83818  Biso   1.000  C
  C205     1.0000 0.22178  0.88651  0.89391  Biso   1.000  C
  C206     1.0000 0.25371  0.86761  0.98717  Biso   1.000  C
  H194     1.0000 0.87329  0.90969  0.51294  Biso   1.000  H
  O43      1.0000 0.87630  0.90579  0.36466  Biso   1.000  O
  H195     1.0000 0.79521  0.97788  0.49591  Biso   1.000  H
  O44      1.0000 0.81180  0.98590  0.35401  Biso   1.000  O
  H196     1.0000 0.82311  0.08559  0.59077  Biso   1.000  H
  H197     1.0000 0.89610  0.06772  0.61657  Biso   1.000  H
  H198     1.0000 0.83971  0.02062  0.61831  Biso   1.000  H
  H199     1.0000 0.83908  0.07672  0.34923  Biso   1.000  H
  H200     1.0000 0.88639  0.11782  0.40938  Biso   1.000  H
  H201     1.0000 0.81219  0.11062  0.44163  Biso   1.000  H
  C207     1.0000 0.95788  0.19630  0.92318  Biso   1.000  C
  H202     1.0000 0.02999  0.26020  0.93260  Biso   1.000  H
  C208     1.0000 0.01000  0.16029  0.77701  Biso   1.000  C
  H203     1.0000 0.08138  0.22420  0.79948  Biso   1.000  H
  C209     1.0000 0.15782  0.85749  0.89289  Biso   1.000  C
  H204     1.0000 0.24852  0.87571  0.83608  Biso   1.000  H
  H205     1.0000 0.30020  0.85702  0.97717  Biso   1.000  H
  C210     1.0000 0.21358  0.81660  0.02971  Biso   1.000  C
  B22      1.0000 0.83951  0.93978  0.30662  Biso   1.000  B
  C211     1.0000 0.90881  0.20521  0.98993  Biso   1.000  C
  C212     1.0000 0.95089  0.16171  0.84158  Biso   1.000  C
  C213     1.0000 0.99811  0.19218  0.68570  Biso   1.000  C
  C214     1.0000 0.02980  0.09751  0.75107  Biso   1.000  C
  C215     1.0000 0.15112  0.82140  0.97203  Biso   1.000  C
  C216     1.0000 0.10842  0.86619  0.82673  Biso   1.000  C
  C217     1.0000 0.25090  0.76131  0.00283  Biso   1.000  C
  C218     1.0000 0.20159  0.82140  0.13530  Biso   1.000  C
  C219     1.0000 0.83078  0.93271  0.19422  Biso   1.000  C
  C220     1.0000 0.84888  0.17860  0.97203  Biso   1.000  C
  H206     1.0000 0.91541  0.22848  0.04558  Biso   1.000  H
  C221     1.0000 0.89158  0.13381  0.82673  Biso   1.000  C
  H207     1.0000 0.95128  0.19548  0.67469  Biso   1.000  H
  H208     1.0000 0.01810  0.17170  0.63150  Biso   1.000  H
  H209     1.0000 0.01708  0.23058  0.69077  Biso   1.000  H
  H210     1.0000 0.00010  0.08229  0.70193  Biso   1.000  H
  H211     1.0000 0.02752  0.07359  0.80948  Biso   1.000  H
  H212     1.0000 0.07430  0.09721  0.72578  Biso   1.000  H
  C222     1.0000 0.09119  0.79479  0.98993  Biso   1.000  C
  C223     1.0000 0.04911  0.83829  0.84158  Biso   1.000  C
  H213     1.0000 0.11458  0.89058  0.77230  Biso   1.000  H
  H214     1.0000 0.26900  0.76509  0.93739  Biso   1.000  H
  H215     1.0000 0.28618  0.75510  0.04921  Biso   1.000  H
  H216     1.0000 0.22110  0.72861  0.00457  Biso   1.000  H
  H217     1.0000 0.20091  0.78309  0.16421  Biso   1.000  H
  H218     1.0000 0.15971  0.84022  0.14631  Biso   1.000  H
  H219     1.0000 0.23619  0.84421  0.16523  Biso   1.000  H
  C224     1.0000 0.80200  0.97818  0.14421  Biso   1.000  C
  C225     1.0000 0.85791  0.88968  0.14037  Biso   1.000  C
  C226     1.0000 0.84218  0.14251  0.89289  Biso   1.000  C
  C227     1.0000 0.78642  0.18340  0.02971  Biso   1.000  C
  H220     1.0000 0.88542  0.10942  0.77230  Biso   1.000  H
  C228     1.0000 0.04212  0.80370  0.92318  Biso   1.000  C
  H221     1.0000 0.08459  0.77152  0.04558  Biso   1.000  H
  C229     1.0000 0.99000  0.83971  0.77701  Biso   1.000  C
  C230     1.0000 0.80050  0.98170  0.04413  Biso   1.000  C
  H222     1.0000 0.78249  0.00810  0.18067  Biso   1.000  H
  C231     1.0000 0.85660  0.89161  0.03689  Biso   1.000  C
  H223     1.0000 0.87790  0.85822  0.17219  Biso   1.000  H
  C232     1.0000 0.77822  0.11349  0.89391  Biso   1.000  C
  C233     1.0000 0.74629  0.13239  0.98717  Biso   1.000  C
  C234     1.0000 0.74910  0.23869  0.00283  Biso   1.000  C
  C235     1.0000 0.79841  0.17860  0.13530  Biso   1.000  C
  C236     1.0000 0.97239  0.78262  0.93007  Biso   1.000  C
  C237     1.0000 0.93929  0.80700  0.83818  Biso   1.000  C
  C238     1.0000 0.97020  0.90249  0.75107  Biso   1.000  C
  C239     1.0000 0.00189  0.80782  0.68570  Biso   1.000  C
  B23      1.0000 0.77851  0.03819  0.99551  Biso   1.000  B
  C240     1.0000 0.82869  0.93760  0.99217  Biso   1.000  C
  B24      1.0000 0.89459  0.84691  0.97782  Biso   1.000  B
  H224     1.0000 0.75148  0.12429  0.83608  Biso   1.000  H
  O45      1.0000 0.78768  0.05190  0.89978  Biso   1.000  O
  H225     1.0000 0.69980  0.14298  0.97717  Biso   1.000  H
  O46      1.0000 0.75279  0.08199  0.04768  Biso   1.000  O
  H226     1.0000 0.73100  0.23491  0.93739  Biso   1.000  H
  H227     1.0000 0.71382  0.24490  0.04921  Biso   1.000  H
  H228     1.0000 0.77890  0.27139  0.00457  Biso   1.000  H
  H229     1.0000 0.79909  0.21691  0.16421  Biso   1.000  H
  H230     1.0000 0.84029  0.15978  0.14631  Biso   1.000  H
  H231     1.0000 0.76381  0.15579  0.16523  Biso   1.000  H
  H232     1.0000 0.97001  0.73980  0.93260  Biso   1.000  H
  O47      1.0000 0.93880  0.80880  0.01080  Biso   1.000  O
  O48      1.0000 0.89100  0.84601  0.87622  Biso   1.000  O
  H233     1.0000 0.91862  0.77580  0.79948  Biso   1.000  H
  H234     1.0000 0.99990  0.91771  0.70193  Biso   1.000  H
  H235     1.0000 0.97248  0.92641  0.80948  Biso   1.000  H
  H236     1.0000 0.92570  0.90279  0.72578  Biso   1.000  H
  H237     1.0000 0.98190  0.82830  0.63150  Biso   1.000  H
  H238     1.0000 0.98292  0.76942  0.69077  Biso   1.000  H
  H239     1.0000 0.04872  0.80452  0.67469  Biso   1.000  H
  H240     1.0000 0.82879  0.93931  0.92347  Biso   1.000  H
  O49      1.0000 0.12370  0.09421  0.36466  Biso   1.000  O
  B25      1.0000 0.16049  0.06022  0.30662  Biso   1.000  B
  C241     1.0000 0.11832  0.06442  0.45663  Biso   1.000  C
  C242     1.0000 0.16922  0.06729  0.19422  Biso   1.000  C
  O50      1.0000 0.18820  0.01410  0.35401  Biso   1.000  O
  C243     1.0000 0.16752  0.01522  0.45119  Biso   1.000  C
  H241     1.0000 0.12671  0.09031  0.51294  Biso   1.000  H
  C244     1.0000 0.05338  0.03450  0.46460  Biso   1.000  C
  C245     1.0000 0.14209  0.11032  0.14037  Biso   1.000  C
  C246     1.0000 0.19800  0.02182  0.14421  Biso   1.000  C
  H242     1.0000 0.20479  0.02212  0.49591  Biso   1.000  H
  C247     1.0000 0.13142  0.95830  0.47772  Biso   1.000  C
  C248     1.0000 0.99291  0.06039  0.46779  Biso   1.000  C
  C249     1.0000 0.06139  0.97600  0.46714  Biso   1.000  C
  H243     1.0000 0.12210  0.14178  0.17219  Biso   1.000  H
  C250     1.0000 0.14340  0.10839  0.03689  Biso   1.000  C
  C251     1.0000 0.19950  0.01830  0.04413  Biso   1.000  C
  H244     1.0000 0.21751  0.99190  0.18067  Biso   1.000  H
  C252     1.0000 0.14428  0.94488  0.58577  Biso   1.000  C
  C253     1.0000 0.15000  0.90909  0.41402  Biso   1.000  C
  H245     1.0000 0.98840  0.10081  0.47040  Biso   1.000  H
  C254     1.0000 0.93861  0.02400  0.46714  Biso   1.000  C
  C255     1.0000 0.00709  0.93961  0.46779  Biso   1.000  C
  B26      1.0000 0.10541  0.15309  0.97782  Biso   1.000  B
  C256     1.0000 0.17131  0.06240  0.99217  Biso   1.000  C
  B27      1.0000 0.22149  0.96181  0.99551  Biso   1.000  B
  H246     1.0000 0.17689  0.91441  0.59077  Biso   1.000  H
  H247     1.0000 0.10390  0.93228  0.61657  Biso   1.000  H
  H248     1.0000 0.16029  0.97938  0.61831  Biso   1.000  H
  H249     1.0000 0.16092  0.92328  0.34923  Biso   1.000  H
  H250     1.0000 0.11361  0.88218  0.40938  Biso   1.000  H
  H251     1.0000 0.18781  0.88938  0.44163  Biso   1.000  H
  C257     1.0000 0.94662  0.96550  0.46460  Biso   1.000  C
  C258     1.0000 0.86858  0.04170  0.47772  Biso   1.000  C
  H252     1.0000 0.01160  0.89919  0.47040  Biso   1.000  H
  O51      1.0000 0.06120  0.19120  0.01080  Biso   1.000  O
  O52      1.0000 0.10900  0.15399  0.87622  Biso   1.000  O
  H253     1.0000 0.17121  0.06069  0.92347  Biso   1.000  H
  O53      1.0000 0.21232  0.94810  0.89978  Biso   1.000  O
  O54      1.0000 0.24721  0.91801  0.04768  Biso   1.000  O
  C259     1.0000 0.88168  0.93558  0.45663  Biso   1.000  C
  C260     1.0000 0.83248  0.98478  0.45119  Biso   1.000  C
  C261     1.0000 0.85572  0.05512  0.58577  Biso   1.000  C
  C262     1.0000 0.85000  0.09091  0.41402  Biso   1.000  C
  C263     1.0000 0.02761  0.21738  0.93007  Biso   1.000  C
  C264     1.0000 0.06071  0.19300  0.83818  Biso   1.000  C
  C265     1.0000 0.22178  0.88651  0.89391  Biso   1.000  C
  C266     1.0000 0.25371  0.86761  0.98717  Biso   1.000  C
  H254     1.0000 0.87329  0.90969  0.51294  Biso   1.000  H
  O55      1.0000 0.87630  0.90579  0.36466  Biso   1.000  O
  H255     1.0000 0.79521  0.97788  0.49591  Biso   1.000  H
  O56      1.0000 0.81180  0.98590  0.35401  Biso   1.000  O
  H256     1.0000 0.82311  0.08559  0.59077  Biso   1.000  H
  H257     1.0000 0.89610  0.06772  0.61657  Biso   1.000  H
  H258     1.0000 0.83971  0.02062  0.61831  Biso   1.000  H
  H259     1.0000 0.83908  0.07672  0.34923  Biso   1.000  H
  H260     1.0000 0.88639  0.11782  0.40938  Biso   1.000  H
  H261     1.0000 0.81219  0.11062  0.44163  Biso   1.000  H
  C267     1.0000 0.95788  0.19630  0.92318  Biso   1.000  C
  H262     1.0000 0.02999  0.26020  0.93260  Biso   1.000  H
  C268     1.0000 0.01000  0.16029  0.77701  Biso   1.000  C
  H263     1.0000 0.08138  0.22420  0.79948  Biso   1.000  H
  C269     1.0000 0.15782  0.85749  0.89289  Biso   1.000  C
  H264     1.0000 0.24852  0.87571  0.83608  Biso   1.000  H
  H265     1.0000 0.30020  0.85702  0.97717  Biso   1.000  H
  C270     1.0000 0.21358  0.81660  0.02971  Biso   1.000  C
  B28      1.0000 0.83951  0.93978  0.30662  Biso   1.000  B
  C271     1.0000 0.90881  0.20521  0.98993  Biso   1.000  C
  C272     1.0000 0.95089  0.16171  0.84158  Biso   1.000  C
  C273     1.0000 0.99811  0.19218  0.68570  Biso   1.000  C
  C274     1.0000 0.02980  0.09751  0.75107  Biso   1.000  C
  C275     1.0000 0.15112  0.82140  0.97203  Biso   1.000  C
  C276     1.0000 0.10842  0.86619  0.82673  Biso   1.000  C
  C277     1.0000 0.25090  0.76131  0.00283  Biso   1.000  C
  C278     1.0000 0.20159  0.82140  0.13530  Biso   1.000  C
  C279     1.0000 0.83078  0.93271  0.19422  Biso   1.000  C
  C280     1.0000 0.84888  0.17860  0.97203  Biso   1.000  C
  H266     1.0000 0.91541  0.22848  0.04558  Biso   1.000  H
  C281     1.0000 0.89158  0.13381  0.82673  Biso   1.000  C
  H267     1.0000 0.95128  0.19548  0.67469  Biso   1.000  H
  H268     1.0000 0.01810  0.17170  0.63150  Biso   1.000  H
  H269     1.0000 0.01708  0.23058  0.69077  Biso   1.000  H
  H270     1.0000 0.00010  0.08229  0.70193  Biso   1.000  H
  H271     1.0000 0.02752  0.07359  0.80948  Biso   1.000  H
  H272     1.0000 0.07430  0.09721  0.72578  Biso   1.000  H
  C282     1.0000 0.09119  0.79479  0.98993  Biso   1.000  C
  C283     1.0000 0.04911  0.83829  0.84158  Biso   1.000  C
  H273     1.0000 0.11458  0.89058  0.77230  Biso   1.000  H
  H274     1.0000 0.26900  0.76509  0.93739  Biso   1.000  H
  H275     1.0000 0.28618  0.75510  0.04921  Biso   1.000  H
  H276     1.0000 0.22110  0.72861  0.00457  Biso   1.000  H
  H277     1.0000 0.20091  0.78309  0.16421  Biso   1.000  H
  H278     1.0000 0.15971  0.84022  0.14631  Biso   1.000  H
  H279     1.0000 0.23619  0.84421  0.16523  Biso   1.000  H
  C284     1.0000 0.80200  0.97818  0.14421  Biso   1.000  C
  C285     1.0000 0.85791  0.88968  0.14037  Biso   1.000  C
  C286     1.0000 0.84218  0.14251  0.89289  Biso   1.000  C
  C287     1.0000 0.78642  0.18340  0.02971  Biso   1.000  C
  H280     1.0000 0.88542  0.10942  0.77230  Biso   1.000  H
  C288     1.0000 0.04212  0.80370  0.92318  Biso   1.000  C
  H281     1.0000 0.08459  0.77152  0.04558  Biso   1.000  H
  C289     1.0000 0.99000  0.83971  0.77701  Biso   1.000  C
  C290     1.0000 0.80050  0.98170  0.04413  Biso   1.000  C
  H282     1.0000 0.78249  0.00810  0.18067  Biso   1.000  H
  C291     1.0000 0.85660  0.89161  0.03689  Biso   1.000  C
  H283     1.0000 0.87790  0.85822  0.17219  Biso   1.000  H
  C292     1.0000 0.77822  0.11349  0.89391  Biso   1.000  C
  C293     1.0000 0.74629  0.13239  0.98717  Biso   1.000  C
  C294     1.0000 0.74910  0.23869  0.00283  Biso   1.000  C
  C295     1.0000 0.79841  0.17860  0.13530  Biso   1.000  C
  C296     1.0000 0.97239  0.78262  0.93007  Biso   1.000  C
  C297     1.0000 0.93929  0.80700  0.83818  Biso   1.000  C
  C298     1.0000 0.97020  0.90249  0.75107  Biso   1.000  C
  C299     1.0000 0.00189  0.80782  0.68570  Biso   1.000  C
  B29      1.0000 0.77851  0.03819  0.99551  Biso   1.000  B
  C300     1.0000 0.82869  0.93760  0.99217  Biso   1.000  C
  B30      1.0000 0.89459  0.84691  0.97782  Biso   1.000  B
  H284     1.0000 0.75148  0.12429  0.83608  Biso   1.000  H
  O57      1.0000 0.78768  0.05190  0.89978  Biso   1.000  O
  H285     1.0000 0.69980  0.14298  0.97717  Biso   1.000  H
  O58      1.0000 0.75279  0.08199  0.04768  Biso   1.000  O
  H286     1.0000 0.73100  0.23491  0.93739  Biso   1.000  H
  H287     1.0000 0.71382  0.24490  0.04921  Biso   1.000  H
  H288     1.0000 0.77890  0.27139  0.00457  Biso   1.000  H
  H289     1.0000 0.79909  0.21691  0.16421  Biso   1.000  H
  H290     1.0000 0.84029  0.15978  0.14631  Biso   1.000  H
  H291     1.0000 0.76381  0.15579  0.16523  Biso   1.000  H
  H292     1.0000 0.97001  0.73980  0.93260  Biso   1.000  H
  O59      1.0000 0.93880  0.80880  0.01080  Biso   1.000  O
  O60      1.0000 0.89100  0.84601  0.87622  Biso   1.000  O
  H293     1.0000 0.91862  0.77580  0.79948  Biso   1.000  H
  H294     1.0000 0.99990  0.91771  0.70193  Biso   1.000  H
  H295     1.0000 0.97248  0.92641  0.80948  Biso   1.000  H
  H296     1.0000 0.92570  0.90279  0.72578  Biso   1.000  H
  H297     1.0000 0.98190  0.82830  0.63150  Biso   1.000  H
  H298     1.0000 0.98292  0.76942  0.69077  Biso   1.000  H
  H299     1.0000 0.04872  0.80452  0.67469  Biso   1.000  H
  H300     1.0000 0.82879  0.93931  0.92347  Biso   1.000  H
  O61      1.0000 0.12370  0.09421  0.36466  Biso   1.000  O
  B31      1.0000 0.16049  0.06022  0.30662  Biso   1.000  B
  C301     1.0000 0.11832  0.06442  0.45663  Biso   1.000  C
  C302     1.0000 0.16922  0.06729  0.19422  Biso   1.000  C
  O62      1.0000 0.18820  0.01410  0.35401  Biso   1.000  O
  C303     1.0000 0.16752  0.01522  0.45119  Biso   1.000  C
  H301     1.0000 0.12671  0.09031  0.51294  Biso   1.000  H
  C304     1.0000 0.05338  0.03450  0.46460  Biso   1.000  C
  C305     1.0000 0.14209  0.11032  0.14037  Biso   1.000  C
  C306     1.0000 0.19800  0.02182  0.14421  Biso   1.000  C
  H302     1.0000 0.20479  0.02212  0.49591  Biso   1.000  H
  C307     1.0000 0.13142  0.95830  0.47772  Biso   1.000  C
  C308     1.0000 0.99291  0.06039  0.46779  Biso   1.000  C
  C309     1.0000 0.06139  0.97600  0.46714  Biso   1.000  C
  H303     1.0000 0.12210  0.14178  0.17219  Biso   1.000  H
  C310     1.0000 0.14340  0.10839  0.03689  Biso   1.000  C
  C311     1.0000 0.19950  0.01830  0.04413  Biso   1.000  C
  H304     1.0000 0.21751  0.99190  0.18067  Biso   1.000  H
  C312     1.0000 0.14428  0.94488  0.58577  Biso   1.000  C
  C313     1.0000 0.15000  0.90909  0.41402  Biso   1.000  C
  H305     1.0000 0.98840  0.10081  0.47040  Biso   1.000  H
  C314     1.0000 0.93861  0.02400  0.46714  Biso   1.000  C
  C315     1.0000 0.00709  0.93961  0.46779  Biso   1.000  C
  B32      1.0000 0.10541  0.15309  0.97782  Biso   1.000  B
  C316     1.0000 0.17131  0.06240  0.99217  Biso   1.000  C
  B33      1.0000 0.22149  0.96181  0.99551  Biso   1.000  B
  H306     1.0000 0.17689  0.91441  0.59077  Biso   1.000  H
  H307     1.0000 0.10390  0.93228  0.61657  Biso   1.000  H
  H308     1.0000 0.16029  0.97938  0.61831  Biso   1.000  H
  H309     1.0000 0.16092  0.92328  0.34923  Biso   1.000  H
  H310     1.0000 0.11361  0.88218  0.40938  Biso   1.000  H
  H311     1.0000 0.18781  0.88938  0.44163  Biso   1.000  H
  C317     1.0000 0.94662  0.96550  0.46460  Biso   1.000  C
  C318     1.0000 0.86858  0.04170  0.47772  Biso   1.000  C
  H312     1.0000 0.01160  0.89919  0.47040  Biso   1.000  H
  O63      1.0000 0.06120  0.19120  0.01080  Biso   1.000  O
  O64      1.0000 0.10900  0.15399  0.87622  Biso   1.000  O
  H313     1.0000 0.17121  0.06069  0.92347  Biso   1.000  H
  O65      1.0000 0.21232  0.94810  0.89978  Biso   1.000  O
  O66      1.0000 0.24721  0.91801  0.04768  Biso   1.000  O
  C319     1.0000 0.88168  0.93558  0.45663  Biso   1.000  C
  C320     1.0000 0.83248  0.98478  0.45119  Biso   1.000  C
  C321     1.0000 0.85572  0.05512  0.58577  Biso   1.000  C
  C322     1.0000 0.85000  0.09091  0.41402  Biso   1.000  C
  C323     1.0000 0.02761  0.21738  0.93007  Biso   1.000  C
  C324     1.0000 0.06071  0.19300  0.83818  Biso   1.000  C
  C325     1.0000 0.22178  0.88651  0.89391  Biso   1.000  C
  C326     1.0000 0.25371  0.86761  0.98717  Biso   1.000  C
  H314     1.0000 0.87329  0.90969  0.51294  Biso   1.000  H
  O67      1.0000 0.87630  0.90579  0.36466  Biso   1.000  O
  H315     1.0000 0.79521  0.97788  0.49591  Biso   1.000  H
  O68      1.0000 0.81180  0.98590  0.35401  Biso   1.000  O
  H316     1.0000 0.82311  0.08559  0.59077  Biso   1.000  H
  H317     1.0000 0.89610  0.06772  0.61657  Biso   1.000  H
  H318     1.0000 0.83971  0.02062  0.61831  Biso   1.000  H
  H319     1.0000 0.83908  0.07672  0.34923  Biso   1.000  H
  H320     1.0000 0.88639  0.11782  0.40938  Biso   1.000  H
  H321     1.0000 0.81219  0.11062  0.44163  Biso   1.000  H
  C327     1.0000 0.95788  0.19630  0.92318  Biso   1.000  C
  H322     1.0000 0.02999  0.26020  0.93260  Biso   1.000  H
  C328     1.0000 0.01000  0.16029  0.77701  Biso   1.000  C
  H323     1.0000 0.08138  0.22420  0.79948  Biso   1.000  H
  C329     1.0000 0.15782  0.85749  0.89289  Biso   1.000  C
  H324     1.0000 0.24852  0.87571  0.83608  Biso   1.000  H
  H325     1.0000 0.30020  0.85702  0.97717  Biso   1.000  H
  C330     1.0000 0.21358  0.81660  0.02971  Biso   1.000  C
  B34      1.0000 0.83951  0.93978  0.30662  Biso   1.000  B
  C331     1.0000 0.90881  0.20521  0.98993  Biso   1.000  C
  C332     1.0000 0.95089  0.16171  0.84158  Biso   1.000  C
  C333     1.0000 0.99811  0.19218  0.68570  Biso   1.000  C
  C334     1.0000 0.02980  0.09751  0.75107  Biso   1.000  C
  C335     1.0000 0.15112  0.82140  0.97203  Biso   1.000  C
  C336     1.0000 0.10842  0.86619  0.82673  Biso   1.000  C
  C337     1.0000 0.25090  0.76131  0.00283  Biso   1.000  C
  C338     1.0000 0.20159  0.82140  0.13530  Biso   1.000  C
  C339     1.0000 0.83078  0.93271  0.19422  Biso   1.000  C
  C340     1.0000 0.84888  0.17860  0.97203  Biso   1.000  C
  H326     1.0000 0.91541  0.22848  0.04558  Biso   1.000  H
  C341     1.0000 0.89158  0.13381  0.82673  Biso   1.000  C
  H327     1.0000 0.95128  0.19548  0.67469  Biso   1.000  H
  H328     1.0000 0.01810  0.17170  0.63150  Biso   1.000  H
  H329     1.0000 0.01708  0.23058  0.69077  Biso   1.000  H
  H330     1.0000 0.00010  0.08229  0.70193  Biso   1.000  H
  H331     1.0000 0.02752  0.07359  0.80948  Biso   1.000  H
  H332     1.0000 0.07430  0.09721  0.72578  Biso   1.000  H
  C342     1.0000 0.09119  0.79479  0.98993  Biso   1.000  C
  C343     1.0000 0.04911  0.83829  0.84158  Biso   1.000  C
  H333     1.0000 0.11458  0.89058  0.77230  Biso   1.000  H
  H334     1.0000 0.26900  0.76509  0.93739  Biso   1.000  H
  H335     1.0000 0.28618  0.75510  0.04921  Biso   1.000  H
  H336     1.0000 0.22110  0.72861  0.00457  Biso   1.000  H
  H337     1.0000 0.20091  0.78309  0.16421  Biso   1.000  H
  H338     1.0000 0.15971  0.84022  0.14631  Biso   1.000  H
  H339     1.0000 0.23619  0.84421  0.16523  Biso   1.000  H
  C344     1.0000 0.80200  0.97818  0.14421  Biso   1.000  C
  C345     1.0000 0.85791  0.88968  0.14037  Biso   1.000  C
  C346     1.0000 0.84218  0.14251  0.89289  Biso   1.000  C
  C347     1.0000 0.78642  0.18340  0.02971  Biso   1.000  C
  H340     1.0000 0.88542  0.10942  0.77230  Biso   1.000  H
  C348     1.0000 0.04212  0.80370  0.92318  Biso   1.000  C
  H341     1.0000 0.08459  0.77152  0.04558  Biso   1.000  H
  C349     1.0000 0.99000  0.83971  0.77701  Biso   1.000  C
  C350     1.0000 0.80050  0.98170  0.04413  Biso   1.000  C
  H342     1.0000 0.78249  0.00810  0.18067  Biso   1.000  H
  C351     1.0000 0.85660  0.89161  0.03689  Biso   1.000  C
  H343     1.0000 0.87790  0.85822  0.17219  Biso   1.000  H
  C352     1.0000 0.77822  0.11349  0.89391  Biso   1.000  C
  C353     1.0000 0.74629  0.13239  0.98717  Biso   1.000  C
  C354     1.0000 0.74910  0.23869  0.00283  Biso   1.000  C
  C355     1.0000 0.79841  0.17860  0.13530  Biso   1.000  C
  C356     1.0000 0.97239  0.78262  0.93007  Biso   1.000  C
  C357     1.0000 0.93929  0.80700  0.83818  Biso   1.000  C
  C358     1.0000 0.97020  0.90249  0.75107  Biso   1.000  C
  C359     1.0000 0.00189  0.80782  0.68570  Biso   1.000  C
  B35      1.0000 0.77851  0.03819  0.99551  Biso   1.000  B
  C360     1.0000 0.82869  0.93760  0.99217  Biso   1.000  C
  B36      1.0000 0.89459  0.84691  0.97782  Biso   1.000  B
  H344     1.0000 0.75148  0.12429  0.83608  Biso   1.000  H
  O69      1.0000 0.78768  0.05190  0.89978  Biso   1.000  O
  H345     1.0000 0.69980  0.14298  0.97717  Biso   1.000  H
  O70      1.0000 0.75279  0.08199  0.04768  Biso   1.000  O
  H346     1.0000 0.73100  0.23491  0.93739  Biso   1.000  H
  H347     1.0000 0.71382  0.24490  0.04921  Biso   1.000  H
  H348     1.0000 0.77890  0.27139  0.00457  Biso   1.000  H
  H349     1.0000 0.79909  0.21691  0.16421  Biso   1.000  H
  H350     1.0000 0.84029  0.15978  0.14631  Biso   1.000  H
  H351     1.0000 0.76381  0.15579  0.16523  Biso   1.000  H
  H352     1.0000 0.97001  0.73980  0.93260  Biso   1.000  H
  O71      1.0000 0.93880  0.80880  0.01080  Biso   1.000  O
  O72      1.0000 0.89100  0.84601  0.87622  Biso   1.000  O
  H353     1.0000 0.91862  0.77580  0.79948  Biso   1.000  H
  H354     1.0000 0.99990  0.91771  0.70193  Biso   1.000  H
  H355     1.0000 0.97248  0.92641  0.80948  Biso   1.000  H
  H356     1.0000 0.92570  0.90279  0.72578  Biso   1.000  H
  H357     1.0000 0.98190  0.82830  0.63150  Biso   1.000  H
  H358     1.0000 0.98292  0.76942  0.69077  Biso   1.000  H
  H359     1.0000 0.04872  0.80452  0.67469  Biso   1.000  H
  H360     1.0000 0.82879  0.93931  0.92347  Biso   1.000  H
  O73      1.0000 0.34441  0.01329  0.36771  Biso   1.000  O
  C361     1.0000 0.36198  0.99601  0.26777  Biso   1.000  C
  B37      1.0000 0.33092  0.96618  0.41749  Biso   1.000  B
  C362     1.0000 0.43351  0.00261  0.25429  Biso   1.000  C
  H361     1.0000 0.33631  0.01689  0.21741  Biso   1.000  H
  C363     1.0000 0.35009  0.93010  0.26560  Biso   1.000  C
  C364     1.0000 0.32452  0.96018  0.52699  Biso   1.000  C
  O74      1.0000 0.32738  0.91690  0.35937  Biso   1.000  O
  C365     1.0000 0.46952  0.05319  0.25263  Biso   1.000  C
  C366     1.0000 0.46360  0.94981  0.25024  Biso   1.000  C
  H362     1.0000 0.31670  0.92011  0.21589  Biso   1.000  H
  C367     1.0000 0.41600  0.90138  0.24067  Biso   1.000  C
  C368     1.0000 0.31782  0.00621  0.59207  Biso   1.000  C
  C369     1.0000 0.33602  0.90558  0.56671  Biso   1.000  C
  H363     1.0000 0.43429  0.07929  0.24697  Biso   1.000  H
  C370     1.0000 0.53640  0.05019  0.25024  Biso   1.000  C
  C371     1.0000 0.53048  0.94681  0.25263  Biso   1.000  C
  C372     1.0000 0.43051  0.85321  0.31270  Biso   1.000  C
  C373     1.0000 0.41328  0.88111  0.13747  Biso   1.000  C
  H364     1.0000 0.31248  0.04389  0.56722  Biso   1.000  H
  C374     1.0000 0.31860  0.99790  0.69251  Biso   1.000  C
  C375     1.0000 0.34039  0.89688  0.66773  Biso   1.000  C
  H365     1.0000 0.34092  0.87369  0.52453  Biso   1.000  H
  C376     1.0000 0.58400  0.09862  0.24067  Biso   1.000  C
  C377     1.0000 0.56649  0.99739  0.25429  Biso   1.000  C
  H366     1.0000 0.56571  0.92071  0.24697  Biso   1.000  H
  H367     1.0000 0.47020  0.83319  0.29306  Biso   1.000  H
  H368     1.0000 0.39411  0.82612  0.31357  Biso   1.000  H
  H369     1.0000 0.43638  0.86941  0.37764  Biso   1.000  H
  H370     1.0000 0.41090  0.91428  0.09406  Biso   1.000  H
  H371     1.0000 0.37479  0.85702  0.12827  Biso   1.000  H
  H372     1.0000 0.45239  0.85882  0.12269  Biso   1.000  H
  B38      1.0000 0.31709  0.04959  0.76361  Biso   1.000  B
  C378     1.0000 0.33141  0.94330  0.72773  Biso   1.000  C
  B39      1.0000 0.36601  0.83979  0.70817  Biso   1.000  B
  C379     1.0000 0.56949  0.14679  0.31270  Biso   1.000  C
  C380     1.0000 0.64991  0.06990  0.26560  Biso   1.000  C
  C381     1.0000 0.58672  0.11889  0.13747  Biso   1.000  C
  C382     1.0000 0.63802  0.00399  0.26777  Biso   1.000  C
  O75      1.0000 0.32641  0.04059  0.86216  Biso   1.000  O
  O76      1.0000 0.31030  0.10539  0.73940  Biso   1.000  O
  H373     1.0000 0.33398  0.93768  0.79578  Biso   1.000  H
  O77      1.0000 0.37120  0.82912  0.80542  Biso   1.000  O
  O78      1.0000 0.39241  0.79702  0.65222  Biso   1.000  O
  H374     1.0000 0.52980  0.16681  0.29306  Biso   1.000  H
  H375     1.0000 0.60589  0.17388  0.31357  Biso   1.000  H
  H376     1.0000 0.56362  0.13059  0.37764  Biso   1.000  H
  H377     1.0000 0.68330  0.07989  0.21589  Biso   1.000  H
  O79      1.0000 0.67262  0.08310  0.35937  Biso   1.000  O
  H378     1.0000 0.58910  0.08572  0.09406  Biso   1.000  H
  H379     1.0000 0.62521  0.14298  0.12827  Biso   1.000  H
  H380     1.0000 0.54761  0.14118  0.12269  Biso   1.000  H
  H381     1.0000 0.66369  0.98311  0.21741  Biso   1.000  H
  O80      1.0000 0.65559  0.98671  0.36771  Biso   1.000  O
  C383     1.0000 0.32898  0.09421  0.91173  Biso   1.000  C
  C384     1.0000 0.32238  0.13891  0.82673  Biso   1.000  C
  C385     1.0000 0.41541  0.78099  0.81433  Biso   1.000  C
  C386     1.0000 0.41658  0.75321  0.71527  Biso   1.000  C
  B40      1.0000 0.66908  0.03382  0.41749  Biso   1.000  B
  C387     1.0000 0.39319  0.10441  0.96137  Biso   1.000  C
  H382     1.0000 0.29220  0.09789  0.95848  Biso   1.000  H
  H383     1.0000 0.28802  0.16818  0.83912  Biso   1.000  H
  C388     1.0000 0.38930  0.16458  0.82100  Biso   1.000  C
  H384     1.0000 0.40168  0.75369  0.86622  Biso   1.000  H
  C389     1.0000 0.48301  0.80070  0.82731  Biso   1.000  C
  C390     1.0000 0.48821  0.73761  0.69367  Biso   1.000  C
  H385     1.0000 0.38828  0.71841  0.71360  Biso   1.000  H
  C391     1.0000 0.67548  0.03982  0.52699  Biso   1.000  C
  C392     1.0000 0.43012  0.14349  0.89521  Biso   1.000  C
  C393     1.0000 0.43002  0.04792  0.98268  Biso   1.000  C
  C394     1.0000 0.37979  0.13651  0.05950  Biso   1.000  C
  C395     1.0000 0.41192  0.20320  0.75107  Biso   1.000  C
  C396     1.0000 0.52320  0.78000  0.75592  Biso   1.000  C
  C397     1.0000 0.50781  0.83932  0.89753  Biso   1.000  C
  C398     1.0000 0.50388  0.67658  0.73237  Biso   1.000  C
  C399     1.0000 0.50408  0.74160  0.58454  Biso   1.000  C
  C400     1.0000 0.66398  0.09442  0.56671  Biso   1.000  C
  C401     1.0000 0.68218  0.99379  0.59207  Biso   1.000  C
  C402     1.0000 0.49219  0.16068  0.89753  Biso   1.000  C
  H386     1.0000 0.44642  0.03180  0.92188  Biso   1.000  H
  H387     1.0000 0.40042  0.02049  0.01341  Biso   1.000  H
  H388     1.0000 0.46651  0.05572  0.02638  Biso   1.000  H
  H389     1.0000 0.36732  0.17620  0.04587  Biso   1.000  H
  H390     1.0000 0.41910  0.13608  0.09943  Biso   1.000  H
  H391     1.0000 0.34451  0.11722  0.09428  Biso   1.000  H
  H392     1.0000 0.38392  0.21751  0.70201  Biso   1.000  H
  C403     1.0000 0.47680  0.22000  0.75592  Biso   1.000  C
  C404     1.0000 0.58808  0.79680  0.75107  Biso   1.000  C
  H393     1.0000 0.48001  0.85321  0.94710  Biso   1.000  H
  C405     1.0000 0.56988  0.85651  0.89521  Biso   1.000  C
  H394     1.0000 0.55091  0.67011  0.72940  Biso   1.000  H
  H395     1.0000 0.48161  0.64799  0.69251  Biso   1.000  H
  H396     1.0000 0.48918  0.67328  0.79970  Biso   1.000  H
  H397     1.0000 0.50621  0.78202  0.56511  Biso   1.000  H
  H398     1.0000 0.47020  0.72210  0.54707  Biso   1.000  H
  H399     1.0000 0.54610  0.72330  0.57193  Biso   1.000  H
  C406     1.0000 0.65961  0.10312  0.66773  Biso   1.000  C
  H400     1.0000 0.65908  0.12631  0.52453  Biso   1.000  H
  C407     1.0000 0.68140  0.00210  0.69251  Biso   1.000  C
  H401     1.0000 0.68752  0.95611  0.56722  Biso   1.000  H
  C408     1.0000 0.51699  0.19930  0.82731  Biso   1.000  C
  H402     1.0000 0.51999  0.14679  0.94710  Biso   1.000  H
  C409     1.0000 0.51179  0.26239  0.69367  Biso   1.000  C
  C410     1.0000 0.61070  0.83542  0.82100  Biso   1.000  C
  H403     1.0000 0.61608  0.78249  0.70201  Biso   1.000  H
  C411     1.0000 0.60681  0.89559  0.96137  Biso   1.000  C
  C412     1.0000 0.66859  0.05670  0.72773  Biso   1.000  C
  B41      1.0000 0.63399  0.16021  0.70817  Biso   1.000  B
  B42      1.0000 0.68291  0.95041  0.76361  Biso   1.000  B
  C413     1.0000 0.58459  0.21901  0.81433  Biso   1.000  C
  C414     1.0000 0.58342  0.24679  0.71527  Biso   1.000  C
  C415     1.0000 0.49612  0.32342  0.73237  Biso   1.000  C
  C416     1.0000 0.49592  0.25840  0.58454  Biso   1.000  C
  C417     1.0000 0.67762  0.86109  0.82673  Biso   1.000  C
  C418     1.0000 0.67102  0.90579  0.91173  Biso   1.000  C
  C419     1.0000 0.56998  0.95208  0.98268  Biso   1.000  C
  C420     1.0000 0.62021  0.86349  0.05950  Biso   1.000  C
  H404     1.0000 0.66602  0.06232  0.79578  Biso   1.000  H
  O81      1.0000 0.62880  0.17088  0.80542  Biso   1.000  O
  O82      1.0000 0.60759  0.20298  0.65222  Biso   1.000  O
  O83      1.0000 0.67359  0.95941  0.86216  Biso   1.000  O
  O84      1.0000 0.68970  0.89461  0.73940  Biso   1.000  O
  H405     1.0000 0.59832  0.24631  0.86622  Biso   1.000  H
  H406     1.0000 0.61172  0.28159  0.71360  Biso   1.000  H
  H407     1.0000 0.44909  0.32989  0.72940  Biso   1.000  H
  H408     1.0000 0.51839  0.35201  0.69251  Biso   1.000  H
  H409     1.0000 0.51082  0.32672  0.79970  Biso   1.000  H
  H410     1.0000 0.49379  0.21798  0.56511  Biso   1.000  H
  H411     1.0000 0.52980  0.27790  0.54707  Biso   1.000  H
  H412     1.0000 0.45390  0.27670  0.57193  Biso   1.000  H
  H413     1.0000 0.71198  0.83182  0.83912  Biso   1.000  H
  H414     1.0000 0.70780  0.90211  0.95848  Biso   1.000  H
  H415     1.0000 0.55358  0.96820  0.92188  Biso   1.000  H
  H416     1.0000 0.59958  0.97951  0.01341  Biso   1.000  H
  H417     1.0000 0.53349  0.94428  0.02638  Biso   1.000  H
  H418     1.0000 0.63268  0.82380  0.04587  Biso   1.000  H
  H419     1.0000 0.58090  0.86392  0.09943  Biso   1.000  H
  H420     1.0000 0.65549  0.88278  0.09428  Biso   1.000  H
  O85      1.0000 0.34441  0.01329  0.36771  Biso   1.000  O
  C421     1.0000 0.36198  0.99601  0.26777  Biso   1.000  C
  B43      1.0000 0.33092  0.96618  0.41749  Biso   1.000  B
  C422     1.0000 0.43351  0.00261  0.25429  Biso   1.000  C
  H421     1.0000 0.33631  0.01689  0.21741  Biso   1.000  H
  C423     1.0000 0.35009  0.93010  0.26560  Biso   1.000  C
  C424     1.0000 0.32452  0.96018  0.52699  Biso   1.000  C
  O86      1.0000 0.32738  0.91690  0.35937  Biso   1.000  O
  C425     1.0000 0.46952  0.05319  0.25263  Biso   1.000  C
  C426     1.0000 0.46360  0.94981  0.25024  Biso   1.000  C
  H422     1.0000 0.31670  0.92011  0.21589  Biso   1.000  H
  C427     1.0000 0.41600  0.90138  0.24067  Biso   1.000  C
  C428     1.0000 0.31782  0.00621  0.59207  Biso   1.000  C
  C429     1.0000 0.33602  0.90558  0.56671  Biso   1.000  C
  H423     1.0000 0.43429  0.07929  0.24697  Biso   1.000  H
  C430     1.0000 0.53640  0.05019  0.25024  Biso   1.000  C
  C431     1.0000 0.53048  0.94681  0.25263  Biso   1.000  C
  C432     1.0000 0.43051  0.85321  0.31270  Biso   1.000  C
  C433     1.0000 0.41328  0.88111  0.13747  Biso   1.000  C
  H424     1.0000 0.31248  0.04389  0.56722  Biso   1.000  H
  C434     1.0000 0.31860  0.99790  0.69251  Biso   1.000  C
  C435     1.0000 0.34039  0.89688  0.66773  Biso   1.000  C
  H425     1.0000 0.34092  0.87369  0.52453  Biso   1.000  H
  C436     1.0000 0.58400  0.09862  0.24067  Biso   1.000  C
  C437     1.0000 0.56649  0.99739  0.25429  Biso   1.000  C
  H426     1.0000 0.56571  0.92071  0.24697  Biso   1.000  H
  H427     1.0000 0.47020  0.83319  0.29306  Biso   1.000  H
  H428     1.0000 0.39411  0.82612  0.31357  Biso   1.000  H
  H429     1.0000 0.43638  0.86941  0.37764  Biso   1.000  H
  H430     1.0000 0.41090  0.91428  0.09406  Biso   1.000  H
  H431     1.0000 0.37479  0.85702  0.12827  Biso   1.000  H
  H432     1.0000 0.45239  0.85882  0.12269  Biso   1.000  H
  B44      1.0000 0.31709  0.04959  0.76361  Biso   1.000  B
  C438     1.0000 0.33141  0.94330  0.72773  Biso   1.000  C
  B45      1.0000 0.36601  0.83979  0.70817  Biso   1.000  B
  C439     1.0000 0.56949  0.14679  0.31270  Biso   1.000  C
  C440     1.0000 0.64991  0.06990  0.26560  Biso   1.000  C
  C441     1.0000 0.58672  0.11889  0.13747  Biso   1.000  C
  C442     1.0000 0.63802  0.00399  0.26777  Biso   1.000  C
  O87      1.0000 0.32641  0.04059  0.86216  Biso   1.000  O
  O88      1.0000 0.31030  0.10539  0.73940  Biso   1.000  O
  H433     1.0000 0.33398  0.93768  0.79578  Biso   1.000  H
  O89      1.0000 0.37120  0.82912  0.80542  Biso   1.000  O
  O90      1.0000 0.39241  0.79702  0.65222  Biso   1.000  O
  H434     1.0000 0.52980  0.16681  0.29306  Biso   1.000  H
  H435     1.0000 0.60589  0.17388  0.31357  Biso   1.000  H
  H436     1.0000 0.56362  0.13059  0.37764  Biso   1.000  H
  H437     1.0000 0.68330  0.07989  0.21589  Biso   1.000  H
  O91      1.0000 0.67262  0.08310  0.35937  Biso   1.000  O
  H438     1.0000 0.58910  0.08572  0.09406  Biso   1.000  H
  H439     1.0000 0.62521  0.14298  0.12827  Biso   1.000  H
  H440     1.0000 0.54761  0.14118  0.12269  Biso   1.000  H
  H441     1.0000 0.66369  0.98311  0.21741  Biso   1.000  H
  O92      1.0000 0.65559  0.98671  0.36771  Biso   1.000  O
  C443     1.0000 0.32898  0.09421  0.91173  Biso   1.000  C
  C444     1.0000 0.32238  0.13891  0.82673  Biso   1.000  C
  C445     1.0000 0.41541  0.78099  0.81433  Biso   1.000  C
  C446     1.0000 0.41658  0.75321  0.71527  Biso   1.000  C
  B46      1.0000 0.66908  0.03382  0.41749  Biso   1.000  B
  C447     1.0000 0.39319  0.10441  0.96137  Biso   1.000  C
  H442     1.0000 0.29220  0.09789  0.95848  Biso   1.000  H
  H443     1.0000 0.28802  0.16818  0.83912  Biso   1.000  H
  C448     1.0000 0.38930  0.16458  0.82100  Biso   1.000  C
  H444     1.0000 0.40168  0.75369  0.86622  Biso   1.000  H
  C449     1.0000 0.48301  0.80070  0.82731  Biso   1.000  C
  C450     1.0000 0.48821  0.73761  0.69367  Biso   1.000  C
  H445     1.0000 0.38828  0.71841  0.71360  Biso   1.000  H
  C451     1.0000 0.67548  0.03982  0.52699  Biso   1.000  C
  C452     1.0000 0.43012  0.14349  0.89521  Biso   1.000  C
  C453     1.0000 0.43002  0.04792  0.98268  Biso   1.000  C
  C454     1.0000 0.37979  0.13651  0.05950  Biso   1.000  C
  C455     1.0000 0.41192  0.20320  0.75107  Biso   1.000  C
  C456     1.0000 0.52320  0.78000  0.75592  Biso   1.000  C
  C457     1.0000 0.50781  0.83932  0.89753  Biso   1.000  C
  C458     1.0000 0.50388  0.67658  0.73237  Biso   1.000  C
  C459     1.0000 0.50408  0.74160  0.58454  Biso   1.000  C
  C460     1.0000 0.66398  0.09442  0.56671  Biso   1.000  C
  C461     1.0000 0.68218  0.99379  0.59207  Biso   1.000  C
  C462     1.0000 0.49219  0.16068  0.89753  Biso   1.000  C
  H446     1.0000 0.44642  0.03180  0.92188  Biso   1.000  H
  H447     1.0000 0.40042  0.02049  0.01341  Biso   1.000  H
  H448     1.0000 0.46651  0.05572  0.02638  Biso   1.000  H
  H449     1.0000 0.36732  0.17620  0.04587  Biso   1.000  H
  H450     1.0000 0.41910  0.13608  0.09943  Biso   1.000  H
  H451     1.0000 0.34451  0.11722  0.09428  Biso   1.000  H
  H452     1.0000 0.38392  0.21751  0.70201  Biso   1.000  H
  C463     1.0000 0.47680  0.22000  0.75592  Biso   1.000  C
  C464     1.0000 0.58808  0.79680  0.75107  Biso   1.000  C
  H453     1.0000 0.48001  0.85321  0.94710  Biso   1.000  H
  C465     1.0000 0.56988  0.85651  0.89521  Biso   1.000  C
  H454     1.0000 0.55091  0.67011  0.72940  Biso   1.000  H
  H455     1.0000 0.48161  0.64799  0.69251  Biso   1.000  H
  H456     1.0000 0.48918  0.67328  0.79970  Biso   1.000  H
  H457     1.0000 0.50621  0.78202  0.56511  Biso   1.000  H
  H458     1.0000 0.47020  0.72210  0.54707  Biso   1.000  H
  H459     1.0000 0.54610  0.72330  0.57193  Biso   1.000  H
  C466     1.0000 0.65961  0.10312  0.66773  Biso   1.000  C
  H460     1.0000 0.65908  0.12631  0.52453  Biso   1.000  H
  C467     1.0000 0.68140  0.00210  0.69251  Biso   1.000  C
  H461     1.0000 0.68752  0.95611  0.56722  Biso   1.000  H
  C468     1.0000 0.51699  0.19930  0.82731  Biso   1.000  C
  H462     1.0000 0.51999  0.14679  0.94710  Biso   1.000  H
  C469     1.0000 0.51179  0.26239  0.69367  Biso   1.000  C
  C470     1.0000 0.61070  0.83542  0.82100  Biso   1.000  C
  H463     1.0000 0.61608  0.78249  0.70201  Biso   1.000  H
  C471     1.0000 0.60681  0.89559  0.96137  Biso   1.000  C
  C472     1.0000 0.66859  0.05670  0.72773  Biso   1.000  C
  B47      1.0000 0.63399  0.16021  0.70817  Biso   1.000  B
  B48      1.0000 0.68291  0.95041  0.76361  Biso   1.000  B
  C473     1.0000 0.58459  0.21901  0.81433  Biso   1.000  C
  C474     1.0000 0.58342  0.24679  0.71527  Biso   1.000  C
  C475     1.0000 0.49612  0.32342  0.73237  Biso   1.000  C
  C476     1.0000 0.49592  0.25840  0.58454  Biso   1.000  C
  C477     1.0000 0.67762  0.86109  0.82673  Biso   1.000  C
  C478     1.0000 0.67102  0.90579  0.91173  Biso   1.000  C
  C479     1.0000 0.56998  0.95208  0.98268  Biso   1.000  C
  C480     1.0000 0.62021  0.86349  0.05950  Biso   1.000  C
  H464     1.0000 0.66602  0.06232  0.79578  Biso   1.000  H
  O93      1.0000 0.62880  0.17088  0.80542  Biso   1.000  O
  O94      1.0000 0.60759  0.20298  0.65222  Biso   1.000  O
  O95      1.0000 0.67359  0.95941  0.86216  Biso   1.000  O
  O96      1.0000 0.68970  0.89461  0.73940  Biso   1.000  O
  H465     1.0000 0.59832  0.24631  0.86622  Biso   1.000  H
  H466     1.0000 0.61172  0.28159  0.71360  Biso   1.000  H
  H467     1.0000 0.44909  0.32989  0.72940  Biso   1.000  H
  H468     1.0000 0.51839  0.35201  0.69251  Biso   1.000  H
  H469     1.0000 0.51082  0.32672  0.79970  Biso   1.000  H
  H470     1.0000 0.49379  0.21798  0.56511  Biso   1.000  H
  H471     1.0000 0.52980  0.27790  0.54707  Biso   1.000  H
  H472     1.0000 0.45390  0.27670  0.57193  Biso   1.000  H
  H473     1.0000 0.71198  0.83182  0.83912  Biso   1.000  H
  H474     1.0000 0.70780  0.90211  0.95848  Biso   1.000  H
  H475     1.0000 0.55358  0.96820  0.92188  Biso   1.000  H
  H476     1.0000 0.59958  0.97951  0.01341  Biso   1.000  H
  H477     1.0000 0.53349  0.94428  0.02638  Biso   1.000  H
  H478     1.0000 0.63268  0.82380  0.04587  Biso   1.000  H
  H479     1.0000 0.58090  0.86392  0.09943  Biso   1.000  H
  H480     1.0000 0.65549  0.88278  0.09428  Biso   1.000  H
  C481     1.0000 0.35000  0.40909  0.58598  Biso   1.000  C
  C482     1.0000 0.36858  0.45830  0.52228  Biso   1.000  C
  H481     1.0000 0.33908  0.42328  0.65077  Biso   1.000  H
  H482     1.0000 0.38639  0.38218  0.59062  Biso   1.000  H
  H483     1.0000 0.31219  0.38938  0.55837  Biso   1.000  H
  C483     1.0000 0.35572  0.44488  0.41423  Biso   1.000  C
  C484     1.0000 0.33248  0.51522  0.54881  Biso   1.000  C
  C485     1.0000 0.43861  0.47600  0.53286  Biso   1.000  C
  H484     1.0000 0.32311  0.41441  0.40923  Biso   1.000  H
  H485     1.0000 0.39610  0.43228  0.38343  Biso   1.000  H
  H486     1.0000 0.33971  0.47938  0.38169  Biso   1.000  H
  C486     1.0000 0.38168  0.56442  0.54337  Biso   1.000  C
  H487     1.0000 0.29521  0.52212  0.50409  Biso   1.000  H
  O97      1.0000 0.31180  0.51410  0.64599  Biso   1.000  O
  C487     1.0000 0.49291  0.43961  0.53221  Biso   1.000  C
  C488     1.0000 0.44662  0.53450  0.53540  Biso   1.000  C
  H488     1.0000 0.37329  0.59031  0.48706  Biso   1.000  H
  O98      1.0000 0.37630  0.59421  0.63534  Biso   1.000  O
  B49      1.0000 0.33951  0.56022  0.69338  Biso   1.000  B
  C489     1.0000 0.55338  0.46550  0.53540  Biso   1.000  C
  H489     1.0000 0.48840  0.39919  0.52960  Biso   1.000  H
  C490     1.0000 0.50709  0.56039  0.53221  Biso   1.000  C
  C491     1.0000 0.33078  0.56729  0.80578  Biso   1.000  C
  C492     1.0000 0.61832  0.43558  0.54337  Biso   1.000  C
  C493     1.0000 0.56139  0.52400  0.53286  Biso   1.000  C
  H490     1.0000 0.51160  0.60081  0.52960  Biso   1.000  H
  C494     1.0000 0.30200  0.52182  0.85579  Biso   1.000  C
  C495     1.0000 0.35791  0.61032  0.85963  Biso   1.000  C
  H491     1.0000 0.62671  0.40969  0.48706  Biso   1.000  H
  C496     1.0000 0.66752  0.48478  0.54881  Biso   1.000  C
  O99      1.0000 0.62370  0.40579  0.63534  Biso   1.000  O
  C497     1.0000 0.63142  0.54170  0.52228  Biso   1.000  C
  C498     1.0000 0.30050  0.51830  0.95587  Biso   1.000  C
  H492     1.0000 0.28249  0.49190  0.81933  Biso   1.000  H
  H493     1.0000 0.37790  0.64178  0.82781  Biso   1.000  H
  C499     1.0000 0.35660  0.60839  0.96311  Biso   1.000  C
  H494     1.0000 0.70479  0.47788  0.50409  Biso   1.000  H
  O100     1.0000 0.68820  0.48590  0.64599  Biso   1.000  O
  B50      1.0000 0.66049  0.43978  0.69338  Biso   1.000  B
  C500     1.0000 0.64428  0.55512  0.41423  Biso   1.000  C
  C501     1.0000 0.65000  0.59091  0.58598  Biso   1.000  C
  C502     1.0000 0.32869  0.56240  0.00783  Biso   1.000  C
  B51      1.0000 0.27851  0.46181  0.00449  Biso   1.000  B
  B52      1.0000 0.39459  0.65309  0.02218  Biso   1.000  B
  C503     1.0000 0.66922  0.43271  0.80578  Biso   1.000  C
  H495     1.0000 0.67689  0.58559  0.40923  Biso   1.000  H
  H496     1.0000 0.60390  0.56772  0.38343  Biso   1.000  H
  H497     1.0000 0.66029  0.52062  0.38169  Biso   1.000  H
  H498     1.0000 0.66092  0.57672  0.65077  Biso   1.000  H
  H499     1.0000 0.61361  0.61782  0.59062  Biso   1.000  H
  H500     1.0000 0.68781  0.61062  0.55837  Biso   1.000  H
  H501     1.0000 0.32879  0.56069  0.07653  Biso   1.000  H
  O101     1.0000 0.25279  0.41801  0.95232  Biso   1.000  O
  O102     1.0000 0.28768  0.44810  0.10022  Biso   1.000  O
  O103     1.0000 0.43880  0.69120  0.98920  Biso   1.000  O
  O104     1.0000 0.39100  0.65399  0.12378  Biso   1.000  O
  C504     1.0000 0.69800  0.47818  0.85579  Biso   1.000  C
  C505     1.0000 0.64209  0.38968  0.85963  Biso   1.000  C
  C506     1.0000 0.24629  0.36761  0.01283  Biso   1.000  C
  C507     1.0000 0.27822  0.38651  0.10609  Biso   1.000  C
  C508     1.0000 0.47239  0.71738  0.06993  Biso   1.000  C
  C509     1.0000 0.43929  0.69300  0.16182  Biso   1.000  C
  C510     1.0000 0.69950  0.48170  0.95587  Biso   1.000  C
  H502     1.0000 0.71751  0.50810  0.81933  Biso   1.000  H
  H503     1.0000 0.62210  0.35822  0.82781  Biso   1.000  H
  C511     1.0000 0.64340  0.39161  0.96311  Biso   1.000  C
  C512     1.0000 0.28642  0.31660  0.97029  Biso   1.000  C
  H504     1.0000 0.19980  0.35702  0.02283  Biso   1.000  H
  C513     1.0000 0.34218  0.35749  0.10711  Biso   1.000  C
  H505     1.0000 0.25148  0.37571  0.16392  Biso   1.000  H
  H506     1.0000 0.47001  0.76020  0.06740  Biso   1.000  H
  C514     1.0000 0.54212  0.69630  0.07682  Biso   1.000  C
  C515     1.0000 0.49000  0.66029  0.22299  Biso   1.000  C
  H507     1.0000 0.41862  0.72420  0.20052  Biso   1.000  H
  C516     1.0000 0.67131  0.43760  0.00783  Biso   1.000  C
  B53      1.0000 0.72149  0.53819  0.00449  Biso   1.000  B
  B54      1.0000 0.60541  0.34691  0.02218  Biso   1.000  B
  C517     1.0000 0.24910  0.26131  0.99717  Biso   1.000  C
  C518     1.0000 0.29841  0.32140  0.86470  Biso   1.000  C
  C519     1.0000 0.34888  0.32140  0.02797  Biso   1.000  C
  C520     1.0000 0.39158  0.36619  0.17327  Biso   1.000  C
  C521     1.0000 0.59119  0.70521  0.01007  Biso   1.000  C
  C522     1.0000 0.54911  0.66171  0.15842  Biso   1.000  C
  C523     1.0000 0.50189  0.69218  0.31430  Biso   1.000  C
  C524     1.0000 0.47020  0.59751  0.24893  Biso   1.000  C
  H508     1.0000 0.67121  0.43931  0.07653  Biso   1.000  H
  O105     1.0000 0.74721  0.58199  0.95232  Biso   1.000  O
  O106     1.0000 0.71232  0.55190  0.10022  Biso   1.000  O
  O107     1.0000 0.56120  0.30880  0.98920  Biso   1.000  O
  O108     1.0000 0.60900  0.34601  0.12378  Biso   1.000  O
  H509     1.0000 0.21382  0.25510  0.95079  Biso   1.000  H
  H510     1.0000 0.27890  0.22861  0.99543  Biso   1.000  H
  H511     1.0000 0.23100  0.26509  0.06261  Biso   1.000  H
  H512     1.0000 0.29909  0.28309  0.83579  Biso   1.000  H
  H513     1.0000 0.34029  0.34022  0.85369  Biso   1.000  H
  H514     1.0000 0.26381  0.34421  0.83477  Biso   1.000  H
  C525     1.0000 0.40881  0.29479  0.01007  Biso   1.000  C
  C526     1.0000 0.45089  0.33829  0.15842  Biso   1.000  C
  H515     1.0000 0.38542  0.39058  0.22770  Biso   1.000  H
  H516     1.0000 0.58459  0.72848  0.95442  Biso   1.000  H
  C527     1.0000 0.65112  0.67860  0.02797  Biso   1.000  C
  C528     1.0000 0.60842  0.63381  0.17327  Biso   1.000  C
  H517     1.0000 0.48190  0.67170  0.36850  Biso   1.000  H
  H518     1.0000 0.48292  0.73058  0.30923  Biso   1.000  H
  H519     1.0000 0.54872  0.69548  0.32531  Biso   1.000  H
  H520     1.0000 0.49990  0.58229  0.29807  Biso   1.000  H
  H521     1.0000 0.47248  0.57359  0.19052  Biso   1.000  H
  H522     1.0000 0.42570  0.59721  0.27422  Biso   1.000  H
  C529     1.0000 0.75371  0.63239  0.01283  Biso   1.000  C
  C530     1.0000 0.72178  0.61349  0.10609  Biso   1.000  C
  C531     1.0000 0.52761  0.28262  0.06993  Biso   1.000  C
  C532     1.0000 0.56071  0.30700  0.16182  Biso   1.000  C
  H523     1.0000 0.41541  0.27152  0.95442  Biso   1.000  H
  C533     1.0000 0.45788  0.30370  0.07682  Biso   1.000  C
  C534     1.0000 0.51000  0.33971  0.22299  Biso   1.000  C
  C535     1.0000 0.71358  0.68340  0.97029  Biso   1.000  C
  C536     1.0000 0.65782  0.64251  0.10711  Biso   1.000  C
  H524     1.0000 0.61458  0.60942  0.22770  Biso   1.000  H
  H525     1.0000 0.80020  0.64298  0.02283  Biso   1.000  H
  H526     1.0000 0.74852  0.62429  0.16392  Biso   1.000  H
  H527     1.0000 0.52999  0.23980  0.06740  Biso   1.000  H
  H528     1.0000 0.58138  0.27580  0.20052  Biso   1.000  H
  C537     1.0000 0.49811  0.30782  0.31430  Biso   1.000  C
  C538     1.0000 0.52980  0.40249  0.24893  Biso   1.000  C
  C539     1.0000 0.75090  0.73869  0.99717  Biso   1.000  C
  C540     1.0000 0.70159  0.67860  0.86470  Biso   1.000  C
  H529     1.0000 0.51810  0.32830  0.36850  Biso   1.000  H
  H530     1.0000 0.51708  0.26942  0.30923  Biso   1.000  H
  H531     1.0000 0.45128  0.30452  0.32531  Biso   1.000  H
  H532     1.0000 0.50010  0.41771  0.29807  Biso   1.000  H
  H533     1.0000 0.52752  0.42641  0.19052  Biso   1.000  H
  H534     1.0000 0.57430  0.40279  0.27422  Biso   1.000  H
  H535     1.0000 0.78618  0.74490  0.95079  Biso   1.000  H
  H536     1.0000 0.72110  0.77139  0.99543  Biso   1.000  H
  H537     1.0000 0.76900  0.73491  0.06261  Biso   1.000  H
  H538     1.0000 0.70091  0.71691  0.83579  Biso   1.000  H
  H539     1.0000 0.65971  0.65978  0.85369  Biso   1.000  H
  H540     1.0000 0.73619  0.65579  0.83477  Biso   1.000  H
