data_image0
_cell_length_a       10.706
_cell_length_b       17.793
_cell_length_c       19.005
_cell_angle_alpha    90
_cell_angle_beta     97.56
_cell_angle_gamma    90

_symmetry_space_group_name_H-M    "P 1"
_symmetry_int_tables_number       1

loop_
  _symmetry_equiv_pos_as_xyz
  'x, y, z'

loop_
  _atom_site_label
  _atom_site_occupancy
  _atom_site_fract_x
  _atom_site_fract_y
  _atom_site_fract_z
  _atom_site_thermal_displace_type
  _atom_site_B_iso_or_equiv
  _atom_site_type_symbol
  C1       1.0000 0.75241  0.12629  0.88520  Biso   1.000  C
  C2       1.0000 0.63727  0.09009  0.87851  Biso   1.000  C
  C3       1.0000 0.63718  0.09009  0.87851  Biso   1.000  C
  C4       1.0000 0.63727  0.09015  0.87851  Biso   1.000  C
  C5       1.0000 0.63718  0.09015  0.87851  Biso   1.000  C
  C6       1.0000 0.83071  0.11729  0.83409  Biso   1.000  C
  C7       1.0000 0.83071  0.11735  0.83409  Biso   1.000  C
  H1       1.0000 0.77761  0.15781  0.92549  Biso   1.000  H
  C8       1.0000 0.59804  0.04491  0.81933  Biso   1.000  C
  C9       1.0000 0.59795  0.04491  0.81933  Biso   1.000  C
  H2       1.0000 0.58363  0.09599  0.91482  Biso   1.000  H
  H3       1.0000 0.58363  0.09605  0.91482  Biso   1.000  H
  C10      1.0000 0.75241  0.12634  0.88520  Biso   1.000  C
  H4       1.0000 0.58354  0.09599  0.91482  Biso   1.000  H
  H5       1.0000 0.58354  0.09605  0.91482  Biso   1.000  H
  C11      1.0000 0.79619  0.07441  0.77389  Biso   1.000  C
  H6       1.0000 0.91164  0.14140  0.84030  Biso   1.000  H
  H7       1.0000 0.91155  0.14140  0.84030  Biso   1.000  H
  C12      1.0000 0.67722  0.04052  0.76641  Biso   1.000  C
  C13      1.0000 0.67713  0.04052  0.76641  Biso   1.000  C
  C14      1.0000 0.47124  0.00551  0.81153  Biso   1.000  C
  C15      1.0000 0.47115  0.00551  0.81153  Biso   1.000  C
  C16      1.0000 0.88794  0.06480  0.72039  Biso   1.000  C
  C17      1.0000 0.88784  0.06480  0.72039  Biso   1.000  C
  O1       1.0000 0.63055  0.00096  0.70574  Biso   1.000  O
  O2       1.0000 0.63045  0.00096  0.70574  Biso   1.000  O
  H8       1.0000 0.43180  0.01742  0.85261  Biso   1.000  H
  H9       1.0000 0.42000  0.02720  0.77129  Biso   1.000  H
  C18      1.0000 0.46684  0.92070  0.80229  Biso   1.000  C
  C19      1.0000 0.46675  0.92070  0.80229  Biso   1.000  C
  H10      1.0000 0.85513  0.09178  0.67830  Biso   1.000  H
  H11      1.0000 0.96558  0.08857  0.73929  Biso   1.000  H
  H12      1.0000 0.85503  0.09178  0.67830  Biso   1.000  H
  H13      1.0000 0.85513  0.09183  0.67830  Biso   1.000  H
  H14      1.0000 0.96558  0.08863  0.73929  Biso   1.000  H
  H15      1.0000 0.85503  0.09183  0.67830  Biso   1.000  H
  C20      1.0000 0.91820  0.98561  0.69879  Biso   1.000  C
  C21      1.0000 0.60471  0.04721  0.64353  Biso   1.000  C
  C22      1.0000 0.60470  0.04721  0.64348  Biso   1.000  C
  C23      1.0000 0.60461  0.04721  0.64348  Biso   1.000  C
  C24      1.0000 0.55044  0.87090  0.84030  Biso   1.000  C
  C25      1.0000 0.36823  0.89001  0.75601  Biso   1.000  C
  C26      1.0000 0.55035  0.87090  0.84030  Biso   1.000  C
  C27      1.0000 0.36814  0.89001  0.75601  Biso   1.000  C
  C28      1.0000 0.96639  0.93222  0.74873  Biso   1.000  C
  C29      1.0000 0.90139  0.96409  0.62840  Biso   1.000  C
  C30      1.0000 0.96637  0.93222  0.74868  Biso   1.000  C
  C31      1.0000 0.90139  0.96414  0.62840  Biso   1.000  C
  C32      1.0000 0.48996  0.02271  0.59693  Biso   1.000  C
  H16      1.0000 0.59413  0.09830  0.65781  Biso   1.000  H
  H17      1.0000 0.67537  0.04541  0.61731  Biso   1.000  H
  H18      1.0000 0.59404  0.09830  0.65781  Biso   1.000  H
  O3       1.0000 0.65451  0.89990  0.88313  Biso   1.000  O
  C33      1.0000 0.53969  0.79301  0.83223  Biso   1.000  C
  C34      1.0000 0.35556  0.81330  0.74693  Biso   1.000  C
  H19      1.0000 0.30787  0.92289  0.72989  Biso   1.000  H
  C35      1.0000 0.35546  0.81330  0.74693  Biso   1.000  C
  H20      1.0000 0.30787  0.92295  0.72989  Biso   1.000  H
  O4       1.0000 0.98587  0.95178  0.81975  Biso   1.000  O
  C36      1.0000 0.99166  0.85848  0.72978  Biso   1.000  C
  C37      1.0000 0.99166  0.85854  0.72978  Biso   1.000  C
  H21      1.0000 0.86965  0.00011  0.59289  Biso   1.000  H
  C38      1.0000 0.92878  0.89237  0.60770  Biso   1.000  C
  C39      1.0000 0.92878  0.89243  0.60770  Biso   1.000  C
  O5       1.0000 0.38031  0.04069  0.62734  Biso   1.000  O
  O6       1.0000 0.38022  0.04069  0.62734  Biso   1.000  O
  H22      1.0000 0.48692  0.04693  0.55149  Biso   1.000  H
  H23      1.0000 0.48682  0.04693  0.55149  Biso   1.000  H
  H24      1.0000 0.49337  0.96943  0.58950  Biso   1.000  H
  C40      1.0000 0.64290  0.91412  0.95542  Biso   1.000  C
  C41      1.0000 0.44017  0.76609  0.78408  Biso   1.000  C
  C42      1.0000 0.62776  0.73787  0.87458  Biso   1.000  C
  C43      1.0000 0.62767  0.73787  0.87458  Biso   1.000  C
  C44      1.0000 0.44017  0.76614  0.78408  Biso   1.000  C
  C45      1.0000 0.62776  0.73793  0.87458  Biso   1.000  C
  C46      1.0000 0.62767  0.73793  0.87458  Biso   1.000  C
  H25      1.0000 0.28734  0.79329  0.71439  Biso   1.000  H
  H26      1.0000 0.28725  0.79329  0.71439  Biso   1.000  H
  H27      1.0000 0.28734  0.79335  0.71439  Biso   1.000  H
  H28      1.0000 0.28725  0.79335  0.71439  Biso   1.000  H
  C47      1.0000 0.10819  0.98039  0.84359  Biso   1.000  C
  C48      1.0000 0.10819  0.98044  0.84359  Biso   1.000  C
  C49      1.0000 0.97278  0.84050  0.65813  Biso   1.000  C
  C50      1.0000 0.04154  0.79958  0.78419  Biso   1.000  C
  C51      1.0000 0.04145  0.79958  0.78419  Biso   1.000  C
  C52      1.0000 0.04154  0.79964  0.78419  Biso   1.000  C
  C53      1.0000 0.04145  0.79964  0.78419  Biso   1.000  C
  H29      1.0000 0.91717  0.87900  0.55839  Biso   1.000  H
  C54      1.0000 0.26837  0.04423  0.57718  Biso   1.000  C
  C55      1.0000 0.26837  0.04417  0.57718  Biso   1.000  C
  C56      1.0000 0.77039  0.94458  0.98499  Biso   1.000  C
  H30      1.0000 0.62448  0.86882  0.97931  Biso   1.000  H
  H31      1.0000 0.57787  0.95032  0.95972  Biso   1.000  H
  H32      1.0000 0.62438  0.86882  0.97931  Biso   1.000  H
  H33      1.0000 0.57778  0.95032  0.95972  Biso   1.000  H
  C57      1.0000 0.77039  0.94464  0.98499  Biso   1.000  C
  H34      1.0000 0.43098  0.71292  0.77713  Biso   1.000  H
  C58      1.0000 0.76838  0.75440  0.88839  Biso   1.000  C
  H35      1.0000 0.59856  0.73180  0.91991  Biso   1.000  H
  H36      1.0000 0.61765  0.69022  0.85091  Biso   1.000  H
  H37      1.0000 0.59846  0.73180  0.91991  Biso   1.000  H
  H38      1.0000 0.61756  0.69022  0.85091  Biso   1.000  H
  C59      1.0000 0.11056  0.99933  0.91891  Biso   1.000  C
  H39      1.0000 0.17120  0.94340  0.83780  Biso   1.000  H
  C60      1.0000 0.11046  0.99933  0.91891  Biso   1.000  C
  H40      1.0000 0.12458  0.02439  0.81699  Biso   1.000  H
  H41      1.0000 0.12458  0.02445  0.81699  Biso   1.000  H
  H42      1.0000 0.99096  0.79048  0.64358  Biso   1.000  H
  H43      1.0000 0.99096  0.79054  0.64358  Biso   1.000  H
  C61      1.0000 0.96552  0.78418  0.84380  Biso   1.000  C
  C62      1.0000 0.96552  0.78424  0.84380  Biso   1.000  C
  C63      1.0000 0.96542  0.78418  0.84380  Biso   1.000  C
  C64      1.0000 0.96542  0.78424  0.84380  Biso   1.000  C
  H44      1.0000 0.12444  0.81459  0.80479  Biso   1.000  H
  H45      1.0000 0.05000  0.75322  0.75962  Biso   1.000  H
  H46      1.0000 0.12435  0.81459  0.80479  Biso   1.000  H
  H47      1.0000 0.12444  0.81465  0.80479  Biso   1.000  H
  H48      1.0000 0.12435  0.81465  0.80479  Biso   1.000  H
  H49      1.0000 0.20888  0.07672  0.59560  Biso   1.000  H
  H50      1.0000 0.28884  0.06598  0.53403  Biso   1.000  H
  H51      1.0000 0.28874  0.06598  0.53403  Biso   1.000  H
  H52      1.0000 0.28884  0.06604  0.53403  Biso   1.000  H
  H53      1.0000 0.28874  0.06604  0.53403  Biso   1.000  H
  C65      1.0000 0.20805  0.96909  0.56089  Biso   1.000  C
  C66      1.0000 0.20805  0.96915  0.56089  Biso   1.000  C
  H54      1.0000 0.83260  0.90581  0.98499  Biso   1.000  H
  H55      1.0000 0.79284  0.98499  0.95553  Biso   1.000  H
  H56      1.0000 0.79275  0.98499  0.95553  Biso   1.000  H
  O7       1.0000 0.76816  0.97072  0.05420  Biso   1.000  O
  O8       1.0000 0.76807  0.97072  0.05420  Biso   1.000  O
  C67      1.0000 0.83725  0.76592  0.83249  Biso   1.000  C
  C68      1.0000 0.83715  0.76592  0.83249  Biso   1.000  C
  C69      1.0000 0.83104  0.75541  0.95670  Biso   1.000  C
  C70      1.0000 0.83095  0.75541  0.95670  Biso   1.000  C
  H57      1.0000 0.09401  0.95521  0.94523  Biso   1.000  H
  O9       1.0000 0.23201  0.02928  0.94582  Biso   1.000  O
  H58      1.0000 0.04637  0.03569  0.92443  Biso   1.000  H
  H59      1.0000 0.04627  0.03569  0.92443  Biso   1.000  H
  O10      1.0000 0.23201  0.02934  0.94582  Biso   1.000  O
  H60      1.0000 0.04637  0.03574  0.92443  Biso   1.000  H
  H61      1.0000 0.04627  0.03574  0.92443  Biso   1.000  H
  C71      1.0000 0.02345  0.78581  0.91349  Biso   1.000  C
  C72      1.0000 0.02336  0.78581  0.91349  Biso   1.000  C
  O11      1.0000 0.28182  0.92559  0.51917  Biso   1.000  O
  H62      1.0000 0.12512  0.97589  0.53573  Biso   1.000  H
  H63      1.0000 0.20029  0.94312  0.60441  Biso   1.000  H
  O12      1.0000 0.28172  0.92559  0.51917  Biso   1.000  O
  H64      1.0000 0.12503  0.97589  0.53573  Biso   1.000  H
  O13      1.0000 0.28182  0.92564  0.51917  Biso   1.000  O
  H65      1.0000 0.12512  0.97595  0.53573  Biso   1.000  H
  O14      1.0000 0.28172  0.92564  0.51917  Biso   1.000  O
  H66      1.0000 0.12503  0.97595  0.53573  Biso   1.000  H
  C73      1.0000 0.88961  0.00067  0.08112  Biso   1.000  C
  C74      1.0000 0.88961  0.00073  0.08112  Biso   1.000  C
  O15      1.0000 0.77447  0.76311  0.76328  Biso   1.000  O
  O16      1.0000 0.77447  0.76317  0.76328  Biso   1.000  O
  C75      1.0000 0.95710  0.77109  0.96933  Biso   1.000  C
  H67      1.0000 0.78556  0.74507  0.99592  Biso   1.000  H
  H68      1.0000 0.78546  0.74507  0.99592  Biso   1.000  H
  H69      1.0000 0.78556  0.74512  0.99592  Biso   1.000  H
  H70      1.0000 0.78546  0.74512  0.99592  Biso   1.000  H
  C76      1.0000 0.22977  0.05542  0.01503  Biso   1.000  C
  C77      1.0000 0.22968  0.05542  0.01503  Biso   1.000  C
  H71      1.0000 0.11151  0.79739  0.92299  Biso   1.000  H
  C78      1.0000 0.24796  0.84842  0.51619  Biso   1.000  C
  H72      1.0000 0.95380  0.96431  0.07560  Biso   1.000  H
  C79      1.0000 0.89198  0.01961  0.15643  Biso   1.000  C
  H73      1.0000 0.90616  0.04479  0.05479  Biso   1.000  H
  C80      1.0000 0.89187  0.01961  0.15638  Biso   1.000  C
  H74      1.0000 0.90607  0.04479  0.05479  Biso   1.000  H
  H75      1.0000 0.90616  0.04485  0.05479  Biso   1.000  H
  H76      1.0000 0.90607  0.04485  0.05479  Biso   1.000  H
  C81      1.0000 0.78500  0.69342  0.72718  Biso   1.000  C
  H77      1.0000 0.99936  0.77171  0.01710  Biso   1.000  H
  H78      1.0000 0.99927  0.77171  0.01710  Biso   1.000  H
  C82      1.0000 0.35727  0.08588  0.04460  Biso   1.000  C
  H79      1.0000 0.16757  0.09419  0.01503  Biso   1.000  H
  H80      1.0000 0.20733  0.01501  0.04449  Biso   1.000  H
  C83      1.0000 0.35717  0.08588  0.04460  Biso   1.000  C
  H81      1.0000 0.16747  0.09419  0.01503  Biso   1.000  H
  C84      1.0000 0.35727  0.08593  0.04460  Biso   1.000  C
  H82      1.0000 0.16757  0.09425  0.01503  Biso   1.000  H
  C85      1.0000 0.35717  0.08593  0.04460  Biso   1.000  C
  H83      1.0000 0.16747  0.09425  0.01503  Biso   1.000  H
  C86      1.0000 0.34737  0.80318  0.48631  Biso   1.000  C
  H84      1.0000 0.23909  0.83072  0.56301  Biso   1.000  H
  H85      1.0000 0.16861  0.84219  0.48679  Biso   1.000  H
  H86      1.0000 0.16852  0.84219  0.48679  Biso   1.000  H
  C87      1.0000 0.34737  0.80324  0.48631  Biso   1.000  C
  H87      1.0000 0.16861  0.84224  0.48679  Biso   1.000  H
  H88      1.0000 0.16852  0.84224  0.48679  Biso   1.000  H
  H89      1.0000 0.87559  0.97561  0.18303  Biso   1.000  H
  H90      1.0000 0.87549  0.97561  0.18303  Biso   1.000  H
  H91      1.0000 0.82897  0.05660  0.16222  Biso   1.000  H
  H92      1.0000 0.82888  0.05660  0.16222  Biso   1.000  H
  H93      1.0000 0.82897  0.05665  0.16222  Biso   1.000  H
  H94      1.0000 0.82888  0.05665  0.16222  Biso   1.000  H
  O17      1.0000 0.01430  0.04822  0.18027  Biso   1.000  O
  O18      1.0000 0.01421  0.04822  0.18027  Biso   1.000  O
  O19      1.0000 0.01430  0.04828  0.18027  Biso   1.000  O
  O20      1.0000 0.01421  0.04828  0.18027  Biso   1.000  O
  C88      1.0000 0.68689  0.68842  0.66423  Biso   1.000  C
  C89      1.0000 0.68688  0.68842  0.66418  Biso   1.000  C
  H95      1.0000 0.86712  0.68948  0.71243  Biso   1.000  H
  H96      1.0000 0.77516  0.65250  0.75903  Biso   1.000  H
  H97      1.0000 0.77507  0.65250  0.75903  Biso   1.000  H
  H98      1.0000 0.86712  0.68954  0.71243  Biso   1.000  H
  H99      1.0000 0.86702  0.68948  0.71243  Biso   1.000  H
  H100     1.0000 0.86702  0.68954  0.71243  Biso   1.000  H
  O21      1.0000 0.34566  0.10010  0.11689  Biso   1.000  O
  H101     1.0000 0.37569  0.13118  0.02071  Biso   1.000  H
  H102     1.0000 0.42230  0.04968  0.04030  Biso   1.000  H
  O22      1.0000 0.34557  0.10010  0.11689  Biso   1.000  O
  O23      1.0000 0.34566  0.10015  0.11689  Biso   1.000  O
  H103     1.0000 0.37569  0.13123  0.02071  Biso   1.000  H
  H104     1.0000 0.42230  0.04974  0.04030  Biso   1.000  H
  O24      1.0000 0.34557  0.10015  0.11689  Biso   1.000  O
  O25      1.0000 0.47195  0.81600  0.51980  Biso   1.000  O
  H105     1.0000 0.34391  0.81459  0.43668  Biso   1.000  H
  H106     1.0000 0.32822  0.75080  0.49029  Biso   1.000  H
  H107     1.0000 0.34381  0.81459  0.43668  Biso   1.000  H
  H108     1.0000 0.32813  0.75080  0.49029  Biso   1.000  H
  O26      1.0000 0.47195  0.81605  0.51980  Biso   1.000  O
  H109     1.0000 0.34391  0.81465  0.43668  Biso   1.000  H
  H110     1.0000 0.34381  0.81465  0.43668  Biso   1.000  H
  C90      1.0000 0.03378  0.06778  0.25129  Biso   1.000  C
  C91      1.0000 0.03369  0.06778  0.25129  Biso   1.000  C
  C92      1.0000 0.03378  0.06784  0.25129  Biso   1.000  C
  C93      1.0000 0.03369  0.06784  0.25129  Biso   1.000  C
  O27      1.0000 0.69270  0.74355  0.61275  Biso   1.000  O
  O28      1.0000 0.69270  0.74361  0.61275  Biso   1.000  O
  O29      1.0000 0.69261  0.74355  0.61275  Biso   1.000  O
  O30      1.0000 0.69261  0.74361  0.61275  Biso   1.000  O
  H111     1.0000 0.60562  0.69089  0.68021  Biso   1.000  H
  H112     1.0000 0.69359  0.64008  0.64252  Biso   1.000  H
  H113     1.0000 0.60553  0.69089  0.68021  Biso   1.000  H
  H114     1.0000 0.69359  0.64014  0.64252  Biso   1.000  H
  C94      1.0000 0.44972  0.12910  0.15973  Biso   1.000  C
  C95      1.0000 0.44972  0.12915  0.15973  Biso   1.000  C
  C96      1.0000 0.48734  0.80650  0.59449  Biso   1.000  C
  C97      1.0000 0.48724  0.80650  0.59449  Biso   1.000  C
  C98      1.0000 0.08197  0.01439  0.30123  Biso   1.000  C
  C99      1.0000 0.00851  0.14152  0.27024  Biso   1.000  C
  C100     1.0000 0.00840  0.14152  0.27018  Biso   1.000  C
  C101     1.0000 0.08197  0.01444  0.30123  Biso   1.000  C
  C102     1.0000 0.00841  0.14152  0.27024  Biso   1.000  C
  C103     1.0000 0.62483  0.80998  0.62288  Biso   1.000  C
  C104     1.0000 0.62474  0.80998  0.62288  Biso   1.000  C
  C105     1.0000 0.62483  0.81004  0.62288  Biso   1.000  C
  C106     1.0000 0.62474  0.81004  0.62288  Biso   1.000  C
  C107     1.0000 0.46048  0.20699  0.16779  Biso   1.000  C
  C108     1.0000 0.53333  0.07930  0.19773  Biso   1.000  C
  C109     1.0000 0.46039  0.20699  0.16779  Biso   1.000  C
  C110     1.0000 0.46048  0.20705  0.16779  Biso   1.000  C
  C111     1.0000 0.46039  0.20705  0.16779  Biso   1.000  C
  H115     1.0000 0.44263  0.84539  0.61582  Biso   1.000  H
  H116     1.0000 0.45334  0.75889  0.60611  Biso   1.000  H
  H117     1.0000 0.44254  0.84539  0.61582  Biso   1.000  H
  H118     1.0000 0.45325  0.75889  0.60611  Biso   1.000  H
  H119     1.0000 0.44263  0.84544  0.61582  Biso   1.000  H
  H120     1.0000 0.44254  0.84544  0.61582  Biso   1.000  H
  C112     1.0000 0.11223  0.93520  0.27963  Biso   1.000  C
  C113     1.0000 0.09878  0.03591  0.37162  Biso   1.000  C
  C114     1.0000 0.09869  0.03591  0.37162  Biso   1.000  C
  C115     1.0000 0.95862  0.20042  0.21583  Biso   1.000  C
  C116     1.0000 0.02739  0.15950  0.34189  Biso   1.000  C
  C117     1.0000 0.02730  0.15950  0.34189  Biso   1.000  C
  H121     1.0000 0.63285  0.82072  0.67283  Biso   1.000  H
  H122     1.0000 0.66244  0.85101  0.60032  Biso   1.000  H
  H123     1.0000 0.63276  0.82072  0.67283  Biso   1.000  H
  H124     1.0000 0.66234  0.85101  0.60032  Biso   1.000  H
  C118     1.0000 0.55999  0.23391  0.21594  Biso   1.000  C
  C119     1.0000 0.37241  0.26213  0.12544  Biso   1.000  C
  C120     1.0000 0.55989  0.23391  0.21588  Biso   1.000  C
  C121     1.0000 0.37240  0.26213  0.12538  Biso   1.000  C
  C122     1.0000 0.52893  0.99449  0.18849  Biso   1.000  C
  C123     1.0000 0.52893  0.99455  0.18849  Biso   1.000  C
  C124     1.0000 0.63194  0.10999  0.24402  Biso   1.000  C
  C125     1.0000 0.63194  0.11004  0.24402  Biso   1.000  C
  C126     1.0000 0.20398  0.92559  0.22613  Biso   1.000  C
  H125     1.0000 0.14504  0.90822  0.32172  Biso   1.000  H
  H126     1.0000 0.03459  0.91143  0.26074  Biso   1.000  H
  C127     1.0000 0.20388  0.92559  0.22613  Biso   1.000  C
  H127     1.0000 0.03450  0.91143  0.26074  Biso   1.000  H
  C128     1.0000 0.20398  0.92564  0.22613  Biso   1.000  C
  C129     1.0000 0.20388  0.92564  0.22613  Biso   1.000  C
  H128     1.0000 0.13052  0.99989  0.40713  Biso   1.000  H
  H129     1.0000 0.13043  0.99989  0.40713  Biso   1.000  H
  H130     1.0000 0.13052  0.99994  0.40713  Biso   1.000  H
  H131     1.0000 0.13043  0.99994  0.40713  Biso   1.000  H
  C130     1.0000 0.07139  0.10763  0.39232  Biso   1.000  C
  C131     1.0000 0.07130  0.10763  0.39232  Biso   1.000  C
  H132     1.0000 0.87573  0.18541  0.19524  Biso   1.000  H
  H133     1.0000 0.95017  0.24678  0.24041  Biso   1.000  H
  H134     1.0000 0.87572  0.18541  0.19518  Biso   1.000  H
  H135     1.0000 0.95017  0.24684  0.24041  Biso   1.000  H
  H136     1.0000 0.95007  0.24678  0.24041  Biso   1.000  H
  H137     1.0000 0.95007  0.24684  0.24041  Biso   1.000  H
  C132     1.0000 0.03465  0.21582  0.15622  Biso   1.000  C
  H138     1.0000 0.00921  0.20952  0.35644  Biso   1.000  H
  H139     1.0000 0.00910  0.20952  0.35638  Biso   1.000  H
  H140     1.0000 0.56918  0.28708  0.22289  Biso   1.000  H
  C133     1.0000 0.64461  0.18670  0.25309  Biso   1.000  C
  H141     1.0000 0.56909  0.28708  0.22289  Biso   1.000  H
  H142     1.0000 0.56918  0.28714  0.22289  Biso   1.000  H
  H143     1.0000 0.56909  0.28714  0.22289  Biso   1.000  H
  C134     1.0000 0.23179  0.24560  0.11164  Biso   1.000  C
  H144     1.0000 0.40161  0.26820  0.08011  Biso   1.000  H
  H145     1.0000 0.38252  0.30978  0.14911  Biso   1.000  H
  C135     1.0000 0.23168  0.24560  0.11158  Biso   1.000  C
  H146     1.0000 0.40161  0.26825  0.08011  Biso   1.000  H
  H147     1.0000 0.38252  0.30984  0.14911  Biso   1.000  H
  C136     1.0000 0.40213  0.95509  0.18069  Biso   1.000  C
  H148     1.0000 0.56837  0.98258  0.14741  Biso   1.000  H
  H149     1.0000 0.58017  0.97280  0.22873  Biso   1.000  H
  H150     1.0000 0.56828  0.98258  0.14741  Biso   1.000  H
  H151     1.0000 0.58008  0.97280  0.22873  Biso   1.000  H
  H152     1.0000 0.56837  0.98263  0.14741  Biso   1.000  H
  H153     1.0000 0.56828  0.98263  0.14741  Biso   1.000  H
  H154     1.0000 0.69230  0.07711  0.27013  Biso   1.000  H
  H155     1.0000 0.69221  0.07711  0.27013  Biso   1.000  H
  C137     1.0000 0.32295  0.95948  0.23361  Biso   1.000  C
  C138     1.0000 0.16946  0.88271  0.16594  Biso   1.000  C
  C139     1.0000 0.16945  0.88271  0.16588  Biso   1.000  C
  C140     1.0000 0.32295  0.95953  0.23361  Biso   1.000  C
  C141     1.0000 0.16936  0.88271  0.16588  Biso   1.000  C
  H156     1.0000 0.08300  0.12100  0.44163  Biso   1.000  H
  H157     1.0000 0.08291  0.12100  0.44163  Biso   1.000  H
  C142     1.0000 0.97672  0.21419  0.08653  Biso   1.000  C
  C143     1.0000 0.97672  0.21424  0.08653  Biso   1.000  C
  C144     1.0000 0.16292  0.23408  0.16753  Biso   1.000  C
  C145     1.0000 0.16292  0.23414  0.16753  Biso   1.000  C
  H158     1.0000 0.71283  0.20671  0.28563  Biso   1.000  H
  C146     1.0000 0.16913  0.24459  0.04332  Biso   1.000  C
  C147     1.0000 0.16913  0.24465  0.04332  Biso   1.000  C
  C148     1.0000 0.36290  0.90991  0.12151  Biso   1.000  C
  O31      1.0000 0.36962  0.99904  0.29428  Biso   1.000  O
  O32      1.0000 0.36962  0.99910  0.29428  Biso   1.000  O
  C149     1.0000 0.24776  0.87371  0.11482  Biso   1.000  C
  H159     1.0000 0.08853  0.85860  0.15973  Biso   1.000  H
  C150     1.0000 0.24766  0.87371  0.11482  Biso   1.000  C
  H160     1.0000 0.88866  0.20261  0.07703  Biso   1.000  H
  H161     1.0000 0.88857  0.20261  0.07703  Biso   1.000  H
  C151     1.0000 0.04307  0.22891  0.03069  Biso   1.000  C
  C152     1.0000 0.04298  0.22891  0.03069  Biso   1.000  C
  O33      1.0000 0.22570  0.23689  0.23674  Biso   1.000  O
  O34      1.0000 0.22561  0.23689  0.23674  Biso   1.000  O
  H162     1.0000 0.21461  0.25493  0.00410  Biso   1.000  H
  H163     1.0000 0.41653  0.90401  0.08520  Biso   1.000  H
  C153     1.0000 0.39545  0.95279  0.35649  Biso   1.000  C
  C154     1.0000 0.39545  0.95285  0.35649  Biso   1.000  C
  H164     1.0000 0.22256  0.84219  0.07453  Biso   1.000  H
  H165     1.0000 0.22247  0.84219  0.07453  Biso   1.000  H
  H166     1.0000 0.22256  0.84224  0.07453  Biso   1.000  H
  H167     1.0000 0.22247  0.84224  0.07453  Biso   1.000  H
  H168     1.0000 0.00081  0.22829  0.98292  Biso   1.000  H
  H169     1.0000 0.00081  0.22835  0.98292  Biso   1.000  H
  C155     1.0000 0.21517  0.30658  0.27284  Biso   1.000  C
  C156     1.0000 0.21515  0.30658  0.27278  Biso   1.000  C
  C157     1.0000 0.21517  0.30664  0.27284  Biso   1.000  C
  C158     1.0000 0.21515  0.30664  0.27278  Biso   1.000  C
  C159     1.0000 0.51021  0.97729  0.40309  Biso   1.000  C
  H170     1.0000 0.40604  0.90170  0.34221  Biso   1.000  H
  H171     1.0000 0.32480  0.95459  0.38271  Biso   1.000  H
  C160     1.0000 0.51011  0.97729  0.40309  Biso   1.000  C
  H172     1.0000 0.32471  0.95459  0.38271  Biso   1.000  H
  H173     1.0000 0.32480  0.95465  0.38271  Biso   1.000  H
  H174     1.0000 0.32471  0.95465  0.38271  Biso   1.000  H
  H175     1.0000 0.13305  0.31052  0.28759  Biso   1.000  H
  H176     1.0000 0.22501  0.34750  0.24099  Biso   1.000  H
  C161     1.0000 0.31328  0.31158  0.33579  Biso   1.000  C
  C162     1.0000 0.31319  0.31158  0.33579  Biso   1.000  C
  H177     1.0000 0.22501  0.34755  0.24099  Biso   1.000  H
  C163     1.0000 0.31328  0.31164  0.33579  Biso   1.000  C
  C164     1.0000 0.31319  0.31164  0.33579  Biso   1.000  C
  O35      1.0000 0.61986  0.95931  0.37268  Biso   1.000  O
  H178     1.0000 0.51325  0.95307  0.44853  Biso   1.000  H
  H179     1.0000 0.51325  0.95313  0.44853  Biso   1.000  H
  H180     1.0000 0.50680  0.03057  0.41052  Biso   1.000  H
  H181     1.0000 0.50671  0.03057  0.41052  Biso   1.000  H
  H182     1.0000 0.50680  0.03063  0.41052  Biso   1.000  H
  H183     1.0000 0.50671  0.03063  0.41052  Biso   1.000  H
  O36      1.0000 0.30746  0.25645  0.38728  Biso   1.000  O
  H184     1.0000 0.39455  0.30911  0.31981  Biso   1.000  H
  H185     1.0000 0.30658  0.35992  0.35750  Biso   1.000  H
  H186     1.0000 0.30649  0.35992  0.35750  Biso   1.000  H
  C165     1.0000 0.73180  0.95583  0.42284  Biso   1.000  C
  C166     1.0000 0.73169  0.95583  0.42279  Biso   1.000  C
  C167     1.0000 0.37534  0.19002  0.37714  Biso   1.000  C
  C168     1.0000 0.37533  0.19002  0.37708  Biso   1.000  C
  H187     1.0000 0.79129  0.92328  0.40442  Biso   1.000  H
  H188     1.0000 0.71133  0.93402  0.46599  Biso   1.000  H
  H189     1.0000 0.79120  0.92328  0.40442  Biso   1.000  H
  H190     1.0000 0.79129  0.92334  0.40442  Biso   1.000  H
  H191     1.0000 0.79120  0.92334  0.40442  Biso   1.000  H
  C169     1.0000 0.79211  0.03091  0.43913  Biso   1.000  C
  C170     1.0000 0.79202  0.03091  0.43913  Biso   1.000  C
  H192     1.0000 0.36732  0.17928  0.32719  Biso   1.000  H
  H193     1.0000 0.33773  0.14899  0.39970  Biso   1.000  H
  C171     1.0000 0.51283  0.19350  0.40553  Biso   1.000  C
  H194     1.0000 0.36732  0.17934  0.32719  Biso   1.000  H
  H195     1.0000 0.33773  0.14905  0.39970  Biso   1.000  H
  O37      1.0000 0.71835  0.07441  0.48085  Biso   1.000  O
  H196     1.0000 0.87505  0.02411  0.46429  Biso   1.000  H
  H197     1.0000 0.79988  0.05688  0.39561  Biso   1.000  H
  H198     1.0000 0.79979  0.05688  0.39561  Biso   1.000  H
  H199     1.0000 0.79988  0.05693  0.39561  Biso   1.000  H
  H200     1.0000 0.79979  0.05693  0.39561  Biso   1.000  H
  O38      1.0000 0.52822  0.18400  0.48022  Biso   1.000  O
  H201     1.0000 0.55754  0.15461  0.38420  Biso   1.000  H
  H202     1.0000 0.54682  0.24111  0.39391  Biso   1.000  H
  O39      1.0000 0.52813  0.18400  0.48022  Biso   1.000  O
  C172     1.0000 0.75221  0.15158  0.48383  Biso   1.000  C
  C173     1.0000 0.75211  0.15158  0.48383  Biso   1.000  C
  C174     1.0000 0.75221  0.15163  0.48383  Biso   1.000  C
  C175     1.0000 0.75211  0.15163  0.48383  Biso   1.000  C
  C176     1.0000 0.65280  0.19682  0.51371  Biso   1.000  C
  C177     1.0000 0.65270  0.19682  0.51371  Biso   1.000  C
  H203     1.0000 0.76108  0.16928  0.43701  Biso   1.000  H
  H204     1.0000 0.83156  0.15781  0.51323  Biso   1.000  H
  H205     1.0000 0.76108  0.16934  0.43701  Biso   1.000  H
  H206     1.0000 0.76098  0.16928  0.43701  Biso   1.000  H
  H207     1.0000 0.76098  0.16934  0.43701  Biso   1.000  H
  H208     1.0000 0.65626  0.18541  0.56334  Biso   1.000  H
  H209     1.0000 0.67195  0.24920  0.50973  Biso   1.000  H
  H210     1.0000 0.65625  0.18541  0.56329  Biso   1.000  H
  H211     1.0000 0.67195  0.24926  0.50973  Biso   1.000  H
  C178     1.0000 0.75241  0.12629  0.88520  Biso   1.000  C
  C179     1.0000 0.83071  0.11729  0.83409  Biso   1.000  C
  C180     1.0000 0.83071  0.11735  0.83409  Biso   1.000  C
  C181     1.0000 0.63718  0.09009  0.87851  Biso   1.000  C
  C182     1.0000 0.63718  0.09015  0.87851  Biso   1.000  C
  C183     1.0000 0.63727  0.09009  0.87851  Biso   1.000  C
  C184     1.0000 0.63727  0.09015  0.87851  Biso   1.000  C
  H212     1.0000 0.77761  0.15781  0.92549  Biso   1.000  H
  C185     1.0000 0.79619  0.07441  0.77389  Biso   1.000  C
  H213     1.0000 0.91164  0.14140  0.84030  Biso   1.000  H
  C186     1.0000 0.75241  0.12634  0.88520  Biso   1.000  C
  H214     1.0000 0.91155  0.14140  0.84030  Biso   1.000  H
  C187     1.0000 0.59804  0.04491  0.81933  Biso   1.000  C
  C188     1.0000 0.59795  0.04491  0.81933  Biso   1.000  C
  H215     1.0000 0.58363  0.09599  0.91482  Biso   1.000  H
  H216     1.0000 0.58363  0.09605  0.91482  Biso   1.000  H
  H217     1.0000 0.58354  0.09599  0.91482  Biso   1.000  H
  H218     1.0000 0.58354  0.09605  0.91482  Biso   1.000  H
  C189     1.0000 0.67722  0.04052  0.76641  Biso   1.000  C
  C190     1.0000 0.67713  0.04052  0.76641  Biso   1.000  C
  C191     1.0000 0.88794  0.06480  0.72039  Biso   1.000  C
  C192     1.0000 0.88784  0.06480  0.72039  Biso   1.000  C
  C193     1.0000 0.47124  0.00551  0.81153  Biso   1.000  C
  C194     1.0000 0.47115  0.00551  0.81153  Biso   1.000  C
  O40      1.0000 0.63055  0.00096  0.70574  Biso   1.000  O
  O41      1.0000 0.63045  0.00096  0.70574  Biso   1.000  O
  H219     1.0000 0.96558  0.08857  0.73929  Biso   1.000  H
  H220     1.0000 0.96558  0.08863  0.73929  Biso   1.000  H
  H221     1.0000 0.85513  0.09178  0.67830  Biso   1.000  H
  H222     1.0000 0.85503  0.09178  0.67830  Biso   1.000  H
  H223     1.0000 0.85513  0.09183  0.67830  Biso   1.000  H
  H224     1.0000 0.85503  0.09183  0.67830  Biso   1.000  H
  C195     1.0000 0.91820  0.98561  0.69879  Biso   1.000  C
  H225     1.0000 0.43180  0.01742  0.85261  Biso   1.000  H
  H226     1.0000 0.42000  0.02720  0.77129  Biso   1.000  H
  C196     1.0000 0.46684  0.92070  0.80229  Biso   1.000  C
  C197     1.0000 0.46675  0.92070  0.80229  Biso   1.000  C
  C198     1.0000 0.60471  0.04721  0.64353  Biso   1.000  C
  C199     1.0000 0.60470  0.04721  0.64348  Biso   1.000  C
  C200     1.0000 0.60461  0.04721  0.64348  Biso   1.000  C
  C201     1.0000 0.96639  0.93222  0.74873  Biso   1.000  C
  C202     1.0000 0.90139  0.96409  0.62840  Biso   1.000  C
  C203     1.0000 0.96637  0.93222  0.74868  Biso   1.000  C
  C204     1.0000 0.90139  0.96414  0.62840  Biso   1.000  C
  C205     1.0000 0.55044  0.87090  0.84030  Biso   1.000  C
  C206     1.0000 0.36823  0.89001  0.75601  Biso   1.000  C
  C207     1.0000 0.55035  0.87090  0.84030  Biso   1.000  C
  C208     1.0000 0.36814  0.89001  0.75601  Biso   1.000  C
  C209     1.0000 0.48996  0.02271  0.59693  Biso   1.000  C
  H227     1.0000 0.67537  0.04541  0.61731  Biso   1.000  H
  H228     1.0000 0.59413  0.09830  0.65781  Biso   1.000  H
  H229     1.0000 0.59404  0.09830  0.65781  Biso   1.000  H
  O42      1.0000 0.98587  0.95178  0.81975  Biso   1.000  O
  C210     1.0000 0.99166  0.85848  0.72978  Biso   1.000  C
  C211     1.0000 0.99166  0.85854  0.72978  Biso   1.000  C
  H230     1.0000 0.86965  0.00011  0.59289  Biso   1.000  H
  C212     1.0000 0.92878  0.89237  0.60770  Biso   1.000  C
  C213     1.0000 0.92878  0.89243  0.60770  Biso   1.000  C
  O43      1.0000 0.65451  0.89990  0.88313  Biso   1.000  O
  C214     1.0000 0.53969  0.79301  0.83223  Biso   1.000  C
  C215     1.0000 0.35556  0.81330  0.74693  Biso   1.000  C
  H231     1.0000 0.30787  0.92289  0.72989  Biso   1.000  H
  C216     1.0000 0.35546  0.81330  0.74693  Biso   1.000  C
  H232     1.0000 0.30787  0.92295  0.72989  Biso   1.000  H
  O44      1.0000 0.38031  0.04069  0.62734  Biso   1.000  O
  O45      1.0000 0.38022  0.04069  0.62734  Biso   1.000  O
  H233     1.0000 0.48692  0.04693  0.55149  Biso   1.000  H
  H234     1.0000 0.48682  0.04693  0.55149  Biso   1.000  H
  H235     1.0000 0.49337  0.96943  0.58950  Biso   1.000  H
  C217     1.0000 0.10819  0.98039  0.84359  Biso   1.000  C
  C218     1.0000 0.10819  0.98044  0.84359  Biso   1.000  C
  C219     1.0000 0.97278  0.84050  0.65813  Biso   1.000  C
  C220     1.0000 0.04154  0.79958  0.78419  Biso   1.000  C
  C221     1.0000 0.04145  0.79958  0.78419  Biso   1.000  C
  C222     1.0000 0.04154  0.79964  0.78419  Biso   1.000  C
  C223     1.0000 0.04145  0.79964  0.78419  Biso   1.000  C
  H236     1.0000 0.91717  0.87900  0.55839  Biso   1.000  H
  C224     1.0000 0.64290  0.91412  0.95542  Biso   1.000  C
  C225     1.0000 0.44017  0.76609  0.78408  Biso   1.000  C
  C226     1.0000 0.62776  0.73787  0.87458  Biso   1.000  C
  C227     1.0000 0.62767  0.73787  0.87458  Biso   1.000  C
  C228     1.0000 0.44017  0.76614  0.78408  Biso   1.000  C
  C229     1.0000 0.62776  0.73793  0.87458  Biso   1.000  C
  C230     1.0000 0.62767  0.73793  0.87458  Biso   1.000  C
  H237     1.0000 0.28734  0.79329  0.71439  Biso   1.000  H
  H238     1.0000 0.28725  0.79329  0.71439  Biso   1.000  H
  H239     1.0000 0.28734  0.79335  0.71439  Biso   1.000  H
  H240     1.0000 0.28725  0.79335  0.71439  Biso   1.000  H
  C231     1.0000 0.26837  0.04423  0.57718  Biso   1.000  C
  C232     1.0000 0.26837  0.04417  0.57718  Biso   1.000  C
  C233     1.0000 0.11056  0.99933  0.91891  Biso   1.000  C
  H241     1.0000 0.17120  0.94340  0.83780  Biso   1.000  H
  C234     1.0000 0.11046  0.99933  0.91891  Biso   1.000  C
  H242     1.0000 0.12458  0.02439  0.81699  Biso   1.000  H
  H243     1.0000 0.12458  0.02445  0.81699  Biso   1.000  H
  H244     1.0000 0.99096  0.79048  0.64358  Biso   1.000  H
  H245     1.0000 0.99096  0.79054  0.64358  Biso   1.000  H
  C235     1.0000 0.96552  0.78418  0.84380  Biso   1.000  C
  C236     1.0000 0.96552  0.78424  0.84380  Biso   1.000  C
  C237     1.0000 0.96542  0.78418  0.84380  Biso   1.000  C
  C238     1.0000 0.96542  0.78424  0.84380  Biso   1.000  C
  H246     1.0000 0.12444  0.81459  0.80479  Biso   1.000  H
  H247     1.0000 0.05000  0.75322  0.75962  Biso   1.000  H
  H248     1.0000 0.12435  0.81459  0.80479  Biso   1.000  H
  H249     1.0000 0.12444  0.81465  0.80479  Biso   1.000  H
  H250     1.0000 0.12435  0.81465  0.80479  Biso   1.000  H
  C239     1.0000 0.77039  0.94458  0.98499  Biso   1.000  C
  H251     1.0000 0.62448  0.86882  0.97931  Biso   1.000  H
  H252     1.0000 0.57787  0.95032  0.95972  Biso   1.000  H
  H253     1.0000 0.62438  0.86882  0.97931  Biso   1.000  H
  H254     1.0000 0.57778  0.95032  0.95972  Biso   1.000  H
  C240     1.0000 0.77039  0.94464  0.98499  Biso   1.000  C
  H255     1.0000 0.43098  0.71292  0.77713  Biso   1.000  H
  C241     1.0000 0.76838  0.75440  0.88839  Biso   1.000  C
  H256     1.0000 0.59856  0.73180  0.91991  Biso   1.000  H
  H257     1.0000 0.61765  0.69022  0.85091  Biso   1.000  H
  H258     1.0000 0.59846  0.73180  0.91991  Biso   1.000  H
  H259     1.0000 0.61756  0.69022  0.85091  Biso   1.000  H
  H260     1.0000 0.20888  0.07672  0.59560  Biso   1.000  H
  H261     1.0000 0.28884  0.06598  0.53403  Biso   1.000  H
  H262     1.0000 0.28874  0.06598  0.53403  Biso   1.000  H
  H263     1.0000 0.28884  0.06604  0.53403  Biso   1.000  H
  H264     1.0000 0.28874  0.06604  0.53403  Biso   1.000  H
  C242     1.0000 0.20805  0.96909  0.56089  Biso   1.000  C
  C243     1.0000 0.20805  0.96915  0.56089  Biso   1.000  C
  H265     1.0000 0.09401  0.95521  0.94523  Biso   1.000  H
  O46      1.0000 0.23201  0.02928  0.94582  Biso   1.000  O
  H266     1.0000 0.04637  0.03569  0.92443  Biso   1.000  H
  H267     1.0000 0.04627  0.03569  0.92443  Biso   1.000  H
  O47      1.0000 0.23201  0.02934  0.94582  Biso   1.000  O
  H268     1.0000 0.04637  0.03574  0.92443  Biso   1.000  H
  H269     1.0000 0.04627  0.03574  0.92443  Biso   1.000  H
  C244     1.0000 0.83725  0.76592  0.83249  Biso   1.000  C
  C245     1.0000 0.83715  0.76592  0.83249  Biso   1.000  C
  C246     1.0000 0.02345  0.78581  0.91349  Biso   1.000  C
  C247     1.0000 0.02336  0.78581  0.91349  Biso   1.000  C
  H270     1.0000 0.83260  0.90581  0.98499  Biso   1.000  H
  H271     1.0000 0.79284  0.98499  0.95553  Biso   1.000  H
  H272     1.0000 0.79275  0.98499  0.95553  Biso   1.000  H
  O48      1.0000 0.76816  0.97072  0.05420  Biso   1.000  O
  O49      1.0000 0.76807  0.97072  0.05420  Biso   1.000  O
  C248     1.0000 0.83104  0.75541  0.95670  Biso   1.000  C
  C249     1.0000 0.83095  0.75541  0.95670  Biso   1.000  C
  O50      1.0000 0.28182  0.92559  0.51917  Biso   1.000  O
  H273     1.0000 0.12512  0.97589  0.53573  Biso   1.000  H
  H274     1.0000 0.20029  0.94312  0.60441  Biso   1.000  H
  O51      1.0000 0.28172  0.92559  0.51917  Biso   1.000  O
  H275     1.0000 0.12503  0.97589  0.53573  Biso   1.000  H
  O52      1.0000 0.28182  0.92564  0.51917  Biso   1.000  O
  H276     1.0000 0.12512  0.97595  0.53573  Biso   1.000  H
  O53      1.0000 0.28172  0.92564  0.51917  Biso   1.000  O
  H277     1.0000 0.12503  0.97595  0.53573  Biso   1.000  H
  C250     1.0000 0.22977  0.05542  0.01503  Biso   1.000  C
  C251     1.0000 0.22968  0.05542  0.01503  Biso   1.000  C
  O54      1.0000 0.77447  0.76311  0.76328  Biso   1.000  O
  O55      1.0000 0.77447  0.76317  0.76328  Biso   1.000  O
  C252     1.0000 0.95710  0.77109  0.96933  Biso   1.000  C
  H278     1.0000 0.11151  0.79739  0.92299  Biso   1.000  H
  C253     1.0000 0.88961  0.00067  0.08112  Biso   1.000  C
  C254     1.0000 0.88961  0.00073  0.08112  Biso   1.000  C
  H279     1.0000 0.78556  0.74507  0.99592  Biso   1.000  H
  H280     1.0000 0.78546  0.74507  0.99592  Biso   1.000  H
  H281     1.0000 0.78556  0.74512  0.99592  Biso   1.000  H
  H282     1.0000 0.78546  0.74512  0.99592  Biso   1.000  H
  C255     1.0000 0.24796  0.84842  0.51619  Biso   1.000  C
  C256     1.0000 0.35727  0.08588  0.04460  Biso   1.000  C
  H283     1.0000 0.16757  0.09419  0.01503  Biso   1.000  H
  H284     1.0000 0.20733  0.01501  0.04449  Biso   1.000  H
  C257     1.0000 0.35717  0.08588  0.04460  Biso   1.000  C
  H285     1.0000 0.16747  0.09419  0.01503  Biso   1.000  H
  C258     1.0000 0.35727  0.08593  0.04460  Biso   1.000  C
  H286     1.0000 0.16757  0.09425  0.01503  Biso   1.000  H
  C259     1.0000 0.35717  0.08593  0.04460  Biso   1.000  C
  H287     1.0000 0.16747  0.09425  0.01503  Biso   1.000  H
  C260     1.0000 0.78500  0.69342  0.72718  Biso   1.000  C
  H288     1.0000 0.99936  0.77171  0.01710  Biso   1.000  H
  H289     1.0000 0.99927  0.77171  0.01710  Biso   1.000  H
  H290     1.0000 0.95380  0.96431  0.07560  Biso   1.000  H
  C261     1.0000 0.89198  0.01961  0.15643  Biso   1.000  C
  H291     1.0000 0.90616  0.04479  0.05479  Biso   1.000  H
  C262     1.0000 0.89187  0.01961  0.15638  Biso   1.000  C
  H292     1.0000 0.90607  0.04479  0.05479  Biso   1.000  H
  H293     1.0000 0.90616  0.04485  0.05479  Biso   1.000  H
  H294     1.0000 0.90607  0.04485  0.05479  Biso   1.000  H
  C263     1.0000 0.34737  0.80318  0.48631  Biso   1.000  C
  H295     1.0000 0.23909  0.83072  0.56301  Biso   1.000  H
  H296     1.0000 0.16861  0.84219  0.48679  Biso   1.000  H
  H297     1.0000 0.16852  0.84219  0.48679  Biso   1.000  H
  C264     1.0000 0.34737  0.80324  0.48631  Biso   1.000  C
  H298     1.0000 0.16861  0.84224  0.48679  Biso   1.000  H
  H299     1.0000 0.16852  0.84224  0.48679  Biso   1.000  H
  O56      1.0000 0.34566  0.10010  0.11689  Biso   1.000  O
  H300     1.0000 0.37569  0.13118  0.02071  Biso   1.000  H
  H301     1.0000 0.42230  0.04968  0.04030  Biso   1.000  H
  O57      1.0000 0.34557  0.10010  0.11689  Biso   1.000  O
  O58      1.0000 0.34566  0.10015  0.11689  Biso   1.000  O
  H302     1.0000 0.37569  0.13123  0.02071  Biso   1.000  H
  H303     1.0000 0.42230  0.04974  0.04030  Biso   1.000  H
  O59      1.0000 0.34557  0.10015  0.11689  Biso   1.000  O
  C265     1.0000 0.68689  0.68842  0.66423  Biso   1.000  C
  C266     1.0000 0.68688  0.68842  0.66418  Biso   1.000  C
  H304     1.0000 0.86712  0.68948  0.71243  Biso   1.000  H
  H305     1.0000 0.77516  0.65250  0.75903  Biso   1.000  H
  H306     1.0000 0.77507  0.65250  0.75903  Biso   1.000  H
  H307     1.0000 0.86712  0.68954  0.71243  Biso   1.000  H
  H308     1.0000 0.86702  0.68948  0.71243  Biso   1.000  H
  H309     1.0000 0.86702  0.68954  0.71243  Biso   1.000  H
  H310     1.0000 0.87559  0.97561  0.18303  Biso   1.000  H
  H311     1.0000 0.87549  0.97561  0.18303  Biso   1.000  H
  H312     1.0000 0.82897  0.05660  0.16222  Biso   1.000  H
  H313     1.0000 0.82888  0.05660  0.16222  Biso   1.000  H
  H314     1.0000 0.82897  0.05665  0.16222  Biso   1.000  H
  H315     1.0000 0.82888  0.05665  0.16222  Biso   1.000  H
  O60      1.0000 0.01430  0.04822  0.18027  Biso   1.000  O
  O61      1.0000 0.01421  0.04822  0.18027  Biso   1.000  O
  O62      1.0000 0.01430  0.04828  0.18027  Biso   1.000  O
  O63      1.0000 0.01421  0.04828  0.18027  Biso   1.000  O
  O64      1.0000 0.47195  0.81600  0.51980  Biso   1.000  O
  H316     1.0000 0.34391  0.81459  0.43668  Biso   1.000  H
  H317     1.0000 0.32822  0.75080  0.49029  Biso   1.000  H
  H318     1.0000 0.34381  0.81459  0.43668  Biso   1.000  H
  H319     1.0000 0.32813  0.75080  0.49029  Biso   1.000  H
  O65      1.0000 0.47195  0.81605  0.51980  Biso   1.000  O
  H320     1.0000 0.34391  0.81465  0.43668  Biso   1.000  H
  H321     1.0000 0.34381  0.81465  0.43668  Biso   1.000  H
  C267     1.0000 0.44972  0.12910  0.15973  Biso   1.000  C
  C268     1.0000 0.44972  0.12915  0.15973  Biso   1.000  C
  O66      1.0000 0.69270  0.74355  0.61275  Biso   1.000  O
  O67      1.0000 0.69270  0.74361  0.61275  Biso   1.000  O
  O68      1.0000 0.69261  0.74355  0.61275  Biso   1.000  O
  O69      1.0000 0.69261  0.74361  0.61275  Biso   1.000  O
  H322     1.0000 0.60562  0.69089  0.68021  Biso   1.000  H
  H323     1.0000 0.69359  0.64008  0.64252  Biso   1.000  H
  H324     1.0000 0.60553  0.69089  0.68021  Biso   1.000  H
  H325     1.0000 0.69359  0.64014  0.64252  Biso   1.000  H
  C269     1.0000 0.03378  0.06778  0.25129  Biso   1.000  C
  C270     1.0000 0.03369  0.06778  0.25129  Biso   1.000  C
  C271     1.0000 0.03378  0.06784  0.25129  Biso   1.000  C
  C272     1.0000 0.03369  0.06784  0.25129  Biso   1.000  C
  C273     1.0000 0.48734  0.80650  0.59449  Biso   1.000  C
  C274     1.0000 0.48724  0.80650  0.59449  Biso   1.000  C
  C275     1.0000 0.46048  0.20699  0.16779  Biso   1.000  C
  C276     1.0000 0.53333  0.07930  0.19773  Biso   1.000  C
  C277     1.0000 0.46039  0.20699  0.16779  Biso   1.000  C
  C278     1.0000 0.46048  0.20705  0.16779  Biso   1.000  C
  C279     1.0000 0.46039  0.20705  0.16779  Biso   1.000  C
  C280     1.0000 0.62483  0.80998  0.62288  Biso   1.000  C
  C281     1.0000 0.62474  0.80998  0.62288  Biso   1.000  C
  C282     1.0000 0.62483  0.81004  0.62288  Biso   1.000  C
  C283     1.0000 0.62474  0.81004  0.62288  Biso   1.000  C
  C284     1.0000 0.08197  0.01439  0.30123  Biso   1.000  C
  C285     1.0000 0.00851  0.14152  0.27024  Biso   1.000  C
  C286     1.0000 0.00840  0.14152  0.27018  Biso   1.000  C
  C287     1.0000 0.08197  0.01444  0.30123  Biso   1.000  C
  C288     1.0000 0.00841  0.14152  0.27024  Biso   1.000  C
  H326     1.0000 0.44263  0.84539  0.61582  Biso   1.000  H
  H327     1.0000 0.45334  0.75889  0.60611  Biso   1.000  H
  H328     1.0000 0.44254  0.84539  0.61582  Biso   1.000  H
  H329     1.0000 0.45325  0.75889  0.60611  Biso   1.000  H
  H330     1.0000 0.44263  0.84544  0.61582  Biso   1.000  H
  H331     1.0000 0.44254  0.84544  0.61582  Biso   1.000  H
  C289     1.0000 0.55999  0.23391  0.21594  Biso   1.000  C
  C290     1.0000 0.37241  0.26213  0.12544  Biso   1.000  C
  C291     1.0000 0.55989  0.23391  0.21588  Biso   1.000  C
  C292     1.0000 0.37240  0.26213  0.12538  Biso   1.000  C
  C293     1.0000 0.52893  0.99449  0.18849  Biso   1.000  C
  C294     1.0000 0.52893  0.99455  0.18849  Biso   1.000  C
  C295     1.0000 0.63194  0.10999  0.24402  Biso   1.000  C
  C296     1.0000 0.63194  0.11004  0.24402  Biso   1.000  C
  H332     1.0000 0.63285  0.82072  0.67283  Biso   1.000  H
  H333     1.0000 0.66244  0.85101  0.60032  Biso   1.000  H
  H334     1.0000 0.63276  0.82072  0.67283  Biso   1.000  H
  H335     1.0000 0.66234  0.85101  0.60032  Biso   1.000  H
  C297     1.0000 0.11223  0.93520  0.27963  Biso   1.000  C
  C298     1.0000 0.09878  0.03591  0.37162  Biso   1.000  C
  C299     1.0000 0.09869  0.03591  0.37162  Biso   1.000  C
  C300     1.0000 0.95862  0.20042  0.21583  Biso   1.000  C
  C301     1.0000 0.02739  0.15950  0.34189  Biso   1.000  C
  C302     1.0000 0.02730  0.15950  0.34189  Biso   1.000  C
  H336     1.0000 0.56918  0.28708  0.22289  Biso   1.000  H
  C303     1.0000 0.64461  0.18670  0.25309  Biso   1.000  C
  H337     1.0000 0.56909  0.28708  0.22289  Biso   1.000  H
  H338     1.0000 0.56918  0.28714  0.22289  Biso   1.000  H
  H339     1.0000 0.56909  0.28714  0.22289  Biso   1.000  H
  C304     1.0000 0.23179  0.24560  0.11164  Biso   1.000  C
  H340     1.0000 0.40161  0.26820  0.08011  Biso   1.000  H
  H341     1.0000 0.38252  0.30978  0.14911  Biso   1.000  H
  C305     1.0000 0.23168  0.24560  0.11158  Biso   1.000  C
  H342     1.0000 0.40161  0.26825  0.08011  Biso   1.000  H
  H343     1.0000 0.38252  0.30984  0.14911  Biso   1.000  H
  C306     1.0000 0.40213  0.95509  0.18069  Biso   1.000  C
  H344     1.0000 0.56837  0.98258  0.14741  Biso   1.000  H
  H345     1.0000 0.58017  0.97280  0.22873  Biso   1.000  H
  H346     1.0000 0.56828  0.98258  0.14741  Biso   1.000  H
  H347     1.0000 0.58008  0.97280  0.22873  Biso   1.000  H
  H348     1.0000 0.56837  0.98263  0.14741  Biso   1.000  H
  H349     1.0000 0.56828  0.98263  0.14741  Biso   1.000  H
  H350     1.0000 0.69230  0.07711  0.27013  Biso   1.000  H
  H351     1.0000 0.69221  0.07711  0.27013  Biso   1.000  H
  C307     1.0000 0.20398  0.92559  0.22613  Biso   1.000  C
  H352     1.0000 0.14504  0.90822  0.32172  Biso   1.000  H
  H353     1.0000 0.03459  0.91143  0.26074  Biso   1.000  H
  C308     1.0000 0.20388  0.92559  0.22613  Biso   1.000  C
  H354     1.0000 0.03450  0.91143  0.26074  Biso   1.000  H
  C309     1.0000 0.20398  0.92564  0.22613  Biso   1.000  C
  C310     1.0000 0.20388  0.92564  0.22613  Biso   1.000  C
  H355     1.0000 0.13052  0.99989  0.40713  Biso   1.000  H
  H356     1.0000 0.13043  0.99989  0.40713  Biso   1.000  H
  H357     1.0000 0.13052  0.99994  0.40713  Biso   1.000  H
  H358     1.0000 0.13043  0.99994  0.40713  Biso   1.000  H
  C311     1.0000 0.07139  0.10763  0.39232  Biso   1.000  C
  C312     1.0000 0.07130  0.10763  0.39232  Biso   1.000  C
  H359     1.0000 0.87573  0.18541  0.19524  Biso   1.000  H
  H360     1.0000 0.95017  0.24678  0.24041  Biso   1.000  H
  H361     1.0000 0.87572  0.18541  0.19518  Biso   1.000  H
  H362     1.0000 0.95017  0.24684  0.24041  Biso   1.000  H
  H363     1.0000 0.95007  0.24678  0.24041  Biso   1.000  H
  H364     1.0000 0.95007  0.24684  0.24041  Biso   1.000  H
  C313     1.0000 0.03465  0.21582  0.15622  Biso   1.000  C
  H365     1.0000 0.00921  0.20952  0.35644  Biso   1.000  H
  H366     1.0000 0.00910  0.20952  0.35638  Biso   1.000  H
  H367     1.0000 0.71283  0.20671  0.28563  Biso   1.000  H
  C314     1.0000 0.16292  0.23408  0.16753  Biso   1.000  C
  C315     1.0000 0.16913  0.24459  0.04332  Biso   1.000  C
  C316     1.0000 0.16292  0.23414  0.16753  Biso   1.000  C
  C317     1.0000 0.16913  0.24465  0.04332  Biso   1.000  C
  C318     1.0000 0.32295  0.95948  0.23361  Biso   1.000  C
  C319     1.0000 0.36290  0.90991  0.12151  Biso   1.000  C
  C320     1.0000 0.32295  0.95953  0.23361  Biso   1.000  C
  C321     1.0000 0.16946  0.88271  0.16594  Biso   1.000  C
  C322     1.0000 0.16945  0.88271  0.16588  Biso   1.000  C
  C323     1.0000 0.16936  0.88271  0.16588  Biso   1.000  C
  H368     1.0000 0.08300  0.12100  0.44163  Biso   1.000  H
  H369     1.0000 0.08291  0.12100  0.44163  Biso   1.000  H
  C324     1.0000 0.97672  0.21419  0.08653  Biso   1.000  C
  C325     1.0000 0.97672  0.21424  0.08653  Biso   1.000  C
  O70      1.0000 0.22570  0.23689  0.23674  Biso   1.000  O
  O71      1.0000 0.22561  0.23689  0.23674  Biso   1.000  O
  C326     1.0000 0.04307  0.22891  0.03069  Biso   1.000  C
  H370     1.0000 0.21461  0.25493  0.00410  Biso   1.000  H
  C327     1.0000 0.04298  0.22891  0.03069  Biso   1.000  C
  O72      1.0000 0.36962  0.99904  0.29428  Biso   1.000  O
  O73      1.0000 0.36962  0.99910  0.29428  Biso   1.000  O
  H371     1.0000 0.41653  0.90401  0.08520  Biso   1.000  H
  C328     1.0000 0.24776  0.87371  0.11482  Biso   1.000  C
  C329     1.0000 0.24766  0.87371  0.11482  Biso   1.000  C
  H372     1.0000 0.08853  0.85860  0.15973  Biso   1.000  H
  H373     1.0000 0.88866  0.20261  0.07703  Biso   1.000  H
  H374     1.0000 0.88857  0.20261  0.07703  Biso   1.000  H
  C330     1.0000 0.21517  0.30658  0.27284  Biso   1.000  C
  C331     1.0000 0.21515  0.30658  0.27278  Biso   1.000  C
  C332     1.0000 0.21517  0.30664  0.27284  Biso   1.000  C
  C333     1.0000 0.21515  0.30664  0.27278  Biso   1.000  C
  H375     1.0000 0.00081  0.22829  0.98292  Biso   1.000  H
  H376     1.0000 0.00081  0.22835  0.98292  Biso   1.000  H
  C334     1.0000 0.39545  0.95279  0.35649  Biso   1.000  C
  C335     1.0000 0.39545  0.95285  0.35649  Biso   1.000  C
  H377     1.0000 0.22256  0.84219  0.07453  Biso   1.000  H
  H378     1.0000 0.22247  0.84219  0.07453  Biso   1.000  H
  H379     1.0000 0.22256  0.84224  0.07453  Biso   1.000  H
  H380     1.0000 0.22247  0.84224  0.07453  Biso   1.000  H
  H381     1.0000 0.13305  0.31052  0.28759  Biso   1.000  H
  H382     1.0000 0.22501  0.34750  0.24099  Biso   1.000  H
  C336     1.0000 0.31328  0.31158  0.33579  Biso   1.000  C
  C337     1.0000 0.31319  0.31158  0.33579  Biso   1.000  C
  H383     1.0000 0.22501  0.34755  0.24099  Biso   1.000  H
  C338     1.0000 0.31328  0.31164  0.33579  Biso   1.000  C
  C339     1.0000 0.31319  0.31164  0.33579  Biso   1.000  C
  C340     1.0000 0.51021  0.97729  0.40309  Biso   1.000  C
  H384     1.0000 0.40604  0.90170  0.34221  Biso   1.000  H
  H385     1.0000 0.32480  0.95459  0.38271  Biso   1.000  H
  C341     1.0000 0.51011  0.97729  0.40309  Biso   1.000  C
  H386     1.0000 0.32471  0.95459  0.38271  Biso   1.000  H
  H387     1.0000 0.32480  0.95465  0.38271  Biso   1.000  H
  H388     1.0000 0.32471  0.95465  0.38271  Biso   1.000  H
  O74      1.0000 0.30746  0.25645  0.38728  Biso   1.000  O
  H389     1.0000 0.39455  0.30911  0.31981  Biso   1.000  H
  H390     1.0000 0.30658  0.35992  0.35750  Biso   1.000  H
  H391     1.0000 0.30649  0.35992  0.35750  Biso   1.000  H
  O75      1.0000 0.61986  0.95931  0.37268  Biso   1.000  O
  H392     1.0000 0.51325  0.95307  0.44853  Biso   1.000  H
  H393     1.0000 0.51325  0.95313  0.44853  Biso   1.000  H
  H394     1.0000 0.50680  0.03057  0.41052  Biso   1.000  H
  H395     1.0000 0.50671  0.03057  0.41052  Biso   1.000  H
  H396     1.0000 0.50680  0.03063  0.41052  Biso   1.000  H
  H397     1.0000 0.50671  0.03063  0.41052  Biso   1.000  H
  C342     1.0000 0.37534  0.19002  0.37714  Biso   1.000  C
  C343     1.0000 0.37533  0.19002  0.37708  Biso   1.000  C
  C344     1.0000 0.73180  0.95583  0.42284  Biso   1.000  C
  C345     1.0000 0.73169  0.95583  0.42279  Biso   1.000  C
  H398     1.0000 0.36732  0.17928  0.32719  Biso   1.000  H
  H399     1.0000 0.33773  0.14899  0.39970  Biso   1.000  H
  C346     1.0000 0.51283  0.19350  0.40553  Biso   1.000  C
  H400     1.0000 0.36732  0.17934  0.32719  Biso   1.000  H
  H401     1.0000 0.33773  0.14905  0.39970  Biso   1.000  H
  H402     1.0000 0.79129  0.92328  0.40442  Biso   1.000  H
  H403     1.0000 0.71133  0.93402  0.46599  Biso   1.000  H
  H404     1.0000 0.79120  0.92328  0.40442  Biso   1.000  H
  H405     1.0000 0.79129  0.92334  0.40442  Biso   1.000  H
  H406     1.0000 0.79120  0.92334  0.40442  Biso   1.000  H
  C347     1.0000 0.79211  0.03091  0.43913  Biso   1.000  C
  C348     1.0000 0.79202  0.03091  0.43913  Biso   1.000  C
  O76      1.0000 0.52822  0.18400  0.48022  Biso   1.000  O
  H407     1.0000 0.55754  0.15461  0.38420  Biso   1.000  H
  H408     1.0000 0.54682  0.24111  0.39391  Biso   1.000  H
  O77      1.0000 0.52813  0.18400  0.48022  Biso   1.000  O
  O78      1.0000 0.71835  0.07441  0.48085  Biso   1.000  O
  H409     1.0000 0.87505  0.02411  0.46429  Biso   1.000  H
  H410     1.0000 0.79988  0.05688  0.39561  Biso   1.000  H
  H411     1.0000 0.79979  0.05688  0.39561  Biso   1.000  H
  H412     1.0000 0.79988  0.05693  0.39561  Biso   1.000  H
  H413     1.0000 0.79979  0.05693  0.39561  Biso   1.000  H
  C349     1.0000 0.65280  0.19682  0.51371  Biso   1.000  C
  C350     1.0000 0.65270  0.19682  0.51371  Biso   1.000  C
  C351     1.0000 0.75221  0.15158  0.48383  Biso   1.000  C
  C352     1.0000 0.75211  0.15158  0.48383  Biso   1.000  C
  C353     1.0000 0.75221  0.15163  0.48383  Biso   1.000  C
  C354     1.0000 0.75211  0.15163  0.48383  Biso   1.000  C
  H414     1.0000 0.65626  0.18541  0.56334  Biso   1.000  H
  H415     1.0000 0.67195  0.24920  0.50973  Biso   1.000  H
  H416     1.0000 0.65625  0.18541  0.56329  Biso   1.000  H
  H417     1.0000 0.67195  0.24926  0.50973  Biso   1.000  H
  H418     1.0000 0.76108  0.16928  0.43701  Biso   1.000  H
  H419     1.0000 0.83156  0.15781  0.51323  Biso   1.000  H
  H420     1.0000 0.76108  0.16934  0.43701  Biso   1.000  H
  H421     1.0000 0.76098  0.16928  0.43701  Biso   1.000  H
  H422     1.0000 0.76098  0.16934  0.43701  Biso   1.000  H
  C355     1.0000 0.75241  0.12629  0.88520  Biso   1.000  C
  C356     1.0000 0.83071  0.11729  0.83409  Biso   1.000  C
  C357     1.0000 0.83071  0.11735  0.83409  Biso   1.000  C
  C358     1.0000 0.63718  0.09009  0.87851  Biso   1.000  C
  C359     1.0000 0.63718  0.09015  0.87851  Biso   1.000  C
  C360     1.0000 0.63727  0.09009  0.87851  Biso   1.000  C
  C361     1.0000 0.63727  0.09015  0.87851  Biso   1.000  C
  H423     1.0000 0.77761  0.15781  0.92549  Biso   1.000  H
  C362     1.0000 0.79619  0.07441  0.77389  Biso   1.000  C
  H424     1.0000 0.91164  0.14140  0.84030  Biso   1.000  H
  H425     1.0000 0.91155  0.14140  0.84030  Biso   1.000  H
  C363     1.0000 0.75241  0.12634  0.88520  Biso   1.000  C
  C364     1.0000 0.59804  0.04491  0.81933  Biso   1.000  C
  C365     1.0000 0.59795  0.04491  0.81933  Biso   1.000  C
  H426     1.0000 0.58363  0.09599  0.91482  Biso   1.000  H
  H427     1.0000 0.58363  0.09605  0.91482  Biso   1.000  H
  H428     1.0000 0.58354  0.09599  0.91482  Biso   1.000  H
  H429     1.0000 0.58354  0.09605  0.91482  Biso   1.000  H
  C366     1.0000 0.67722  0.04052  0.76641  Biso   1.000  C
  C367     1.0000 0.67713  0.04052  0.76641  Biso   1.000  C
  C368     1.0000 0.88794  0.06480  0.72039  Biso   1.000  C
  C369     1.0000 0.88784  0.06480  0.72039  Biso   1.000  C
  C370     1.0000 0.47124  0.00551  0.81153  Biso   1.000  C
  C371     1.0000 0.47115  0.00551  0.81153  Biso   1.000  C
  O79      1.0000 0.63045  0.00096  0.70574  Biso   1.000  O
  O80      1.0000 0.63055  0.00096  0.70574  Biso   1.000  O
  H430     1.0000 0.96558  0.08857  0.73929  Biso   1.000  H
  H431     1.0000 0.96558  0.08863  0.73929  Biso   1.000  H
  C372     1.0000 0.91820  0.98561  0.69879  Biso   1.000  C
  H432     1.0000 0.85513  0.09178  0.67830  Biso   1.000  H
  H433     1.0000 0.85503  0.09178  0.67830  Biso   1.000  H
  H434     1.0000 0.85513  0.09183  0.67830  Biso   1.000  H
  H435     1.0000 0.85503  0.09183  0.67830  Biso   1.000  H
  H436     1.0000 0.43180  0.01742  0.85261  Biso   1.000  H
  H437     1.0000 0.42000  0.02720  0.77129  Biso   1.000  H
  C373     1.0000 0.46684  0.92070  0.80229  Biso   1.000  C
  C374     1.0000 0.46675  0.92070  0.80229  Biso   1.000  C
  C375     1.0000 0.60471  0.04721  0.64353  Biso   1.000  C
  C376     1.0000 0.60470  0.04721  0.64348  Biso   1.000  C
  C377     1.0000 0.60461  0.04721  0.64348  Biso   1.000  C
  C378     1.0000 0.96639  0.93222  0.74873  Biso   1.000  C
  C379     1.0000 0.90139  0.96409  0.62840  Biso   1.000  C
  C380     1.0000 0.96637  0.93222  0.74868  Biso   1.000  C
  C381     1.0000 0.90139  0.96414  0.62840  Biso   1.000  C
  C382     1.0000 0.55044  0.87090  0.84030  Biso   1.000  C
  C383     1.0000 0.36823  0.89001  0.75601  Biso   1.000  C
  C384     1.0000 0.55035  0.87090  0.84030  Biso   1.000  C
  C385     1.0000 0.36814  0.89001  0.75601  Biso   1.000  C
  C386     1.0000 0.48996  0.02271  0.59693  Biso   1.000  C
  H438     1.0000 0.67537  0.04541  0.61731  Biso   1.000  H
  H439     1.0000 0.59413  0.09830  0.65781  Biso   1.000  H
  H440     1.0000 0.59404  0.09830  0.65781  Biso   1.000  H
  O81      1.0000 0.98587  0.95178  0.81975  Biso   1.000  O
  C387     1.0000 0.99166  0.85848  0.72978  Biso   1.000  C
  C388     1.0000 0.99166  0.85854  0.72978  Biso   1.000  C
  H441     1.0000 0.86965  0.00011  0.59289  Biso   1.000  H
  C389     1.0000 0.92878  0.89237  0.60770  Biso   1.000  C
  C390     1.0000 0.92878  0.89243  0.60770  Biso   1.000  C
  O82      1.0000 0.65451  0.89990  0.88313  Biso   1.000  O
  C391     1.0000 0.53969  0.79301  0.83223  Biso   1.000  C
  C392     1.0000 0.35556  0.81330  0.74693  Biso   1.000  C
  H442     1.0000 0.30787  0.92289  0.72989  Biso   1.000  H
  C393     1.0000 0.35546  0.81330  0.74693  Biso   1.000  C
  H443     1.0000 0.30787  0.92295  0.72989  Biso   1.000  H
  O83      1.0000 0.38031  0.04069  0.62734  Biso   1.000  O
  O84      1.0000 0.38022  0.04069  0.62734  Biso   1.000  O
  H444     1.0000 0.48692  0.04693  0.55149  Biso   1.000  H
  H445     1.0000 0.48682  0.04693  0.55149  Biso   1.000  H
  H446     1.0000 0.49337  0.96943  0.58950  Biso   1.000  H
  C394     1.0000 0.10819  0.98039  0.84359  Biso   1.000  C
  C395     1.0000 0.10819  0.98044  0.84359  Biso   1.000  C
  C396     1.0000 0.97278  0.84050  0.65813  Biso   1.000  C
  C397     1.0000 0.04154  0.79958  0.78419  Biso   1.000  C
  C398     1.0000 0.04145  0.79958  0.78419  Biso   1.000  C
  C399     1.0000 0.04154  0.79964  0.78419  Biso   1.000  C
  C400     1.0000 0.04145  0.79964  0.78419  Biso   1.000  C
  H447     1.0000 0.91717  0.87900  0.55839  Biso   1.000  H
  C401     1.0000 0.64290  0.91412  0.95542  Biso   1.000  C
  C402     1.0000 0.44017  0.76609  0.78408  Biso   1.000  C
  C403     1.0000 0.62776  0.73787  0.87458  Biso   1.000  C
  C404     1.0000 0.62767  0.73787  0.87458  Biso   1.000  C
  C405     1.0000 0.44017  0.76614  0.78408  Biso   1.000  C
  C406     1.0000 0.62776  0.73793  0.87458  Biso   1.000  C
  C407     1.0000 0.62767  0.73793  0.87458  Biso   1.000  C
  H448     1.0000 0.28734  0.79329  0.71439  Biso   1.000  H
  H449     1.0000 0.28725  0.79329  0.71439  Biso   1.000  H
  H450     1.0000 0.28734  0.79335  0.71439  Biso   1.000  H
  H451     1.0000 0.28725  0.79335  0.71439  Biso   1.000  H
  C408     1.0000 0.26837  0.04423  0.57718  Biso   1.000  C
  C409     1.0000 0.26837  0.04417  0.57718  Biso   1.000  C
  C410     1.0000 0.11056  0.99933  0.91891  Biso   1.000  C
  H452     1.0000 0.17120  0.94340  0.83780  Biso   1.000  H
  C411     1.0000 0.11046  0.99933  0.91891  Biso   1.000  C
  H453     1.0000 0.12458  0.02439  0.81699  Biso   1.000  H
  H454     1.0000 0.12458  0.02445  0.81699  Biso   1.000  H
  H455     1.0000 0.99096  0.79048  0.64358  Biso   1.000  H
  H456     1.0000 0.99096  0.79054  0.64358  Biso   1.000  H
  C412     1.0000 0.96552  0.78418  0.84380  Biso   1.000  C
  C413     1.0000 0.96552  0.78424  0.84380  Biso   1.000  C
  C414     1.0000 0.96542  0.78418  0.84380  Biso   1.000  C
  C415     1.0000 0.96542  0.78424  0.84380  Biso   1.000  C
  H457     1.0000 0.12444  0.81459  0.80479  Biso   1.000  H
  H458     1.0000 0.05000  0.75322  0.75962  Biso   1.000  H
  H459     1.0000 0.12435  0.81459  0.80479  Biso   1.000  H
  H460     1.0000 0.12444  0.81465  0.80479  Biso   1.000  H
  H461     1.0000 0.12435  0.81465  0.80479  Biso   1.000  H
  C416     1.0000 0.77039  0.94458  0.98499  Biso   1.000  C
  H462     1.0000 0.62448  0.86882  0.97931  Biso   1.000  H
  H463     1.0000 0.57787  0.95032  0.95972  Biso   1.000  H
  H464     1.0000 0.62438  0.86882  0.97931  Biso   1.000  H
  H465     1.0000 0.57778  0.95032  0.95972  Biso   1.000  H
  C417     1.0000 0.77039  0.94464  0.98499  Biso   1.000  C
  H466     1.0000 0.43098  0.71292  0.77713  Biso   1.000  H
  C418     1.0000 0.76838  0.75440  0.88839  Biso   1.000  C
  H467     1.0000 0.59856  0.73180  0.91991  Biso   1.000  H
  H468     1.0000 0.61765  0.69022  0.85091  Biso   1.000  H
  H469     1.0000 0.59846  0.73180  0.91991  Biso   1.000  H
  H470     1.0000 0.61756  0.69022  0.85091  Biso   1.000  H
  H471     1.0000 0.20888  0.07672  0.59560  Biso   1.000  H
  C419     1.0000 0.20805  0.96909  0.56089  Biso   1.000  C
  C420     1.0000 0.20805  0.96915  0.56089  Biso   1.000  C
  H472     1.0000 0.28884  0.06598  0.53403  Biso   1.000  H
  H473     1.0000 0.28874  0.06598  0.53403  Biso   1.000  H
  H474     1.0000 0.28884  0.06604  0.53403  Biso   1.000  H
  H475     1.0000 0.28874  0.06604  0.53403  Biso   1.000  H
  H476     1.0000 0.09401  0.95521  0.94523  Biso   1.000  H
  O85      1.0000 0.23201  0.02928  0.94582  Biso   1.000  O
  H477     1.0000 0.04637  0.03569  0.92443  Biso   1.000  H
  H478     1.0000 0.04627  0.03569  0.92443  Biso   1.000  H
  O86      1.0000 0.23201  0.02934  0.94582  Biso   1.000  O
  H479     1.0000 0.04637  0.03574  0.92443  Biso   1.000  H
  H480     1.0000 0.04627  0.03574  0.92443  Biso   1.000  H
  C421     1.0000 0.83725  0.76592  0.83249  Biso   1.000  C
  C422     1.0000 0.83715  0.76592  0.83249  Biso   1.000  C
  C423     1.0000 0.02345  0.78581  0.91349  Biso   1.000  C
  C424     1.0000 0.02336  0.78581  0.91349  Biso   1.000  C
  H481     1.0000 0.83260  0.90581  0.98499  Biso   1.000  H
  H482     1.0000 0.79284  0.98499  0.95553  Biso   1.000  H
  H483     1.0000 0.79275  0.98499  0.95553  Biso   1.000  H
  O87      1.0000 0.76816  0.97072  0.05420  Biso   1.000  O
  O88      1.0000 0.76807  0.97072  0.05420  Biso   1.000  O
  C425     1.0000 0.83104  0.75541  0.95670  Biso   1.000  C
  C426     1.0000 0.83095  0.75541  0.95670  Biso   1.000  C
  O89      1.0000 0.28182  0.92559  0.51917  Biso   1.000  O
  H484     1.0000 0.12512  0.97589  0.53573  Biso   1.000  H
  H485     1.0000 0.20029  0.94312  0.60441  Biso   1.000  H
  O90      1.0000 0.28172  0.92559  0.51917  Biso   1.000  O
  H486     1.0000 0.12503  0.97589  0.53573  Biso   1.000  H
  O91      1.0000 0.28182  0.92564  0.51917  Biso   1.000  O
  H487     1.0000 0.12512  0.97595  0.53573  Biso   1.000  H
  O92      1.0000 0.28172  0.92564  0.51917  Biso   1.000  O
  H488     1.0000 0.12503  0.97595  0.53573  Biso   1.000  H
  C427     1.0000 0.22977  0.05542  0.01503  Biso   1.000  C
  C428     1.0000 0.22968  0.05542  0.01503  Biso   1.000  C
  O93      1.0000 0.77447  0.76311  0.76328  Biso   1.000  O
  O94      1.0000 0.77447  0.76317  0.76328  Biso   1.000  O
  C429     1.0000 0.95710  0.77109  0.96933  Biso   1.000  C
  H489     1.0000 0.11151  0.79739  0.92299  Biso   1.000  H
  C430     1.0000 0.88961  0.00067  0.08112  Biso   1.000  C
  C431     1.0000 0.88961  0.00073  0.08112  Biso   1.000  C
  H490     1.0000 0.78556  0.74507  0.99592  Biso   1.000  H
  H491     1.0000 0.78546  0.74507  0.99592  Biso   1.000  H
  H492     1.0000 0.78556  0.74512  0.99592  Biso   1.000  H
  H493     1.0000 0.78546  0.74512  0.99592  Biso   1.000  H
  C432     1.0000 0.24796  0.84842  0.51619  Biso   1.000  C
  C433     1.0000 0.35727  0.08588  0.04460  Biso   1.000  C
  H494     1.0000 0.16757  0.09419  0.01503  Biso   1.000  H
  H495     1.0000 0.20733  0.01501  0.04449  Biso   1.000  H
  C434     1.0000 0.35717  0.08588  0.04460  Biso   1.000  C
  H496     1.0000 0.16747  0.09419  0.01503  Biso   1.000  H
  C435     1.0000 0.35727  0.08593  0.04460  Biso   1.000  C
  H497     1.0000 0.16757  0.09425  0.01503  Biso   1.000  H
  C436     1.0000 0.35717  0.08593  0.04460  Biso   1.000  C
  H498     1.0000 0.16747  0.09425  0.01503  Biso   1.000  H
  C437     1.0000 0.78500  0.69342  0.72718  Biso   1.000  C
  H499     1.0000 0.99936  0.77171  0.01710  Biso   1.000  H
  H500     1.0000 0.99927  0.77171  0.01710  Biso   1.000  H
  H501     1.0000 0.95380  0.96431  0.07560  Biso   1.000  H
  C438     1.0000 0.89198  0.01961  0.15643  Biso   1.000  C
  H502     1.0000 0.90616  0.04479  0.05479  Biso   1.000  H
  C439     1.0000 0.89187  0.01961  0.15638  Biso   1.000  C
  H503     1.0000 0.90607  0.04479  0.05479  Biso   1.000  H
  H504     1.0000 0.90616  0.04485  0.05479  Biso   1.000  H
  H505     1.0000 0.90607  0.04485  0.05479  Biso   1.000  H
  C440     1.0000 0.34737  0.80318  0.48631  Biso   1.000  C
  H506     1.0000 0.23909  0.83072  0.56301  Biso   1.000  H
  H507     1.0000 0.16861  0.84219  0.48679  Biso   1.000  H
  H508     1.0000 0.16852  0.84219  0.48679  Biso   1.000  H
  C441     1.0000 0.34737  0.80324  0.48631  Biso   1.000  C
  H509     1.0000 0.16861  0.84224  0.48679  Biso   1.000  H
  H510     1.0000 0.16852  0.84224  0.48679  Biso   1.000  H
  O95      1.0000 0.34566  0.10010  0.11689  Biso   1.000  O
  H511     1.0000 0.37569  0.13118  0.02071  Biso   1.000  H
  H512     1.0000 0.42230  0.04968  0.04030  Biso   1.000  H
  O96      1.0000 0.34557  0.10010  0.11689  Biso   1.000  O
  O97      1.0000 0.34566  0.10015  0.11689  Biso   1.000  O
  H513     1.0000 0.37569  0.13123  0.02071  Biso   1.000  H
  H514     1.0000 0.42230  0.04974  0.04030  Biso   1.000  H
  O98      1.0000 0.34557  0.10015  0.11689  Biso   1.000  O
  C442     1.0000 0.68689  0.68842  0.66423  Biso   1.000  C
  C443     1.0000 0.68688  0.68842  0.66418  Biso   1.000  C
  H515     1.0000 0.86712  0.68948  0.71243  Biso   1.000  H
  H516     1.0000 0.77516  0.65250  0.75903  Biso   1.000  H
  H517     1.0000 0.77507  0.65250  0.75903  Biso   1.000  H
  H518     1.0000 0.86712  0.68954  0.71243  Biso   1.000  H
  H519     1.0000 0.86702  0.68948  0.71243  Biso   1.000  H
  H520     1.0000 0.86702  0.68954  0.71243  Biso   1.000  H
  H521     1.0000 0.87559  0.97561  0.18303  Biso   1.000  H
  H522     1.0000 0.87549  0.97561  0.18303  Biso   1.000  H
  H523     1.0000 0.82897  0.05660  0.16222  Biso   1.000  H
  H524     1.0000 0.82888  0.05660  0.16222  Biso   1.000  H
  H525     1.0000 0.82897  0.05665  0.16222  Biso   1.000  H
  H526     1.0000 0.82888  0.05665  0.16222  Biso   1.000  H
  O99      1.0000 0.01430  0.04822  0.18027  Biso   1.000  O
  O100     1.0000 0.01421  0.04822  0.18027  Biso   1.000  O
  O101     1.0000 0.01430  0.04828  0.18027  Biso   1.000  O
  O102     1.0000 0.01421  0.04828  0.18027  Biso   1.000  O
  O103     1.0000 0.47195  0.81600  0.51980  Biso   1.000  O
  H527     1.0000 0.34391  0.81459  0.43668  Biso   1.000  H
  H528     1.0000 0.32822  0.75080  0.49029  Biso   1.000  H
  H529     1.0000 0.34381  0.81459  0.43668  Biso   1.000  H
  H530     1.0000 0.32813  0.75080  0.49029  Biso   1.000  H
  O104     1.0000 0.47195  0.81605  0.51980  Biso   1.000  O
  H531     1.0000 0.34391  0.81465  0.43668  Biso   1.000  H
  H532     1.0000 0.34381  0.81465  0.43668  Biso   1.000  H
  C444     1.0000 0.44972  0.12910  0.15973  Biso   1.000  C
  C445     1.0000 0.44972  0.12915  0.15973  Biso   1.000  C
  O105     1.0000 0.69270  0.74355  0.61275  Biso   1.000  O
  O106     1.0000 0.69270  0.74361  0.61275  Biso   1.000  O
  O107     1.0000 0.69261  0.74355  0.61275  Biso   1.000  O
  O108     1.0000 0.69261  0.74361  0.61275  Biso   1.000  O
  H533     1.0000 0.60562  0.69089  0.68021  Biso   1.000  H
  H534     1.0000 0.69359  0.64008  0.64252  Biso   1.000  H
  H535     1.0000 0.60553  0.69089  0.68021  Biso   1.000  H
  H536     1.0000 0.69359  0.64014  0.64252  Biso   1.000  H
  C446     1.0000 0.03378  0.06778  0.25129  Biso   1.000  C
  C447     1.0000 0.03369  0.06778  0.25129  Biso   1.000  C
  C448     1.0000 0.03378  0.06784  0.25129  Biso   1.000  C
  C449     1.0000 0.03369  0.06784  0.25129  Biso   1.000  C
  C450     1.0000 0.48734  0.80650  0.59449  Biso   1.000  C
  C451     1.0000 0.48724  0.80650  0.59449  Biso   1.000  C
  C452     1.0000 0.46048  0.20699  0.16779  Biso   1.000  C
  C453     1.0000 0.53333  0.07930  0.19773  Biso   1.000  C
  C454     1.0000 0.46039  0.20699  0.16779  Biso   1.000  C
  C455     1.0000 0.46048  0.20705  0.16779  Biso   1.000  C
  C456     1.0000 0.46039  0.20705  0.16779  Biso   1.000  C
  C457     1.0000 0.62483  0.80998  0.62288  Biso   1.000  C
  C458     1.0000 0.62474  0.80998  0.62288  Biso   1.000  C
  C459     1.0000 0.62483  0.81004  0.62288  Biso   1.000  C
  C460     1.0000 0.62474  0.81004  0.62288  Biso   1.000  C
  C461     1.0000 0.08197  0.01439  0.30123  Biso   1.000  C
  C462     1.0000 0.00851  0.14152  0.27024  Biso   1.000  C
  C463     1.0000 0.00840  0.14152  0.27018  Biso   1.000  C
  C464     1.0000 0.08197  0.01444  0.30123  Biso   1.000  C
  C465     1.0000 0.00841  0.14152  0.27024  Biso   1.000  C
  H537     1.0000 0.44263  0.84539  0.61582  Biso   1.000  H
  H538     1.0000 0.45334  0.75889  0.60611  Biso   1.000  H
  H539     1.0000 0.44254  0.84539  0.61582  Biso   1.000  H
  H540     1.0000 0.45325  0.75889  0.60611  Biso   1.000  H
  H541     1.0000 0.44263  0.84544  0.61582  Biso   1.000  H
  H542     1.0000 0.44254  0.84544  0.61582  Biso   1.000  H
  C466     1.0000 0.55999  0.23391  0.21594  Biso   1.000  C
  C467     1.0000 0.37241  0.26213  0.12544  Biso   1.000  C
  C468     1.0000 0.55989  0.23391  0.21588  Biso   1.000  C
  C469     1.0000 0.37240  0.26213  0.12538  Biso   1.000  C
  C470     1.0000 0.52893  0.99449  0.18849  Biso   1.000  C
  C471     1.0000 0.52893  0.99455  0.18849  Biso   1.000  C
  C472     1.0000 0.63194  0.10999  0.24402  Biso   1.000  C
  C473     1.0000 0.63194  0.11004  0.24402  Biso   1.000  C
  H543     1.0000 0.63285  0.82072  0.67283  Biso   1.000  H
  H544     1.0000 0.66244  0.85101  0.60032  Biso   1.000  H
  H545     1.0000 0.63276  0.82072  0.67283  Biso   1.000  H
  H546     1.0000 0.66234  0.85101  0.60032  Biso   1.000  H
  C474     1.0000 0.11223  0.93520  0.27963  Biso   1.000  C
  C475     1.0000 0.09878  0.03591  0.37162  Biso   1.000  C
  C476     1.0000 0.09869  0.03591  0.37162  Biso   1.000  C
  C477     1.0000 0.95862  0.20042  0.21583  Biso   1.000  C
  C478     1.0000 0.02739  0.15950  0.34189  Biso   1.000  C
  C479     1.0000 0.02730  0.15950  0.34189  Biso   1.000  C
  H547     1.0000 0.56918  0.28708  0.22289  Biso   1.000  H
  C480     1.0000 0.64461  0.18670  0.25309  Biso   1.000  C
  H548     1.0000 0.56909  0.28708  0.22289  Biso   1.000  H
  H549     1.0000 0.56918  0.28714  0.22289  Biso   1.000  H
  H550     1.0000 0.56909  0.28714  0.22289  Biso   1.000  H
  C481     1.0000 0.23179  0.24560  0.11164  Biso   1.000  C
  H551     1.0000 0.40161  0.26820  0.08011  Biso   1.000  H
  H552     1.0000 0.38252  0.30978  0.14911  Biso   1.000  H
  C482     1.0000 0.23168  0.24560  0.11158  Biso   1.000  C
  H553     1.0000 0.40161  0.26825  0.08011  Biso   1.000  H
  H554     1.0000 0.38252  0.30984  0.14911  Biso   1.000  H
  C483     1.0000 0.40213  0.95509  0.18069  Biso   1.000  C
  H555     1.0000 0.56837  0.98258  0.14741  Biso   1.000  H
  H556     1.0000 0.58017  0.97280  0.22873  Biso   1.000  H
  H557     1.0000 0.56828  0.98258  0.14741  Biso   1.000  H
  H558     1.0000 0.58008  0.97280  0.22873  Biso   1.000  H
  H559     1.0000 0.56837  0.98263  0.14741  Biso   1.000  H
  H560     1.0000 0.56828  0.98263  0.14741  Biso   1.000  H
  H561     1.0000 0.69230  0.07711  0.27013  Biso   1.000  H
  H562     1.0000 0.69221  0.07711  0.27013  Biso   1.000  H
  C484     1.0000 0.20398  0.92559  0.22613  Biso   1.000  C
  H563     1.0000 0.14504  0.90822  0.32172  Biso   1.000  H
  H564     1.0000 0.03459  0.91143  0.26074  Biso   1.000  H
  C485     1.0000 0.20388  0.92559  0.22613  Biso   1.000  C
  H565     1.0000 0.03450  0.91143  0.26074  Biso   1.000  H
  C486     1.0000 0.20398  0.92564  0.22613  Biso   1.000  C
  C487     1.0000 0.20388  0.92564  0.22613  Biso   1.000  C
  H566     1.0000 0.13052  0.99989  0.40713  Biso   1.000  H
  H567     1.0000 0.13043  0.99989  0.40713  Biso   1.000  H
  H568     1.0000 0.13052  0.99994  0.40713  Biso   1.000  H
  H569     1.0000 0.13043  0.99994  0.40713  Biso   1.000  H
  C488     1.0000 0.07139  0.10763  0.39232  Biso   1.000  C
  C489     1.0000 0.07130  0.10763  0.39232  Biso   1.000  C
  H570     1.0000 0.87573  0.18541  0.19524  Biso   1.000  H
  H571     1.0000 0.95017  0.24678  0.24041  Biso   1.000  H
  H572     1.0000 0.87572  0.18541  0.19518  Biso   1.000  H
  H573     1.0000 0.95017  0.24684  0.24041  Biso   1.000  H
  H574     1.0000 0.95007  0.24678  0.24041  Biso   1.000  H
  H575     1.0000 0.95007  0.24684  0.24041  Biso   1.000  H
  C490     1.0000 0.03465  0.21582  0.15622  Biso   1.000  C
  H576     1.0000 0.00921  0.20952  0.35644  Biso   1.000  H
  H577     1.0000 0.00910  0.20952  0.35638  Biso   1.000  H
  H578     1.0000 0.71283  0.20671  0.28563  Biso   1.000  H
  C491     1.0000 0.16292  0.23408  0.16753  Biso   1.000  C
  C492     1.0000 0.16913  0.24459  0.04332  Biso   1.000  C
  C493     1.0000 0.16292  0.23414  0.16753  Biso   1.000  C
  C494     1.0000 0.16913  0.24465  0.04332  Biso   1.000  C
  C495     1.0000 0.32295  0.95948  0.23361  Biso   1.000  C
  C496     1.0000 0.36290  0.90991  0.12151  Biso   1.000  C
  C497     1.0000 0.32295  0.95953  0.23361  Biso   1.000  C
  C498     1.0000 0.16946  0.88271  0.16594  Biso   1.000  C
  C499     1.0000 0.16945  0.88271  0.16588  Biso   1.000  C
  C500     1.0000 0.16936  0.88271  0.16588  Biso   1.000  C
  H579     1.0000 0.08300  0.12100  0.44163  Biso   1.000  H
  H580     1.0000 0.08291  0.12100  0.44163  Biso   1.000  H
  C501     1.0000 0.97672  0.21419  0.08653  Biso   1.000  C
  C502     1.0000 0.97672  0.21424  0.08653  Biso   1.000  C
  O109     1.0000 0.22570  0.23689  0.23674  Biso   1.000  O
  O110     1.0000 0.22561  0.23689  0.23674  Biso   1.000  O
  C503     1.0000 0.04307  0.22891  0.03069  Biso   1.000  C
  H581     1.0000 0.21461  0.25493  0.00410  Biso   1.000  H
  C504     1.0000 0.04298  0.22891  0.03069  Biso   1.000  C
  O111     1.0000 0.36962  0.99904  0.29428  Biso   1.000  O
  O112     1.0000 0.36962  0.99910  0.29428  Biso   1.000  O
  H582     1.0000 0.41653  0.90401  0.08520  Biso   1.000  H
  C505     1.0000 0.24776  0.87371  0.11482  Biso   1.000  C
  C506     1.0000 0.24766  0.87371  0.11482  Biso   1.000  C
  H583     1.0000 0.08853  0.85860  0.15973  Biso   1.000  H
  H584     1.0000 0.88866  0.20261  0.07703  Biso   1.000  H
  H585     1.0000 0.88857  0.20261  0.07703  Biso   1.000  H
  C507     1.0000 0.21517  0.30658  0.27284  Biso   1.000  C
  C508     1.0000 0.21515  0.30658  0.27278  Biso   1.000  C
  C509     1.0000 0.21517  0.30664  0.27284  Biso   1.000  C
  C510     1.0000 0.21515  0.30664  0.27278  Biso   1.000  C
  H586     1.0000 0.00081  0.22829  0.98292  Biso   1.000  H
  H587     1.0000 0.00081  0.22835  0.98292  Biso   1.000  H
  C511     1.0000 0.39545  0.95279  0.35649  Biso   1.000  C
  C512     1.0000 0.39545  0.95285  0.35649  Biso   1.000  C
  H588     1.0000 0.22256  0.84219  0.07453  Biso   1.000  H
  H589     1.0000 0.22247  0.84219  0.07453  Biso   1.000  H
  H590     1.0000 0.22256  0.84224  0.07453  Biso   1.000  H
  H591     1.0000 0.22247  0.84224  0.07453  Biso   1.000  H
  H592     1.0000 0.13305  0.31052  0.28759  Biso   1.000  H
  H593     1.0000 0.22501  0.34750  0.24099  Biso   1.000  H
  C513     1.0000 0.31328  0.31158  0.33579  Biso   1.000  C
  C514     1.0000 0.31319  0.31158  0.33579  Biso   1.000  C
  H594     1.0000 0.22501  0.34755  0.24099  Biso   1.000  H
  C515     1.0000 0.31328  0.31164  0.33579  Biso   1.000  C
  C516     1.0000 0.31319  0.31164  0.33579  Biso   1.000  C
  C517     1.0000 0.51021  0.97729  0.40309  Biso   1.000  C
  H595     1.0000 0.40604  0.90170  0.34221  Biso   1.000  H
  H596     1.0000 0.32480  0.95459  0.38271  Biso   1.000  H
  C518     1.0000 0.51011  0.97729  0.40309  Biso   1.000  C
  H597     1.0000 0.32471  0.95459  0.38271  Biso   1.000  H
  H598     1.0000 0.32480  0.95465  0.38271  Biso   1.000  H
  H599     1.0000 0.32471  0.95465  0.38271  Biso   1.000  H
  O113     1.0000 0.30746  0.25645  0.38728  Biso   1.000  O
  H600     1.0000 0.39455  0.30911  0.31981  Biso   1.000  H
  H601     1.0000 0.30658  0.35992  0.35750  Biso   1.000  H
  H602     1.0000 0.30649  0.35992  0.35750  Biso   1.000  H
  O114     1.0000 0.61986  0.95931  0.37268  Biso   1.000  O
  H603     1.0000 0.51325  0.95307  0.44853  Biso   1.000  H
  H604     1.0000 0.51325  0.95313  0.44853  Biso   1.000  H
  H605     1.0000 0.50680  0.03057  0.41052  Biso   1.000  H
  H606     1.0000 0.50671  0.03057  0.41052  Biso   1.000  H
  H607     1.0000 0.50680  0.03063  0.41052  Biso   1.000  H
  H608     1.0000 0.50671  0.03063  0.41052  Biso   1.000  H
  C519     1.0000 0.37534  0.19002  0.37714  Biso   1.000  C
  C520     1.0000 0.37533  0.19002  0.37708  Biso   1.000  C
  C521     1.0000 0.73180  0.95583  0.42284  Biso   1.000  C
  C522     1.0000 0.73169  0.95583  0.42279  Biso   1.000  C
  H609     1.0000 0.36732  0.17928  0.32719  Biso   1.000  H
  H610     1.0000 0.33773  0.14899  0.39970  Biso   1.000  H
  C523     1.0000 0.51283  0.19350  0.40553  Biso   1.000  C
  H611     1.0000 0.36732  0.17934  0.32719  Biso   1.000  H
  H612     1.0000 0.33773  0.14905  0.39970  Biso   1.000  H
  H613     1.0000 0.79129  0.92328  0.40442  Biso   1.000  H
  H614     1.0000 0.71133  0.93402  0.46599  Biso   1.000  H
  H615     1.0000 0.79120  0.92328  0.40442  Biso   1.000  H
  H616     1.0000 0.79129  0.92334  0.40442  Biso   1.000  H
  H617     1.0000 0.79120  0.92334  0.40442  Biso   1.000  H
  C524     1.0000 0.79211  0.03091  0.43913  Biso   1.000  C
  C525     1.0000 0.79202  0.03091  0.43913  Biso   1.000  C
  O115     1.0000 0.52822  0.18400  0.48022  Biso   1.000  O
  H618     1.0000 0.55754  0.15461  0.38420  Biso   1.000  H
  H619     1.0000 0.54682  0.24111  0.39391  Biso   1.000  H
  O116     1.0000 0.52813  0.18400  0.48022  Biso   1.000  O
  O117     1.0000 0.71835  0.07441  0.48085  Biso   1.000  O
  H620     1.0000 0.87505  0.02411  0.46429  Biso   1.000  H
  H621     1.0000 0.79988  0.05688  0.39561  Biso   1.000  H
  H622     1.0000 0.79979  0.05688  0.39561  Biso   1.000  H
  H623     1.0000 0.79988  0.05693  0.39561  Biso   1.000  H
  H624     1.0000 0.79979  0.05693  0.39561  Biso   1.000  H
  C526     1.0000 0.65280  0.19682  0.51371  Biso   1.000  C
  C527     1.0000 0.65270  0.19682  0.51371  Biso   1.000  C
  C528     1.0000 0.75221  0.15158  0.48383  Biso   1.000  C
  C529     1.0000 0.75211  0.15158  0.48383  Biso   1.000  C
  C530     1.0000 0.75221  0.15163  0.48383  Biso   1.000  C
  C531     1.0000 0.75211  0.15163  0.48383  Biso   1.000  C
  H625     1.0000 0.65626  0.18541  0.56334  Biso   1.000  H
  H626     1.0000 0.67195  0.24920  0.50973  Biso   1.000  H
  H627     1.0000 0.65625  0.18541  0.56329  Biso   1.000  H
  H628     1.0000 0.67195  0.24926  0.50973  Biso   1.000  H
  H629     1.0000 0.76108  0.16928  0.43701  Biso   1.000  H
  H630     1.0000 0.83156  0.15781  0.51323  Biso   1.000  H
  H631     1.0000 0.76108  0.16934  0.43701  Biso   1.000  H
  H632     1.0000 0.76098  0.16928  0.43701  Biso   1.000  H
  H633     1.0000 0.76098  0.16934  0.43701  Biso   1.000  H
  C532     1.0000 0.75241  0.12629  0.88520  Biso   1.000  C
  C533     1.0000 0.83071  0.11729  0.83409  Biso   1.000  C
  C534     1.0000 0.83071  0.11735  0.83409  Biso   1.000  C
  C535     1.0000 0.63727  0.09009  0.87851  Biso   1.000  C
  C536     1.0000 0.63718  0.09009  0.87851  Biso   1.000  C
  C537     1.0000 0.63727  0.09015  0.87851  Biso   1.000  C
  C538     1.0000 0.63718  0.09015  0.87851  Biso   1.000  C
  H634     1.0000 0.77761  0.15781  0.92549  Biso   1.000  H
  C539     1.0000 0.79619  0.07441  0.77389  Biso   1.000  C
  H635     1.0000 0.91164  0.14140  0.84030  Biso   1.000  H
  C540     1.0000 0.75241  0.12634  0.88520  Biso   1.000  C
  H636     1.0000 0.91155  0.14140  0.84030  Biso   1.000  H
  C541     1.0000 0.59804  0.04491  0.81933  Biso   1.000  C
  C542     1.0000 0.59795  0.04491  0.81933  Biso   1.000  C
  H637     1.0000 0.58363  0.09599  0.91482  Biso   1.000  H
  H638     1.0000 0.58363  0.09605  0.91482  Biso   1.000  H
  H639     1.0000 0.58354  0.09599  0.91482  Biso   1.000  H
  H640     1.0000 0.58354  0.09605  0.91482  Biso   1.000  H
  C543     1.0000 0.67722  0.04052  0.76641  Biso   1.000  C
  C544     1.0000 0.67713  0.04052  0.76641  Biso   1.000  C
  C545     1.0000 0.88794  0.06480  0.72039  Biso   1.000  C
  C546     1.0000 0.88784  0.06480  0.72039  Biso   1.000  C
  C547     1.0000 0.47124  0.00551  0.81153  Biso   1.000  C
  C548     1.0000 0.47115  0.00551  0.81153  Biso   1.000  C
  O118     1.0000 0.63045  0.00096  0.70574  Biso   1.000  O
  O119     1.0000 0.63055  0.00096  0.70574  Biso   1.000  O
  H641     1.0000 0.96558  0.08857  0.73929  Biso   1.000  H
  H642     1.0000 0.96558  0.08863  0.73929  Biso   1.000  H
  C549     1.0000 0.91820  0.98561  0.69879  Biso   1.000  C
  H643     1.0000 0.85513  0.09178  0.67830  Biso   1.000  H
  H644     1.0000 0.85503  0.09178  0.67830  Biso   1.000  H
  H645     1.0000 0.85513  0.09183  0.67830  Biso   1.000  H
  H646     1.0000 0.85503  0.09183  0.67830  Biso   1.000  H
  H647     1.0000 0.43180  0.01742  0.85261  Biso   1.000  H
  H648     1.0000 0.42000  0.02720  0.77129  Biso   1.000  H
  C550     1.0000 0.46684  0.92070  0.80229  Biso   1.000  C
  C551     1.0000 0.46675  0.92070  0.80229  Biso   1.000  C
  C552     1.0000 0.60471  0.04721  0.64353  Biso   1.000  C
  C553     1.0000 0.60470  0.04721  0.64348  Biso   1.000  C
  C554     1.0000 0.60461  0.04721  0.64348  Biso   1.000  C
  C555     1.0000 0.96639  0.93222  0.74873  Biso   1.000  C
  C556     1.0000 0.90139  0.96409  0.62840  Biso   1.000  C
  C557     1.0000 0.96637  0.93222  0.74868  Biso   1.000  C
  C558     1.0000 0.90139  0.96414  0.62840  Biso   1.000  C
  C559     1.0000 0.55044  0.87090  0.84030  Biso   1.000  C
  C560     1.0000 0.36823  0.89001  0.75601  Biso   1.000  C
  C561     1.0000 0.55035  0.87090  0.84030  Biso   1.000  C
  C562     1.0000 0.36814  0.89001  0.75601  Biso   1.000  C
  C563     1.0000 0.48996  0.02271  0.59693  Biso   1.000  C
  H649     1.0000 0.67537  0.04541  0.61731  Biso   1.000  H
  H650     1.0000 0.59413  0.09830  0.65781  Biso   1.000  H
  H651     1.0000 0.59404  0.09830  0.65781  Biso   1.000  H
  O120     1.0000 0.98587  0.95178  0.81975  Biso   1.000  O
  C564     1.0000 0.99166  0.85848  0.72978  Biso   1.000  C
  C565     1.0000 0.99166  0.85854  0.72978  Biso   1.000  C
  H652     1.0000 0.86965  0.00011  0.59289  Biso   1.000  H
  C566     1.0000 0.92878  0.89237  0.60770  Biso   1.000  C
  C567     1.0000 0.92878  0.89243  0.60770  Biso   1.000  C
  O121     1.0000 0.65451  0.89990  0.88313  Biso   1.000  O
  C568     1.0000 0.53969  0.79301  0.83223  Biso   1.000  C
  C569     1.0000 0.35556  0.81330  0.74693  Biso   1.000  C
  H653     1.0000 0.30787  0.92289  0.72989  Biso   1.000  H
  C570     1.0000 0.35546  0.81330  0.74693  Biso   1.000  C
  H654     1.0000 0.30787  0.92295  0.72989  Biso   1.000  H
  O122     1.0000 0.38031  0.04069  0.62734  Biso   1.000  O
  O123     1.0000 0.38022  0.04069  0.62734  Biso   1.000  O
  H655     1.0000 0.48692  0.04693  0.55149  Biso   1.000  H
  H656     1.0000 0.48682  0.04693  0.55149  Biso   1.000  H
  H657     1.0000 0.49337  0.96943  0.58950  Biso   1.000  H
  C571     1.0000 0.10819  0.98039  0.84359  Biso   1.000  C
  C572     1.0000 0.10819  0.98044  0.84359  Biso   1.000  C
  C573     1.0000 0.97278  0.84050  0.65813  Biso   1.000  C
  C574     1.0000 0.04154  0.79958  0.78419  Biso   1.000  C
  C575     1.0000 0.04145  0.79958  0.78419  Biso   1.000  C
  C576     1.0000 0.04154  0.79964  0.78419  Biso   1.000  C
  C577     1.0000 0.04145  0.79964  0.78419  Biso   1.000  C
  H658     1.0000 0.91717  0.87900  0.55839  Biso   1.000  H
  C578     1.0000 0.64290  0.91412  0.95542  Biso   1.000  C
  C579     1.0000 0.44017  0.76609  0.78408  Biso   1.000  C
  C580     1.0000 0.62776  0.73787  0.87458  Biso   1.000  C
  C581     1.0000 0.62767  0.73787  0.87458  Biso   1.000  C
  C582     1.0000 0.44017  0.76614  0.78408  Biso   1.000  C
  C583     1.0000 0.62776  0.73793  0.87458  Biso   1.000  C
  C584     1.0000 0.62767  0.73793  0.87458  Biso   1.000  C
  H659     1.0000 0.28734  0.79329  0.71439  Biso   1.000  H
  H660     1.0000 0.28725  0.79329  0.71439  Biso   1.000  H
  H661     1.0000 0.28734  0.79335  0.71439  Biso   1.000  H
  H662     1.0000 0.28725  0.79335  0.71439  Biso   1.000  H
  C585     1.0000 0.26837  0.04423  0.57718  Biso   1.000  C
  C586     1.0000 0.26837  0.04417  0.57718  Biso   1.000  C
  C587     1.0000 0.11056  0.99933  0.91891  Biso   1.000  C
  H663     1.0000 0.17120  0.94340  0.83780  Biso   1.000  H
  C588     1.0000 0.11046  0.99933  0.91891  Biso   1.000  C
  H664     1.0000 0.12458  0.02439  0.81699  Biso   1.000  H
  H665     1.0000 0.12458  0.02445  0.81699  Biso   1.000  H
  H666     1.0000 0.99096  0.79048  0.64358  Biso   1.000  H
  H667     1.0000 0.99096  0.79054  0.64358  Biso   1.000  H
  C589     1.0000 0.96552  0.78418  0.84380  Biso   1.000  C
  C590     1.0000 0.96552  0.78424  0.84380  Biso   1.000  C
  C591     1.0000 0.96542  0.78418  0.84380  Biso   1.000  C
  C592     1.0000 0.96542  0.78424  0.84380  Biso   1.000  C
  H668     1.0000 0.12444  0.81459  0.80479  Biso   1.000  H
  H669     1.0000 0.05000  0.75322  0.75962  Biso   1.000  H
  H670     1.0000 0.12435  0.81459  0.80479  Biso   1.000  H
  H671     1.0000 0.12444  0.81465  0.80479  Biso   1.000  H
  H672     1.0000 0.12435  0.81465  0.80479  Biso   1.000  H
  C593     1.0000 0.77039  0.94458  0.98499  Biso   1.000  C
  H673     1.0000 0.62448  0.86882  0.97931  Biso   1.000  H
  H674     1.0000 0.57787  0.95032  0.95972  Biso   1.000  H
  H675     1.0000 0.62438  0.86882  0.97931  Biso   1.000  H
  H676     1.0000 0.57778  0.95032  0.95972  Biso   1.000  H
  C594     1.0000 0.77039  0.94464  0.98499  Biso   1.000  C
  H677     1.0000 0.43098  0.71292  0.77713  Biso   1.000  H
  C595     1.0000 0.76838  0.75440  0.88839  Biso   1.000  C
  H678     1.0000 0.59856  0.73180  0.91991  Biso   1.000  H
  H679     1.0000 0.61765  0.69022  0.85091  Biso   1.000  H
  H680     1.0000 0.59846  0.73180  0.91991  Biso   1.000  H
  H681     1.0000 0.61756  0.69022  0.85091  Biso   1.000  H
  H682     1.0000 0.20888  0.07672  0.59560  Biso   1.000  H
  C596     1.0000 0.20805  0.96909  0.56089  Biso   1.000  C
  C597     1.0000 0.20805  0.96915  0.56089  Biso   1.000  C
  H683     1.0000 0.28884  0.06598  0.53403  Biso   1.000  H
  H684     1.0000 0.28874  0.06598  0.53403  Biso   1.000  H
  H685     1.0000 0.28884  0.06604  0.53403  Biso   1.000  H
  H686     1.0000 0.28874  0.06604  0.53403  Biso   1.000  H
  H687     1.0000 0.09401  0.95521  0.94523  Biso   1.000  H
  O124     1.0000 0.23201  0.02928  0.94582  Biso   1.000  O
  H688     1.0000 0.04637  0.03569  0.92443  Biso   1.000  H
  H689     1.0000 0.04627  0.03569  0.92443  Biso   1.000  H
  O125     1.0000 0.23201  0.02934  0.94582  Biso   1.000  O
  H690     1.0000 0.04637  0.03574  0.92443  Biso   1.000  H
  H691     1.0000 0.04627  0.03574  0.92443  Biso   1.000  H
  C598     1.0000 0.83725  0.76592  0.83249  Biso   1.000  C
  C599     1.0000 0.83715  0.76592  0.83249  Biso   1.000  C
  C600     1.0000 0.02345  0.78581  0.91349  Biso   1.000  C
  C601     1.0000 0.02336  0.78581  0.91349  Biso   1.000  C
  H692     1.0000 0.83260  0.90581  0.98499  Biso   1.000  H
  H693     1.0000 0.79284  0.98499  0.95553  Biso   1.000  H
  H694     1.0000 0.79275  0.98499  0.95553  Biso   1.000  H
  O126     1.0000 0.76816  0.97072  0.05420  Biso   1.000  O
  O127     1.0000 0.76807  0.97072  0.05420  Biso   1.000  O
  C602     1.0000 0.83104  0.75541  0.95670  Biso   1.000  C
  C603     1.0000 0.83095  0.75541  0.95670  Biso   1.000  C
  O128     1.0000 0.28182  0.92559  0.51917  Biso   1.000  O
  H695     1.0000 0.12512  0.97589  0.53573  Biso   1.000  H
  H696     1.0000 0.20029  0.94312  0.60441  Biso   1.000  H
  O129     1.0000 0.28172  0.92559  0.51917  Biso   1.000  O
  H697     1.0000 0.12503  0.97589  0.53573  Biso   1.000  H
  O130     1.0000 0.28182  0.92564  0.51917  Biso   1.000  O
  H698     1.0000 0.12512  0.97595  0.53573  Biso   1.000  H
  O131     1.0000 0.28172  0.92564  0.51917  Biso   1.000  O
  H699     1.0000 0.12503  0.97595  0.53573  Biso   1.000  H
  C604     1.0000 0.22977  0.05542  0.01503  Biso   1.000  C
  C605     1.0000 0.22968  0.05542  0.01503  Biso   1.000  C
  O132     1.0000 0.77447  0.76311  0.76328  Biso   1.000  O
  O133     1.0000 0.77447  0.76317  0.76328  Biso   1.000  O
  C606     1.0000 0.95710  0.77109  0.96933  Biso   1.000  C
  H700     1.0000 0.11151  0.79739  0.92299  Biso   1.000  H
  C607     1.0000 0.88961  0.00067  0.08112  Biso   1.000  C
  C608     1.0000 0.88961  0.00073  0.08112  Biso   1.000  C
  H701     1.0000 0.78556  0.74507  0.99592  Biso   1.000  H
  H702     1.0000 0.78546  0.74507  0.99592  Biso   1.000  H
  H703     1.0000 0.78556  0.74512  0.99592  Biso   1.000  H
  H704     1.0000 0.78546  0.74512  0.99592  Biso   1.000  H
  C609     1.0000 0.24796  0.84842  0.51619  Biso   1.000  C
  C610     1.0000 0.35727  0.08588  0.04460  Biso   1.000  C
  H705     1.0000 0.16757  0.09419  0.01503  Biso   1.000  H
  H706     1.0000 0.20733  0.01501  0.04449  Biso   1.000  H
  C611     1.0000 0.35717  0.08588  0.04460  Biso   1.000  C
  H707     1.0000 0.16747  0.09419  0.01503  Biso   1.000  H
  C612     1.0000 0.35727  0.08593  0.04460  Biso   1.000  C
  H708     1.0000 0.16757  0.09425  0.01503  Biso   1.000  H
  C613     1.0000 0.35717  0.08593  0.04460  Biso   1.000  C
  H709     1.0000 0.16747  0.09425  0.01503  Biso   1.000  H
  C614     1.0000 0.78500  0.69342  0.72718  Biso   1.000  C
  H710     1.0000 0.99936  0.77171  0.01710  Biso   1.000  H
  H711     1.0000 0.99927  0.77171  0.01710  Biso   1.000  H
  H712     1.0000 0.95380  0.96431  0.07560  Biso   1.000  H
  C615     1.0000 0.89198  0.01961  0.15643  Biso   1.000  C
  H713     1.0000 0.90616  0.04479  0.05479  Biso   1.000  H
  C616     1.0000 0.89187  0.01961  0.15638  Biso   1.000  C
  H714     1.0000 0.90607  0.04479  0.05479  Biso   1.000  H
  H715     1.0000 0.90616  0.04485  0.05479  Biso   1.000  H
  H716     1.0000 0.90607  0.04485  0.05479  Biso   1.000  H
  C617     1.0000 0.34737  0.80318  0.48631  Biso   1.000  C
  H717     1.0000 0.23909  0.83072  0.56301  Biso   1.000  H
  H718     1.0000 0.16861  0.84219  0.48679  Biso   1.000  H
  H719     1.0000 0.16852  0.84219  0.48679  Biso   1.000  H
  C618     1.0000 0.34737  0.80324  0.48631  Biso   1.000  C
  H720     1.0000 0.16861  0.84224  0.48679  Biso   1.000  H
  H721     1.0000 0.16852  0.84224  0.48679  Biso   1.000  H
  O134     1.0000 0.34566  0.10010  0.11689  Biso   1.000  O
  H722     1.0000 0.37569  0.13118  0.02071  Biso   1.000  H
  H723     1.0000 0.42230  0.04968  0.04030  Biso   1.000  H
  O135     1.0000 0.34557  0.10010  0.11689  Biso   1.000  O
  O136     1.0000 0.34566  0.10015  0.11689  Biso   1.000  O
  H724     1.0000 0.37569  0.13123  0.02071  Biso   1.000  H
  H725     1.0000 0.42230  0.04974  0.04030  Biso   1.000  H
  O137     1.0000 0.34557  0.10015  0.11689  Biso   1.000  O
  C619     1.0000 0.68689  0.68842  0.66423  Biso   1.000  C
  C620     1.0000 0.68688  0.68842  0.66418  Biso   1.000  C
  H726     1.0000 0.86712  0.68948  0.71243  Biso   1.000  H
  H727     1.0000 0.77516  0.65250  0.75903  Biso   1.000  H
  H728     1.0000 0.77507  0.65250  0.75903  Biso   1.000  H
  H729     1.0000 0.86712  0.68954  0.71243  Biso   1.000  H
  H730     1.0000 0.86702  0.68948  0.71243  Biso   1.000  H
  H731     1.0000 0.86702  0.68954  0.71243  Biso   1.000  H
  H732     1.0000 0.87559  0.97561  0.18303  Biso   1.000  H
  H733     1.0000 0.87549  0.97561  0.18303  Biso   1.000  H
  H734     1.0000 0.82897  0.05660  0.16222  Biso   1.000  H
  H735     1.0000 0.82888  0.05660  0.16222  Biso   1.000  H
  H736     1.0000 0.82897  0.05665  0.16222  Biso   1.000  H
  H737     1.0000 0.82888  0.05665  0.16222  Biso   1.000  H
  O138     1.0000 0.01430  0.04822  0.18027  Biso   1.000  O
  O139     1.0000 0.01421  0.04822  0.18027  Biso   1.000  O
  O140     1.0000 0.01430  0.04828  0.18027  Biso   1.000  O
  O141     1.0000 0.01421  0.04828  0.18027  Biso   1.000  O
  O142     1.0000 0.47195  0.81600  0.51980  Biso   1.000  O
  H738     1.0000 0.34391  0.81459  0.43668  Biso   1.000  H
  H739     1.0000 0.32822  0.75080  0.49029  Biso   1.000  H
  H740     1.0000 0.34381  0.81459  0.43668  Biso   1.000  H
  H741     1.0000 0.32813  0.75080  0.49029  Biso   1.000  H
  O143     1.0000 0.47195  0.81605  0.51980  Biso   1.000  O
  H742     1.0000 0.34391  0.81465  0.43668  Biso   1.000  H
  H743     1.0000 0.34381  0.81465  0.43668  Biso   1.000  H
  C621     1.0000 0.44972  0.12910  0.15973  Biso   1.000  C
  C622     1.0000 0.44972  0.12915  0.15973  Biso   1.000  C
  O144     1.0000 0.69270  0.74355  0.61275  Biso   1.000  O
  O145     1.0000 0.69270  0.74361  0.61275  Biso   1.000  O
  O146     1.0000 0.69261  0.74355  0.61275  Biso   1.000  O
  O147     1.0000 0.69261  0.74361  0.61275  Biso   1.000  O
  H744     1.0000 0.60562  0.69089  0.68021  Biso   1.000  H
  H745     1.0000 0.69359  0.64008  0.64252  Biso   1.000  H
  H746     1.0000 0.60553  0.69089  0.68021  Biso   1.000  H
  H747     1.0000 0.69359  0.64014  0.64252  Biso   1.000  H
  C623     1.0000 0.03378  0.06778  0.25129  Biso   1.000  C
  C624     1.0000 0.03369  0.06778  0.25129  Biso   1.000  C
  C625     1.0000 0.03378  0.06784  0.25129  Biso   1.000  C
  C626     1.0000 0.03369  0.06784  0.25129  Biso   1.000  C
  C627     1.0000 0.48734  0.80650  0.59449  Biso   1.000  C
  C628     1.0000 0.48724  0.80650  0.59449  Biso   1.000  C
  C629     1.0000 0.46048  0.20699  0.16779  Biso   1.000  C
  C630     1.0000 0.53333  0.07930  0.19773  Biso   1.000  C
  C631     1.0000 0.46039  0.20699  0.16779  Biso   1.000  C
  C632     1.0000 0.46048  0.20705  0.16779  Biso   1.000  C
  C633     1.0000 0.46039  0.20705  0.16779  Biso   1.000  C
  C634     1.0000 0.62483  0.80998  0.62288  Biso   1.000  C
  C635     1.0000 0.62474  0.80998  0.62288  Biso   1.000  C
  C636     1.0000 0.62483  0.81004  0.62288  Biso   1.000  C
  C637     1.0000 0.62474  0.81004  0.62288  Biso   1.000  C
  C638     1.0000 0.08197  0.01439  0.30123  Biso   1.000  C
  C639     1.0000 0.00851  0.14152  0.27024  Biso   1.000  C
  C640     1.0000 0.00840  0.14152  0.27018  Biso   1.000  C
  C641     1.0000 0.08197  0.01444  0.30123  Biso   1.000  C
  C642     1.0000 0.00841  0.14152  0.27024  Biso   1.000  C
  H748     1.0000 0.44263  0.84539  0.61582  Biso   1.000  H
  H749     1.0000 0.45334  0.75889  0.60611  Biso   1.000  H
  H750     1.0000 0.44254  0.84539  0.61582  Biso   1.000  H
  H751     1.0000 0.45325  0.75889  0.60611  Biso   1.000  H
  H752     1.0000 0.44263  0.84544  0.61582  Biso   1.000  H
  H753     1.0000 0.44254  0.84544  0.61582  Biso   1.000  H
  C643     1.0000 0.55999  0.23391  0.21594  Biso   1.000  C
  C644     1.0000 0.37241  0.26213  0.12544  Biso   1.000  C
  C645     1.0000 0.55989  0.23391  0.21588  Biso   1.000  C
  C646     1.0000 0.37240  0.26213  0.12538  Biso   1.000  C
  C647     1.0000 0.52893  0.99449  0.18849  Biso   1.000  C
  C648     1.0000 0.52893  0.99455  0.18849  Biso   1.000  C
  C649     1.0000 0.63194  0.10999  0.24402  Biso   1.000  C
  C650     1.0000 0.63194  0.11004  0.24402  Biso   1.000  C
  H754     1.0000 0.63285  0.82072  0.67283  Biso   1.000  H
  H755     1.0000 0.66244  0.85101  0.60032  Biso   1.000  H
  H756     1.0000 0.63276  0.82072  0.67283  Biso   1.000  H
  H757     1.0000 0.66234  0.85101  0.60032  Biso   1.000  H
  C651     1.0000 0.11223  0.93520  0.27963  Biso   1.000  C
  C652     1.0000 0.09878  0.03591  0.37162  Biso   1.000  C
  C653     1.0000 0.09869  0.03591  0.37162  Biso   1.000  C
  C654     1.0000 0.95862  0.20042  0.21583  Biso   1.000  C
  C655     1.0000 0.02739  0.15950  0.34189  Biso   1.000  C
  C656     1.0000 0.02730  0.15950  0.34189  Biso   1.000  C
  H758     1.0000 0.56918  0.28708  0.22289  Biso   1.000  H
  C657     1.0000 0.64461  0.18670  0.25309  Biso   1.000  C
  H759     1.0000 0.56909  0.28708  0.22289  Biso   1.000  H
  H760     1.0000 0.56918  0.28714  0.22289  Biso   1.000  H
  H761     1.0000 0.56909  0.28714  0.22289  Biso   1.000  H
  C658     1.0000 0.23179  0.24560  0.11164  Biso   1.000  C
  H762     1.0000 0.40161  0.26820  0.08011  Biso   1.000  H
  H763     1.0000 0.38252  0.30978  0.14911  Biso   1.000  H
  C659     1.0000 0.23168  0.24560  0.11158  Biso   1.000  C
  H764     1.0000 0.40161  0.26825  0.08011  Biso   1.000  H
  H765     1.0000 0.38252  0.30984  0.14911  Biso   1.000  H
  C660     1.0000 0.40213  0.95509  0.18069  Biso   1.000  C
  H766     1.0000 0.56837  0.98258  0.14741  Biso   1.000  H
  H767     1.0000 0.58017  0.97280  0.22873  Biso   1.000  H
  H768     1.0000 0.56828  0.98258  0.14741  Biso   1.000  H
  H769     1.0000 0.58008  0.97280  0.22873  Biso   1.000  H
  H770     1.0000 0.56837  0.98263  0.14741  Biso   1.000  H
  H771     1.0000 0.56828  0.98263  0.14741  Biso   1.000  H
  H772     1.0000 0.69230  0.07711  0.27013  Biso   1.000  H
  H773     1.0000 0.69221  0.07711  0.27013  Biso   1.000  H
  C661     1.0000 0.20398  0.92559  0.22613  Biso   1.000  C
  H774     1.0000 0.14504  0.90822  0.32172  Biso   1.000  H
  H775     1.0000 0.03459  0.91143  0.26074  Biso   1.000  H
  C662     1.0000 0.20388  0.92559  0.22613  Biso   1.000  C
  H776     1.0000 0.03450  0.91143  0.26074  Biso   1.000  H
  C663     1.0000 0.20398  0.92564  0.22613  Biso   1.000  C
  C664     1.0000 0.20388  0.92564  0.22613  Biso   1.000  C
  H777     1.0000 0.13052  0.99989  0.40713  Biso   1.000  H
  H778     1.0000 0.13043  0.99989  0.40713  Biso   1.000  H
  H779     1.0000 0.13052  0.99994  0.40713  Biso   1.000  H
  H780     1.0000 0.13043  0.99994  0.40713  Biso   1.000  H
  C665     1.0000 0.07139  0.10763  0.39232  Biso   1.000  C
  C666     1.0000 0.07130  0.10763  0.39232  Biso   1.000  C
  H781     1.0000 0.87573  0.18541  0.19524  Biso   1.000  H
  H782     1.0000 0.95017  0.24678  0.24041  Biso   1.000  H
  H783     1.0000 0.87572  0.18541  0.19518  Biso   1.000  H
  H784     1.0000 0.95017  0.24684  0.24041  Biso   1.000  H
  H785     1.0000 0.95007  0.24678  0.24041  Biso   1.000  H
  H786     1.0000 0.95007  0.24684  0.24041  Biso   1.000  H
  C667     1.0000 0.03465  0.21582  0.15622  Biso   1.000  C
  H787     1.0000 0.00921  0.20952  0.35644  Biso   1.000  H
  H788     1.0000 0.00910  0.20952  0.35638  Biso   1.000  H
  H789     1.0000 0.71283  0.20671  0.28563  Biso   1.000  H
  C668     1.0000 0.16292  0.23408  0.16753  Biso   1.000  C
  C669     1.0000 0.16913  0.24459  0.04332  Biso   1.000  C
  C670     1.0000 0.16292  0.23414  0.16753  Biso   1.000  C
  C671     1.0000 0.16913  0.24465  0.04332  Biso   1.000  C
  C672     1.0000 0.32295  0.95948  0.23361  Biso   1.000  C
  C673     1.0000 0.36290  0.90991  0.12151  Biso   1.000  C
  C674     1.0000 0.32295  0.95953  0.23361  Biso   1.000  C
  C675     1.0000 0.16946  0.88271  0.16594  Biso   1.000  C
  C676     1.0000 0.16945  0.88271  0.16588  Biso   1.000  C
  C677     1.0000 0.16936  0.88271  0.16588  Biso   1.000  C
  H790     1.0000 0.08300  0.12100  0.44163  Biso   1.000  H
  H791     1.0000 0.08291  0.12100  0.44163  Biso   1.000  H
  C678     1.0000 0.97672  0.21419  0.08653  Biso   1.000  C
  C679     1.0000 0.97672  0.21424  0.08653  Biso   1.000  C
  O148     1.0000 0.22570  0.23689  0.23674  Biso   1.000  O
  O149     1.0000 0.22561  0.23689  0.23674  Biso   1.000  O
  C680     1.0000 0.04307  0.22891  0.03069  Biso   1.000  C
  H792     1.0000 0.21461  0.25493  0.00410  Biso   1.000  H
  C681     1.0000 0.04298  0.22891  0.03069  Biso   1.000  C
  O150     1.0000 0.36962  0.99904  0.29428  Biso   1.000  O
  O151     1.0000 0.36962  0.99910  0.29428  Biso   1.000  O
  H793     1.0000 0.41653  0.90401  0.08520  Biso   1.000  H
  C682     1.0000 0.24776  0.87371  0.11482  Biso   1.000  C
  C683     1.0000 0.24766  0.87371  0.11482  Biso   1.000  C
  H794     1.0000 0.08853  0.85860  0.15973  Biso   1.000  H
  H795     1.0000 0.88866  0.20261  0.07703  Biso   1.000  H
  H796     1.0000 0.88857  0.20261  0.07703  Biso   1.000  H
  C684     1.0000 0.21517  0.30658  0.27284  Biso   1.000  C
  C685     1.0000 0.21515  0.30658  0.27278  Biso   1.000  C
  C686     1.0000 0.21517  0.30664  0.27284  Biso   1.000  C
  C687     1.0000 0.21515  0.30664  0.27278  Biso   1.000  C
  H797     1.0000 0.00081  0.22829  0.98292  Biso   1.000  H
  H798     1.0000 0.00081  0.22835  0.98292  Biso   1.000  H
  C688     1.0000 0.39545  0.95279  0.35649  Biso   1.000  C
  C689     1.0000 0.39545  0.95285  0.35649  Biso   1.000  C
  H799     1.0000 0.22256  0.84219  0.07453  Biso   1.000  H
  H800     1.0000 0.22247  0.84219  0.07453  Biso   1.000  H
  H801     1.0000 0.22256  0.84224  0.07453  Biso   1.000  H
  H802     1.0000 0.22247  0.84224  0.07453  Biso   1.000  H
  H803     1.0000 0.13305  0.31052  0.28759  Biso   1.000  H
  H804     1.0000 0.22501  0.34750  0.24099  Biso   1.000  H
  C690     1.0000 0.31328  0.31158  0.33579  Biso   1.000  C
  C691     1.0000 0.31319  0.31158  0.33579  Biso   1.000  C
  H805     1.0000 0.22501  0.34755  0.24099  Biso   1.000  H
  C692     1.0000 0.31328  0.31164  0.33579  Biso   1.000  C
  C693     1.0000 0.31319  0.31164  0.33579  Biso   1.000  C
  C694     1.0000 0.51021  0.97729  0.40309  Biso   1.000  C
  H806     1.0000 0.40604  0.90170  0.34221  Biso   1.000  H
  H807     1.0000 0.32480  0.95459  0.38271  Biso   1.000  H
  C695     1.0000 0.51011  0.97729  0.40309  Biso   1.000  C
  H808     1.0000 0.32471  0.95459  0.38271  Biso   1.000  H
  H809     1.0000 0.32480  0.95465  0.38271  Biso   1.000  H
  H810     1.0000 0.32471  0.95465  0.38271  Biso   1.000  H
  O152     1.0000 0.30746  0.25645  0.38728  Biso   1.000  O
  H811     1.0000 0.39455  0.30911  0.31981  Biso   1.000  H
  H812     1.0000 0.30658  0.35992  0.35750  Biso   1.000  H
  H813     1.0000 0.30649  0.35992  0.35750  Biso   1.000  H
  O153     1.0000 0.61986  0.95931  0.37268  Biso   1.000  O
  H814     1.0000 0.51325  0.95307  0.44853  Biso   1.000  H
  H815     1.0000 0.51325  0.95313  0.44853  Biso   1.000  H
  H816     1.0000 0.50680  0.03057  0.41052  Biso   1.000  H
  H817     1.0000 0.50671  0.03057  0.41052  Biso   1.000  H
  H818     1.0000 0.50680  0.03063  0.41052  Biso   1.000  H
  H819     1.0000 0.50671  0.03063  0.41052  Biso   1.000  H
  C696     1.0000 0.37534  0.19002  0.37714  Biso   1.000  C
  C697     1.0000 0.37533  0.19002  0.37708  Biso   1.000  C
  C698     1.0000 0.73180  0.95583  0.42284  Biso   1.000  C
  C699     1.0000 0.73169  0.95583  0.42279  Biso   1.000  C
  H820     1.0000 0.36732  0.17928  0.32719  Biso   1.000  H
  H821     1.0000 0.33773  0.14899  0.39970  Biso   1.000  H
  C700     1.0000 0.51283  0.19350  0.40553  Biso   1.000  C
  H822     1.0000 0.36732  0.17934  0.32719  Biso   1.000  H
  H823     1.0000 0.33773  0.14905  0.39970  Biso   1.000  H
  H824     1.0000 0.79129  0.92328  0.40442  Biso   1.000  H
  H825     1.0000 0.71133  0.93402  0.46599  Biso   1.000  H
  H826     1.0000 0.79120  0.92328  0.40442  Biso   1.000  H
  H827     1.0000 0.79129  0.92334  0.40442  Biso   1.000  H
  H828     1.0000 0.79120  0.92334  0.40442  Biso   1.000  H
  C701     1.0000 0.79211  0.03091  0.43913  Biso   1.000  C
  C702     1.0000 0.79202  0.03091  0.43913  Biso   1.000  C
  O154     1.0000 0.52822  0.18400  0.48022  Biso   1.000  O
  H829     1.0000 0.55754  0.15461  0.38420  Biso   1.000  H
  H830     1.0000 0.54682  0.24111  0.39391  Biso   1.000  H
  O155     1.0000 0.52813  0.18400  0.48022  Biso   1.000  O
  O156     1.0000 0.71835  0.07441  0.48085  Biso   1.000  O
  H831     1.0000 0.87505  0.02411  0.46429  Biso   1.000  H
  H832     1.0000 0.79988  0.05688  0.39561  Biso   1.000  H
  H833     1.0000 0.79979  0.05688  0.39561  Biso   1.000  H
  H834     1.0000 0.79988  0.05693  0.39561  Biso   1.000  H
  H835     1.0000 0.79979  0.05693  0.39561  Biso   1.000  H
  C703     1.0000 0.65280  0.19682  0.51371  Biso   1.000  C
  C704     1.0000 0.65270  0.19682  0.51371  Biso   1.000  C
  C705     1.0000 0.75221  0.15158  0.48383  Biso   1.000  C
  C706     1.0000 0.75211  0.15158  0.48383  Biso   1.000  C
  C707     1.0000 0.75221  0.15163  0.48383  Biso   1.000  C
  C708     1.0000 0.75211  0.15163  0.48383  Biso   1.000  C
  H836     1.0000 0.65626  0.18541  0.56334  Biso   1.000  H
  H837     1.0000 0.67195  0.24920  0.50973  Biso   1.000  H
  H838     1.0000 0.65625  0.18541  0.56329  Biso   1.000  H
  H839     1.0000 0.67195  0.24926  0.50973  Biso   1.000  H
  H840     1.0000 0.76108  0.16928  0.43701  Biso   1.000  H
  H841     1.0000 0.83156  0.15781  0.51323  Biso   1.000  H
  H842     1.0000 0.76108  0.16934  0.43701  Biso   1.000  H
  H843     1.0000 0.76098  0.16928  0.43701  Biso   1.000  H
  H844     1.0000 0.76098  0.16934  0.43701  Biso   1.000  H
  C709     1.0000 0.75241  0.12629  0.88520  Biso   1.000  C
  C710     1.0000 0.83071  0.11729  0.83409  Biso   1.000  C
  C711     1.0000 0.83071  0.11735  0.83409  Biso   1.000  C
  C712     1.0000 0.63727  0.09009  0.87851  Biso   1.000  C
  C713     1.0000 0.63718  0.09009  0.87851  Biso   1.000  C
  C714     1.0000 0.63727  0.09015  0.87851  Biso   1.000  C
  C715     1.0000 0.63718  0.09015  0.87851  Biso   1.000  C
  H845     1.0000 0.77761  0.15781  0.92549  Biso   1.000  H
  C716     1.0000 0.79619  0.07441  0.77389  Biso   1.000  C
  H846     1.0000 0.91164  0.14140  0.84030  Biso   1.000  H
  H847     1.0000 0.91155  0.14140  0.84030  Biso   1.000  H
  C717     1.0000 0.75241  0.12634  0.88520  Biso   1.000  C
  C718     1.0000 0.59804  0.04491  0.81933  Biso   1.000  C
  C719     1.0000 0.59795  0.04491  0.81933  Biso   1.000  C
  H848     1.0000 0.58363  0.09599  0.91482  Biso   1.000  H
  H849     1.0000 0.58363  0.09605  0.91482  Biso   1.000  H
  H850     1.0000 0.58354  0.09599  0.91482  Biso   1.000  H
  H851     1.0000 0.58354  0.09605  0.91482  Biso   1.000  H
  C720     1.0000 0.67722  0.04052  0.76641  Biso   1.000  C
  C721     1.0000 0.67713  0.04052  0.76641  Biso   1.000  C
  C722     1.0000 0.88794  0.06480  0.72039  Biso   1.000  C
  C723     1.0000 0.88784  0.06480  0.72039  Biso   1.000  C
  C724     1.0000 0.47124  0.00551  0.81153  Biso   1.000  C
  C725     1.0000 0.47115  0.00551  0.81153  Biso   1.000  C
  O157     1.0000 0.63045  0.00096  0.70574  Biso   1.000  O
  O158     1.0000 0.63055  0.00096  0.70574  Biso   1.000  O
  C726     1.0000 0.91820  0.98561  0.69879  Biso   1.000  C
  H852     1.0000 0.85513  0.09178  0.67830  Biso   1.000  H
  H853     1.0000 0.96558  0.08857  0.73929  Biso   1.000  H
  H854     1.0000 0.85503  0.09178  0.67830  Biso   1.000  H
  H855     1.0000 0.85513  0.09183  0.67830  Biso   1.000  H
  H856     1.0000 0.96558  0.08863  0.73929  Biso   1.000  H
  H857     1.0000 0.85503  0.09183  0.67830  Biso   1.000  H
  H858     1.0000 0.43180  0.01742  0.85261  Biso   1.000  H
  H859     1.0000 0.42000  0.02720  0.77129  Biso   1.000  H
  C727     1.0000 0.46684  0.92070  0.80229  Biso   1.000  C
  C728     1.0000 0.46675  0.92070  0.80229  Biso   1.000  C
  C729     1.0000 0.60471  0.04721  0.64353  Biso   1.000  C
  C730     1.0000 0.60470  0.04721  0.64348  Biso   1.000  C
  C731     1.0000 0.60461  0.04721  0.64348  Biso   1.000  C
  C732     1.0000 0.96639  0.93222  0.74873  Biso   1.000  C
  C733     1.0000 0.90139  0.96409  0.62840  Biso   1.000  C
  C734     1.0000 0.96637  0.93222  0.74868  Biso   1.000  C
  C735     1.0000 0.90139  0.96414  0.62840  Biso   1.000  C
  C736     1.0000 0.55044  0.87090  0.84030  Biso   1.000  C
  C737     1.0000 0.36823  0.89001  0.75601  Biso   1.000  C
  C738     1.0000 0.55035  0.87090  0.84030  Biso   1.000  C
  C739     1.0000 0.36814  0.89001  0.75601  Biso   1.000  C
  C740     1.0000 0.48996  0.02271  0.59693  Biso   1.000  C
  H860     1.0000 0.67537  0.04541  0.61731  Biso   1.000  H
  H861     1.0000 0.59413  0.09830  0.65781  Biso   1.000  H
  H862     1.0000 0.59404  0.09830  0.65781  Biso   1.000  H
  O159     1.0000 0.98587  0.95178  0.81975  Biso   1.000  O
  C741     1.0000 0.99166  0.85848  0.72978  Biso   1.000  C
  C742     1.0000 0.99166  0.85854  0.72978  Biso   1.000  C
  H863     1.0000 0.86965  0.00011  0.59289  Biso   1.000  H
  C743     1.0000 0.92878  0.89237  0.60770  Biso   1.000  C
  C744     1.0000 0.92878  0.89243  0.60770  Biso   1.000  C
  O160     1.0000 0.65451  0.89990  0.88313  Biso   1.000  O
  C745     1.0000 0.53969  0.79301  0.83223  Biso   1.000  C
  C746     1.0000 0.35556  0.81330  0.74693  Biso   1.000  C
  H864     1.0000 0.30787  0.92289  0.72989  Biso   1.000  H
  C747     1.0000 0.35546  0.81330  0.74693  Biso   1.000  C
  H865     1.0000 0.30787  0.92295  0.72989  Biso   1.000  H
  O161     1.0000 0.38031  0.04069  0.62734  Biso   1.000  O
  H866     1.0000 0.49337  0.96943  0.58950  Biso   1.000  H
  H867     1.0000 0.48692  0.04693  0.55149  Biso   1.000  H
  H868     1.0000 0.48682  0.04693  0.55149  Biso   1.000  H
  O162     1.0000 0.38022  0.04069  0.62734  Biso   1.000  O
  C748     1.0000 0.10819  0.98039  0.84359  Biso   1.000  C
  C749     1.0000 0.10819  0.98044  0.84359  Biso   1.000  C
  C750     1.0000 0.97278  0.84050  0.65813  Biso   1.000  C
  C751     1.0000 0.04154  0.79958  0.78419  Biso   1.000  C
  C752     1.0000 0.04145  0.79958  0.78419  Biso   1.000  C
  C753     1.0000 0.04154  0.79964  0.78419  Biso   1.000  C
  C754     1.0000 0.04145  0.79964  0.78419  Biso   1.000  C
  H869     1.0000 0.91717  0.87900  0.55839  Biso   1.000  H
  C755     1.0000 0.64290  0.91412  0.95542  Biso   1.000  C
  C756     1.0000 0.44017  0.76609  0.78408  Biso   1.000  C
  C757     1.0000 0.62776  0.73787  0.87458  Biso   1.000  C
  C758     1.0000 0.62767  0.73787  0.87458  Biso   1.000  C
  C759     1.0000 0.44017  0.76614  0.78408  Biso   1.000  C
  C760     1.0000 0.62776  0.73793  0.87458  Biso   1.000  C
  C761     1.0000 0.62767  0.73793  0.87458  Biso   1.000  C
  H870     1.0000 0.28734  0.79329  0.71439  Biso   1.000  H
  H871     1.0000 0.28725  0.79329  0.71439  Biso   1.000  H
  H872     1.0000 0.28734  0.79335  0.71439  Biso   1.000  H
  H873     1.0000 0.28725  0.79335  0.71439  Biso   1.000  H
  C762     1.0000 0.26837  0.04417  0.57718  Biso   1.000  C
  C763     1.0000 0.26837  0.04423  0.57718  Biso   1.000  C
  C764     1.0000 0.11056  0.99933  0.91891  Biso   1.000  C
  H874     1.0000 0.17120  0.94340  0.83780  Biso   1.000  H
  C765     1.0000 0.11046  0.99933  0.91891  Biso   1.000  C
  H875     1.0000 0.12458  0.02439  0.81699  Biso   1.000  H
  H876     1.0000 0.12458  0.02445  0.81699  Biso   1.000  H
  H877     1.0000 0.99096  0.79048  0.64358  Biso   1.000  H
  H878     1.0000 0.99096  0.79054  0.64358  Biso   1.000  H
  C766     1.0000 0.96552  0.78418  0.84380  Biso   1.000  C
  C767     1.0000 0.96552  0.78424  0.84380  Biso   1.000  C
  C768     1.0000 0.96542  0.78418  0.84380  Biso   1.000  C
  C769     1.0000 0.96542  0.78424  0.84380  Biso   1.000  C
  H879     1.0000 0.12444  0.81459  0.80479  Biso   1.000  H
  H880     1.0000 0.05000  0.75322  0.75962  Biso   1.000  H
  H881     1.0000 0.12435  0.81459  0.80479  Biso   1.000  H
  H882     1.0000 0.12444  0.81465  0.80479  Biso   1.000  H
  H883     1.0000 0.12435  0.81465  0.80479  Biso   1.000  H
  C770     1.0000 0.77039  0.94458  0.98499  Biso   1.000  C
  H884     1.0000 0.62448  0.86882  0.97931  Biso   1.000  H
  H885     1.0000 0.57787  0.95032  0.95972  Biso   1.000  H
  H886     1.0000 0.62438  0.86882  0.97931  Biso   1.000  H
  H887     1.0000 0.57778  0.95032  0.95972  Biso   1.000  H
  C771     1.0000 0.77039  0.94464  0.98499  Biso   1.000  C
  H888     1.0000 0.43098  0.71292  0.77713  Biso   1.000  H
  C772     1.0000 0.76838  0.75440  0.88839  Biso   1.000  C
  H889     1.0000 0.59856  0.73180  0.91991  Biso   1.000  H
  H890     1.0000 0.61765  0.69022  0.85091  Biso   1.000  H
  H891     1.0000 0.59846  0.73180  0.91991  Biso   1.000  H
  H892     1.0000 0.61756  0.69022  0.85091  Biso   1.000  H
  H893     1.0000 0.20888  0.07672  0.59560  Biso   1.000  H
  C773     1.0000 0.20805  0.96909  0.56089  Biso   1.000  C
  C774     1.0000 0.20805  0.96915  0.56089  Biso   1.000  C
  H894     1.0000 0.28884  0.06598  0.53403  Biso   1.000  H
  H895     1.0000 0.28874  0.06598  0.53403  Biso   1.000  H
  H896     1.0000 0.28884  0.06604  0.53403  Biso   1.000  H
  H897     1.0000 0.28874  0.06604  0.53403  Biso   1.000  H
  H898     1.0000 0.09401  0.95521  0.94523  Biso   1.000  H
  O163     1.0000 0.23201  0.02928  0.94582  Biso   1.000  O
  H899     1.0000 0.04637  0.03569  0.92443  Biso   1.000  H
  H900     1.0000 0.04627  0.03569  0.92443  Biso   1.000  H
  O164     1.0000 0.23201  0.02934  0.94582  Biso   1.000  O
  H901     1.0000 0.04637  0.03574  0.92443  Biso   1.000  H
  H902     1.0000 0.04627  0.03574  0.92443  Biso   1.000  H
  C775     1.0000 0.83725  0.76592  0.83249  Biso   1.000  C
  C776     1.0000 0.83715  0.76592  0.83249  Biso   1.000  C
  C777     1.0000 0.02345  0.78581  0.91349  Biso   1.000  C
  C778     1.0000 0.02336  0.78581  0.91349  Biso   1.000  C
  H903     1.0000 0.83260  0.90581  0.98499  Biso   1.000  H
  H904     1.0000 0.79284  0.98499  0.95553  Biso   1.000  H
  H905     1.0000 0.79275  0.98499  0.95553  Biso   1.000  H
  O165     1.0000 0.76816  0.97072  0.05420  Biso   1.000  O
  O166     1.0000 0.76807  0.97072  0.05420  Biso   1.000  O
  C779     1.0000 0.83104  0.75541  0.95670  Biso   1.000  C
  C780     1.0000 0.83095  0.75541  0.95670  Biso   1.000  C
  O167     1.0000 0.28182  0.92559  0.51917  Biso   1.000  O
  H906     1.0000 0.12512  0.97589  0.53573  Biso   1.000  H
  H907     1.0000 0.20029  0.94312  0.60441  Biso   1.000  H
  O168     1.0000 0.28172  0.92559  0.51917  Biso   1.000  O
  H908     1.0000 0.12503  0.97589  0.53573  Biso   1.000  H
  O169     1.0000 0.28182  0.92564  0.51917  Biso   1.000  O
  H909     1.0000 0.12512  0.97595  0.53573  Biso   1.000  H
  O170     1.0000 0.28172  0.92564  0.51917  Biso   1.000  O
  H910     1.0000 0.12503  0.97595  0.53573  Biso   1.000  H
  C781     1.0000 0.22977  0.05542  0.01503  Biso   1.000  C
  C782     1.0000 0.22968  0.05542  0.01503  Biso   1.000  C
  O171     1.0000 0.77447  0.76311  0.76328  Biso   1.000  O
  O172     1.0000 0.77447  0.76317  0.76328  Biso   1.000  O
  C783     1.0000 0.95710  0.77109  0.96933  Biso   1.000  C
  H911     1.0000 0.11151  0.79739  0.92299  Biso   1.000  H
  C784     1.0000 0.88961  0.00067  0.08112  Biso   1.000  C
  C785     1.0000 0.88961  0.00073  0.08112  Biso   1.000  C
  H912     1.0000 0.78556  0.74507  0.99592  Biso   1.000  H
  H913     1.0000 0.78546  0.74507  0.99592  Biso   1.000  H
  H914     1.0000 0.78556  0.74512  0.99592  Biso   1.000  H
  H915     1.0000 0.78546  0.74512  0.99592  Biso   1.000  H
  C786     1.0000 0.24796  0.84842  0.51619  Biso   1.000  C
  C787     1.0000 0.35727  0.08588  0.04460  Biso   1.000  C
  H916     1.0000 0.16757  0.09419  0.01503  Biso   1.000  H
  H917     1.0000 0.20733  0.01501  0.04449  Biso   1.000  H
  C788     1.0000 0.35717  0.08588  0.04460  Biso   1.000  C
  H918     1.0000 0.16747  0.09419  0.01503  Biso   1.000  H
  C789     1.0000 0.35727  0.08593  0.04460  Biso   1.000  C
  H919     1.0000 0.16757  0.09425  0.01503  Biso   1.000  H
  C790     1.0000 0.35717  0.08593  0.04460  Biso   1.000  C
  H920     1.0000 0.16747  0.09425  0.01503  Biso   1.000  H
  C791     1.0000 0.78500  0.69342  0.72718  Biso   1.000  C
  H921     1.0000 0.99936  0.77171  0.01710  Biso   1.000  H
  H922     1.0000 0.99927  0.77171  0.01710  Biso   1.000  H
  H923     1.0000 0.95380  0.96431  0.07560  Biso   1.000  H
  C792     1.0000 0.89198  0.01961  0.15643  Biso   1.000  C
  H924     1.0000 0.90616  0.04479  0.05479  Biso   1.000  H
  C793     1.0000 0.89187  0.01961  0.15638  Biso   1.000  C
  H925     1.0000 0.90607  0.04479  0.05479  Biso   1.000  H
  H926     1.0000 0.90616  0.04485  0.05479  Biso   1.000  H
  H927     1.0000 0.90607  0.04485  0.05479  Biso   1.000  H
  C794     1.0000 0.34737  0.80318  0.48631  Biso   1.000  C
  H928     1.0000 0.23909  0.83072  0.56301  Biso   1.000  H
  H929     1.0000 0.16861  0.84219  0.48679  Biso   1.000  H
  H930     1.0000 0.16852  0.84219  0.48679  Biso   1.000  H
  C795     1.0000 0.34737  0.80324  0.48631  Biso   1.000  C
  H931     1.0000 0.16861  0.84224  0.48679  Biso   1.000  H
  H932     1.0000 0.16852  0.84224  0.48679  Biso   1.000  H
  O173     1.0000 0.34566  0.10010  0.11689  Biso   1.000  O
  H933     1.0000 0.37569  0.13118  0.02071  Biso   1.000  H
  H934     1.0000 0.42230  0.04968  0.04030  Biso   1.000  H
  O174     1.0000 0.34557  0.10010  0.11689  Biso   1.000  O
  O175     1.0000 0.34566  0.10015  0.11689  Biso   1.000  O
  H935     1.0000 0.37569  0.13123  0.02071  Biso   1.000  H
  H936     1.0000 0.42230  0.04974  0.04030  Biso   1.000  H
  O176     1.0000 0.34557  0.10015  0.11689  Biso   1.000  O
  C796     1.0000 0.68689  0.68842  0.66423  Biso   1.000  C
  C797     1.0000 0.68688  0.68842  0.66418  Biso   1.000  C
  H937     1.0000 0.86712  0.68948  0.71243  Biso   1.000  H
  H938     1.0000 0.77516  0.65250  0.75903  Biso   1.000  H
  H939     1.0000 0.77507  0.65250  0.75903  Biso   1.000  H
  H940     1.0000 0.86712  0.68954  0.71243  Biso   1.000  H
  H941     1.0000 0.86702  0.68948  0.71243  Biso   1.000  H
  H942     1.0000 0.86702  0.68954  0.71243  Biso   1.000  H
  H943     1.0000 0.87559  0.97561  0.18303  Biso   1.000  H
  H944     1.0000 0.87549  0.97561  0.18303  Biso   1.000  H
  H945     1.0000 0.82897  0.05660  0.16222  Biso   1.000  H
  H946     1.0000 0.82888  0.05660  0.16222  Biso   1.000  H
  H947     1.0000 0.82897  0.05665  0.16222  Biso   1.000  H
  H948     1.0000 0.82888  0.05665  0.16222  Biso   1.000  H
  O177     1.0000 0.01430  0.04822  0.18027  Biso   1.000  O
  O178     1.0000 0.01421  0.04822  0.18027  Biso   1.000  O
  O179     1.0000 0.01430  0.04828  0.18027  Biso   1.000  O
  O180     1.0000 0.01421  0.04828  0.18027  Biso   1.000  O
  O181     1.0000 0.47195  0.81600  0.51980  Biso   1.000  O
  H949     1.0000 0.34391  0.81459  0.43668  Biso   1.000  H
  H950     1.0000 0.32822  0.75080  0.49029  Biso   1.000  H
  H951     1.0000 0.34381  0.81459  0.43668  Biso   1.000  H
  H952     1.0000 0.32813  0.75080  0.49029  Biso   1.000  H
  O182     1.0000 0.47195  0.81605  0.51980  Biso   1.000  O
  H953     1.0000 0.34391  0.81465  0.43668  Biso   1.000  H
  H954     1.0000 0.34381  0.81465  0.43668  Biso   1.000  H
  C798     1.0000 0.44972  0.12910  0.15973  Biso   1.000  C
  C799     1.0000 0.44972  0.12915  0.15973  Biso   1.000  C
  O183     1.0000 0.69270  0.74355  0.61275  Biso   1.000  O
  O184     1.0000 0.69270  0.74361  0.61275  Biso   1.000  O
  O185     1.0000 0.69261  0.74355  0.61275  Biso   1.000  O
  O186     1.0000 0.69261  0.74361  0.61275  Biso   1.000  O
  H955     1.0000 0.60562  0.69089  0.68021  Biso   1.000  H
  H956     1.0000 0.69359  0.64008  0.64252  Biso   1.000  H
  H957     1.0000 0.60553  0.69089  0.68021  Biso   1.000  H
  H958     1.0000 0.69359  0.64014  0.64252  Biso   1.000  H
  C800     1.0000 0.03378  0.06778  0.25129  Biso   1.000  C
  C801     1.0000 0.03369  0.06778  0.25129  Biso   1.000  C
  C802     1.0000 0.03378  0.06784  0.25129  Biso   1.000  C
  C803     1.0000 0.03369  0.06784  0.25129  Biso   1.000  C
  C804     1.0000 0.48734  0.80650  0.59449  Biso   1.000  C
  C805     1.0000 0.48724  0.80650  0.59449  Biso   1.000  C
  C806     1.0000 0.46048  0.20699  0.16779  Biso   1.000  C
  C807     1.0000 0.53333  0.07930  0.19773  Biso   1.000  C
  C808     1.0000 0.46039  0.20699  0.16779  Biso   1.000  C
  C809     1.0000 0.46048  0.20705  0.16779  Biso   1.000  C
  C810     1.0000 0.46039  0.20705  0.16779  Biso   1.000  C
  C811     1.0000 0.62483  0.80998  0.62288  Biso   1.000  C
  C812     1.0000 0.62474  0.80998  0.62288  Biso   1.000  C
  C813     1.0000 0.62483  0.81004  0.62288  Biso   1.000  C
  C814     1.0000 0.62474  0.81004  0.62288  Biso   1.000  C
  C815     1.0000 0.08197  0.01439  0.30123  Biso   1.000  C
  C816     1.0000 0.00851  0.14152  0.27024  Biso   1.000  C
  C817     1.0000 0.00840  0.14152  0.27018  Biso   1.000  C
  C818     1.0000 0.08197  0.01444  0.30123  Biso   1.000  C
  C819     1.0000 0.00841  0.14152  0.27024  Biso   1.000  C
  H959     1.0000 0.44263  0.84539  0.61582  Biso   1.000  H
  H960     1.0000 0.45334  0.75889  0.60611  Biso   1.000  H
  H961     1.0000 0.44254  0.84539  0.61582  Biso   1.000  H
  H962     1.0000 0.45325  0.75889  0.60611  Biso   1.000  H
  H963     1.0000 0.44263  0.84544  0.61582  Biso   1.000  H
  H964     1.0000 0.44254  0.84544  0.61582  Biso   1.000  H
  C820     1.0000 0.55999  0.23391  0.21594  Biso   1.000  C
  C821     1.0000 0.37241  0.26213  0.12544  Biso   1.000  C
  C822     1.0000 0.55989  0.23391  0.21588  Biso   1.000  C
  C823     1.0000 0.37240  0.26213  0.12538  Biso   1.000  C
  C824     1.0000 0.52893  0.99449  0.18849  Biso   1.000  C
  C825     1.0000 0.52893  0.99455  0.18849  Biso   1.000  C
  C826     1.0000 0.63194  0.10999  0.24402  Biso   1.000  C
  C827     1.0000 0.63194  0.11004  0.24402  Biso   1.000  C
  H965     1.0000 0.63285  0.82072  0.67283  Biso   1.000  H
  H966     1.0000 0.66244  0.85101  0.60032  Biso   1.000  H
  H967     1.0000 0.63276  0.82072  0.67283  Biso   1.000  H
  H968     1.0000 0.66234  0.85101  0.60032  Biso   1.000  H
  C828     1.0000 0.11223  0.93520  0.27963  Biso   1.000  C
  C829     1.0000 0.09878  0.03591  0.37162  Biso   1.000  C
  C830     1.0000 0.09869  0.03591  0.37162  Biso   1.000  C
  C831     1.0000 0.95862  0.20042  0.21583  Biso   1.000  C
  C832     1.0000 0.02739  0.15950  0.34189  Biso   1.000  C
  C833     1.0000 0.02730  0.15950  0.34189  Biso   1.000  C
  H969     1.0000 0.56918  0.28708  0.22289  Biso   1.000  H
  C834     1.0000 0.64461  0.18670  0.25309  Biso   1.000  C
  H970     1.0000 0.56909  0.28708  0.22289  Biso   1.000  H
  H971     1.0000 0.56918  0.28714  0.22289  Biso   1.000  H
  H972     1.0000 0.56909  0.28714  0.22289  Biso   1.000  H
  C835     1.0000 0.23179  0.24560  0.11164  Biso   1.000  C
  H973     1.0000 0.40161  0.26820  0.08011  Biso   1.000  H
  H974     1.0000 0.38252  0.30978  0.14911  Biso   1.000  H
  C836     1.0000 0.23168  0.24560  0.11158  Biso   1.000  C
  H975     1.0000 0.40161  0.26825  0.08011  Biso   1.000  H
  H976     1.0000 0.38252  0.30984  0.14911  Biso   1.000  H
  C837     1.0000 0.40213  0.95509  0.18069  Biso   1.000  C
  H977     1.0000 0.56837  0.98258  0.14741  Biso   1.000  H
  H978     1.0000 0.58017  0.97280  0.22873  Biso   1.000  H
  H979     1.0000 0.56828  0.98258  0.14741  Biso   1.000  H
  H980     1.0000 0.58008  0.97280  0.22873  Biso   1.000  H
  H981     1.0000 0.56837  0.98263  0.14741  Biso   1.000  H
  H982     1.0000 0.56828  0.98263  0.14741  Biso   1.000  H
  H983     1.0000 0.69230  0.07711  0.27013  Biso   1.000  H
  H984     1.0000 0.69221  0.07711  0.27013  Biso   1.000  H
  C838     1.0000 0.20398  0.92559  0.22613  Biso   1.000  C
  H985     1.0000 0.14504  0.90822  0.32172  Biso   1.000  H
  H986     1.0000 0.03459  0.91143  0.26074  Biso   1.000  H
  C839     1.0000 0.20388  0.92559  0.22613  Biso   1.000  C
  H987     1.0000 0.03450  0.91143  0.26074  Biso   1.000  H
  C840     1.0000 0.20398  0.92564  0.22613  Biso   1.000  C
  C841     1.0000 0.20388  0.92564  0.22613  Biso   1.000  C
  H988     1.0000 0.13052  0.99989  0.40713  Biso   1.000  H
  H989     1.0000 0.13043  0.99989  0.40713  Biso   1.000  H
  H990     1.0000 0.13052  0.99994  0.40713  Biso   1.000  H
  H991     1.0000 0.13043  0.99994  0.40713  Biso   1.000  H
  C842     1.0000 0.07139  0.10763  0.39232  Biso   1.000  C
  C843     1.0000 0.07130  0.10763  0.39232  Biso   1.000  C
  H992     1.0000 0.87573  0.18541  0.19524  Biso   1.000  H
  H993     1.0000 0.95017  0.24678  0.24041  Biso   1.000  H
  H994     1.0000 0.87572  0.18541  0.19518  Biso   1.000  H
  H995     1.0000 0.95017  0.24684  0.24041  Biso   1.000  H
  H996     1.0000 0.95007  0.24678  0.24041  Biso   1.000  H
  H997     1.0000 0.95007  0.24684  0.24041  Biso   1.000  H
  C844     1.0000 0.03465  0.21582  0.15622  Biso   1.000  C
  H998     1.0000 0.00921  0.20952  0.35644  Biso   1.000  H
  H999     1.0000 0.00910  0.20952  0.35638  Biso   1.000  H
  H1000    1.0000 0.71283  0.20671  0.28563  Biso   1.000  H
  C845     1.0000 0.16292  0.23408  0.16753  Biso   1.000  C
  C846     1.0000 0.16913  0.24459  0.04332  Biso   1.000  C
  C847     1.0000 0.16292  0.23414  0.16753  Biso   1.000  C
  C848     1.0000 0.16913  0.24465  0.04332  Biso   1.000  C
  C849     1.0000 0.32295  0.95948  0.23361  Biso   1.000  C
  C850     1.0000 0.36290  0.90991  0.12151  Biso   1.000  C
  C851     1.0000 0.32295  0.95953  0.23361  Biso   1.000  C
  C852     1.0000 0.16946  0.88271  0.16594  Biso   1.000  C
  C853     1.0000 0.16945  0.88271  0.16588  Biso   1.000  C
  C854     1.0000 0.16936  0.88271  0.16588  Biso   1.000  C
  H1001    1.0000 0.08300  0.12100  0.44163  Biso   1.000  H
  H1002    1.0000 0.08291  0.12100  0.44163  Biso   1.000  H
  C855     1.0000 0.97672  0.21419  0.08653  Biso   1.000  C
  C856     1.0000 0.97672  0.21424  0.08653  Biso   1.000  C
  O187     1.0000 0.22570  0.23689  0.23674  Biso   1.000  O
  O188     1.0000 0.22561  0.23689  0.23674  Biso   1.000  O
  C857     1.0000 0.04307  0.22891  0.03069  Biso   1.000  C
  H1003    1.0000 0.21461  0.25493  0.00410  Biso   1.000  H
  C858     1.0000 0.04298  0.22891  0.03069  Biso   1.000  C
  O189     1.0000 0.36962  0.99904  0.29428  Biso   1.000  O
  O190     1.0000 0.36962  0.99910  0.29428  Biso   1.000  O
  H1004    1.0000 0.41653  0.90401  0.08520  Biso   1.000  H
  C859     1.0000 0.24776  0.87371  0.11482  Biso   1.000  C
  C860     1.0000 0.24766  0.87371  0.11482  Biso   1.000  C
  H1005    1.0000 0.08853  0.85860  0.15973  Biso   1.000  H
  H1006    1.0000 0.88866  0.20261  0.07703  Biso   1.000  H
  H1007    1.0000 0.88857  0.20261  0.07703  Biso   1.000  H
  C861     1.0000 0.21517  0.30658  0.27284  Biso   1.000  C
  C862     1.0000 0.21515  0.30658  0.27278  Biso   1.000  C
  C863     1.0000 0.21517  0.30664  0.27284  Biso   1.000  C
  C864     1.0000 0.21515  0.30664  0.27278  Biso   1.000  C
  H1008    1.0000 0.00081  0.22829  0.98292  Biso   1.000  H
  H1009    1.0000 0.00081  0.22835  0.98292  Biso   1.000  H
  C865     1.0000 0.39545  0.95279  0.35649  Biso   1.000  C
  C866     1.0000 0.39545  0.95285  0.35649  Biso   1.000  C
  H1010    1.0000 0.22256  0.84219  0.07453  Biso   1.000  H
  H1011    1.0000 0.22247  0.84219  0.07453  Biso   1.000  H
  H1012    1.0000 0.22256  0.84224  0.07453  Biso   1.000  H
  H1013    1.0000 0.22247  0.84224  0.07453  Biso   1.000  H
  H1014    1.0000 0.13305  0.31052  0.28759  Biso   1.000  H
  H1015    1.0000 0.22501  0.34750  0.24099  Biso   1.000  H
  C867     1.0000 0.31328  0.31158  0.33579  Biso   1.000  C
  C868     1.0000 0.31319  0.31158  0.33579  Biso   1.000  C
  H1016    1.0000 0.22501  0.34755  0.24099  Biso   1.000  H
  C869     1.0000 0.31328  0.31164  0.33579  Biso   1.000  C
  C870     1.0000 0.31319  0.31164  0.33579  Biso   1.000  C
  C871     1.0000 0.51021  0.97729  0.40309  Biso   1.000  C
  H1017    1.0000 0.40604  0.90170  0.34221  Biso   1.000  H
  H1018    1.0000 0.32480  0.95459  0.38271  Biso   1.000  H
  C872     1.0000 0.51011  0.97729  0.40309  Biso   1.000  C
  H1019    1.0000 0.32471  0.95459  0.38271  Biso   1.000  H
  H1020    1.0000 0.32480  0.95465  0.38271  Biso   1.000  H
  H1021    1.0000 0.32471  0.95465  0.38271  Biso   1.000  H
  O191     1.0000 0.30746  0.25645  0.38728  Biso   1.000  O
  H1022    1.0000 0.39455  0.30911  0.31981  Biso   1.000  H
  H1023    1.0000 0.30658  0.35992  0.35750  Biso   1.000  H
  H1024    1.0000 0.30649  0.35992  0.35750  Biso   1.000  H
  O192     1.0000 0.61986  0.95931  0.37268  Biso   1.000  O
  H1025    1.0000 0.51325  0.95307  0.44853  Biso   1.000  H
  H1026    1.0000 0.51325  0.95313  0.44853  Biso   1.000  H
  H1027    1.0000 0.50680  0.03057  0.41052  Biso   1.000  H
  H1028    1.0000 0.50671  0.03057  0.41052  Biso   1.000  H
  H1029    1.0000 0.50680  0.03063  0.41052  Biso   1.000  H
  H1030    1.0000 0.50671  0.03063  0.41052  Biso   1.000  H
  C873     1.0000 0.37534  0.19002  0.37714  Biso   1.000  C
  C874     1.0000 0.37533  0.19002  0.37708  Biso   1.000  C
  C875     1.0000 0.73180  0.95583  0.42284  Biso   1.000  C
  C876     1.0000 0.73169  0.95583  0.42279  Biso   1.000  C
  H1031    1.0000 0.36732  0.17928  0.32719  Biso   1.000  H
  H1032    1.0000 0.33773  0.14899  0.39970  Biso   1.000  H
  C877     1.0000 0.51283  0.19350  0.40553  Biso   1.000  C
  H1033    1.0000 0.36732  0.17934  0.32719  Biso   1.000  H
  H1034    1.0000 0.33773  0.14905  0.39970  Biso   1.000  H
  H1035    1.0000 0.79129  0.92328  0.40442  Biso   1.000  H
  H1036    1.0000 0.71133  0.93402  0.46599  Biso   1.000  H
  H1037    1.0000 0.79120  0.92328  0.40442  Biso   1.000  H
  H1038    1.0000 0.79129  0.92334  0.40442  Biso   1.000  H
  H1039    1.0000 0.79120  0.92334  0.40442  Biso   1.000  H
  C878     1.0000 0.79211  0.03091  0.43913  Biso   1.000  C
  C879     1.0000 0.79202  0.03091  0.43913  Biso   1.000  C
  O193     1.0000 0.52822  0.18400  0.48022  Biso   1.000  O
  H1040    1.0000 0.55754  0.15461  0.38420  Biso   1.000  H
  H1041    1.0000 0.54682  0.24111  0.39391  Biso   1.000  H
  O194     1.0000 0.52813  0.18400  0.48022  Biso   1.000  O
  O195     1.0000 0.71835  0.07441  0.48085  Biso   1.000  O
  H1042    1.0000 0.87505  0.02411  0.46429  Biso   1.000  H
  H1043    1.0000 0.79988  0.05688  0.39561  Biso   1.000  H
  H1044    1.0000 0.79979  0.05688  0.39561  Biso   1.000  H
  H1045    1.0000 0.79988  0.05693  0.39561  Biso   1.000  H
  H1046    1.0000 0.79979  0.05693  0.39561  Biso   1.000  H
  C880     1.0000 0.65280  0.19682  0.51371  Biso   1.000  C
  C881     1.0000 0.65270  0.19682  0.51371  Biso   1.000  C
  C882     1.0000 0.75221  0.15158  0.48383  Biso   1.000  C
  C883     1.0000 0.75211  0.15158  0.48383  Biso   1.000  C
  C884     1.0000 0.75221  0.15163  0.48383  Biso   1.000  C
  C885     1.0000 0.75211  0.15163  0.48383  Biso   1.000  C
  H1047    1.0000 0.65626  0.18541  0.56334  Biso   1.000  H
  H1048    1.0000 0.67195  0.24920  0.50973  Biso   1.000  H
  H1049    1.0000 0.65625  0.18541  0.56329  Biso   1.000  H
  H1050    1.0000 0.67195  0.24926  0.50973  Biso   1.000  H
  H1051    1.0000 0.76108  0.16928  0.43701  Biso   1.000  H
  H1052    1.0000 0.83156  0.15781  0.51323  Biso   1.000  H
  H1053    1.0000 0.76108  0.16934  0.43701  Biso   1.000  H
  H1054    1.0000 0.76098  0.16928  0.43701  Biso   1.000  H
  H1055    1.0000 0.76098  0.16934  0.43701  Biso   1.000  H
  C886     1.0000 0.75241  0.12629  0.88520  Biso   1.000  C
  C887     1.0000 0.83071  0.11729  0.83409  Biso   1.000  C
  C888     1.0000 0.83071  0.11735  0.83409  Biso   1.000  C
  C889     1.0000 0.63727  0.09009  0.87851  Biso   1.000  C
  C890     1.0000 0.63718  0.09009  0.87851  Biso   1.000  C
  C891     1.0000 0.63727  0.09015  0.87851  Biso   1.000  C
  C892     1.0000 0.63718  0.09015  0.87851  Biso   1.000  C
  H1056    1.0000 0.77761  0.15781  0.92549  Biso   1.000  H
  C893     1.0000 0.79619  0.07441  0.77389  Biso   1.000  C
  H1057    1.0000 0.91164  0.14140  0.84030  Biso   1.000  H
  H1058    1.0000 0.91155  0.14140  0.84030  Biso   1.000  H
  C894     1.0000 0.75241  0.12634  0.88520  Biso   1.000  C
  C895     1.0000 0.59804  0.04491  0.81933  Biso   1.000  C
  C896     1.0000 0.59795  0.04491  0.81933  Biso   1.000  C
  H1059    1.0000 0.58363  0.09599  0.91482  Biso   1.000  H
  H1060    1.0000 0.58363  0.09605  0.91482  Biso   1.000  H
  H1061    1.0000 0.58354  0.09599  0.91482  Biso   1.000  H
  H1062    1.0000 0.58354  0.09605  0.91482  Biso   1.000  H
  C897     1.0000 0.67722  0.04052  0.76641  Biso   1.000  C
  C898     1.0000 0.67713  0.04052  0.76641  Biso   1.000  C
  C899     1.0000 0.88794  0.06480  0.72039  Biso   1.000  C
  C900     1.0000 0.88784  0.06480  0.72039  Biso   1.000  C
  C901     1.0000 0.47124  0.00551  0.81153  Biso   1.000  C
  C902     1.0000 0.47115  0.00551  0.81153  Biso   1.000  C
  O196     1.0000 0.63045  0.00096  0.70574  Biso   1.000  O
  O197     1.0000 0.63055  0.00096  0.70574  Biso   1.000  O
  C903     1.0000 0.91820  0.98561  0.69879  Biso   1.000  C
  H1063    1.0000 0.85513  0.09178  0.67830  Biso   1.000  H
  H1064    1.0000 0.96558  0.08857  0.73929  Biso   1.000  H
  H1065    1.0000 0.85503  0.09178  0.67830  Biso   1.000  H
  H1066    1.0000 0.85513  0.09183  0.67830  Biso   1.000  H
  H1067    1.0000 0.96558  0.08863  0.73929  Biso   1.000  H
  H1068    1.0000 0.85503  0.09183  0.67830  Biso   1.000  H
  H1069    1.0000 0.43180  0.01742  0.85261  Biso   1.000  H
  H1070    1.0000 0.42000  0.02720  0.77129  Biso   1.000  H
  C904     1.0000 0.46684  0.92070  0.80229  Biso   1.000  C
  C905     1.0000 0.46675  0.92070  0.80229  Biso   1.000  C
  C906     1.0000 0.60471  0.04721  0.64353  Biso   1.000  C
  C907     1.0000 0.60470  0.04721  0.64348  Biso   1.000  C
  C908     1.0000 0.60461  0.04721  0.64348  Biso   1.000  C
  C909     1.0000 0.96639  0.93222  0.74873  Biso   1.000  C
  C910     1.0000 0.90139  0.96409  0.62840  Biso   1.000  C
  C911     1.0000 0.96637  0.93222  0.74868  Biso   1.000  C
  C912     1.0000 0.90139  0.96414  0.62840  Biso   1.000  C
  C913     1.0000 0.55044  0.87090  0.84030  Biso   1.000  C
  C914     1.0000 0.36823  0.89001  0.75601  Biso   1.000  C
  C915     1.0000 0.55035  0.87090  0.84030  Biso   1.000  C
  C916     1.0000 0.36814  0.89001  0.75601  Biso   1.000  C
  C917     1.0000 0.48996  0.02271  0.59693  Biso   1.000  C
  H1071    1.0000 0.67537  0.04541  0.61731  Biso   1.000  H
  H1072    1.0000 0.59413  0.09830  0.65781  Biso   1.000  H
  H1073    1.0000 0.59404  0.09830  0.65781  Biso   1.000  H
  O198     1.0000 0.98587  0.95178  0.81975  Biso   1.000  O
  C918     1.0000 0.99166  0.85848  0.72978  Biso   1.000  C
  C919     1.0000 0.99166  0.85854  0.72978  Biso   1.000  C
  H1074    1.0000 0.86965  0.00011  0.59289  Biso   1.000  H
  C920     1.0000 0.92878  0.89237  0.60770  Biso   1.000  C
  C921     1.0000 0.92878  0.89243  0.60770  Biso   1.000  C
  O199     1.0000 0.65451  0.89990  0.88313  Biso   1.000  O
  C922     1.0000 0.53969  0.79301  0.83223  Biso   1.000  C
  C923     1.0000 0.35556  0.81330  0.74693  Biso   1.000  C
  H1075    1.0000 0.30787  0.92289  0.72989  Biso   1.000  H
  C924     1.0000 0.35546  0.81330  0.74693  Biso   1.000  C
  H1076    1.0000 0.30787  0.92295  0.72989  Biso   1.000  H
  O200     1.0000 0.38031  0.04069  0.62734  Biso   1.000  O
  H1077    1.0000 0.49337  0.96943  0.58950  Biso   1.000  H
  H1078    1.0000 0.48692  0.04693  0.55149  Biso   1.000  H
  H1079    1.0000 0.48682  0.04693  0.55149  Biso   1.000  H
  O201     1.0000 0.38022  0.04069  0.62734  Biso   1.000  O
  C925     1.0000 0.10819  0.98039  0.84359  Biso   1.000  C
  C926     1.0000 0.10819  0.98044  0.84359  Biso   1.000  C
  C927     1.0000 0.97278  0.84050  0.65813  Biso   1.000  C
  C928     1.0000 0.04154  0.79958  0.78419  Biso   1.000  C
  C929     1.0000 0.04145  0.79958  0.78419  Biso   1.000  C
  C930     1.0000 0.04154  0.79964  0.78419  Biso   1.000  C
  C931     1.0000 0.04145  0.79964  0.78419  Biso   1.000  C
  H1080    1.0000 0.91717  0.87900  0.55839  Biso   1.000  H
  C932     1.0000 0.64290  0.91412  0.95542  Biso   1.000  C
  C933     1.0000 0.44017  0.76609  0.78408  Biso   1.000  C
  C934     1.0000 0.62776  0.73787  0.87458  Biso   1.000  C
  C935     1.0000 0.62767  0.73787  0.87458  Biso   1.000  C
  C936     1.0000 0.44017  0.76614  0.78408  Biso   1.000  C
  C937     1.0000 0.62776  0.73793  0.87458  Biso   1.000  C
  C938     1.0000 0.62767  0.73793  0.87458  Biso   1.000  C
  H1081    1.0000 0.28734  0.79329  0.71439  Biso   1.000  H
  H1082    1.0000 0.28725  0.79329  0.71439  Biso   1.000  H
  H1083    1.0000 0.28734  0.79335  0.71439  Biso   1.000  H
  H1084    1.0000 0.28725  0.79335  0.71439  Biso   1.000  H
  C939     1.0000 0.26837  0.04417  0.57718  Biso   1.000  C
  C940     1.0000 0.26837  0.04423  0.57718  Biso   1.000  C
  C941     1.0000 0.11056  0.99933  0.91891  Biso   1.000  C
  H1085    1.0000 0.17120  0.94340  0.83780  Biso   1.000  H
  C942     1.0000 0.11046  0.99933  0.91891  Biso   1.000  C
  H1086    1.0000 0.12458  0.02439  0.81699  Biso   1.000  H
  H1087    1.0000 0.12458  0.02445  0.81699  Biso   1.000  H
  H1088    1.0000 0.99096  0.79048  0.64358  Biso   1.000  H
  H1089    1.0000 0.99096  0.79054  0.64358  Biso   1.000  H
  C943     1.0000 0.96552  0.78418  0.84380  Biso   1.000  C
  C944     1.0000 0.96552  0.78424  0.84380  Biso   1.000  C
  C945     1.0000 0.96542  0.78418  0.84380  Biso   1.000  C
  C946     1.0000 0.96542  0.78424  0.84380  Biso   1.000  C
  H1090    1.0000 0.12444  0.81459  0.80479  Biso   1.000  H
  H1091    1.0000 0.05000  0.75322  0.75962  Biso   1.000  H
  H1092    1.0000 0.12435  0.81459  0.80479  Biso   1.000  H
  H1093    1.0000 0.12444  0.81465  0.80479  Biso   1.000  H
  H1094    1.0000 0.12435  0.81465  0.80479  Biso   1.000  H
  C947     1.0000 0.77039  0.94458  0.98499  Biso   1.000  C
  H1095    1.0000 0.62448  0.86882  0.97931  Biso   1.000  H
  H1096    1.0000 0.57787  0.95032  0.95972  Biso   1.000  H
  H1097    1.0000 0.62438  0.86882  0.97931  Biso   1.000  H
  H1098    1.0000 0.57778  0.95032  0.95972  Biso   1.000  H
  C948     1.0000 0.77039  0.94464  0.98499  Biso   1.000  C
  H1099    1.0000 0.43098  0.71292  0.77713  Biso   1.000  H
  C949     1.0000 0.76838  0.75440  0.88839  Biso   1.000  C
  H1100    1.0000 0.59856  0.73180  0.91991  Biso   1.000  H
  H1101    1.0000 0.61765  0.69022  0.85091  Biso   1.000  H
  H1102    1.0000 0.59846  0.73180  0.91991  Biso   1.000  H
  H1103    1.0000 0.61756  0.69022  0.85091  Biso   1.000  H
  H1104    1.0000 0.20888  0.07672  0.59560  Biso   1.000  H
  C950     1.0000 0.20805  0.96909  0.56089  Biso   1.000  C
  C951     1.0000 0.20805  0.96915  0.56089  Biso   1.000  C
  H1105    1.0000 0.28884  0.06598  0.53403  Biso   1.000  H
  H1106    1.0000 0.28874  0.06598  0.53403  Biso   1.000  H
  H1107    1.0000 0.28884  0.06604  0.53403  Biso   1.000  H
  H1108    1.0000 0.28874  0.06604  0.53403  Biso   1.000  H
  H1109    1.0000 0.09401  0.95521  0.94523  Biso   1.000  H
  O202     1.0000 0.23201  0.02928  0.94582  Biso   1.000  O
  H1110    1.0000 0.04637  0.03569  0.92443  Biso   1.000  H
  H1111    1.0000 0.04627  0.03569  0.92443  Biso   1.000  H
  O203     1.0000 0.23201  0.02934  0.94582  Biso   1.000  O
  H1112    1.0000 0.04637  0.03574  0.92443  Biso   1.000  H
  H1113    1.0000 0.04627  0.03574  0.92443  Biso   1.000  H
  C952     1.0000 0.83725  0.76592  0.83249  Biso   1.000  C
  C953     1.0000 0.83715  0.76592  0.83249  Biso   1.000  C
  C954     1.0000 0.02345  0.78581  0.91349  Biso   1.000  C
  C955     1.0000 0.02336  0.78581  0.91349  Biso   1.000  C
  H1114    1.0000 0.83260  0.90581  0.98499  Biso   1.000  H
  H1115    1.0000 0.79284  0.98499  0.95553  Biso   1.000  H
  H1116    1.0000 0.79275  0.98499  0.95553  Biso   1.000  H
  O204     1.0000 0.76816  0.97072  0.05420  Biso   1.000  O
  O205     1.0000 0.76807  0.97072  0.05420  Biso   1.000  O
  C956     1.0000 0.83104  0.75541  0.95670  Biso   1.000  C
  C957     1.0000 0.83095  0.75541  0.95670  Biso   1.000  C
  O206     1.0000 0.28182  0.92559  0.51917  Biso   1.000  O
  H1117    1.0000 0.12512  0.97589  0.53573  Biso   1.000  H
  H1118    1.0000 0.20029  0.94312  0.60441  Biso   1.000  H
  O207     1.0000 0.28172  0.92559  0.51917  Biso   1.000  O
  H1119    1.0000 0.12503  0.97589  0.53573  Biso   1.000  H
  O208     1.0000 0.28182  0.92564  0.51917  Biso   1.000  O
  H1120    1.0000 0.12512  0.97595  0.53573  Biso   1.000  H
  O209     1.0000 0.28172  0.92564  0.51917  Biso   1.000  O
  H1121    1.0000 0.12503  0.97595  0.53573  Biso   1.000  H
  C958     1.0000 0.22977  0.05542  0.01503  Biso   1.000  C
  C959     1.0000 0.22968  0.05542  0.01503  Biso   1.000  C
  O210     1.0000 0.77447  0.76311  0.76328  Biso   1.000  O
  O211     1.0000 0.77447  0.76317  0.76328  Biso   1.000  O
  C960     1.0000 0.95710  0.77109  0.96933  Biso   1.000  C
  H1122    1.0000 0.11151  0.79739  0.92299  Biso   1.000  H
  C961     1.0000 0.88961  0.00067  0.08112  Biso   1.000  C
  C962     1.0000 0.88961  0.00073  0.08112  Biso   1.000  C
  H1123    1.0000 0.78556  0.74507  0.99592  Biso   1.000  H
  H1124    1.0000 0.78546  0.74507  0.99592  Biso   1.000  H
  H1125    1.0000 0.78556  0.74512  0.99592  Biso   1.000  H
  H1126    1.0000 0.78546  0.74512  0.99592  Biso   1.000  H
  C963     1.0000 0.24796  0.84842  0.51619  Biso   1.000  C
  C964     1.0000 0.35727  0.08588  0.04460  Biso   1.000  C
  H1127    1.0000 0.16757  0.09419  0.01503  Biso   1.000  H
  H1128    1.0000 0.20733  0.01501  0.04449  Biso   1.000  H
  C965     1.0000 0.35717  0.08588  0.04460  Biso   1.000  C
  H1129    1.0000 0.16747  0.09419  0.01503  Biso   1.000  H
  C966     1.0000 0.35727  0.08593  0.04460  Biso   1.000  C
  H1130    1.0000 0.16757  0.09425  0.01503  Biso   1.000  H
  C967     1.0000 0.35717  0.08593  0.04460  Biso   1.000  C
  H1131    1.0000 0.16747  0.09425  0.01503  Biso   1.000  H
  C968     1.0000 0.78500  0.69342  0.72718  Biso   1.000  C
  H1132    1.0000 0.99936  0.77171  0.01710  Biso   1.000  H
  H1133    1.0000 0.99927  0.77171  0.01710  Biso   1.000  H
  H1134    1.0000 0.95380  0.96431  0.07560  Biso   1.000  H
  C969     1.0000 0.89198  0.01961  0.15643  Biso   1.000  C
  H1135    1.0000 0.90616  0.04479  0.05479  Biso   1.000  H
  C970     1.0000 0.89187  0.01961  0.15638  Biso   1.000  C
  H1136    1.0000 0.90607  0.04479  0.05479  Biso   1.000  H
  H1137    1.0000 0.90616  0.04485  0.05479  Biso   1.000  H
  H1138    1.0000 0.90607  0.04485  0.05479  Biso   1.000  H
  C971     1.0000 0.34737  0.80318  0.48631  Biso   1.000  C
  H1139    1.0000 0.23909  0.83072  0.56301  Biso   1.000  H
  H1140    1.0000 0.16861  0.84219  0.48679  Biso   1.000  H
  H1141    1.0000 0.16852  0.84219  0.48679  Biso   1.000  H
  C972     1.0000 0.34737  0.80324  0.48631  Biso   1.000  C
  H1142    1.0000 0.16861  0.84224  0.48679  Biso   1.000  H
  H1143    1.0000 0.16852  0.84224  0.48679  Biso   1.000  H
  O212     1.0000 0.34566  0.10010  0.11689  Biso   1.000  O
  H1144    1.0000 0.37569  0.13118  0.02071  Biso   1.000  H
  H1145    1.0000 0.42230  0.04968  0.04030  Biso   1.000  H
  O213     1.0000 0.34557  0.10010  0.11689  Biso   1.000  O
  O214     1.0000 0.34566  0.10015  0.11689  Biso   1.000  O
  H1146    1.0000 0.37569  0.13123  0.02071  Biso   1.000  H
  H1147    1.0000 0.42230  0.04974  0.04030  Biso   1.000  H
  O215     1.0000 0.34557  0.10015  0.11689  Biso   1.000  O
  C973     1.0000 0.68689  0.68842  0.66423  Biso   1.000  C
  C974     1.0000 0.68688  0.68842  0.66418  Biso   1.000  C
  H1148    1.0000 0.86712  0.68948  0.71243  Biso   1.000  H
  H1149    1.0000 0.77516  0.65250  0.75903  Biso   1.000  H
  H1150    1.0000 0.77507  0.65250  0.75903  Biso   1.000  H
  H1151    1.0000 0.86712  0.68954  0.71243  Biso   1.000  H
  H1152    1.0000 0.86702  0.68948  0.71243  Biso   1.000  H
  H1153    1.0000 0.86702  0.68954  0.71243  Biso   1.000  H
  H1154    1.0000 0.87559  0.97561  0.18303  Biso   1.000  H
  H1155    1.0000 0.87549  0.97561  0.18303  Biso   1.000  H
  H1156    1.0000 0.82897  0.05660  0.16222  Biso   1.000  H
  H1157    1.0000 0.82888  0.05660  0.16222  Biso   1.000  H
  H1158    1.0000 0.82897  0.05665  0.16222  Biso   1.000  H
  H1159    1.0000 0.82888  0.05665  0.16222  Biso   1.000  H
  O216     1.0000 0.01430  0.04822  0.18027  Biso   1.000  O
  O217     1.0000 0.01421  0.04822  0.18027  Biso   1.000  O
  O218     1.0000 0.01430  0.04828  0.18027  Biso   1.000  O
  O219     1.0000 0.01421  0.04828  0.18027  Biso   1.000  O
  O220     1.0000 0.47195  0.81600  0.51980  Biso   1.000  O
  H1160    1.0000 0.34391  0.81459  0.43668  Biso   1.000  H
  H1161    1.0000 0.32822  0.75080  0.49029  Biso   1.000  H
  H1162    1.0000 0.34381  0.81459  0.43668  Biso   1.000  H
  H1163    1.0000 0.32813  0.75080  0.49029  Biso   1.000  H
  O221     1.0000 0.47195  0.81605  0.51980  Biso   1.000  O
  H1164    1.0000 0.34391  0.81465  0.43668  Biso   1.000  H
  H1165    1.0000 0.34381  0.81465  0.43668  Biso   1.000  H
  C975     1.0000 0.44972  0.12910  0.15973  Biso   1.000  C
  C976     1.0000 0.44972  0.12915  0.15973  Biso   1.000  C
  O222     1.0000 0.69270  0.74355  0.61275  Biso   1.000  O
  O223     1.0000 0.69270  0.74361  0.61275  Biso   1.000  O
  O224     1.0000 0.69261  0.74355  0.61275  Biso   1.000  O
  O225     1.0000 0.69261  0.74361  0.61275  Biso   1.000  O
  H1166    1.0000 0.60562  0.69089  0.68021  Biso   1.000  H
  H1167    1.0000 0.69359  0.64008  0.64252  Biso   1.000  H
  H1168    1.0000 0.60553  0.69089  0.68021  Biso   1.000  H
  H1169    1.0000 0.69359  0.64014  0.64252  Biso   1.000  H
  C977     1.0000 0.03378  0.06778  0.25129  Biso   1.000  C
  C978     1.0000 0.03369  0.06778  0.25129  Biso   1.000  C
  C979     1.0000 0.03378  0.06784  0.25129  Biso   1.000  C
  C980     1.0000 0.03369  0.06784  0.25129  Biso   1.000  C
  C981     1.0000 0.48734  0.80650  0.59449  Biso   1.000  C
  C982     1.0000 0.48724  0.80650  0.59449  Biso   1.000  C
  C983     1.0000 0.46048  0.20699  0.16779  Biso   1.000  C
  C984     1.0000 0.53333  0.07930  0.19773  Biso   1.000  C
  C985     1.0000 0.46039  0.20699  0.16779  Biso   1.000  C
  C986     1.0000 0.46048  0.20705  0.16779  Biso   1.000  C
  C987     1.0000 0.46039  0.20705  0.16779  Biso   1.000  C
  C988     1.0000 0.62483  0.80998  0.62288  Biso   1.000  C
  C989     1.0000 0.62474  0.80998  0.62288  Biso   1.000  C
  C990     1.0000 0.62483  0.81004  0.62288  Biso   1.000  C
  C991     1.0000 0.62474  0.81004  0.62288  Biso   1.000  C
  C992     1.0000 0.08197  0.01439  0.30123  Biso   1.000  C
  C993     1.0000 0.00851  0.14152  0.27024  Biso   1.000  C
  C994     1.0000 0.00840  0.14152  0.27018  Biso   1.000  C
  C995     1.0000 0.08197  0.01444  0.30123  Biso   1.000  C
  C996     1.0000 0.00841  0.14152  0.27024  Biso   1.000  C
  H1170    1.0000 0.44263  0.84539  0.61582  Biso   1.000  H
  H1171    1.0000 0.45334  0.75889  0.60611  Biso   1.000  H
  H1172    1.0000 0.44254  0.84539  0.61582  Biso   1.000  H
  H1173    1.0000 0.45325  0.75889  0.60611  Biso   1.000  H
  H1174    1.0000 0.44263  0.84544  0.61582  Biso   1.000  H
  H1175    1.0000 0.44254  0.84544  0.61582  Biso   1.000  H
  C997     1.0000 0.55999  0.23391  0.21594  Biso   1.000  C
  C998     1.0000 0.37241  0.26213  0.12544  Biso   1.000  C
  C999     1.0000 0.55989  0.23391  0.21588  Biso   1.000  C
  C1000    1.0000 0.37240  0.26213  0.12538  Biso   1.000  C
  C1001    1.0000 0.52893  0.99449  0.18849  Biso   1.000  C
  C1002    1.0000 0.52893  0.99455  0.18849  Biso   1.000  C
  C1003    1.0000 0.63194  0.10999  0.24402  Biso   1.000  C
  C1004    1.0000 0.63194  0.11004  0.24402  Biso   1.000  C
  H1176    1.0000 0.63285  0.82072  0.67283  Biso   1.000  H
  H1177    1.0000 0.66244  0.85101  0.60032  Biso   1.000  H
  H1178    1.0000 0.63276  0.82072  0.67283  Biso   1.000  H
  H1179    1.0000 0.66234  0.85101  0.60032  Biso   1.000  H
  C1005    1.0000 0.11223  0.93520  0.27963  Biso   1.000  C
  C1006    1.0000 0.09878  0.03591  0.37162  Biso   1.000  C
  C1007    1.0000 0.09869  0.03591  0.37162  Biso   1.000  C
  C1008    1.0000 0.95862  0.20042  0.21583  Biso   1.000  C
  C1009    1.0000 0.02739  0.15950  0.34189  Biso   1.000  C
  C1010    1.0000 0.02730  0.15950  0.34189  Biso   1.000  C
  H1180    1.0000 0.56918  0.28708  0.22289  Biso   1.000  H
  C1011    1.0000 0.64461  0.18670  0.25309  Biso   1.000  C
  H1181    1.0000 0.56909  0.28708  0.22289  Biso   1.000  H
  H1182    1.0000 0.56918  0.28714  0.22289  Biso   1.000  H
  H1183    1.0000 0.56909  0.28714  0.22289  Biso   1.000  H
  C1012    1.0000 0.23179  0.24560  0.11164  Biso   1.000  C
  H1184    1.0000 0.40161  0.26820  0.08011  Biso   1.000  H
  H1185    1.0000 0.38252  0.30978  0.14911  Biso   1.000  H
  C1013    1.0000 0.23168  0.24560  0.11158  Biso   1.000  C
  H1186    1.0000 0.40161  0.26825  0.08011  Biso   1.000  H
  H1187    1.0000 0.38252  0.30984  0.14911  Biso   1.000  H
  C1014    1.0000 0.40213  0.95509  0.18069  Biso   1.000  C
  H1188    1.0000 0.56837  0.98258  0.14741  Biso   1.000  H
  H1189    1.0000 0.58017  0.97280  0.22873  Biso   1.000  H
  H1190    1.0000 0.56828  0.98258  0.14741  Biso   1.000  H
  H1191    1.0000 0.58008  0.97280  0.22873  Biso   1.000  H
  H1192    1.0000 0.56837  0.98263  0.14741  Biso   1.000  H
  H1193    1.0000 0.56828  0.98263  0.14741  Biso   1.000  H
  H1194    1.0000 0.69230  0.07711  0.27013  Biso   1.000  H
  H1195    1.0000 0.69221  0.07711  0.27013  Biso   1.000  H
  C1015    1.0000 0.20398  0.92559  0.22613  Biso   1.000  C
  H1196    1.0000 0.14504  0.90822  0.32172  Biso   1.000  H
  H1197    1.0000 0.03459  0.91143  0.26074  Biso   1.000  H
  C1016    1.0000 0.20388  0.92559  0.22613  Biso   1.000  C
  H1198    1.0000 0.03450  0.91143  0.26074  Biso   1.000  H
  C1017    1.0000 0.20398  0.92564  0.22613  Biso   1.000  C
  C1018    1.0000 0.20388  0.92564  0.22613  Biso   1.000  C
  H1199    1.0000 0.13052  0.99989  0.40713  Biso   1.000  H
  H1200    1.0000 0.13043  0.99989  0.40713  Biso   1.000  H
  H1201    1.0000 0.13052  0.99994  0.40713  Biso   1.000  H
  H1202    1.0000 0.13043  0.99994  0.40713  Biso   1.000  H
  C1019    1.0000 0.07139  0.10763  0.39232  Biso   1.000  C
  C1020    1.0000 0.07130  0.10763  0.39232  Biso   1.000  C
  H1203    1.0000 0.87573  0.18541  0.19524  Biso   1.000  H
  H1204    1.0000 0.95017  0.24678  0.24041  Biso   1.000  H
  H1205    1.0000 0.87572  0.18541  0.19518  Biso   1.000  H
  H1206    1.0000 0.95017  0.24684  0.24041  Biso   1.000  H
  H1207    1.0000 0.95007  0.24678  0.24041  Biso   1.000  H
  H1208    1.0000 0.95007  0.24684  0.24041  Biso   1.000  H
  C1021    1.0000 0.03465  0.21582  0.15622  Biso   1.000  C
  H1209    1.0000 0.00921  0.20952  0.35644  Biso   1.000  H
  H1210    1.0000 0.00910  0.20952  0.35638  Biso   1.000  H
  H1211    1.0000 0.71283  0.20671  0.28563  Biso   1.000  H
  C1022    1.0000 0.16292  0.23408  0.16753  Biso   1.000  C
  C1023    1.0000 0.16913  0.24459  0.04332  Biso   1.000  C
  C1024    1.0000 0.16292  0.23414  0.16753  Biso   1.000  C
  C1025    1.0000 0.16913  0.24465  0.04332  Biso   1.000  C
  C1026    1.0000 0.32295  0.95948  0.23361  Biso   1.000  C
  C1027    1.0000 0.36290  0.90991  0.12151  Biso   1.000  C
  C1028    1.0000 0.32295  0.95953  0.23361  Biso   1.000  C
  C1029    1.0000 0.16946  0.88271  0.16594  Biso   1.000  C
  C1030    1.0000 0.16945  0.88271  0.16588  Biso   1.000  C
  C1031    1.0000 0.16936  0.88271  0.16588  Biso   1.000  C
  H1212    1.0000 0.08300  0.12100  0.44163  Biso   1.000  H
  H1213    1.0000 0.08291  0.12100  0.44163  Biso   1.000  H
  C1032    1.0000 0.97672  0.21419  0.08653  Biso   1.000  C
  C1033    1.0000 0.97672  0.21424  0.08653  Biso   1.000  C
  O226     1.0000 0.22570  0.23689  0.23674  Biso   1.000  O
  O227     1.0000 0.22561  0.23689  0.23674  Biso   1.000  O
  C1034    1.0000 0.04307  0.22891  0.03069  Biso   1.000  C
  H1214    1.0000 0.21461  0.25493  0.00410  Biso   1.000  H
  C1035    1.0000 0.04298  0.22891  0.03069  Biso   1.000  C
  O228     1.0000 0.36962  0.99904  0.29428  Biso   1.000  O
  O229     1.0000 0.36962  0.99910  0.29428  Biso   1.000  O
  H1215    1.0000 0.41653  0.90401  0.08520  Biso   1.000  H
  C1036    1.0000 0.24776  0.87371  0.11482  Biso   1.000  C
  C1037    1.0000 0.24766  0.87371  0.11482  Biso   1.000  C
  H1216    1.0000 0.08853  0.85860  0.15973  Biso   1.000  H
  H1217    1.0000 0.88866  0.20261  0.07703  Biso   1.000  H
  H1218    1.0000 0.88857  0.20261  0.07703  Biso   1.000  H
  C1038    1.0000 0.21517  0.30658  0.27284  Biso   1.000  C
  C1039    1.0000 0.21515  0.30658  0.27278  Biso   1.000  C
  C1040    1.0000 0.21517  0.30664  0.27284  Biso   1.000  C
  C1041    1.0000 0.21515  0.30664  0.27278  Biso   1.000  C
  H1219    1.0000 0.00081  0.22829  0.98292  Biso   1.000  H
  H1220    1.0000 0.00081  0.22835  0.98292  Biso   1.000  H
  C1042    1.0000 0.39545  0.95279  0.35649  Biso   1.000  C
  C1043    1.0000 0.39545  0.95285  0.35649  Biso   1.000  C
  H1221    1.0000 0.22256  0.84219  0.07453  Biso   1.000  H
  H1222    1.0000 0.22247  0.84219  0.07453  Biso   1.000  H
  H1223    1.0000 0.22256  0.84224  0.07453  Biso   1.000  H
  H1224    1.0000 0.22247  0.84224  0.07453  Biso   1.000  H
  H1225    1.0000 0.13305  0.31052  0.28759  Biso   1.000  H
  H1226    1.0000 0.22501  0.34750  0.24099  Biso   1.000  H
  C1044    1.0000 0.31328  0.31158  0.33579  Biso   1.000  C
  C1045    1.0000 0.31319  0.31158  0.33579  Biso   1.000  C
  H1227    1.0000 0.22501  0.34755  0.24099  Biso   1.000  H
  C1046    1.0000 0.31328  0.31164  0.33579  Biso   1.000  C
  C1047    1.0000 0.31319  0.31164  0.33579  Biso   1.000  C
  C1048    1.0000 0.51021  0.97729  0.40309  Biso   1.000  C
  H1228    1.0000 0.40604  0.90170  0.34221  Biso   1.000  H
  H1229    1.0000 0.32480  0.95459  0.38271  Biso   1.000  H
  C1049    1.0000 0.51011  0.97729  0.40309  Biso   1.000  C
  H1230    1.0000 0.32471  0.95459  0.38271  Biso   1.000  H
  H1231    1.0000 0.32480  0.95465  0.38271  Biso   1.000  H
  H1232    1.0000 0.32471  0.95465  0.38271  Biso   1.000  H
  O230     1.0000 0.30746  0.25645  0.38728  Biso   1.000  O
  H1233    1.0000 0.39455  0.30911  0.31981  Biso   1.000  H
  H1234    1.0000 0.30658  0.35992  0.35750  Biso   1.000  H
  H1235    1.0000 0.30649  0.35992  0.35750  Biso   1.000  H
  O231     1.0000 0.61986  0.95931  0.37268  Biso   1.000  O
  H1236    1.0000 0.51325  0.95307  0.44853  Biso   1.000  H
  H1237    1.0000 0.51325  0.95313  0.44853  Biso   1.000  H
  H1238    1.0000 0.50680  0.03057  0.41052  Biso   1.000  H
  H1239    1.0000 0.50671  0.03057  0.41052  Biso   1.000  H
  H1240    1.0000 0.50680  0.03063  0.41052  Biso   1.000  H
  H1241    1.0000 0.50671  0.03063  0.41052  Biso   1.000  H
  C1050    1.0000 0.37534  0.19002  0.37714  Biso   1.000  C
  C1051    1.0000 0.37533  0.19002  0.37708  Biso   1.000  C
  C1052    1.0000 0.73180  0.95583  0.42284  Biso   1.000  C
  C1053    1.0000 0.73169  0.95583  0.42279  Biso   1.000  C
  H1242    1.0000 0.36732  0.17928  0.32719  Biso   1.000  H
  H1243    1.0000 0.33773  0.14899  0.39970  Biso   1.000  H
  C1054    1.0000 0.51283  0.19350  0.40553  Biso   1.000  C
  H1244    1.0000 0.36732  0.17934  0.32719  Biso   1.000  H
  H1245    1.0000 0.33773  0.14905  0.39970  Biso   1.000  H
  H1246    1.0000 0.79129  0.92328  0.40442  Biso   1.000  H
  H1247    1.0000 0.71133  0.93402  0.46599  Biso   1.000  H
  H1248    1.0000 0.79120  0.92328  0.40442  Biso   1.000  H
  H1249    1.0000 0.79129  0.92334  0.40442  Biso   1.000  H
  H1250    1.0000 0.79120  0.92334  0.40442  Biso   1.000  H
  C1055    1.0000 0.79211  0.03091  0.43913  Biso   1.000  C
  C1056    1.0000 0.79202  0.03091  0.43913  Biso   1.000  C
  O232     1.0000 0.52822  0.18400  0.48022  Biso   1.000  O
  H1251    1.0000 0.55754  0.15461  0.38420  Biso   1.000  H
  H1252    1.0000 0.54682  0.24111  0.39391  Biso   1.000  H
  O233     1.0000 0.52813  0.18400  0.48022  Biso   1.000  O
  O234     1.0000 0.71835  0.07441  0.48085  Biso   1.000  O
  H1253    1.0000 0.87505  0.02411  0.46429  Biso   1.000  H
  H1254    1.0000 0.79988  0.05688  0.39561  Biso   1.000  H
  H1255    1.0000 0.79979  0.05688  0.39561  Biso   1.000  H
  H1256    1.0000 0.79988  0.05693  0.39561  Biso   1.000  H
  H1257    1.0000 0.79979  0.05693  0.39561  Biso   1.000  H
  C1057    1.0000 0.65280  0.19682  0.51371  Biso   1.000  C
  C1058    1.0000 0.65270  0.19682  0.51371  Biso   1.000  C
  C1059    1.0000 0.75221  0.15158  0.48383  Biso   1.000  C
  C1060    1.0000 0.75211  0.15158  0.48383  Biso   1.000  C
  C1061    1.0000 0.75221  0.15163  0.48383  Biso   1.000  C
  C1062    1.0000 0.75211  0.15163  0.48383  Biso   1.000  C
  H1258    1.0000 0.65626  0.18541  0.56334  Biso   1.000  H
  H1259    1.0000 0.67195  0.24920  0.50973  Biso   1.000  H
  H1260    1.0000 0.65625  0.18541  0.56329  Biso   1.000  H
  H1261    1.0000 0.67195  0.24926  0.50973  Biso   1.000  H
  H1262    1.0000 0.76108  0.16928  0.43701  Biso   1.000  H
  H1263    1.0000 0.83156  0.15781  0.51323  Biso   1.000  H
  H1264    1.0000 0.76108  0.16934  0.43701  Biso   1.000  H
  H1265    1.0000 0.76098  0.16928  0.43701  Biso   1.000  H
  H1266    1.0000 0.76098  0.16934  0.43701  Biso   1.000  H
  C1063    1.0000 0.75241  0.12629  0.88520  Biso   1.000  C
  C1064    1.0000 0.83071  0.11729  0.83409  Biso   1.000  C
  C1065    1.0000 0.83071  0.11735  0.83409  Biso   1.000  C
  C1066    1.0000 0.63727  0.09009  0.87851  Biso   1.000  C
  C1067    1.0000 0.63718  0.09009  0.87851  Biso   1.000  C
  C1068    1.0000 0.63727  0.09015  0.87851  Biso   1.000  C
  C1069    1.0000 0.63718  0.09015  0.87851  Biso   1.000  C
  H1267    1.0000 0.77761  0.15781  0.92549  Biso   1.000  H
  C1070    1.0000 0.79619  0.07441  0.77389  Biso   1.000  C
  H1268    1.0000 0.91164  0.14140  0.84030  Biso   1.000  H
  H1269    1.0000 0.91155  0.14140  0.84030  Biso   1.000  H
  C1071    1.0000 0.75241  0.12634  0.88520  Biso   1.000  C
  C1072    1.0000 0.59804  0.04491  0.81933  Biso   1.000  C
  C1073    1.0000 0.59795  0.04491  0.81933  Biso   1.000  C
  H1270    1.0000 0.58363  0.09599  0.91482  Biso   1.000  H
  H1271    1.0000 0.58363  0.09605  0.91482  Biso   1.000  H
  H1272    1.0000 0.58354  0.09599  0.91482  Biso   1.000  H
  H1273    1.0000 0.58354  0.09605  0.91482  Biso   1.000  H
  C1074    1.0000 0.67722  0.04052  0.76641  Biso   1.000  C
  C1075    1.0000 0.67713  0.04052  0.76641  Biso   1.000  C
  C1076    1.0000 0.88794  0.06480  0.72039  Biso   1.000  C
  C1077    1.0000 0.88784  0.06480  0.72039  Biso   1.000  C
  C1078    1.0000 0.47124  0.00551  0.81153  Biso   1.000  C
  C1079    1.0000 0.47115  0.00551  0.81153  Biso   1.000  C
  O235     1.0000 0.63055  0.00096  0.70574  Biso   1.000  O
  O236     1.0000 0.63045  0.00096  0.70574  Biso   1.000  O
  C1080    1.0000 0.91820  0.98561  0.69879  Biso   1.000  C
  H1274    1.0000 0.85513  0.09178  0.67830  Biso   1.000  H
  H1275    1.0000 0.96558  0.08857  0.73929  Biso   1.000  H
  H1276    1.0000 0.85503  0.09178  0.67830  Biso   1.000  H
  H1277    1.0000 0.85513  0.09183  0.67830  Biso   1.000  H
  H1278    1.0000 0.96558  0.08863  0.73929  Biso   1.000  H
  H1279    1.0000 0.85503  0.09183  0.67830  Biso   1.000  H
  H1280    1.0000 0.43180  0.01742  0.85261  Biso   1.000  H
  H1281    1.0000 0.42000  0.02720  0.77129  Biso   1.000  H
  C1081    1.0000 0.46684  0.92070  0.80229  Biso   1.000  C
  C1082    1.0000 0.46675  0.92070  0.80229  Biso   1.000  C
  C1083    1.0000 0.60471  0.04721  0.64353  Biso   1.000  C
  C1084    1.0000 0.60470  0.04721  0.64348  Biso   1.000  C
  C1085    1.0000 0.60461  0.04721  0.64348  Biso   1.000  C
  C1086    1.0000 0.96639  0.93222  0.74873  Biso   1.000  C
  C1087    1.0000 0.90139  0.96409  0.62840  Biso   1.000  C
  C1088    1.0000 0.96637  0.93222  0.74868  Biso   1.000  C
  C1089    1.0000 0.90139  0.96414  0.62840  Biso   1.000  C
  C1090    1.0000 0.55044  0.87090  0.84030  Biso   1.000  C
  C1091    1.0000 0.36823  0.89001  0.75601  Biso   1.000  C
  C1092    1.0000 0.55035  0.87090  0.84030  Biso   1.000  C
  C1093    1.0000 0.36814  0.89001  0.75601  Biso   1.000  C
  C1094    1.0000 0.48996  0.02271  0.59693  Biso   1.000  C
  H1282    1.0000 0.67537  0.04541  0.61731  Biso   1.000  H
  H1283    1.0000 0.59413  0.09830  0.65781  Biso   1.000  H
  H1284    1.0000 0.59404  0.09830  0.65781  Biso   1.000  H
  O237     1.0000 0.98587  0.95178  0.81975  Biso   1.000  O
  C1095    1.0000 0.99166  0.85848  0.72978  Biso   1.000  C
  C1096    1.0000 0.99166  0.85854  0.72978  Biso   1.000  C
  H1285    1.0000 0.86965  0.00011  0.59289  Biso   1.000  H
  C1097    1.0000 0.92878  0.89237  0.60770  Biso   1.000  C
  C1098    1.0000 0.92878  0.89243  0.60770  Biso   1.000  C
  O238     1.0000 0.65451  0.89990  0.88313  Biso   1.000  O
  C1099    1.0000 0.53969  0.79301  0.83223  Biso   1.000  C
  C1100    1.0000 0.35556  0.81330  0.74693  Biso   1.000  C
  H1286    1.0000 0.30787  0.92289  0.72989  Biso   1.000  H
  C1101    1.0000 0.35546  0.81330  0.74693  Biso   1.000  C
  H1287    1.0000 0.30787  0.92295  0.72989  Biso   1.000  H
  H1288    1.0000 0.49337  0.96943  0.58950  Biso   1.000  H
  O239     1.0000 0.38031  0.04069  0.62734  Biso   1.000  O
  H1289    1.0000 0.48692  0.04693  0.55149  Biso   1.000  H
  H1290    1.0000 0.48682  0.04693  0.55149  Biso   1.000  H
  O240     1.0000 0.38022  0.04069  0.62734  Biso   1.000  O
  C1102    1.0000 0.10819  0.98039  0.84359  Biso   1.000  C
  C1103    1.0000 0.10819  0.98044  0.84359  Biso   1.000  C
  C1104    1.0000 0.97278  0.84050  0.65813  Biso   1.000  C
  C1105    1.0000 0.04154  0.79958  0.78419  Biso   1.000  C
  C1106    1.0000 0.04145  0.79958  0.78419  Biso   1.000  C
  C1107    1.0000 0.04154  0.79964  0.78419  Biso   1.000  C
  C1108    1.0000 0.04145  0.79964  0.78419  Biso   1.000  C
  H1291    1.0000 0.91717  0.87900  0.55839  Biso   1.000  H
  C1109    1.0000 0.64290  0.91412  0.95542  Biso   1.000  C
  C1110    1.0000 0.44017  0.76609  0.78408  Biso   1.000  C
  C1111    1.0000 0.62776  0.73787  0.87458  Biso   1.000  C
  C1112    1.0000 0.62767  0.73787  0.87458  Biso   1.000  C
  C1113    1.0000 0.44017  0.76614  0.78408  Biso   1.000  C
  C1114    1.0000 0.62776  0.73793  0.87458  Biso   1.000  C
  C1115    1.0000 0.62767  0.73793  0.87458  Biso   1.000  C
  H1292    1.0000 0.28734  0.79329  0.71439  Biso   1.000  H
  H1293    1.0000 0.28725  0.79329  0.71439  Biso   1.000  H
  H1294    1.0000 0.28734  0.79335  0.71439  Biso   1.000  H
  H1295    1.0000 0.28725  0.79335  0.71439  Biso   1.000  H
  C1116    1.0000 0.26837  0.04417  0.57718  Biso   1.000  C
  C1117    1.0000 0.26837  0.04423  0.57718  Biso   1.000  C
  C1118    1.0000 0.11056  0.99933  0.91891  Biso   1.000  C
  H1296    1.0000 0.17120  0.94340  0.83780  Biso   1.000  H
  C1119    1.0000 0.11046  0.99933  0.91891  Biso   1.000  C
  H1297    1.0000 0.12458  0.02439  0.81699  Biso   1.000  H
  H1298    1.0000 0.12458  0.02445  0.81699  Biso   1.000  H
  H1299    1.0000 0.99096  0.79048  0.64358  Biso   1.000  H
  H1300    1.0000 0.99096  0.79054  0.64358  Biso   1.000  H
  C1120    1.0000 0.96552  0.78418  0.84380  Biso   1.000  C
  C1121    1.0000 0.96552  0.78424  0.84380  Biso   1.000  C
  C1122    1.0000 0.96542  0.78418  0.84380  Biso   1.000  C
  C1123    1.0000 0.96542  0.78424  0.84380  Biso   1.000  C
  H1301    1.0000 0.12444  0.81459  0.80479  Biso   1.000  H
  H1302    1.0000 0.05000  0.75322  0.75962  Biso   1.000  H
  H1303    1.0000 0.12435  0.81459  0.80479  Biso   1.000  H
  H1304    1.0000 0.12444  0.81465  0.80479  Biso   1.000  H
  H1305    1.0000 0.12435  0.81465  0.80479  Biso   1.000  H
  C1124    1.0000 0.77039  0.94458  0.98499  Biso   1.000  C
  H1306    1.0000 0.62448  0.86882  0.97931  Biso   1.000  H
  H1307    1.0000 0.57787  0.95032  0.95972  Biso   1.000  H
  H1308    1.0000 0.62438  0.86882  0.97931  Biso   1.000  H
  H1309    1.0000 0.57778  0.95032  0.95972  Biso   1.000  H
  C1125    1.0000 0.77039  0.94464  0.98499  Biso   1.000  C
  H1310    1.0000 0.43098  0.71292  0.77713  Biso   1.000  H
  C1126    1.0000 0.76838  0.75440  0.88839  Biso   1.000  C
  H1311    1.0000 0.59856  0.73180  0.91991  Biso   1.000  H
  H1312    1.0000 0.61765  0.69022  0.85091  Biso   1.000  H
  H1313    1.0000 0.59846  0.73180  0.91991  Biso   1.000  H
  H1314    1.0000 0.61756  0.69022  0.85091  Biso   1.000  H
  H1315    1.0000 0.20888  0.07672  0.59560  Biso   1.000  H
  C1127    1.0000 0.20805  0.96909  0.56089  Biso   1.000  C
  C1128    1.0000 0.20805  0.96915  0.56089  Biso   1.000  C
  H1316    1.0000 0.28884  0.06598  0.53403  Biso   1.000  H
  H1317    1.0000 0.28874  0.06598  0.53403  Biso   1.000  H
  H1318    1.0000 0.28884  0.06604  0.53403  Biso   1.000  H
  H1319    1.0000 0.28874  0.06604  0.53403  Biso   1.000  H
  H1320    1.0000 0.09401  0.95521  0.94523  Biso   1.000  H
  O241     1.0000 0.23201  0.02928  0.94582  Biso   1.000  O
  H1321    1.0000 0.04637  0.03569  0.92443  Biso   1.000  H
  H1322    1.0000 0.04627  0.03569  0.92443  Biso   1.000  H
  O242     1.0000 0.23201  0.02934  0.94582  Biso   1.000  O
  H1323    1.0000 0.04637  0.03574  0.92443  Biso   1.000  H
  H1324    1.0000 0.04627  0.03574  0.92443  Biso   1.000  H
  C1129    1.0000 0.83725  0.76592  0.83249  Biso   1.000  C
  C1130    1.0000 0.83715  0.76592  0.83249  Biso   1.000  C
  C1131    1.0000 0.02345  0.78581  0.91349  Biso   1.000  C
  C1132    1.0000 0.02336  0.78581  0.91349  Biso   1.000  C
  H1325    1.0000 0.83260  0.90581  0.98499  Biso   1.000  H
  H1326    1.0000 0.79284  0.98499  0.95553  Biso   1.000  H
  H1327    1.0000 0.79275  0.98499  0.95553  Biso   1.000  H
  O243     1.0000 0.76816  0.97072  0.05420  Biso   1.000  O
  O244     1.0000 0.76807  0.97072  0.05420  Biso   1.000  O
  C1133    1.0000 0.83104  0.75541  0.95670  Biso   1.000  C
  C1134    1.0000 0.83095  0.75541  0.95670  Biso   1.000  C
  O245     1.0000 0.28182  0.92559  0.51917  Biso   1.000  O
  H1328    1.0000 0.12512  0.97589  0.53573  Biso   1.000  H
  H1329    1.0000 0.20029  0.94312  0.60441  Biso   1.000  H
  O246     1.0000 0.28172  0.92559  0.51917  Biso   1.000  O
  H1330    1.0000 0.12503  0.97589  0.53573  Biso   1.000  H
  O247     1.0000 0.28182  0.92564  0.51917  Biso   1.000  O
  H1331    1.0000 0.12512  0.97595  0.53573  Biso   1.000  H
  O248     1.0000 0.28172  0.92564  0.51917  Biso   1.000  O
  H1332    1.0000 0.12503  0.97595  0.53573  Biso   1.000  H
  C1135    1.0000 0.22977  0.05542  0.01503  Biso   1.000  C
  C1136    1.0000 0.22968  0.05542  0.01503  Biso   1.000  C
  O249     1.0000 0.77447  0.76311  0.76328  Biso   1.000  O
  O250     1.0000 0.77447  0.76317  0.76328  Biso   1.000  O
  C1137    1.0000 0.95710  0.77109  0.96933  Biso   1.000  C
  H1333    1.0000 0.11151  0.79739  0.92299  Biso   1.000  H
  C1138    1.0000 0.88961  0.00067  0.08112  Biso   1.000  C
  C1139    1.0000 0.88961  0.00073  0.08112  Biso   1.000  C
  H1334    1.0000 0.78556  0.74507  0.99592  Biso   1.000  H
  H1335    1.0000 0.78546  0.74507  0.99592  Biso   1.000  H
  H1336    1.0000 0.78556  0.74512  0.99592  Biso   1.000  H
  H1337    1.0000 0.78546  0.74512  0.99592  Biso   1.000  H
  C1140    1.0000 0.24796  0.84842  0.51619  Biso   1.000  C
  C1141    1.0000 0.35727  0.08588  0.04460  Biso   1.000  C
  H1338    1.0000 0.16757  0.09419  0.01503  Biso   1.000  H
  H1339    1.0000 0.20733  0.01501  0.04449  Biso   1.000  H
  C1142    1.0000 0.35717  0.08588  0.04460  Biso   1.000  C
  H1340    1.0000 0.16747  0.09419  0.01503  Biso   1.000  H
  C1143    1.0000 0.35727  0.08593  0.04460  Biso   1.000  C
  H1341    1.0000 0.16757  0.09425  0.01503  Biso   1.000  H
  C1144    1.0000 0.35717  0.08593  0.04460  Biso   1.000  C
  H1342    1.0000 0.16747  0.09425  0.01503  Biso   1.000  H
  C1145    1.0000 0.78500  0.69342  0.72718  Biso   1.000  C
  H1343    1.0000 0.99936  0.77171  0.01710  Biso   1.000  H
  H1344    1.0000 0.99927  0.77171  0.01710  Biso   1.000  H
  H1345    1.0000 0.95380  0.96431  0.07560  Biso   1.000  H
  C1146    1.0000 0.89198  0.01961  0.15643  Biso   1.000  C
  H1346    1.0000 0.90616  0.04479  0.05479  Biso   1.000  H
  C1147    1.0000 0.89187  0.01961  0.15638  Biso   1.000  C
  H1347    1.0000 0.90607  0.04479  0.05479  Biso   1.000  H
  H1348    1.0000 0.90616  0.04485  0.05479  Biso   1.000  H
  H1349    1.0000 0.90607  0.04485  0.05479  Biso   1.000  H
  C1148    1.0000 0.34737  0.80318  0.48631  Biso   1.000  C
  H1350    1.0000 0.23909  0.83072  0.56301  Biso   1.000  H
  H1351    1.0000 0.16861  0.84219  0.48679  Biso   1.000  H
  H1352    1.0000 0.16852  0.84219  0.48679  Biso   1.000  H
  C1149    1.0000 0.34737  0.80324  0.48631  Biso   1.000  C
  H1353    1.0000 0.16861  0.84224  0.48679  Biso   1.000  H
  H1354    1.0000 0.16852  0.84224  0.48679  Biso   1.000  H
  O251     1.0000 0.34566  0.10010  0.11689  Biso   1.000  O
  H1355    1.0000 0.37569  0.13118  0.02071  Biso   1.000  H
  H1356    1.0000 0.42230  0.04968  0.04030  Biso   1.000  H
  O252     1.0000 0.34557  0.10010  0.11689  Biso   1.000  O
  O253     1.0000 0.34566  0.10015  0.11689  Biso   1.000  O
  H1357    1.0000 0.37569  0.13123  0.02071  Biso   1.000  H
  H1358    1.0000 0.42230  0.04974  0.04030  Biso   1.000  H
  O254     1.0000 0.34557  0.10015  0.11689  Biso   1.000  O
  C1150    1.0000 0.68689  0.68842  0.66423  Biso   1.000  C
  C1151    1.0000 0.68688  0.68842  0.66418  Biso   1.000  C
  H1359    1.0000 0.86712  0.68948  0.71243  Biso   1.000  H
  H1360    1.0000 0.77516  0.65250  0.75903  Biso   1.000  H
  H1361    1.0000 0.77507  0.65250  0.75903  Biso   1.000  H
  H1362    1.0000 0.86712  0.68954  0.71243  Biso   1.000  H
  H1363    1.0000 0.86702  0.68948  0.71243  Biso   1.000  H
  H1364    1.0000 0.86702  0.68954  0.71243  Biso   1.000  H
  H1365    1.0000 0.87559  0.97561  0.18303  Biso   1.000  H
  H1366    1.0000 0.87549  0.97561  0.18303  Biso   1.000  H
  H1367    1.0000 0.82897  0.05660  0.16222  Biso   1.000  H
  H1368    1.0000 0.82888  0.05660  0.16222  Biso   1.000  H
  H1369    1.0000 0.82897  0.05665  0.16222  Biso   1.000  H
  H1370    1.0000 0.82888  0.05665  0.16222  Biso   1.000  H
  O255     1.0000 0.01430  0.04822  0.18027  Biso   1.000  O
  O256     1.0000 0.01421  0.04822  0.18027  Biso   1.000  O
  O257     1.0000 0.01430  0.04828  0.18027  Biso   1.000  O
  O258     1.0000 0.01421  0.04828  0.18027  Biso   1.000  O
  O259     1.0000 0.47195  0.81600  0.51980  Biso   1.000  O
  H1371    1.0000 0.34391  0.81459  0.43668  Biso   1.000  H
  H1372    1.0000 0.32822  0.75080  0.49029  Biso   1.000  H
  H1373    1.0000 0.34381  0.81459  0.43668  Biso   1.000  H
  H1374    1.0000 0.32813  0.75080  0.49029  Biso   1.000  H
  O260     1.0000 0.47195  0.81605  0.51980  Biso   1.000  O
  H1375    1.0000 0.34391  0.81465  0.43668  Biso   1.000  H
  H1376    1.0000 0.34381  0.81465  0.43668  Biso   1.000  H
  C1152    1.0000 0.44972  0.12910  0.15973  Biso   1.000  C
  C1153    1.0000 0.44972  0.12915  0.15973  Biso   1.000  C
  O261     1.0000 0.69270  0.74355  0.61275  Biso   1.000  O
  O262     1.0000 0.69270  0.74361  0.61275  Biso   1.000  O
  O263     1.0000 0.69261  0.74355  0.61275  Biso   1.000  O
  O264     1.0000 0.69261  0.74361  0.61275  Biso   1.000  O
  H1377    1.0000 0.60562  0.69089  0.68021  Biso   1.000  H
  H1378    1.0000 0.69359  0.64008  0.64252  Biso   1.000  H
  H1379    1.0000 0.60553  0.69089  0.68021  Biso   1.000  H
  H1380    1.0000 0.69359  0.64014  0.64252  Biso   1.000  H
  C1154    1.0000 0.03378  0.06778  0.25129  Biso   1.000  C
  C1155    1.0000 0.03369  0.06778  0.25129  Biso   1.000  C
  C1156    1.0000 0.03378  0.06784  0.25129  Biso   1.000  C
  C1157    1.0000 0.03369  0.06784  0.25129  Biso   1.000  C
  C1158    1.0000 0.48734  0.80650  0.59449  Biso   1.000  C
  C1159    1.0000 0.48724  0.80650  0.59449  Biso   1.000  C
  C1160    1.0000 0.46048  0.20699  0.16779  Biso   1.000  C
  C1161    1.0000 0.53333  0.07930  0.19773  Biso   1.000  C
  C1162    1.0000 0.46039  0.20699  0.16779  Biso   1.000  C
  C1163    1.0000 0.46048  0.20705  0.16779  Biso   1.000  C
  C1164    1.0000 0.46039  0.20705  0.16779  Biso   1.000  C
  C1165    1.0000 0.62483  0.80998  0.62288  Biso   1.000  C
  C1166    1.0000 0.62474  0.80998  0.62288  Biso   1.000  C
  C1167    1.0000 0.62483  0.81004  0.62288  Biso   1.000  C
  C1168    1.0000 0.62474  0.81004  0.62288  Biso   1.000  C
  C1169    1.0000 0.08197  0.01439  0.30123  Biso   1.000  C
  C1170    1.0000 0.00851  0.14152  0.27024  Biso   1.000  C
  C1171    1.0000 0.00840  0.14152  0.27018  Biso   1.000  C
  C1172    1.0000 0.08197  0.01444  0.30123  Biso   1.000  C
  C1173    1.0000 0.00841  0.14152  0.27024  Biso   1.000  C
  H1381    1.0000 0.44263  0.84539  0.61582  Biso   1.000  H
  H1382    1.0000 0.45334  0.75889  0.60611  Biso   1.000  H
  H1383    1.0000 0.44254  0.84539  0.61582  Biso   1.000  H
  H1384    1.0000 0.45325  0.75889  0.60611  Biso   1.000  H
  H1385    1.0000 0.44263  0.84544  0.61582  Biso   1.000  H
  H1386    1.0000 0.44254  0.84544  0.61582  Biso   1.000  H
  C1174    1.0000 0.55999  0.23391  0.21594  Biso   1.000  C
  C1175    1.0000 0.37241  0.26213  0.12544  Biso   1.000  C
  C1176    1.0000 0.55989  0.23391  0.21588  Biso   1.000  C
  C1177    1.0000 0.37240  0.26213  0.12538  Biso   1.000  C
  C1178    1.0000 0.52893  0.99449  0.18849  Biso   1.000  C
  C1179    1.0000 0.52893  0.99455  0.18849  Biso   1.000  C
  C1180    1.0000 0.63194  0.10999  0.24402  Biso   1.000  C
  C1181    1.0000 0.63194  0.11004  0.24402  Biso   1.000  C
  H1387    1.0000 0.63285  0.82072  0.67283  Biso   1.000  H
  H1388    1.0000 0.66244  0.85101  0.60032  Biso   1.000  H
  H1389    1.0000 0.63276  0.82072  0.67283  Biso   1.000  H
  H1390    1.0000 0.66234  0.85101  0.60032  Biso   1.000  H
  C1182    1.0000 0.11223  0.93520  0.27963  Biso   1.000  C
  C1183    1.0000 0.09878  0.03591  0.37162  Biso   1.000  C
  C1184    1.0000 0.09869  0.03591  0.37162  Biso   1.000  C
  C1185    1.0000 0.95862  0.20042  0.21583  Biso   1.000  C
  C1186    1.0000 0.02739  0.15950  0.34189  Biso   1.000  C
  C1187    1.0000 0.02730  0.15950  0.34189  Biso   1.000  C
  H1391    1.0000 0.56918  0.28708  0.22289  Biso   1.000  H
  C1188    1.0000 0.64461  0.18670  0.25309  Biso   1.000  C
  H1392    1.0000 0.56909  0.28708  0.22289  Biso   1.000  H
  H1393    1.0000 0.56918  0.28714  0.22289  Biso   1.000  H
  H1394    1.0000 0.56909  0.28714  0.22289  Biso   1.000  H
  C1189    1.0000 0.23179  0.24560  0.11164  Biso   1.000  C
  H1395    1.0000 0.40161  0.26820  0.08011  Biso   1.000  H
  H1396    1.0000 0.38252  0.30978  0.14911  Biso   1.000  H
  C1190    1.0000 0.23168  0.24560  0.11158  Biso   1.000  C
  H1397    1.0000 0.40161  0.26825  0.08011  Biso   1.000  H
  H1398    1.0000 0.38252  0.30984  0.14911  Biso   1.000  H
  C1191    1.0000 0.40213  0.95509  0.18069  Biso   1.000  C
  H1399    1.0000 0.56837  0.98258  0.14741  Biso   1.000  H
  H1400    1.0000 0.58017  0.97280  0.22873  Biso   1.000  H
  H1401    1.0000 0.56828  0.98258  0.14741  Biso   1.000  H
  H1402    1.0000 0.58008  0.97280  0.22873  Biso   1.000  H
  H1403    1.0000 0.56837  0.98263  0.14741  Biso   1.000  H
  H1404    1.0000 0.56828  0.98263  0.14741  Biso   1.000  H
  H1405    1.0000 0.69230  0.07711  0.27013  Biso   1.000  H
  H1406    1.0000 0.69221  0.07711  0.27013  Biso   1.000  H
  C1192    1.0000 0.20398  0.92559  0.22613  Biso   1.000  C
  H1407    1.0000 0.14504  0.90822  0.32172  Biso   1.000  H
  H1408    1.0000 0.03459  0.91143  0.26074  Biso   1.000  H
  C1193    1.0000 0.20388  0.92559  0.22613  Biso   1.000  C
  H1409    1.0000 0.03450  0.91143  0.26074  Biso   1.000  H
  C1194    1.0000 0.20398  0.92564  0.22613  Biso   1.000  C
  C1195    1.0000 0.20388  0.92564  0.22613  Biso   1.000  C
  H1410    1.0000 0.13052  0.99989  0.40713  Biso   1.000  H
  H1411    1.0000 0.13043  0.99989  0.40713  Biso   1.000  H
  H1412    1.0000 0.13052  0.99994  0.40713  Biso   1.000  H
  H1413    1.0000 0.13043  0.99994  0.40713  Biso   1.000  H
  C1196    1.0000 0.07139  0.10763  0.39232  Biso   1.000  C
  C1197    1.0000 0.07130  0.10763  0.39232  Biso   1.000  C
  H1414    1.0000 0.87573  0.18541  0.19524  Biso   1.000  H
  H1415    1.0000 0.95017  0.24678  0.24041  Biso   1.000  H
  H1416    1.0000 0.87572  0.18541  0.19518  Biso   1.000  H
  H1417    1.0000 0.95017  0.24684  0.24041  Biso   1.000  H
  H1418    1.0000 0.95007  0.24678  0.24041  Biso   1.000  H
  H1419    1.0000 0.95007  0.24684  0.24041  Biso   1.000  H
  C1198    1.0000 0.03465  0.21582  0.15622  Biso   1.000  C
  H1420    1.0000 0.00921  0.20952  0.35644  Biso   1.000  H
  H1421    1.0000 0.00910  0.20952  0.35638  Biso   1.000  H
  H1422    1.0000 0.71283  0.20671  0.28563  Biso   1.000  H
  C1199    1.0000 0.16292  0.23408  0.16753  Biso   1.000  C
  C1200    1.0000 0.16913  0.24459  0.04332  Biso   1.000  C
  C1201    1.0000 0.16292  0.23414  0.16753  Biso   1.000  C
  C1202    1.0000 0.16913  0.24465  0.04332  Biso   1.000  C
  C1203    1.0000 0.32295  0.95948  0.23361  Biso   1.000  C
  C1204    1.0000 0.36290  0.90991  0.12151  Biso   1.000  C
  C1205    1.0000 0.32295  0.95953  0.23361  Biso   1.000  C
  C1206    1.0000 0.16946  0.88271  0.16594  Biso   1.000  C
  C1207    1.0000 0.16945  0.88271  0.16588  Biso   1.000  C
  C1208    1.0000 0.16936  0.88271  0.16588  Biso   1.000  C
  H1423    1.0000 0.08300  0.12100  0.44163  Biso   1.000  H
  H1424    1.0000 0.08291  0.12100  0.44163  Biso   1.000  H
  C1209    1.0000 0.97672  0.21419  0.08653  Biso   1.000  C
  C1210    1.0000 0.97672  0.21424  0.08653  Biso   1.000  C
  O265     1.0000 0.22570  0.23689  0.23674  Biso   1.000  O
  O266     1.0000 0.22561  0.23689  0.23674  Biso   1.000  O
  C1211    1.0000 0.04307  0.22891  0.03069  Biso   1.000  C
  H1425    1.0000 0.21461  0.25493  0.00410  Biso   1.000  H
  C1212    1.0000 0.04298  0.22891  0.03069  Biso   1.000  C
  O267     1.0000 0.36962  0.99904  0.29428  Biso   1.000  O
  O268     1.0000 0.36962  0.99910  0.29428  Biso   1.000  O
  H1426    1.0000 0.41653  0.90401  0.08520  Biso   1.000  H
  C1213    1.0000 0.24776  0.87371  0.11482  Biso   1.000  C
  C1214    1.0000 0.24766  0.87371  0.11482  Biso   1.000  C
  H1427    1.0000 0.08853  0.85860  0.15973  Biso   1.000  H
  H1428    1.0000 0.88866  0.20261  0.07703  Biso   1.000  H
  H1429    1.0000 0.88857  0.20261  0.07703  Biso   1.000  H
  C1215    1.0000 0.21517  0.30658  0.27284  Biso   1.000  C
  C1216    1.0000 0.21515  0.30658  0.27278  Biso   1.000  C
  C1217    1.0000 0.21517  0.30664  0.27284  Biso   1.000  C
  C1218    1.0000 0.21515  0.30664  0.27278  Biso   1.000  C
  H1430    1.0000 0.00081  0.22829  0.98292  Biso   1.000  H
  H1431    1.0000 0.00081  0.22835  0.98292  Biso   1.000  H
  C1219    1.0000 0.39545  0.95279  0.35649  Biso   1.000  C
  C1220    1.0000 0.39545  0.95285  0.35649  Biso   1.000  C
  H1432    1.0000 0.22256  0.84219  0.07453  Biso   1.000  H
  H1433    1.0000 0.22247  0.84219  0.07453  Biso   1.000  H
  H1434    1.0000 0.22256  0.84224  0.07453  Biso   1.000  H
  H1435    1.0000 0.22247  0.84224  0.07453  Biso   1.000  H
  H1436    1.0000 0.13305  0.31052  0.28759  Biso   1.000  H
  H1437    1.0000 0.22501  0.34750  0.24099  Biso   1.000  H
  C1221    1.0000 0.31328  0.31158  0.33579  Biso   1.000  C
  C1222    1.0000 0.31319  0.31158  0.33579  Biso   1.000  C
  H1438    1.0000 0.22501  0.34755  0.24099  Biso   1.000  H
  C1223    1.0000 0.31328  0.31164  0.33579  Biso   1.000  C
  C1224    1.0000 0.31319  0.31164  0.33579  Biso   1.000  C
  C1225    1.0000 0.51021  0.97729  0.40309  Biso   1.000  C
  H1439    1.0000 0.40604  0.90170  0.34221  Biso   1.000  H
  H1440    1.0000 0.32480  0.95459  0.38271  Biso   1.000  H
  C1226    1.0000 0.51011  0.97729  0.40309  Biso   1.000  C
  H1441    1.0000 0.32471  0.95459  0.38271  Biso   1.000  H
  H1442    1.0000 0.32480  0.95465  0.38271  Biso   1.000  H
  H1443    1.0000 0.32471  0.95465  0.38271  Biso   1.000  H
  O269     1.0000 0.30746  0.25645  0.38728  Biso   1.000  O
  H1444    1.0000 0.39455  0.30911  0.31981  Biso   1.000  H
  H1445    1.0000 0.30658  0.35992  0.35750  Biso   1.000  H
  H1446    1.0000 0.30649  0.35992  0.35750  Biso   1.000  H
  O270     1.0000 0.61986  0.95931  0.37268  Biso   1.000  O
  H1447    1.0000 0.51325  0.95307  0.44853  Biso   1.000  H
  H1448    1.0000 0.51325  0.95313  0.44853  Biso   1.000  H
  H1449    1.0000 0.50680  0.03057  0.41052  Biso   1.000  H
  H1450    1.0000 0.50671  0.03057  0.41052  Biso   1.000  H
  H1451    1.0000 0.50680  0.03063  0.41052  Biso   1.000  H
  H1452    1.0000 0.50671  0.03063  0.41052  Biso   1.000  H
  C1227    1.0000 0.37534  0.19002  0.37714  Biso   1.000  C
  C1228    1.0000 0.37533  0.19002  0.37708  Biso   1.000  C
  C1229    1.0000 0.73180  0.95583  0.42284  Biso   1.000  C
  C1230    1.0000 0.73169  0.95583  0.42279  Biso   1.000  C
  H1453    1.0000 0.36732  0.17928  0.32719  Biso   1.000  H
  H1454    1.0000 0.33773  0.14899  0.39970  Biso   1.000  H
  C1231    1.0000 0.51283  0.19350  0.40553  Biso   1.000  C
  H1455    1.0000 0.36732  0.17934  0.32719  Biso   1.000  H
  H1456    1.0000 0.33773  0.14905  0.39970  Biso   1.000  H
  H1457    1.0000 0.79129  0.92328  0.40442  Biso   1.000  H
  H1458    1.0000 0.71133  0.93402  0.46599  Biso   1.000  H
  H1459    1.0000 0.79120  0.92328  0.40442  Biso   1.000  H
  H1460    1.0000 0.79129  0.92334  0.40442  Biso   1.000  H
  H1461    1.0000 0.79120  0.92334  0.40442  Biso   1.000  H
  C1232    1.0000 0.79211  0.03091  0.43913  Biso   1.000  C
  C1233    1.0000 0.79202  0.03091  0.43913  Biso   1.000  C
  O271     1.0000 0.52822  0.18400  0.48022  Biso   1.000  O
  H1462    1.0000 0.55754  0.15461  0.38420  Biso   1.000  H
  H1463    1.0000 0.54682  0.24111  0.39391  Biso   1.000  H
  O272     1.0000 0.52813  0.18400  0.48022  Biso   1.000  O
  O273     1.0000 0.71835  0.07441  0.48085  Biso   1.000  O
  H1464    1.0000 0.87505  0.02411  0.46429  Biso   1.000  H
  H1465    1.0000 0.79988  0.05688  0.39561  Biso   1.000  H
  H1466    1.0000 0.79979  0.05688  0.39561  Biso   1.000  H
  H1467    1.0000 0.79988  0.05693  0.39561  Biso   1.000  H
  H1468    1.0000 0.79979  0.05693  0.39561  Biso   1.000  H
  C1234    1.0000 0.65280  0.19682  0.51371  Biso   1.000  C
  C1235    1.0000 0.65270  0.19682  0.51371  Biso   1.000  C
  C1236    1.0000 0.75221  0.15158  0.48383  Biso   1.000  C
  C1237    1.0000 0.75211  0.15158  0.48383  Biso   1.000  C
  C1238    1.0000 0.75221  0.15163  0.48383  Biso   1.000  C
  C1239    1.0000 0.75211  0.15163  0.48383  Biso   1.000  C
  H1469    1.0000 0.65626  0.18541  0.56334  Biso   1.000  H
  H1470    1.0000 0.67195  0.24920  0.50973  Biso   1.000  H
  H1471    1.0000 0.65625  0.18541  0.56329  Biso   1.000  H
  H1472    1.0000 0.67195  0.24926  0.50973  Biso   1.000  H
  H1473    1.0000 0.76108  0.16928  0.43701  Biso   1.000  H
  H1474    1.0000 0.83156  0.15781  0.51323  Biso   1.000  H
  H1475    1.0000 0.76108  0.16934  0.43701  Biso   1.000  H
  H1476    1.0000 0.76098  0.16928  0.43701  Biso   1.000  H
  H1477    1.0000 0.76098  0.16934  0.43701  Biso   1.000  H
  C1240    1.0000 0.75241  0.12629  0.88520  Biso   1.000  C
  C1241    1.0000 0.83071  0.11729  0.83409  Biso   1.000  C
  C1242    1.0000 0.83071  0.11735  0.83409  Biso   1.000  C
  C1243    1.0000 0.63727  0.09009  0.87851  Biso   1.000  C
  C1244    1.0000 0.63718  0.09009  0.87851  Biso   1.000  C
  C1245    1.0000 0.63727  0.09015  0.87851  Biso   1.000  C
  C1246    1.0000 0.63718  0.09015  0.87851  Biso   1.000  C
  H1478    1.0000 0.77761  0.15781  0.92549  Biso   1.000  H
  C1247    1.0000 0.79619  0.07441  0.77389  Biso   1.000  C
  H1479    1.0000 0.91164  0.14140  0.84030  Biso   1.000  H
  H1480    1.0000 0.91155  0.14140  0.84030  Biso   1.000  H
  C1248    1.0000 0.75241  0.12634  0.88520  Biso   1.000  C
  C1249    1.0000 0.59804  0.04491  0.81933  Biso   1.000  C
  C1250    1.0000 0.59795  0.04491  0.81933  Biso   1.000  C
  H1481    1.0000 0.58363  0.09599  0.91482  Biso   1.000  H
  H1482    1.0000 0.58363  0.09605  0.91482  Biso   1.000  H
  H1483    1.0000 0.58354  0.09599  0.91482  Biso   1.000  H
  H1484    1.0000 0.58354  0.09605  0.91482  Biso   1.000  H
  C1251    1.0000 0.67722  0.04052  0.76641  Biso   1.000  C
  C1252    1.0000 0.67713  0.04052  0.76641  Biso   1.000  C
  C1253    1.0000 0.88794  0.06480  0.72039  Biso   1.000  C
  C1254    1.0000 0.88784  0.06480  0.72039  Biso   1.000  C
  C1255    1.0000 0.47124  0.00551  0.81153  Biso   1.000  C
  C1256    1.0000 0.47115  0.00551  0.81153  Biso   1.000  C
  O274     1.0000 0.63055  0.00096  0.70574  Biso   1.000  O
  O275     1.0000 0.63045  0.00096  0.70574  Biso   1.000  O
  C1257    1.0000 0.91820  0.98561  0.69879  Biso   1.000  C
  H1485    1.0000 0.85513  0.09178  0.67830  Biso   1.000  H
  H1486    1.0000 0.96558  0.08857  0.73929  Biso   1.000  H
  H1487    1.0000 0.85503  0.09178  0.67830  Biso   1.000  H
  H1488    1.0000 0.85513  0.09183  0.67830  Biso   1.000  H
  H1489    1.0000 0.96558  0.08863  0.73929  Biso   1.000  H
  H1490    1.0000 0.85503  0.09183  0.67830  Biso   1.000  H
  H1491    1.0000 0.43180  0.01742  0.85261  Biso   1.000  H
  H1492    1.0000 0.42000  0.02720  0.77129  Biso   1.000  H
  C1258    1.0000 0.46684  0.92070  0.80229  Biso   1.000  C
  C1259    1.0000 0.46675  0.92070  0.80229  Biso   1.000  C
  C1260    1.0000 0.60471  0.04721  0.64353  Biso   1.000  C
  C1261    1.0000 0.60470  0.04721  0.64348  Biso   1.000  C
  C1262    1.0000 0.60461  0.04721  0.64348  Biso   1.000  C
  C1263    1.0000 0.96639  0.93222  0.74873  Biso   1.000  C
  C1264    1.0000 0.90139  0.96409  0.62840  Biso   1.000  C
  C1265    1.0000 0.96637  0.93222  0.74868  Biso   1.000  C
  C1266    1.0000 0.90139  0.96414  0.62840  Biso   1.000  C
  C1267    1.0000 0.55044  0.87090  0.84030  Biso   1.000  C
  C1268    1.0000 0.36823  0.89001  0.75601  Biso   1.000  C
  C1269    1.0000 0.55035  0.87090  0.84030  Biso   1.000  C
  C1270    1.0000 0.36814  0.89001  0.75601  Biso   1.000  C
  C1271    1.0000 0.48996  0.02271  0.59693  Biso   1.000  C
  H1493    1.0000 0.67537  0.04541  0.61731  Biso   1.000  H
  H1494    1.0000 0.59413  0.09830  0.65781  Biso   1.000  H
  H1495    1.0000 0.59404  0.09830  0.65781  Biso   1.000  H
  O276     1.0000 0.98587  0.95178  0.81975  Biso   1.000  O
  C1272    1.0000 0.99166  0.85848  0.72978  Biso   1.000  C
  C1273    1.0000 0.99166  0.85854  0.72978  Biso   1.000  C
  H1496    1.0000 0.86965  0.00011  0.59289  Biso   1.000  H
  C1274    1.0000 0.92878  0.89237  0.60770  Biso   1.000  C
  C1275    1.0000 0.92878  0.89243  0.60770  Biso   1.000  C
  O277     1.0000 0.65451  0.89990  0.88313  Biso   1.000  O
  C1276    1.0000 0.53969  0.79301  0.83223  Biso   1.000  C
  C1277    1.0000 0.35556  0.81330  0.74693  Biso   1.000  C
  H1497    1.0000 0.30787  0.92289  0.72989  Biso   1.000  H
  C1278    1.0000 0.35546  0.81330  0.74693  Biso   1.000  C
  H1498    1.0000 0.30787  0.92295  0.72989  Biso   1.000  H
  H1499    1.0000 0.49337  0.96943  0.58950  Biso   1.000  H
  O278     1.0000 0.38031  0.04069  0.62734  Biso   1.000  O
  H1500    1.0000 0.48692  0.04693  0.55149  Biso   1.000  H
  H1501    1.0000 0.48682  0.04693  0.55149  Biso   1.000  H
  O279     1.0000 0.38022  0.04069  0.62734  Biso   1.000  O
  C1279    1.0000 0.10819  0.98039  0.84359  Biso   1.000  C
  C1280    1.0000 0.10819  0.98044  0.84359  Biso   1.000  C
  C1281    1.0000 0.97278  0.84050  0.65813  Biso   1.000  C
  C1282    1.0000 0.04154  0.79958  0.78419  Biso   1.000  C
  C1283    1.0000 0.04145  0.79958  0.78419  Biso   1.000  C
  C1284    1.0000 0.04154  0.79964  0.78419  Biso   1.000  C
  C1285    1.0000 0.04145  0.79964  0.78419  Biso   1.000  C
  H1502    1.0000 0.91717  0.87900  0.55839  Biso   1.000  H
  C1286    1.0000 0.64290  0.91412  0.95542  Biso   1.000  C
  C1287    1.0000 0.44017  0.76609  0.78408  Biso   1.000  C
  C1288    1.0000 0.62776  0.73787  0.87458  Biso   1.000  C
  C1289    1.0000 0.62767  0.73787  0.87458  Biso   1.000  C
  C1290    1.0000 0.44017  0.76614  0.78408  Biso   1.000  C
  C1291    1.0000 0.62776  0.73793  0.87458  Biso   1.000  C
  C1292    1.0000 0.62767  0.73793  0.87458  Biso   1.000  C
  H1503    1.0000 0.28734  0.79329  0.71439  Biso   1.000  H
  H1504    1.0000 0.28725  0.79329  0.71439  Biso   1.000  H
  H1505    1.0000 0.28734  0.79335  0.71439  Biso   1.000  H
  H1506    1.0000 0.28725  0.79335  0.71439  Biso   1.000  H
  C1293    1.0000 0.26837  0.04417  0.57718  Biso   1.000  C
  C1294    1.0000 0.26837  0.04423  0.57718  Biso   1.000  C
  C1295    1.0000 0.11056  0.99933  0.91891  Biso   1.000  C
  H1507    1.0000 0.17120  0.94340  0.83780  Biso   1.000  H
  C1296    1.0000 0.11046  0.99933  0.91891  Biso   1.000  C
  H1508    1.0000 0.12458  0.02439  0.81699  Biso   1.000  H
  H1509    1.0000 0.12458  0.02445  0.81699  Biso   1.000  H
  H1510    1.0000 0.99096  0.79048  0.64358  Biso   1.000  H
  H1511    1.0000 0.99096  0.79054  0.64358  Biso   1.000  H
  C1297    1.0000 0.96552  0.78418  0.84380  Biso   1.000  C
  C1298    1.0000 0.96552  0.78424  0.84380  Biso   1.000  C
  C1299    1.0000 0.96542  0.78418  0.84380  Biso   1.000  C
  C1300    1.0000 0.96542  0.78424  0.84380  Biso   1.000  C
  H1512    1.0000 0.12444  0.81459  0.80479  Biso   1.000  H
  H1513    1.0000 0.05000  0.75322  0.75962  Biso   1.000  H
  H1514    1.0000 0.12435  0.81459  0.80479  Biso   1.000  H
  H1515    1.0000 0.12444  0.81465  0.80479  Biso   1.000  H
  H1516    1.0000 0.12435  0.81465  0.80479  Biso   1.000  H
  C1301    1.0000 0.77039  0.94458  0.98499  Biso   1.000  C
  H1517    1.0000 0.62448  0.86882  0.97931  Biso   1.000  H
  H1518    1.0000 0.57787  0.95032  0.95972  Biso   1.000  H
  H1519    1.0000 0.62438  0.86882  0.97931  Biso   1.000  H
  H1520    1.0000 0.57778  0.95032  0.95972  Biso   1.000  H
  C1302    1.0000 0.77039  0.94464  0.98499  Biso   1.000  C
  H1521    1.0000 0.43098  0.71292  0.77713  Biso   1.000  H
  C1303    1.0000 0.76838  0.75440  0.88839  Biso   1.000  C
  H1522    1.0000 0.59856  0.73180  0.91991  Biso   1.000  H
  H1523    1.0000 0.61765  0.69022  0.85091  Biso   1.000  H
  H1524    1.0000 0.59846  0.73180  0.91991  Biso   1.000  H
  H1525    1.0000 0.61756  0.69022  0.85091  Biso   1.000  H
  H1526    1.0000 0.20888  0.07672  0.59560  Biso   1.000  H
  C1304    1.0000 0.20805  0.96909  0.56089  Biso   1.000  C
  C1305    1.0000 0.20805  0.96915  0.56089  Biso   1.000  C
  H1527    1.0000 0.28884  0.06598  0.53403  Biso   1.000  H
  H1528    1.0000 0.28874  0.06598  0.53403  Biso   1.000  H
  H1529    1.0000 0.28884  0.06604  0.53403  Biso   1.000  H
  H1530    1.0000 0.28874  0.06604  0.53403  Biso   1.000  H
  H1531    1.0000 0.09401  0.95521  0.94523  Biso   1.000  H
  O280     1.0000 0.23201  0.02928  0.94582  Biso   1.000  O
  H1532    1.0000 0.04637  0.03569  0.92443  Biso   1.000  H
  H1533    1.0000 0.04627  0.03569  0.92443  Biso   1.000  H
  O281     1.0000 0.23201  0.02934  0.94582  Biso   1.000  O
  H1534    1.0000 0.04637  0.03574  0.92443  Biso   1.000  H
  H1535    1.0000 0.04627  0.03574  0.92443  Biso   1.000  H
  C1306    1.0000 0.83725  0.76592  0.83249  Biso   1.000  C
  C1307    1.0000 0.83715  0.76592  0.83249  Biso   1.000  C
  C1308    1.0000 0.02345  0.78581  0.91349  Biso   1.000  C
  C1309    1.0000 0.02336  0.78581  0.91349  Biso   1.000  C
  H1536    1.0000 0.83260  0.90581  0.98499  Biso   1.000  H
  H1537    1.0000 0.79284  0.98499  0.95553  Biso   1.000  H
  H1538    1.0000 0.79275  0.98499  0.95553  Biso   1.000  H
  O282     1.0000 0.76816  0.97072  0.05420  Biso   1.000  O
  O283     1.0000 0.76807  0.97072  0.05420  Biso   1.000  O
  C1310    1.0000 0.83104  0.75541  0.95670  Biso   1.000  C
  C1311    1.0000 0.83095  0.75541  0.95670  Biso   1.000  C
  O284     1.0000 0.28182  0.92559  0.51917  Biso   1.000  O
  H1539    1.0000 0.12512  0.97589  0.53573  Biso   1.000  H
  H1540    1.0000 0.20029  0.94312  0.60441  Biso   1.000  H
  O285     1.0000 0.28172  0.92559  0.51917  Biso   1.000  O
  H1541    1.0000 0.12503  0.97589  0.53573  Biso   1.000  H
  O286     1.0000 0.28182  0.92564  0.51917  Biso   1.000  O
  H1542    1.0000 0.12512  0.97595  0.53573  Biso   1.000  H
  O287     1.0000 0.28172  0.92564  0.51917  Biso   1.000  O
  H1543    1.0000 0.12503  0.97595  0.53573  Biso   1.000  H
  C1312    1.0000 0.22977  0.05542  0.01503  Biso   1.000  C
  C1313    1.0000 0.22968  0.05542  0.01503  Biso   1.000  C
  O288     1.0000 0.77447  0.76311  0.76328  Biso   1.000  O
  O289     1.0000 0.77447  0.76317  0.76328  Biso   1.000  O
  C1314    1.0000 0.95710  0.77109  0.96933  Biso   1.000  C
  H1544    1.0000 0.11151  0.79739  0.92299  Biso   1.000  H
  C1315    1.0000 0.88961  0.00067  0.08112  Biso   1.000  C
  C1316    1.0000 0.88961  0.00073  0.08112  Biso   1.000  C
  H1545    1.0000 0.78556  0.74507  0.99592  Biso   1.000  H
  H1546    1.0000 0.78546  0.74507  0.99592  Biso   1.000  H
  H1547    1.0000 0.78556  0.74512  0.99592  Biso   1.000  H
  H1548    1.0000 0.78546  0.74512  0.99592  Biso   1.000  H
  C1317    1.0000 0.24796  0.84842  0.51619  Biso   1.000  C
  C1318    1.0000 0.35727  0.08588  0.04460  Biso   1.000  C
  H1549    1.0000 0.16757  0.09419  0.01503  Biso   1.000  H
  H1550    1.0000 0.20733  0.01501  0.04449  Biso   1.000  H
  C1319    1.0000 0.35717  0.08588  0.04460  Biso   1.000  C
  H1551    1.0000 0.16747  0.09419  0.01503  Biso   1.000  H
  C1320    1.0000 0.35727  0.08593  0.04460  Biso   1.000  C
  H1552    1.0000 0.16757  0.09425  0.01503  Biso   1.000  H
  C1321    1.0000 0.35717  0.08593  0.04460  Biso   1.000  C
  H1553    1.0000 0.16747  0.09425  0.01503  Biso   1.000  H
  C1322    1.0000 0.78500  0.69342  0.72718  Biso   1.000  C
  H1554    1.0000 0.99936  0.77171  0.01710  Biso   1.000  H
  H1555    1.0000 0.99927  0.77171  0.01710  Biso   1.000  H
  H1556    1.0000 0.95380  0.96431  0.07560  Biso   1.000  H
  C1323    1.0000 0.89198  0.01961  0.15643  Biso   1.000  C
  H1557    1.0000 0.90616  0.04479  0.05479  Biso   1.000  H
  C1324    1.0000 0.89187  0.01961  0.15638  Biso   1.000  C
  H1558    1.0000 0.90607  0.04479  0.05479  Biso   1.000  H
  H1559    1.0000 0.90616  0.04485  0.05479  Biso   1.000  H
  H1560    1.0000 0.90607  0.04485  0.05479  Biso   1.000  H
  C1325    1.0000 0.34737  0.80318  0.48631  Biso   1.000  C
  H1561    1.0000 0.23909  0.83072  0.56301  Biso   1.000  H
  H1562    1.0000 0.16861  0.84219  0.48679  Biso   1.000  H
  H1563    1.0000 0.16852  0.84219  0.48679  Biso   1.000  H
  C1326    1.0000 0.34737  0.80324  0.48631  Biso   1.000  C
  H1564    1.0000 0.16861  0.84224  0.48679  Biso   1.000  H
  H1565    1.0000 0.16852  0.84224  0.48679  Biso   1.000  H
  O290     1.0000 0.34566  0.10010  0.11689  Biso   1.000  O
  H1566    1.0000 0.37569  0.13118  0.02071  Biso   1.000  H
  H1567    1.0000 0.42230  0.04968  0.04030  Biso   1.000  H
  O291     1.0000 0.34557  0.10010  0.11689  Biso   1.000  O
  O292     1.0000 0.34566  0.10015  0.11689  Biso   1.000  O
  H1568    1.0000 0.37569  0.13123  0.02071  Biso   1.000  H
  H1569    1.0000 0.42230  0.04974  0.04030  Biso   1.000  H
  O293     1.0000 0.34557  0.10015  0.11689  Biso   1.000  O
  C1327    1.0000 0.68689  0.68842  0.66423  Biso   1.000  C
  C1328    1.0000 0.68688  0.68842  0.66418  Biso   1.000  C
  H1570    1.0000 0.86712  0.68948  0.71243  Biso   1.000  H
  H1571    1.0000 0.77516  0.65250  0.75903  Biso   1.000  H
  H1572    1.0000 0.77507  0.65250  0.75903  Biso   1.000  H
  H1573    1.0000 0.86712  0.68954  0.71243  Biso   1.000  H
  H1574    1.0000 0.86702  0.68948  0.71243  Biso   1.000  H
  H1575    1.0000 0.86702  0.68954  0.71243  Biso   1.000  H
  H1576    1.0000 0.87559  0.97561  0.18303  Biso   1.000  H
  H1577    1.0000 0.87549  0.97561  0.18303  Biso   1.000  H
  H1578    1.0000 0.82897  0.05660  0.16222  Biso   1.000  H
  H1579    1.0000 0.82888  0.05660  0.16222  Biso   1.000  H
  H1580    1.0000 0.82897  0.05665  0.16222  Biso   1.000  H
  H1581    1.0000 0.82888  0.05665  0.16222  Biso   1.000  H
  O294     1.0000 0.01430  0.04822  0.18027  Biso   1.000  O
  O295     1.0000 0.01421  0.04822  0.18027  Biso   1.000  O
  O296     1.0000 0.01430  0.04828  0.18027  Biso   1.000  O
  O297     1.0000 0.01421  0.04828  0.18027  Biso   1.000  O
  O298     1.0000 0.47195  0.81600  0.51980  Biso   1.000  O
  H1582    1.0000 0.34391  0.81459  0.43668  Biso   1.000  H
  H1583    1.0000 0.32822  0.75080  0.49029  Biso   1.000  H
  H1584    1.0000 0.34381  0.81459  0.43668  Biso   1.000  H
  H1585    1.0000 0.32813  0.75080  0.49029  Biso   1.000  H
  O299     1.0000 0.47195  0.81605  0.51980  Biso   1.000  O
  H1586    1.0000 0.34391  0.81465  0.43668  Biso   1.000  H
  H1587    1.0000 0.34381  0.81465  0.43668  Biso   1.000  H
  C1329    1.0000 0.44972  0.12910  0.15973  Biso   1.000  C
  C1330    1.0000 0.44972  0.12915  0.15973  Biso   1.000  C
  O300     1.0000 0.69270  0.74355  0.61275  Biso   1.000  O
  O301     1.0000 0.69270  0.74361  0.61275  Biso   1.000  O
  O302     1.0000 0.69261  0.74355  0.61275  Biso   1.000  O
  O303     1.0000 0.69261  0.74361  0.61275  Biso   1.000  O
  H1588    1.0000 0.60562  0.69089  0.68021  Biso   1.000  H
  H1589    1.0000 0.69359  0.64008  0.64252  Biso   1.000  H
  H1590    1.0000 0.60553  0.69089  0.68021  Biso   1.000  H
  H1591    1.0000 0.69359  0.64014  0.64252  Biso   1.000  H
  C1331    1.0000 0.03378  0.06778  0.25129  Biso   1.000  C
  C1332    1.0000 0.03369  0.06778  0.25129  Biso   1.000  C
  C1333    1.0000 0.03378  0.06784  0.25129  Biso   1.000  C
  C1334    1.0000 0.03369  0.06784  0.25129  Biso   1.000  C
  C1335    1.0000 0.48734  0.80650  0.59449  Biso   1.000  C
  C1336    1.0000 0.48724  0.80650  0.59449  Biso   1.000  C
  C1337    1.0000 0.46048  0.20699  0.16779  Biso   1.000  C
  C1338    1.0000 0.53333  0.07930  0.19773  Biso   1.000  C
  C1339    1.0000 0.46039  0.20699  0.16779  Biso   1.000  C
  C1340    1.0000 0.46048  0.20705  0.16779  Biso   1.000  C
  C1341    1.0000 0.46039  0.20705  0.16779  Biso   1.000  C
  C1342    1.0000 0.62483  0.80998  0.62288  Biso   1.000  C
  C1343    1.0000 0.62474  0.80998  0.62288  Biso   1.000  C
  C1344    1.0000 0.62483  0.81004  0.62288  Biso   1.000  C
  C1345    1.0000 0.62474  0.81004  0.62288  Biso   1.000  C
  C1346    1.0000 0.08197  0.01439  0.30123  Biso   1.000  C
  C1347    1.0000 0.00851  0.14152  0.27024  Biso   1.000  C
  C1348    1.0000 0.00840  0.14152  0.27018  Biso   1.000  C
  C1349    1.0000 0.08197  0.01444  0.30123  Biso   1.000  C
  C1350    1.0000 0.00841  0.14152  0.27024  Biso   1.000  C
  H1592    1.0000 0.44263  0.84539  0.61582  Biso   1.000  H
  H1593    1.0000 0.45334  0.75889  0.60611  Biso   1.000  H
  H1594    1.0000 0.44254  0.84539  0.61582  Biso   1.000  H
  H1595    1.0000 0.45325  0.75889  0.60611  Biso   1.000  H
  H1596    1.0000 0.44263  0.84544  0.61582  Biso   1.000  H
  H1597    1.0000 0.44254  0.84544  0.61582  Biso   1.000  H
  C1351    1.0000 0.55999  0.23391  0.21594  Biso   1.000  C
  C1352    1.0000 0.37241  0.26213  0.12544  Biso   1.000  C
  C1353    1.0000 0.55989  0.23391  0.21588  Biso   1.000  C
  C1354    1.0000 0.37240  0.26213  0.12538  Biso   1.000  C
  C1355    1.0000 0.52893  0.99449  0.18849  Biso   1.000  C
  C1356    1.0000 0.52893  0.99455  0.18849  Biso   1.000  C
  C1357    1.0000 0.63194  0.10999  0.24402  Biso   1.000  C
  C1358    1.0000 0.63194  0.11004  0.24402  Biso   1.000  C
  H1598    1.0000 0.63285  0.82072  0.67283  Biso   1.000  H
  H1599    1.0000 0.66244  0.85101  0.60032  Biso   1.000  H
  H1600    1.0000 0.63276  0.82072  0.67283  Biso   1.000  H
  H1601    1.0000 0.66234  0.85101  0.60032  Biso   1.000  H
  C1359    1.0000 0.11223  0.93520  0.27963  Biso   1.000  C
  C1360    1.0000 0.09878  0.03591  0.37162  Biso   1.000  C
  C1361    1.0000 0.09869  0.03591  0.37162  Biso   1.000  C
  C1362    1.0000 0.95862  0.20042  0.21583  Biso   1.000  C
  C1363    1.0000 0.02739  0.15950  0.34189  Biso   1.000  C
  C1364    1.0000 0.02730  0.15950  0.34189  Biso   1.000  C
  H1602    1.0000 0.56918  0.28708  0.22289  Biso   1.000  H
  C1365    1.0000 0.64461  0.18670  0.25309  Biso   1.000  C
  H1603    1.0000 0.56909  0.28708  0.22289  Biso   1.000  H
  H1604    1.0000 0.56918  0.28714  0.22289  Biso   1.000  H
  H1605    1.0000 0.56909  0.28714  0.22289  Biso   1.000  H
  C1366    1.0000 0.23179  0.24560  0.11164  Biso   1.000  C
  H1606    1.0000 0.40161  0.26820  0.08011  Biso   1.000  H
  H1607    1.0000 0.38252  0.30978  0.14911  Biso   1.000  H
  C1367    1.0000 0.23168  0.24560  0.11158  Biso   1.000  C
  H1608    1.0000 0.40161  0.26825  0.08011  Biso   1.000  H
  H1609    1.0000 0.38252  0.30984  0.14911  Biso   1.000  H
  C1368    1.0000 0.40213  0.95509  0.18069  Biso   1.000  C
  H1610    1.0000 0.56837  0.98258  0.14741  Biso   1.000  H
  H1611    1.0000 0.58017  0.97280  0.22873  Biso   1.000  H
  H1612    1.0000 0.56828  0.98258  0.14741  Biso   1.000  H
  H1613    1.0000 0.58008  0.97280  0.22873  Biso   1.000  H
  H1614    1.0000 0.56837  0.98263  0.14741  Biso   1.000  H
  H1615    1.0000 0.56828  0.98263  0.14741  Biso   1.000  H
  H1616    1.0000 0.69230  0.07711  0.27013  Biso   1.000  H
  H1617    1.0000 0.69221  0.07711  0.27013  Biso   1.000  H
  C1369    1.0000 0.20398  0.92559  0.22613  Biso   1.000  C
  H1618    1.0000 0.14504  0.90822  0.32172  Biso   1.000  H
  H1619    1.0000 0.03459  0.91143  0.26074  Biso   1.000  H
  C1370    1.0000 0.20388  0.92559  0.22613  Biso   1.000  C
  H1620    1.0000 0.03450  0.91143  0.26074  Biso   1.000  H
  C1371    1.0000 0.20398  0.92564  0.22613  Biso   1.000  C
  C1372    1.0000 0.20388  0.92564  0.22613  Biso   1.000  C
  H1621    1.0000 0.13052  0.99989  0.40713  Biso   1.000  H
  H1622    1.0000 0.13043  0.99989  0.40713  Biso   1.000  H
  H1623    1.0000 0.13052  0.99994  0.40713  Biso   1.000  H
  H1624    1.0000 0.13043  0.99994  0.40713  Biso   1.000  H
  C1373    1.0000 0.07139  0.10763  0.39232  Biso   1.000  C
  C1374    1.0000 0.07130  0.10763  0.39232  Biso   1.000  C
  H1625    1.0000 0.87573  0.18541  0.19524  Biso   1.000  H
  H1626    1.0000 0.95017  0.24678  0.24041  Biso   1.000  H
  H1627    1.0000 0.87572  0.18541  0.19518  Biso   1.000  H
  H1628    1.0000 0.95017  0.24684  0.24041  Biso   1.000  H
  H1629    1.0000 0.95007  0.24678  0.24041  Biso   1.000  H
  H1630    1.0000 0.95007  0.24684  0.24041  Biso   1.000  H
  C1375    1.0000 0.03465  0.21582  0.15622  Biso   1.000  C
  H1631    1.0000 0.00921  0.20952  0.35644  Biso   1.000  H
  H1632    1.0000 0.00910  0.20952  0.35638  Biso   1.000  H
  H1633    1.0000 0.71283  0.20671  0.28563  Biso   1.000  H
  C1376    1.0000 0.16292  0.23408  0.16753  Biso   1.000  C
  C1377    1.0000 0.16913  0.24459  0.04332  Biso   1.000  C
  C1378    1.0000 0.16292  0.23414  0.16753  Biso   1.000  C
  C1379    1.0000 0.16913  0.24465  0.04332  Biso   1.000  C
  C1380    1.0000 0.32295  0.95948  0.23361  Biso   1.000  C
  C1381    1.0000 0.36290  0.90991  0.12151  Biso   1.000  C
  C1382    1.0000 0.32295  0.95953  0.23361  Biso   1.000  C
  C1383    1.0000 0.16946  0.88271  0.16594  Biso   1.000  C
  C1384    1.0000 0.16945  0.88271  0.16588  Biso   1.000  C
  C1385    1.0000 0.16936  0.88271  0.16588  Biso   1.000  C
  H1634    1.0000 0.08300  0.12100  0.44163  Biso   1.000  H
  H1635    1.0000 0.08291  0.12100  0.44163  Biso   1.000  H
  C1386    1.0000 0.97672  0.21419  0.08653  Biso   1.000  C
  C1387    1.0000 0.97672  0.21424  0.08653  Biso   1.000  C
  O304     1.0000 0.22570  0.23689  0.23674  Biso   1.000  O
  O305     1.0000 0.22561  0.23689  0.23674  Biso   1.000  O
  C1388    1.0000 0.04307  0.22891  0.03069  Biso   1.000  C
  H1636    1.0000 0.21461  0.25493  0.00410  Biso   1.000  H
  C1389    1.0000 0.04298  0.22891  0.03069  Biso   1.000  C
  O306     1.0000 0.36962  0.99904  0.29428  Biso   1.000  O
  O307     1.0000 0.36962  0.99910  0.29428  Biso   1.000  O
  H1637    1.0000 0.41653  0.90401  0.08520  Biso   1.000  H
  C1390    1.0000 0.24776  0.87371  0.11482  Biso   1.000  C
  C1391    1.0000 0.24766  0.87371  0.11482  Biso   1.000  C
  H1638    1.0000 0.08853  0.85860  0.15973  Biso   1.000  H
  H1639    1.0000 0.88866  0.20261  0.07703  Biso   1.000  H
  H1640    1.0000 0.88857  0.20261  0.07703  Biso   1.000  H
  C1392    1.0000 0.21517  0.30658  0.27284  Biso   1.000  C
  C1393    1.0000 0.21515  0.30658  0.27278  Biso   1.000  C
  C1394    1.0000 0.21517  0.30664  0.27284  Biso   1.000  C
  C1395    1.0000 0.21515  0.30664  0.27278  Biso   1.000  C
  H1641    1.0000 0.00081  0.22829  0.98292  Biso   1.000  H
  H1642    1.0000 0.00081  0.22835  0.98292  Biso   1.000  H
  C1396    1.0000 0.39545  0.95279  0.35649  Biso   1.000  C
  C1397    1.0000 0.39545  0.95285  0.35649  Biso   1.000  C
  H1643    1.0000 0.22256  0.84219  0.07453  Biso   1.000  H
  H1644    1.0000 0.22247  0.84219  0.07453  Biso   1.000  H
  H1645    1.0000 0.22256  0.84224  0.07453  Biso   1.000  H
  H1646    1.0000 0.22247  0.84224  0.07453  Biso   1.000  H
  H1647    1.0000 0.13305  0.31052  0.28759  Biso   1.000  H
  H1648    1.0000 0.22501  0.34750  0.24099  Biso   1.000  H
  C1398    1.0000 0.31328  0.31158  0.33579  Biso   1.000  C
  C1399    1.0000 0.31319  0.31158  0.33579  Biso   1.000  C
  H1649    1.0000 0.22501  0.34755  0.24099  Biso   1.000  H
  C1400    1.0000 0.31328  0.31164  0.33579  Biso   1.000  C
  C1401    1.0000 0.31319  0.31164  0.33579  Biso   1.000  C
  C1402    1.0000 0.51021  0.97729  0.40309  Biso   1.000  C
  H1650    1.0000 0.40604  0.90170  0.34221  Biso   1.000  H
  H1651    1.0000 0.32480  0.95459  0.38271  Biso   1.000  H
  C1403    1.0000 0.51011  0.97729  0.40309  Biso   1.000  C
  H1652    1.0000 0.32471  0.95459  0.38271  Biso   1.000  H
  H1653    1.0000 0.32480  0.95465  0.38271  Biso   1.000  H
  H1654    1.0000 0.32471  0.95465  0.38271  Biso   1.000  H
  O308     1.0000 0.30746  0.25645  0.38728  Biso   1.000  O
  H1655    1.0000 0.39455  0.30911  0.31981  Biso   1.000  H
  H1656    1.0000 0.30658  0.35992  0.35750  Biso   1.000  H
  H1657    1.0000 0.30649  0.35992  0.35750  Biso   1.000  H
  O309     1.0000 0.61986  0.95931  0.37268  Biso   1.000  O
  H1658    1.0000 0.51325  0.95307  0.44853  Biso   1.000  H
  H1659    1.0000 0.51325  0.95313  0.44853  Biso   1.000  H
  H1660    1.0000 0.50680  0.03057  0.41052  Biso   1.000  H
  H1661    1.0000 0.50671  0.03057  0.41052  Biso   1.000  H
  H1662    1.0000 0.50680  0.03063  0.41052  Biso   1.000  H
  H1663    1.0000 0.50671  0.03063  0.41052  Biso   1.000  H
  C1404    1.0000 0.37534  0.19002  0.37714  Biso   1.000  C
  C1405    1.0000 0.37533  0.19002  0.37708  Biso   1.000  C
  C1406    1.0000 0.73180  0.95583  0.42284  Biso   1.000  C
  C1407    1.0000 0.73169  0.95583  0.42279  Biso   1.000  C
  H1664    1.0000 0.36732  0.17928  0.32719  Biso   1.000  H
  H1665    1.0000 0.33773  0.14899  0.39970  Biso   1.000  H
  C1408    1.0000 0.51283  0.19350  0.40553  Biso   1.000  C
  H1666    1.0000 0.36732  0.17934  0.32719  Biso   1.000  H
  H1667    1.0000 0.33773  0.14905  0.39970  Biso   1.000  H
  H1668    1.0000 0.79129  0.92328  0.40442  Biso   1.000  H
  H1669    1.0000 0.71133  0.93402  0.46599  Biso   1.000  H
  H1670    1.0000 0.79120  0.92328  0.40442  Biso   1.000  H
  H1671    1.0000 0.79129  0.92334  0.40442  Biso   1.000  H
  H1672    1.0000 0.79120  0.92334  0.40442  Biso   1.000  H
  C1409    1.0000 0.79211  0.03091  0.43913  Biso   1.000  C
  C1410    1.0000 0.79202  0.03091  0.43913  Biso   1.000  C
  O310     1.0000 0.52822  0.18400  0.48022  Biso   1.000  O
  H1673    1.0000 0.55754  0.15461  0.38420  Biso   1.000  H
  H1674    1.0000 0.54682  0.24111  0.39391  Biso   1.000  H
  O311     1.0000 0.52813  0.18400  0.48022  Biso   1.000  O
  O312     1.0000 0.71835  0.07441  0.48085  Biso   1.000  O
  H1675    1.0000 0.87505  0.02411  0.46429  Biso   1.000  H
  H1676    1.0000 0.79988  0.05688  0.39561  Biso   1.000  H
  H1677    1.0000 0.79979  0.05688  0.39561  Biso   1.000  H
  H1678    1.0000 0.79988  0.05693  0.39561  Biso   1.000  H
  H1679    1.0000 0.79979  0.05693  0.39561  Biso   1.000  H
  C1411    1.0000 0.65280  0.19682  0.51371  Biso   1.000  C
  C1412    1.0000 0.65270  0.19682  0.51371  Biso   1.000  C
  C1413    1.0000 0.75221  0.15158  0.48383  Biso   1.000  C
  C1414    1.0000 0.75211  0.15158  0.48383  Biso   1.000  C
  C1415    1.0000 0.75221  0.15163  0.48383  Biso   1.000  C
  C1416    1.0000 0.75211  0.15163  0.48383  Biso   1.000  C
  H1680    1.0000 0.65626  0.18541  0.56334  Biso   1.000  H
  H1681    1.0000 0.67195  0.24920  0.50973  Biso   1.000  H
  H1682    1.0000 0.65625  0.18541  0.56329  Biso   1.000  H
  H1683    1.0000 0.67195  0.24926  0.50973  Biso   1.000  H
  H1684    1.0000 0.76108  0.16928  0.43701  Biso   1.000  H
  H1685    1.0000 0.83156  0.15781  0.51323  Biso   1.000  H
  H1686    1.0000 0.76108  0.16934  0.43701  Biso   1.000  H
  H1687    1.0000 0.76098  0.16928  0.43701  Biso   1.000  H
  H1688    1.0000 0.76098  0.16934  0.43701  Biso   1.000  H
  C1417    1.0000 0.65269  0.30321  0.01370  Biso   1.000  C
  O313     1.0000 0.52820  0.31602  0.98021  Biso   1.000  O
  C1418    1.0000 0.75219  0.34840  0.98382  Biso   1.000  C
  H1689    1.0000 0.65624  0.31462  0.06333  Biso   1.000  H
  H1690    1.0000 0.67193  0.25083  0.00972  Biso   1.000  H
  C1419    1.0000 0.51291  0.30653  0.90553  Biso   1.000  C
  O314     1.0000 0.71843  0.42562  0.98085  Biso   1.000  O
  O315     1.0000 0.71834  0.42562  0.98085  Biso   1.000  O
  H1691    1.0000 0.76106  0.33069  0.93701  Biso   1.000  H
  H1692    1.0000 0.83154  0.34221  0.01323  Biso   1.000  H
  H1693    1.0000 0.83145  0.34221  0.01323  Biso   1.000  H
  C1420    1.0000 0.37541  0.31001  0.87713  Biso   1.000  C
  H1694    1.0000 0.55761  0.34542  0.88419  Biso   1.000  H
  H1695    1.0000 0.54690  0.25892  0.89391  Biso   1.000  H
  H1696    1.0000 0.55752  0.34542  0.88419  Biso   1.000  H
  C1421    1.0000 0.79210  0.46912  0.93913  Biso   1.000  C
  O316     1.0000 0.30745  0.24358  0.88727  Biso   1.000  O
  H1697    1.0000 0.36739  0.32069  0.82718  Biso   1.000  H
  H1698    1.0000 0.33781  0.35098  0.89969  Biso   1.000  H
  C1422    1.0000 0.73177  0.54420  0.92278  Biso   1.000  C
  H1699    1.0000 0.87503  0.47592  0.96429  Biso   1.000  H
  H1700    1.0000 0.79986  0.44310  0.89560  Biso   1.000  H
  C1423    1.0000 0.31326  0.18839  0.83578  Biso   1.000  C
  O317     1.0000 0.61984  0.54072  0.87267  Biso   1.000  O
  H1701    1.0000 0.79127  0.57669  0.90442  Biso   1.000  H
  H1702    1.0000 0.71141  0.56601  0.96599  Biso   1.000  H
  C1424    1.0000 0.21514  0.19339  0.77278  Biso   1.000  C
  H1703    1.0000 0.39453  0.19092  0.81981  Biso   1.000  H
  H1704    1.0000 0.30656  0.14011  0.85749  Biso   1.000  H
  C1425    1.0000 0.51019  0.52273  0.90309  Biso   1.000  C
  O318     1.0000 0.22568  0.26314  0.73674  Biso   1.000  O
  H1705    1.0000 0.13303  0.18951  0.78759  Biso   1.000  H
  H1706    1.0000 0.22508  0.15248  0.74098  Biso   1.000  H
  C1426    1.0000 0.39544  0.54724  0.85648  Biso   1.000  C
  H1707    1.0000 0.50679  0.46940  0.91052  Biso   1.000  H
  H1708    1.0000 0.51333  0.54690  0.94852  Biso   1.000  H
  H1709    1.0000 0.51323  0.54690  0.94852  Biso   1.000  H
  C1427    1.0000 0.16300  0.26589  0.66752  Biso   1.000  C
  O319     1.0000 0.36970  0.50093  0.79428  Biso   1.000  O
  H1710    1.0000 0.40611  0.59833  0.84221  Biso   1.000  H
  H1711    1.0000 0.32478  0.54544  0.88271  Biso   1.000  H
  C1428    1.0000 0.23177  0.25443  0.61163  Biso   1.000  C
  C1429    1.0000 0.03463  0.28421  0.65622  Biso   1.000  C
  C1430    1.0000 0.32293  0.54049  0.73361  Biso   1.000  C
  C1431    1.0000 0.37247  0.23790  0.62538  Biso   1.000  C
  C1432    1.0000 0.16911  0.25538  0.54332  Biso   1.000  C
  C1433    1.0000 0.97679  0.28579  0.58652  Biso   1.000  C
  C1434    1.0000 0.95870  0.29961  0.71582  Biso   1.000  C
  C1435    1.0000 0.40220  0.54493  0.68069  Biso   1.000  C
  C1436    1.0000 0.40211  0.54493  0.68069  Biso   1.000  C
  C1437    1.0000 0.20396  0.57444  0.72612  Biso   1.000  C
  C1438    1.0000 0.46046  0.29298  0.66779  Biso   1.000  C
  H1712    1.0000 0.40169  0.23183  0.58010  Biso   1.000  H
  H1713    1.0000 0.38259  0.19019  0.64910  Biso   1.000  H
  H1714    1.0000 0.40159  0.23183  0.58010  Biso   1.000  H
  C1439    1.0000 0.04305  0.27112  0.53068  Biso   1.000  C
  H1715    1.0000 0.21469  0.24510  0.50409  Biso   1.000  H
  H1716    1.0000 0.21459  0.24510  0.50409  Biso   1.000  H
  H1717    1.0000 0.88864  0.29742  0.57702  Biso   1.000  H
  C1440    1.0000 0.00849  0.35851  0.77023  Biso   1.000  C
  H1718    1.0000 0.87580  0.31462  0.69523  Biso   1.000  H
  H1719    1.0000 0.95015  0.25319  0.74040  Biso   1.000  H
  C1441    1.0000 0.52900  0.50554  0.68849  Biso   1.000  C
  C1442    1.0000 0.52891  0.50554  0.68849  Biso   1.000  C
  C1443    1.0000 0.36297  0.59012  0.62150  Biso   1.000  C
  C1444    1.0000 0.16945  0.61732  0.66593  Biso   1.000  C
  C1445    1.0000 0.11231  0.56483  0.77963  Biso   1.000  C
  C1446    1.0000 0.44980  0.37093  0.65972  Biso   1.000  C
  C1447    1.0000 0.44971  0.37093  0.65972  Biso   1.000  C
  C1448    1.0000 0.55998  0.26612  0.71593  Biso   1.000  C
  H1720    1.0000 0.00079  0.27168  0.48291  Biso   1.000  H
  H1721    1.0000 0.00070  0.27168  0.48291  Biso   1.000  H
  C1449    1.0000 0.03377  0.43219  0.75128  Biso   1.000  C
  C1450    1.0000 0.02737  0.34053  0.84189  Biso   1.000  C
  C1451    1.0000 0.53340  0.42073  0.69772  Biso   1.000  C
  H1722    1.0000 0.56835  0.51739  0.64741  Biso   1.000  H
  H1723    1.0000 0.58015  0.52723  0.72872  Biso   1.000  H
  H1724    1.0000 0.41652  0.59602  0.58520  Biso   1.000  H
  C1452    1.0000 0.24774  0.62631  0.61482  Biso   1.000  C
  H1725    1.0000 0.08860  0.64143  0.65972  Biso   1.000  H
  C1453    1.0000 0.08195  0.48558  0.80123  Biso   1.000  C
  H1726    1.0000 0.14512  0.59181  0.82172  Biso   1.000  H
  H1727    1.0000 0.03457  0.58860  0.76073  Biso   1.000  H
  O320     1.0000 0.34564  0.39988  0.61689  Biso   1.000  O
  H1728    1.0000 0.56917  0.21289  0.72288  Biso   1.000  H
  C1454    1.0000 0.64469  0.31333  0.75309  Biso   1.000  C
  O321     1.0000 0.01428  0.45175  0.68026  Biso   1.000  O
  C1455    1.0000 0.07137  0.39240  0.89231  Biso   1.000  C
  H1729    1.0000 0.00919  0.29051  0.85643  Biso   1.000  H
  C1456    1.0000 0.63201  0.38998  0.74401  Biso   1.000  C
  C1457    1.0000 0.63192  0.38998  0.74401  Biso   1.000  C
  H1730    1.0000 0.22254  0.65779  0.57453  Biso   1.000  H
  C1458    1.0000 0.09876  0.46412  0.87161  Biso   1.000  C
  C1459    1.0000 0.35725  0.41410  0.54459  Biso   1.000  C
  H1731    1.0000 0.71290  0.29332  0.78562  Biso   1.000  H
  C1460    1.0000 0.89196  0.48041  0.65643  Biso   1.000  C
  H1732    1.0000 0.08298  0.37903  0.94162  Biso   1.000  H
  H1733    1.0000 0.69229  0.42292  0.77012  Biso   1.000  H
  H1734    1.0000 0.13050  0.50008  0.90712  Biso   1.000  H
  C1461    1.0000 0.22976  0.44461  0.51503  Biso   1.000  C
  H1735    1.0000 0.37577  0.36880  0.52071  Biso   1.000  H
  H1736    1.0000 0.42237  0.45029  0.54029  Biso   1.000  H
  C1462    1.0000 0.88969  0.49930  0.58111  Biso   1.000  C
  H1737    1.0000 0.82895  0.44343  0.66222  Biso   1.000  H
  H1738    1.0000 0.87557  0.52442  0.68302  Biso   1.000  H
  O322     1.0000 0.23190  0.47075  0.44581  Biso   1.000  O
  H1739    1.0000 0.16755  0.40583  0.51503  Biso   1.000  H
  H1740    1.0000 0.20731  0.48502  0.54449  Biso   1.000  H
  O323     1.0000 0.76814  0.52931  0.55420  Biso   1.000  O
  H1741    1.0000 0.90614  0.45524  0.55478  Biso   1.000  H
  H1742    1.0000 0.95388  0.53572  0.57559  Biso   1.000  H
  C1463    1.0000 0.11044  0.50070  0.41890  Biso   1.000  C
  C1464    1.0000 0.77038  0.55539  0.48498  Biso   1.000  C
  C1465    1.0000 0.10817  0.51959  0.34358  Biso   1.000  C
  H1743    1.0000 0.09399  0.54482  0.44523  Biso   1.000  H
  H1744    1.0000 0.04626  0.46428  0.42442  Biso   1.000  H
  C1466    1.0000 0.10808  0.51959  0.34358  Biso   1.000  C
  H1745    1.0000 0.09389  0.54482  0.44523  Biso   1.000  H
  C1467    1.0000 0.64288  0.58590  0.45542  Biso   1.000  C
  H1746    1.0000 0.83258  0.59422  0.48498  Biso   1.000  H
  H1747    1.0000 0.79273  0.51503  0.45552  Biso   1.000  H
  H1748    1.0000 0.83249  0.59422  0.48498  Biso   1.000  H
  H1749    1.0000 0.17108  0.55662  0.33780  Biso   1.000  H
  H1750    1.0000 0.12456  0.47564  0.31699  Biso   1.000  H
  H1751    1.0000 0.12447  0.47564  0.31699  Biso   1.000  H
  O324     1.0000 0.98585  0.54825  0.31975  Biso   1.000  O
  O325     1.0000 0.65449  0.60012  0.38313  Biso   1.000  O
  O326     1.0000 0.65440  0.60012  0.38313  Biso   1.000  O
  H1752    1.0000 0.62436  0.63120  0.47930  Biso   1.000  H
  H1753    1.0000 0.57776  0.54971  0.45972  Biso   1.000  H
  C1468    1.0000 0.96635  0.56781  0.24868  Biso   1.000  C
  C1469    1.0000 0.55033  0.62912  0.34029  Biso   1.000  C
  C1470    1.0000 0.91809  0.51442  0.19878  Biso   1.000  C
  C1471    1.0000 0.99164  0.64149  0.22978  Biso   1.000  C
  C1472    1.0000 0.46673  0.57933  0.30229  Biso   1.000  C
  C1473    1.0000 0.53967  0.70702  0.33222  Biso   1.000  C
  C1474    1.0000 0.90127  0.53588  0.12840  Biso   1.000  C
  C1475    1.0000 0.88782  0.43523  0.22038  Biso   1.000  C
  C1476    1.0000 0.04143  0.70039  0.28419  Biso   1.000  C
  C1477    1.0000 0.97276  0.65953  0.15812  Biso   1.000  C
  C1478    1.0000 0.97267  0.65953  0.15812  Biso   1.000  C
  C1479    1.0000 0.47113  0.49452  0.31152  Biso   1.000  C
  C1480    1.0000 0.36812  0.61002  0.25600  Biso   1.000  C
  C1481    1.0000 0.62765  0.76210  0.37458  Biso   1.000  C
  C1482    1.0000 0.44016  0.73394  0.28408  Biso   1.000  C
  H1754    1.0000 0.86963  0.49992  0.09289  Biso   1.000  H
  C1483    1.0000 0.92866  0.60760  0.10770  Biso   1.000  C
  C1484    1.0000 0.79608  0.42562  0.27389  Biso   1.000  C
  H1755    1.0000 0.85502  0.40819  0.17829  Biso   1.000  H
  H1756    1.0000 0.96556  0.41140  0.23928  Biso   1.000  H
  H1757    1.0000 0.96547  0.41140  0.23928  Biso   1.000  H
  H1758    1.0000 0.12433  0.68544  0.30478  Biso   1.000  H
  H1759    1.0000 0.04989  0.74681  0.25961  Biso   1.000  H
  C1485    1.0000 0.96540  0.71584  0.34379  Biso   1.000  C
  H1760    1.0000 0.99094  0.70949  0.14358  Biso   1.000  H
  C1486    1.0000 0.59793  0.45512  0.31932  Biso   1.000  C
  H1761    1.0000 0.43178  0.48261  0.35260  Biso   1.000  H
  H1762    1.0000 0.41989  0.47283  0.27129  Biso   1.000  H
  H1763    1.0000 0.43169  0.48261  0.35260  Biso   1.000  H
  C1487    1.0000 0.35545  0.68673  0.24692  Biso   1.000  C
  H1764    1.0000 0.30785  0.57714  0.22989  Biso   1.000  H
  C1488    1.0000 0.76836  0.74563  0.38838  Biso   1.000  C
  H1765    1.0000 0.59844  0.76822  0.41991  Biso   1.000  H
  H1766    1.0000 0.61754  0.80981  0.35091  Biso   1.000  H
  H1767    1.0000 0.43097  0.78711  0.27713  Biso   1.000  H
  H1768    1.0000 0.91715  0.62103  0.05839  Biso   1.000  H
  H1769    1.0000 0.91705  0.62103  0.05839  Biso   1.000  H
  C1489    1.0000 0.67711  0.45951  0.26640  Biso   1.000  C
  C1490    1.0000 0.83059  0.38273  0.33408  Biso   1.000  C
  C1491    1.0000 0.02334  0.71421  0.41349  Biso   1.000  C
  C1492    1.0000 0.83713  0.73411  0.33249  Biso   1.000  C
  C1493    1.0000 0.63716  0.40994  0.37851  Biso   1.000  C
  H1770    1.0000 0.28723  0.70674  0.21439  Biso   1.000  H
  C1494    1.0000 0.83093  0.74462  0.45669  Biso   1.000  C
  O327     1.0000 0.63043  0.49907  0.20573  Biso   1.000  O
  C1495    1.0000 0.75230  0.37369  0.38520  Biso   1.000  C
  H1771    1.0000 0.91153  0.35862  0.34029  Biso   1.000  H
  H1772    1.0000 0.11140  0.70264  0.42299  Biso   1.000  H
  C1496    1.0000 0.95708  0.72894  0.46933  Biso   1.000  C
  O328     1.0000 0.77445  0.73686  0.26327  Biso   1.000  O
  H1773    1.0000 0.58352  0.40404  0.41481  Biso   1.000  H
  H1774    1.0000 0.78545  0.75490  0.49592  Biso   1.000  H
  C1497    1.0000 0.60460  0.45282  0.14353  Biso   1.000  C
  H1775    1.0000 0.77750  0.34221  0.42548  Biso   1.000  H
  H1776    1.0000 0.99934  0.72832  0.51710  Biso   1.000  H
  C1498    1.0000 0.78489  0.80661  0.22718  Biso   1.000  C
  C1499    1.0000 0.48994  0.47732  0.09692  Biso   1.000  C
  H1777    1.0000 0.59402  0.40173  0.15780  Biso   1.000  H
  H1778    1.0000 0.67535  0.45462  0.11730  Biso   1.000  H
  H1779    1.0000 0.86700  0.81054  0.21242  Biso   1.000  H
  H1780    1.0000 0.77505  0.84752  0.25903  Biso   1.000  H
  C1500    1.0000 0.68687  0.81161  0.16423  Biso   1.000  C
  C1501    1.0000 0.68678  0.81161  0.16423  Biso   1.000  C
  O329     1.0000 0.38020  0.45934  0.12734  Biso   1.000  O
  H1781    1.0000 0.49335  0.53060  0.08949  Biso   1.000  H
  H1782    1.0000 0.48681  0.45310  0.05149  Biso   1.000  H
  O330     1.0000 0.69259  0.75642  0.11274  Biso   1.000  O
  H1783    1.0000 0.60551  0.80914  0.18020  Biso   1.000  H
  H1784    1.0000 0.69348  0.85994  0.14252  Biso   1.000  H
  C1502    1.0000 0.26835  0.45580  0.07718  Biso   1.000  C
  C1503    1.0000 0.26826  0.45580  0.07718  Biso   1.000  C
  C1504    1.0000 0.62472  0.68999  0.12288  Biso   1.000  C
  C1505    1.0000 0.20804  0.53094  0.06088  Biso   1.000  C
  H1785    1.0000 0.20886  0.42331  0.09560  Biso   1.000  H
  H1786    1.0000 0.28872  0.43399  0.03402  Biso   1.000  H
  H1787    1.0000 0.20876  0.42331  0.09560  Biso   1.000  H
  H1788    1.0000 0.63274  0.67931  0.17283  Biso   1.000  H
  H1789    1.0000 0.66232  0.64902  0.10032  Biso   1.000  H
  C1506    1.0000 0.48723  0.69353  0.09448  Biso   1.000  C
  O331     1.0000 0.28170  0.57444  0.01916  Biso   1.000  O
  H1790    1.0000 0.12501  0.52414  0.03572  Biso   1.000  H
  H1791    1.0000 0.20017  0.55690  0.10441  Biso   1.000  H
  O332     1.0000 0.47193  0.68398  0.01980  Biso   1.000  O
  H1792    1.0000 0.44252  0.65464  0.11582  Biso   1.000  H
  H1793    1.0000 0.45323  0.74113  0.10611  Biso   1.000  H
  C1507    1.0000 0.24794  0.65160  0.01619  Biso   1.000  C
  C1508    1.0000 0.34745  0.69679  0.98631  Biso   1.000  C
  C1509    1.0000 0.34735  0.69679  0.98631  Biso   1.000  C
  H1794    1.0000 0.16859  0.65779  0.98678  Biso   1.000  H
  H1795    1.0000 0.23898  0.66931  0.06300  Biso   1.000  H
  H1796    1.0000 0.34389  0.68544  0.93668  Biso   1.000  H
  H1797    1.0000 0.32820  0.74923  0.99029  Biso   1.000  H
  C1510    1.0000 0.65269  0.30321  0.01370  Biso   1.000  C
  O333     1.0000 0.52820  0.31602  0.98021  Biso   1.000  O
  C1511    1.0000 0.75219  0.34840  0.98382  Biso   1.000  C
  H1798    1.0000 0.65624  0.31462  0.06333  Biso   1.000  H
  H1799    1.0000 0.67193  0.25083  0.00972  Biso   1.000  H
  C1512    1.0000 0.51291  0.30653  0.90553  Biso   1.000  C
  O334     1.0000 0.71843  0.42562  0.98085  Biso   1.000  O
  O335     1.0000 0.71834  0.42562  0.98085  Biso   1.000  O
  H1800    1.0000 0.76106  0.33069  0.93701  Biso   1.000  H
  H1801    1.0000 0.83154  0.34221  0.01323  Biso   1.000  H
  H1802    1.0000 0.83145  0.34221  0.01323  Biso   1.000  H
  C1513    1.0000 0.37541  0.31001  0.87713  Biso   1.000  C
  H1803    1.0000 0.54690  0.25892  0.89391  Biso   1.000  H
  H1804    1.0000 0.55761  0.34542  0.88419  Biso   1.000  H
  H1805    1.0000 0.55752  0.34542  0.88419  Biso   1.000  H
  C1514    1.0000 0.79210  0.46912  0.93913  Biso   1.000  C
  O336     1.0000 0.30745  0.24358  0.88727  Biso   1.000  O
  H1806    1.0000 0.36739  0.32069  0.82718  Biso   1.000  H
  H1807    1.0000 0.33781  0.35098  0.89969  Biso   1.000  H
  C1515    1.0000 0.73177  0.54420  0.92278  Biso   1.000  C
  H1808    1.0000 0.87503  0.47592  0.96429  Biso   1.000  H
  H1809    1.0000 0.79986  0.44310  0.89560  Biso   1.000  H
  C1516    1.0000 0.31326  0.18839  0.83578  Biso   1.000  C
  O337     1.0000 0.61984  0.54072  0.87267  Biso   1.000  O
  H1810    1.0000 0.79127  0.57669  0.90442  Biso   1.000  H
  H1811    1.0000 0.71141  0.56601  0.96599  Biso   1.000  H
  C1517    1.0000 0.21514  0.19339  0.77278  Biso   1.000  C
  H1812    1.0000 0.39453  0.19092  0.81981  Biso   1.000  H
  H1813    1.0000 0.30656  0.14011  0.85749  Biso   1.000  H
  C1518    1.0000 0.51019  0.52273  0.90309  Biso   1.000  C
  O338     1.0000 0.22568  0.26314  0.73674  Biso   1.000  O
  H1814    1.0000 0.13303  0.18951  0.78759  Biso   1.000  H
  H1815    1.0000 0.22508  0.15248  0.74098  Biso   1.000  H
  C1519    1.0000 0.39544  0.54724  0.85648  Biso   1.000  C
  H1816    1.0000 0.50679  0.46940  0.91052  Biso   1.000  H
  H1817    1.0000 0.51333  0.54690  0.94852  Biso   1.000  H
  H1818    1.0000 0.51323  0.54690  0.94852  Biso   1.000  H
  C1520    1.0000 0.16300  0.26589  0.66752  Biso   1.000  C
  O339     1.0000 0.36970  0.50093  0.79428  Biso   1.000  O
  H1819    1.0000 0.40611  0.59833  0.84221  Biso   1.000  H
  H1820    1.0000 0.32478  0.54544  0.88271  Biso   1.000  H
  C1521    1.0000 0.23177  0.25443  0.61163  Biso   1.000  C
  C1522    1.0000 0.03463  0.28421  0.65622  Biso   1.000  C
  C1523    1.0000 0.32293  0.54049  0.73361  Biso   1.000  C
  C1524    1.0000 0.37247  0.23790  0.62538  Biso   1.000  C
  C1525    1.0000 0.16911  0.25538  0.54332  Biso   1.000  C
  C1526    1.0000 0.97679  0.28579  0.58652  Biso   1.000  C
  C1527    1.0000 0.95870  0.29961  0.71582  Biso   1.000  C
  C1528    1.0000 0.40220  0.54493  0.68069  Biso   1.000  C
  C1529    1.0000 0.40211  0.54493  0.68069  Biso   1.000  C
  C1530    1.0000 0.20396  0.57444  0.72612  Biso   1.000  C
  C1531    1.0000 0.46046  0.29298  0.66779  Biso   1.000  C
  H1821    1.0000 0.38259  0.19019  0.64910  Biso   1.000  H
  H1822    1.0000 0.40169  0.23183  0.58010  Biso   1.000  H
  H1823    1.0000 0.40159  0.23183  0.58010  Biso   1.000  H
  C1532    1.0000 0.04305  0.27112  0.53068  Biso   1.000  C
  H1824    1.0000 0.21469  0.24510  0.50409  Biso   1.000  H
  H1825    1.0000 0.21459  0.24510  0.50409  Biso   1.000  H
  H1826    1.0000 0.88864  0.29742  0.57702  Biso   1.000  H
  C1533    1.0000 0.00849  0.35851  0.77023  Biso   1.000  C
  H1827    1.0000 0.87580  0.31462  0.69523  Biso   1.000  H
  H1828    1.0000 0.95015  0.25319  0.74040  Biso   1.000  H
  C1534    1.0000 0.52900  0.50554  0.68849  Biso   1.000  C
  C1535    1.0000 0.52891  0.50554  0.68849  Biso   1.000  C
  C1536    1.0000 0.36297  0.59012  0.62150  Biso   1.000  C
  C1537    1.0000 0.16945  0.61732  0.66593  Biso   1.000  C
  C1538    1.0000 0.11231  0.56483  0.77963  Biso   1.000  C
  C1539    1.0000 0.44980  0.37093  0.65972  Biso   1.000  C
  C1540    1.0000 0.44971  0.37093  0.65972  Biso   1.000  C
  C1541    1.0000 0.55998  0.26612  0.71593  Biso   1.000  C
  H1829    1.0000 0.00079  0.27168  0.48291  Biso   1.000  H
  H1830    1.0000 0.00070  0.27168  0.48291  Biso   1.000  H
  C1542    1.0000 0.03377  0.43219  0.75128  Biso   1.000  C
  C1543    1.0000 0.02737  0.34053  0.84189  Biso   1.000  C
  C1544    1.0000 0.53340  0.42073  0.69772  Biso   1.000  C
  H1831    1.0000 0.56835  0.51739  0.64741  Biso   1.000  H
  H1832    1.0000 0.58015  0.52723  0.72872  Biso   1.000  H
  H1833    1.0000 0.41652  0.59602  0.58520  Biso   1.000  H
  C1545    1.0000 0.24774  0.62631  0.61482  Biso   1.000  C
  H1834    1.0000 0.08860  0.64143  0.65972  Biso   1.000  H
  C1546    1.0000 0.08195  0.48558  0.80123  Biso   1.000  C
  H1835    1.0000 0.14512  0.59181  0.82172  Biso   1.000  H
  H1836    1.0000 0.03457  0.58860  0.76073  Biso   1.000  H
  O340     1.0000 0.34564  0.39988  0.61689  Biso   1.000  O
  H1837    1.0000 0.56917  0.21289  0.72288  Biso   1.000  H
  C1547    1.0000 0.64469  0.31333  0.75309  Biso   1.000  C
  O341     1.0000 0.01428  0.45175  0.68026  Biso   1.000  O
  C1548    1.0000 0.07137  0.39240  0.89231  Biso   1.000  C
  H1838    1.0000 0.00919  0.29051  0.85643  Biso   1.000  H
  C1549    1.0000 0.63201  0.38998  0.74401  Biso   1.000  C
  C1550    1.0000 0.63192  0.38998  0.74401  Biso   1.000  C
  H1839    1.0000 0.22254  0.65779  0.57453  Biso   1.000  H
  C1551    1.0000 0.09876  0.46412  0.87161  Biso   1.000  C
  C1552    1.0000 0.35725  0.41410  0.54459  Biso   1.000  C
  H1840    1.0000 0.71290  0.29332  0.78562  Biso   1.000  H
  C1553    1.0000 0.89196  0.48041  0.65643  Biso   1.000  C
  H1841    1.0000 0.08298  0.37903  0.94162  Biso   1.000  H
  H1842    1.0000 0.69229  0.42292  0.77012  Biso   1.000  H
  H1843    1.0000 0.13050  0.50008  0.90712  Biso   1.000  H
  C1554    1.0000 0.22976  0.44461  0.51503  Biso   1.000  C
  H1844    1.0000 0.37577  0.36880  0.52071  Biso   1.000  H
  H1845    1.0000 0.42237  0.45029  0.54029  Biso   1.000  H
  H1846    1.0000 0.82895  0.44343  0.66222  Biso   1.000  H
  H1847    1.0000 0.87557  0.52442  0.68302  Biso   1.000  H
  C1555    1.0000 0.88969  0.49930  0.58111  Biso   1.000  C
  O342     1.0000 0.23190  0.47075  0.44581  Biso   1.000  O
  H1848    1.0000 0.16755  0.40583  0.51503  Biso   1.000  H
  H1849    1.0000 0.20731  0.48502  0.54449  Biso   1.000  H
  O343     1.0000 0.76814  0.52931  0.55420  Biso   1.000  O
  H1850    1.0000 0.90614  0.45524  0.55478  Biso   1.000  H
  H1851    1.0000 0.95388  0.53572  0.57559  Biso   1.000  H
  C1556    1.0000 0.11044  0.50070  0.41890  Biso   1.000  C
  C1557    1.0000 0.77038  0.55539  0.48498  Biso   1.000  C
  H1852    1.0000 0.04626  0.46428  0.42442  Biso   1.000  H
  C1558    1.0000 0.10817  0.51959  0.34358  Biso   1.000  C
  H1853    1.0000 0.09399  0.54482  0.44523  Biso   1.000  H
  C1559    1.0000 0.10808  0.51959  0.34358  Biso   1.000  C
  H1854    1.0000 0.09389  0.54482  0.44523  Biso   1.000  H
  C1560    1.0000 0.64288  0.58590  0.45542  Biso   1.000  C
  H1855    1.0000 0.83258  0.59422  0.48498  Biso   1.000  H
  H1856    1.0000 0.79273  0.51503  0.45552  Biso   1.000  H
  H1857    1.0000 0.83249  0.59422  0.48498  Biso   1.000  H
  H1858    1.0000 0.17108  0.55662  0.33780  Biso   1.000  H
  O344     1.0000 0.98585  0.54825  0.31975  Biso   1.000  O
  H1859    1.0000 0.12456  0.47564  0.31699  Biso   1.000  H
  H1860    1.0000 0.12447  0.47564  0.31699  Biso   1.000  H
  O345     1.0000 0.65449  0.60012  0.38313  Biso   1.000  O
  O346     1.0000 0.65440  0.60012  0.38313  Biso   1.000  O
  H1861    1.0000 0.62436  0.63120  0.47930  Biso   1.000  H
  H1862    1.0000 0.57776  0.54971  0.45972  Biso   1.000  H
  C1561    1.0000 0.96635  0.56781  0.24868  Biso   1.000  C
  C1562    1.0000 0.55033  0.62912  0.34029  Biso   1.000  C
  C1563    1.0000 0.91809  0.51442  0.19878  Biso   1.000  C
  C1564    1.0000 0.99164  0.64149  0.22978  Biso   1.000  C
  C1565    1.0000 0.46673  0.57933  0.30229  Biso   1.000  C
  C1566    1.0000 0.53967  0.70702  0.33222  Biso   1.000  C
  C1567    1.0000 0.90127  0.53588  0.12840  Biso   1.000  C
  C1568    1.0000 0.88782  0.43523  0.22038  Biso   1.000  C
  C1569    1.0000 0.04143  0.70039  0.28419  Biso   1.000  C
  C1570    1.0000 0.97276  0.65953  0.15812  Biso   1.000  C
  C1571    1.0000 0.97267  0.65953  0.15812  Biso   1.000  C
  C1572    1.0000 0.47113  0.49452  0.31152  Biso   1.000  C
  C1573    1.0000 0.36812  0.61002  0.25600  Biso   1.000  C
  C1574    1.0000 0.62765  0.76210  0.37458  Biso   1.000  C
  C1575    1.0000 0.44016  0.73394  0.28408  Biso   1.000  C
  H1863    1.0000 0.86963  0.49992  0.09289  Biso   1.000  H
  C1576    1.0000 0.92866  0.60760  0.10770  Biso   1.000  C
  C1577    1.0000 0.79608  0.42562  0.27389  Biso   1.000  C
  H1864    1.0000 0.85502  0.40819  0.17829  Biso   1.000  H
  H1865    1.0000 0.96556  0.41140  0.23928  Biso   1.000  H
  H1866    1.0000 0.96547  0.41140  0.23928  Biso   1.000  H
  H1867    1.0000 0.12433  0.68544  0.30478  Biso   1.000  H
  H1868    1.0000 0.04989  0.74681  0.25961  Biso   1.000  H
  C1578    1.0000 0.96540  0.71584  0.34379  Biso   1.000  C
  H1869    1.0000 0.99094  0.70949  0.14358  Biso   1.000  H
  C1579    1.0000 0.59793  0.45512  0.31932  Biso   1.000  C
  H1870    1.0000 0.43178  0.48261  0.35260  Biso   1.000  H
  H1871    1.0000 0.41989  0.47283  0.27129  Biso   1.000  H
  H1872    1.0000 0.43169  0.48261  0.35260  Biso   1.000  H
  C1580    1.0000 0.35545  0.68673  0.24692  Biso   1.000  C
  H1873    1.0000 0.30785  0.57714  0.22989  Biso   1.000  H
  C1581    1.0000 0.76836  0.74563  0.38838  Biso   1.000  C
  H1874    1.0000 0.59844  0.76822  0.41991  Biso   1.000  H
  H1875    1.0000 0.61754  0.80981  0.35091  Biso   1.000  H
  H1876    1.0000 0.43097  0.78711  0.27713  Biso   1.000  H
  H1877    1.0000 0.91715  0.62103  0.05839  Biso   1.000  H
  H1878    1.0000 0.91705  0.62103  0.05839  Biso   1.000  H
  C1582    1.0000 0.67711  0.45951  0.26640  Biso   1.000  C
  C1583    1.0000 0.83059  0.38273  0.33408  Biso   1.000  C
  C1584    1.0000 0.02334  0.71421  0.41349  Biso   1.000  C
  C1585    1.0000 0.83713  0.73411  0.33249  Biso   1.000  C
  C1586    1.0000 0.63716  0.40994  0.37851  Biso   1.000  C
  H1879    1.0000 0.28723  0.70674  0.21439  Biso   1.000  H
  C1587    1.0000 0.83093  0.74462  0.45669  Biso   1.000  C
  O347     1.0000 0.63043  0.49907  0.20573  Biso   1.000  O
  C1588    1.0000 0.75230  0.37369  0.38520  Biso   1.000  C
  H1880    1.0000 0.91153  0.35862  0.34029  Biso   1.000  H
  H1881    1.0000 0.11140  0.70264  0.42299  Biso   1.000  H
  C1589    1.0000 0.95708  0.72894  0.46933  Biso   1.000  C
  O348     1.0000 0.77445  0.73686  0.26327  Biso   1.000  O
  H1882    1.0000 0.58352  0.40404  0.41481  Biso   1.000  H
  H1883    1.0000 0.78545  0.75490  0.49592  Biso   1.000  H
  C1590    1.0000 0.60460  0.45282  0.14353  Biso   1.000  C
  H1884    1.0000 0.77750  0.34221  0.42548  Biso   1.000  H
  H1885    1.0000 0.99934  0.72832  0.51710  Biso   1.000  H
  C1591    1.0000 0.78489  0.80661  0.22718  Biso   1.000  C
  C1592    1.0000 0.48994  0.47732  0.09692  Biso   1.000  C
  H1886    1.0000 0.59402  0.40173  0.15780  Biso   1.000  H
  H1887    1.0000 0.67535  0.45462  0.11730  Biso   1.000  H
  H1888    1.0000 0.86700  0.81054  0.21242  Biso   1.000  H
  H1889    1.0000 0.77505  0.84752  0.25903  Biso   1.000  H
  C1593    1.0000 0.68687  0.81161  0.16423  Biso   1.000  C
  C1594    1.0000 0.68678  0.81161  0.16423  Biso   1.000  C
  O349     1.0000 0.38020  0.45934  0.12734  Biso   1.000  O
  H1890    1.0000 0.49335  0.53060  0.08949  Biso   1.000  H
  H1891    1.0000 0.48681  0.45310  0.05149  Biso   1.000  H
  O350     1.0000 0.69259  0.75642  0.11274  Biso   1.000  O
  H1892    1.0000 0.60551  0.80914  0.18020  Biso   1.000  H
  H1893    1.0000 0.69348  0.85994  0.14252  Biso   1.000  H
  C1595    1.0000 0.26835  0.45580  0.07718  Biso   1.000  C
  C1596    1.0000 0.26826  0.45580  0.07718  Biso   1.000  C
  C1597    1.0000 0.62472  0.68999  0.12288  Biso   1.000  C
  C1598    1.0000 0.20804  0.53094  0.06088  Biso   1.000  C
  H1894    1.0000 0.20886  0.42331  0.09560  Biso   1.000  H
  H1895    1.0000 0.28872  0.43399  0.03402  Biso   1.000  H
  H1896    1.0000 0.20876  0.42331  0.09560  Biso   1.000  H
  H1897    1.0000 0.63274  0.67931  0.17283  Biso   1.000  H
  H1898    1.0000 0.66232  0.64902  0.10032  Biso   1.000  H
  C1599    1.0000 0.48723  0.69353  0.09448  Biso   1.000  C
  O351     1.0000 0.28170  0.57444  0.01916  Biso   1.000  O
  H1899    1.0000 0.12501  0.52414  0.03572  Biso   1.000  H
  H1900    1.0000 0.20017  0.55690  0.10441  Biso   1.000  H
  O352     1.0000 0.47193  0.68398  0.01980  Biso   1.000  O
  H1901    1.0000 0.44252  0.65464  0.11582  Biso   1.000  H
  H1902    1.0000 0.45323  0.74113  0.10611  Biso   1.000  H
  C1600    1.0000 0.24794  0.65160  0.01619  Biso   1.000  C
  C1601    1.0000 0.34745  0.69679  0.98631  Biso   1.000  C
  C1602    1.0000 0.34735  0.69679  0.98631  Biso   1.000  C
  H1903    1.0000 0.16859  0.65779  0.98678  Biso   1.000  H
  H1904    1.0000 0.23898  0.66931  0.06300  Biso   1.000  H
  H1905    1.0000 0.34389  0.68544  0.93668  Biso   1.000  H
  H1906    1.0000 0.32820  0.74923  0.99029  Biso   1.000  H
