data_image0
_cell_length_a       15.953
_cell_length_b       11.267
_cell_length_c       22.062
_cell_angle_alpha    90
_cell_angle_beta     98.71
_cell_angle_gamma    90

_symmetry_space_group_name_H-M    "P 1"
_symmetry_int_tables_number       1

loop_
  _symmetry_equiv_pos_as_xyz
  'x, y, z'

loop_
  _atom_site_label
  _atom_site_occupancy
  _atom_site_fract_x
  _atom_site_fract_y
  _atom_site_fract_z
  _atom_site_thermal_displace_type
  _atom_site_B_iso_or_equiv
  _atom_site_type_symbol
  C1       1.0000 0.46032  0.55605  0.24138  Biso   1.000  C
  O1       1.0000 0.42340  0.50759  0.28719  Biso   1.000  O
  H1       1.0000 0.47598  0.49321  0.21589  Biso   1.000  H
  H2       1.0000 0.51129  0.59590  0.25908  Biso   1.000  H
  C2       1.0000 0.40993  0.63495  0.20520  Biso   1.000  C
  C3       1.0000 0.40993  0.63504  0.20520  Biso   1.000  C
  C4       1.0000 0.47353  0.42780  0.32631  Biso   1.000  C
  C5       1.0000 0.46032  0.55596  0.24138  Biso   1.000  C
  O2       1.0000 0.38779  0.74456  0.22281  Biso   1.000  O
  H3       1.0000 0.43659  0.64684  0.16939  Biso   1.000  H
  H4       1.0000 0.35772  0.59412  0.19149  Biso   1.000  H
  O3       1.0000 0.38779  0.74465  0.22281  Biso   1.000  O
  H5       1.0000 0.43659  0.64693  0.16939  Biso   1.000  H
  C6       1.0000 0.42542  0.35378  0.35671  Biso   1.000  C
  H6       1.0000 0.50680  0.38076  0.30260  Biso   1.000  H
  H7       1.0000 0.51173  0.47191  0.35579  Biso   1.000  H
  H8       1.0000 0.50680  0.38085  0.30260  Biso   1.000  H
  C7       1.0000 0.35390  0.75592  0.27738  Biso   1.000  C
  O4       1.0000 0.38794  0.39407  0.40582  Biso   1.000  O
  H9       1.0000 0.46069  0.28757  0.37129  Biso   1.000  H
  H10      1.0000 0.38072  0.32316  0.32672  Biso   1.000  H
  H11      1.0000 0.46069  0.28765  0.37129  Biso   1.000  H
  H12      1.0000 0.38072  0.32324  0.32672  Biso   1.000  H
  H13      1.0000 0.39799  0.74838  0.31191  Biso   1.000  H
  H14      1.0000 0.31263  0.69486  0.27999  Biso   1.000  H
  C8       1.0000 0.31274  0.87716  0.27752  Biso   1.000  C
  H15      1.0000 0.39799  0.74847  0.31191  Biso   1.000  H
  H16      1.0000 0.31263  0.69495  0.27999  Biso   1.000  H
  C9       1.0000 0.31274  0.87725  0.27752  Biso   1.000  C
  C10      1.0000 0.33294  0.48806  0.39312  Biso   1.000  C
  C11      1.0000 0.33294  0.48815  0.39312  Biso   1.000  C
  O5       1.0000 0.26867  0.87672  0.32929  Biso   1.000  O
  H17      1.0000 0.35480  0.93867  0.28142  Biso   1.000  H
  H18      1.0000 0.27388  0.88968  0.24042  Biso   1.000  H
  H19      1.0000 0.35480  0.93876  0.28142  Biso   1.000  H
  H20      1.0000 0.27388  0.88977  0.24042  Biso   1.000  H
  C12      1.0000 0.28283  0.49978  0.44388  Biso   1.000  C
  H21      1.0000 0.29579  0.47422  0.35520  Biso   1.000  H
  H22      1.0000 0.36411  0.55978  0.38899  Biso   1.000  H
  C13      1.0000 0.22478  0.97897  0.33851  Biso   1.000  C
  C14      1.0000 0.22478  0.97905  0.33851  Biso   1.000  C
  O6       1.0000 0.23891  0.60930  0.43622  Biso   1.000  O
  H23      1.0000 0.24334  0.43534  0.44301  Biso   1.000  H
  H24      1.0000 0.31958  0.49836  0.48258  Biso   1.000  H
  H25      1.0000 0.24334  0.43543  0.44301  Biso   1.000  H
  H26      1.0000 0.31958  0.49845  0.48258  Biso   1.000  H
  C15      1.0000 0.14091  0.99334  0.30769  Biso   1.000  C
  C16      1.0000 0.26383  0.06213  0.37950  Biso   1.000  C
  C17      1.0000 0.18613  0.63495  0.47869  Biso   1.000  C
  C18      1.0000 0.18613  0.63504  0.47869  Biso   1.000  C
  C19      1.0000 0.09833  0.90645  0.26179  Biso   1.000  C
  C20      1.0000 0.09833  0.90654  0.26179  Biso   1.000  C
  C21      1.0000 0.09972  0.09532  0.32140  Biso   1.000  C
  C22      1.0000 0.35513  0.04819  0.41110  Biso   1.000  C
  C23      1.0000 0.21768  0.16304  0.38959  Biso   1.000  C
  C24      1.0000 0.09859  0.61516  0.46181  Biso   1.000  C
  C25      1.0000 0.22032  0.68341  0.53449  Biso   1.000  C
  C26      1.0000 0.09859  0.61525  0.46181  Biso   1.000  C
  C27      1.0000 0.10572  0.77510  0.27701  Biso   1.000  C
  H27      1.0000 0.12029  0.91879  0.22419  Biso   1.000  H
  H28      1.0000 0.03913  0.92598  0.25418  Biso   1.000  H
  H29      1.0000 0.03913  0.92607  0.25418  Biso   1.000  H
  C28      1.0000 0.13530  0.17920  0.36052  Biso   1.000  C
  H30      1.0000 0.04229  0.10713  0.30191  Biso   1.000  H
  C29      1.0000 0.13530  0.17928  0.36052  Biso   1.000  C
  C30      1.0000 0.38271  0.93406  0.44310  Biso   1.000  C
  C31      1.0000 0.38271  0.93414  0.44310  Biso   1.000  C
  H31      1.0000 0.39133  0.06168  0.38069  Biso   1.000  H
  H32      1.0000 0.36623  0.11094  0.44072  Biso   1.000  H
  H33      1.0000 0.39133  0.06177  0.38069  Biso   1.000  H
  H34      1.0000 0.24360  0.22295  0.41729  Biso   1.000  H
  C32      1.0000 0.06373  0.55889  0.40128  Biso   1.000  C
  C33      1.0000 0.04698  0.64605  0.50450  Biso   1.000  C
  C34      1.0000 0.04698  0.64613  0.50450  Biso   1.000  C
  C35      1.0000 0.31544  0.70489  0.55380  Biso   1.000  C
  C36      1.0000 0.16572  0.71075  0.57430  Biso   1.000  C
  C37      1.0000 0.16572  0.71084  0.57430  Biso   1.000  C
  C38      1.0000 0.08140  0.73045  0.33002  Biso   1.000  C
  C39      1.0000 0.08140  0.73054  0.33002  Biso   1.000  C
  C40      1.0000 0.13467  0.69495  0.23629  Biso   1.000  C
  C41      1.0000 0.13467  0.69504  0.23629  Biso   1.000  C
  H35      1.0000 0.10410  0.24913  0.36808  Biso   1.000  H
  C42      1.0000 0.33611  0.87388  0.48130  Biso   1.000  C
  C43      1.0000 0.33611  0.87397  0.48130  Biso   1.000  C
  C44      1.0000 0.46160  0.88577  0.43668  Biso   1.000  C
  C45      1.0000 0.46160  0.88586  0.43668  Biso   1.000  C
  C46      1.0000 0.08890  0.60877  0.34369  Biso   1.000  C
  H36      1.0000 0.07948  0.47661  0.40348  Biso   1.000  H
  H37      1.0000 0.00288  0.56191  0.39720  Biso   1.000  H
  C47      1.0000 0.08890  0.60886  0.34369  Biso   1.000  C
  C48      1.0000 0.07963  0.69353  0.55981  Biso   1.000  C
  H38      1.0000 0.98693  0.63389  0.49492  Biso   1.000  H
  C49      1.0000 0.36432  0.76826  0.51092  Biso   1.000  C
  H39      1.0000 0.32233  0.74891  0.59149  Biso   1.000  H
  H40      1.0000 0.34183  0.62909  0.56279  Biso   1.000  H
  C50      1.0000 0.36432  0.76835  0.51092  Biso   1.000  C
  H41      1.0000 0.18801  0.74323  0.61369  Biso   1.000  H
  O7       1.0000 0.05498  0.80696  0.37180  Biso   1.000  O
  O8       1.0000 0.05498  0.80705  0.37180  Biso   1.000  O
  C51      1.0000 0.14183  0.57673  0.24890  Biso   1.000  C
  H42      1.0000 0.15004  0.72406  0.19860  Biso   1.000  H
  H43      1.0000 0.15004  0.72415  0.19860  Biso   1.000  H
  O9       1.0000 0.25449  0.91577  0.48607  Biso   1.000  O
  O10      1.0000 0.25449  0.91586  0.48607  Biso   1.000  O
  C52      1.0000 0.49072  0.78282  0.46589  Biso   1.000  C
  H44      1.0000 0.49640  0.92571  0.41128  Biso   1.000  H
  C53      1.0000 0.12012  0.53510  0.30210  Biso   1.000  C
  H45      1.0000 0.04272  0.71483  0.58860  Biso   1.000  H
  C54      1.0000 0.44252  0.72433  0.50239  Biso   1.000  C
  C55      1.0000 0.96618  0.82329  0.36680  Biso   1.000  C
  H46      1.0000 0.16193  0.52330  0.22038  Biso   1.000  H
  C56      1.0000 0.24669  0.99166  0.53591  Biso   1.000  C
  C57      1.0000 0.24669  0.99175  0.53591  Biso   1.000  C
  H47      1.0000 0.54522  0.75193  0.46062  Biso   1.000  H
  H48      1.0000 0.12661  0.45194  0.31122  Biso   1.000  H
  H49      1.0000 0.12661  0.45203  0.31122  Biso   1.000  H
  H50      1.0000 0.46309  0.65199  0.52220  Biso   1.000  H
  C58      1.0000 0.95141  0.90663  0.41600  Biso   1.000  C
  H51      1.0000 0.93871  0.74882  0.37152  Biso   1.000  H
  H52      1.0000 0.94412  0.85551  0.32732  Biso   1.000  H
  H53      1.0000 0.26810  0.95394  0.57411  Biso   1.000  H
  C59      1.0000 0.15293  0.01606  0.53151  Biso   1.000  C
  H54      1.0000 0.27750  0.06408  0.53280  Biso   1.000  H
  C60      1.0000 0.15293  0.01615  0.53151  Biso   1.000  C
  H55      1.0000 0.27750  0.06417  0.53280  Biso   1.000  H
  O11      1.0000 0.86320  0.92030  0.41655  Biso   1.000  O
  H56      1.0000 0.97798  0.87681  0.45489  Biso   1.000  H
  H57      1.0000 0.97608  0.98234  0.40931  Biso   1.000  H
  H58      1.0000 0.12234  0.94240  0.52881  Biso   1.000  H
  O12      1.0000 0.13680  0.07970  0.58347  Biso   1.000  O
  H59      1.0000 0.13371  0.06124  0.49510  Biso   1.000  H
  C61      1.0000 0.84713  0.98394  0.46851  Biso   1.000  C
  C62      1.0000 0.04859  0.09337  0.58402  Biso   1.000  C
  C63      1.0000 0.04859  0.09346  0.58402  Biso   1.000  C
  H60      1.0000 0.86629  0.93876  0.50492  Biso   1.000  H
  H61      1.0000 0.86629  0.93885  0.50492  Biso   1.000  H
  C64      1.0000 0.75331  0.00834  0.46410  Biso   1.000  C
  H62      1.0000 0.87772  0.05760  0.47121  Biso   1.000  H
  C65      1.0000 0.03382  0.17671  0.63322  Biso   1.000  C
  H63      1.0000 0.02201  0.12319  0.54509  Biso   1.000  H
  H64      1.0000 0.02392  0.01766  0.59071  Biso   1.000  H
  H65      1.0000 0.02201  0.12328  0.54509  Biso   1.000  H
  H66      1.0000 0.02392  0.01775  0.59071  Biso   1.000  H
  H67      1.0000 0.72249  0.93592  0.46722  Biso   1.000  H
  O13      1.0000 0.74550  0.08423  0.51390  Biso   1.000  O
  H68      1.0000 0.73190  0.04606  0.42591  Biso   1.000  H
  H69      1.0000 0.73190  0.04615  0.42591  Biso   1.000  H
  O14      1.0000 0.94502  0.19304  0.62822  Biso   1.000  O
  H70      1.0000 0.06129  0.25118  0.62850  Biso   1.000  H
  H71      1.0000 0.05594  0.14449  0.67270  Biso   1.000  H
  H72      1.0000 0.06129  0.25126  0.62850  Biso   1.000  H
  H73      1.0000 0.05594  0.14458  0.67270  Biso   1.000  H
  C66      1.0000 0.66389  0.12612  0.51872  Biso   1.000  C
  C67      1.0000 0.91860  0.26955  0.67000  Biso   1.000  C
  C68      1.0000 0.63568  0.23174  0.48910  Biso   1.000  C
  C69      1.0000 0.61729  0.06594  0.55692  Biso   1.000  C
  C70      1.0000 0.89435  0.22490  0.72301  Biso   1.000  C
  C71      1.0000 0.91109  0.39123  0.65629  Biso   1.000  C
  C72      1.0000 0.55754  0.27567  0.49758  Biso   1.000  C
  C73      1.0000 0.68462  0.29511  0.44622  Biso   1.000  C
  C74      1.0000 0.55754  0.27576  0.49758  Biso   1.000  C
  C75      1.0000 0.64493  0.95181  0.58892  Biso   1.000  C
  C76      1.0000 0.53839  0.11423  0.56329  Biso   1.000  C
  C77      1.0000 0.86532  0.30505  0.76368  Biso   1.000  C
  C78      1.0000 0.90172  0.09355  0.73818  Biso   1.000  C
  C79      1.0000 0.87994  0.46490  0.69792  Biso   1.000  C
  C80      1.0000 0.93632  0.44111  0.59869  Biso   1.000  C
  C81      1.0000 0.87994  0.46499  0.69792  Biso   1.000  C
  H74      1.0000 0.53691  0.34801  0.47782  Biso   1.000  H
  C82      1.0000 0.50933  0.21718  0.53408  Biso   1.000  C
  C83      1.0000 0.50933  0.21727  0.53408  Biso   1.000  C
  C84      1.0000 0.77974  0.31659  0.46548  Biso   1.000  C
  H75      1.0000 0.67772  0.25109  0.40848  Biso   1.000  H
  H76      1.0000 0.65822  0.37091  0.43719  Biso   1.000  H
  C85      1.0000 0.77974  0.31668  0.46548  Biso   1.000  C
  H77      1.0000 0.67772  0.25118  0.40848  Biso   1.000  H
  C86      1.0000 0.73623  0.93787  0.62052  Biso   1.000  C
  H78      1.0000 0.60872  0.93832  0.61928  Biso   1.000  H
  H79      1.0000 0.63384  0.88906  0.55930  Biso   1.000  H
  C87      1.0000 0.73623  0.93796  0.62052  Biso   1.000  C
  H80      1.0000 0.63384  0.88915  0.55930  Biso   1.000  H
  H81      1.0000 0.50359  0.07429  0.58869  Biso   1.000  H
  H82      1.0000 0.50359  0.07438  0.58869  Biso   1.000  H
  H83      1.0000 0.85003  0.27594  0.80142  Biso   1.000  H
  C88      1.0000 0.85823  0.42327  0.75112  Biso   1.000  C
  C89      1.0000 0.85823  0.42336  0.75112  Biso   1.000  C
  C90      1.0000 0.85914  0.00666  0.69228  Biso   1.000  C
  H84      1.0000 0.87970  0.08121  0.77579  Biso   1.000  H
  H85      1.0000 0.96093  0.07402  0.74580  Biso   1.000  H
  C91      1.0000 0.85914  0.00675  0.69228  Biso   1.000  C
  H86      1.0000 0.87339  0.54806  0.68880  Biso   1.000  H
  C92      1.0000 0.90140  0.38484  0.53821  Biso   1.000  C
  H87      1.0000 0.92051  0.52339  0.59649  Biso   1.000  H
  H88      1.0000 0.99711  0.43809  0.60282  Biso   1.000  H
  H89      1.0000 0.92051  0.52348  0.59649  Biso   1.000  H
  H90      1.0000 0.99711  0.43818  0.60282  Biso   1.000  H
  H91      1.0000 0.45484  0.24807  0.53940  Biso   1.000  H
  H92      1.0000 0.45484  0.24816  0.53940  Biso   1.000  H
  C93      1.0000 0.81393  0.36505  0.52129  Biso   1.000  C
  C94      1.0000 0.83435  0.28925  0.42572  Biso   1.000  C
  C95      1.0000 0.78231  0.83696  0.61038  Biso   1.000  C
  C96      1.0000 0.78231  0.83705  0.61038  Biso   1.000  C
  C97      1.0000 0.77522  0.02103  0.66151  Biso   1.000  C
  H93      1.0000 0.83812  0.47670  0.77959  Biso   1.000  H
  H94      1.0000 0.83812  0.47679  0.77959  Biso   1.000  H
  C98      1.0000 0.90035  0.90468  0.67862  Biso   1.000  C
  C99      1.0000 0.90035  0.90477  0.67862  Biso   1.000  C
  C100     1.0000 0.95302  0.35395  0.49552  Biso   1.000  C
  O15      1.0000 0.76109  0.39070  0.56380  Biso   1.000  O
  O16      1.0000 0.76109  0.39079  0.56380  Biso   1.000  O
  C101     1.0000 0.92044  0.30647  0.44021  Biso   1.000  C
  H95      1.0000 0.81198  0.25677  0.38629  Biso   1.000  H
  C102     1.0000 0.92044  0.30656  0.44021  Biso   1.000  C
  H96      1.0000 0.81198  0.25686  0.38629  Biso   1.000  H
  H97      1.0000 0.75639  0.77705  0.58269  Biso   1.000  H
  C103     1.0000 0.86470  0.82080  0.63950  Biso   1.000  C
  H98      1.0000 0.75639  0.77714  0.58269  Biso   1.000  H
  O17      1.0000 0.73132  0.12328  0.67068  Biso   1.000  O
  O18      1.0000 0.73132  0.12337  0.67068  Biso   1.000  O
  H99      1.0000 0.95771  0.89287  0.69811  Biso   1.000  H
  H100     1.0000 0.95771  0.89296  0.69811  Biso   1.000  H
  H101     1.0000 0.01313  0.36611  0.50510  Biso   1.000  H
  C104     1.0000 0.71722  0.50022  0.55609  Biso   1.000  C
  H102     1.0000 0.95734  0.28517  0.41142  Biso   1.000  H
  H103     1.0000 0.95734  0.28526  0.41142  Biso   1.000  H
  H104     1.0000 0.89589  0.75087  0.63189  Biso   1.000  H
  H105     1.0000 0.89589  0.75095  0.63189  Biso   1.000  H
  C105     1.0000 0.68732  0.12284  0.72250  Biso   1.000  C
  H106     1.0000 0.75672  0.56466  0.55701  Biso   1.000  H
  H107     1.0000 0.68041  0.50164  0.51739  Biso   1.000  H
  C106     1.0000 0.66712  0.51194  0.60690  Biso   1.000  C
  C107     1.0000 0.64609  0.24408  0.72259  Biso   1.000  C
  H108     1.0000 0.64520  0.06133  0.71860  Biso   1.000  H
  H109     1.0000 0.72612  0.11032  0.75960  Biso   1.000  H
  C108     1.0000 0.64609  0.24416  0.72259  Biso   1.000  C
  O19      1.0000 0.61212  0.60593  0.59420  Biso   1.000  O
  H110     1.0000 0.70421  0.52578  0.64482  Biso   1.000  H
  H111     1.0000 0.63588  0.44022  0.61098  Biso   1.000  H
  H112     1.0000 0.70421  0.52587  0.64482  Biso   1.000  H
  O20      1.0000 0.61221  0.25544  0.77721  Biso   1.000  O
  H113     1.0000 0.60201  0.25162  0.68811  Biso   1.000  H
  H114     1.0000 0.68742  0.30514  0.71998  Biso   1.000  H
  C109     1.0000 0.57464  0.64622  0.64331  Biso   1.000  C
  C110     1.0000 0.59013  0.36505  0.79482  Biso   1.000  C
  H115     1.0000 0.53930  0.71243  0.62868  Biso   1.000  H
  H116     1.0000 0.61935  0.67684  0.67330  Biso   1.000  H
  C111     1.0000 0.52654  0.57220  0.67371  Biso   1.000  C
  C112     1.0000 0.52654  0.57229  0.67371  Biso   1.000  C
  C113     1.0000 0.53973  0.44404  0.75859  Biso   1.000  C
  H117     1.0000 0.56340  0.35316  0.83058  Biso   1.000  H
  H118     1.0000 0.64233  0.40588  0.80848  Biso   1.000  H
  H119     1.0000 0.64233  0.40596  0.80848  Biso   1.000  H
  O21      1.0000 0.57659  0.49241  0.71278  Biso   1.000  O
  H120     1.0000 0.49320  0.61924  0.69742  Biso   1.000  H
  H121     1.0000 0.48832  0.52809  0.64418  Biso   1.000  H
  H122     1.0000 0.48832  0.52818  0.64418  Biso   1.000  H
  H123     1.0000 0.52401  0.50679  0.78409  Biso   1.000  H
  H124     1.0000 0.48870  0.40410  0.74089  Biso   1.000  H
  H125     1.0000 0.52401  0.50688  0.78409  Biso   1.000  H
  H126     1.0000 0.48870  0.40419  0.74089  Biso   1.000  H
  C114     1.0000 0.46032  0.55605  0.24138  Biso   1.000  C
  O22      1.0000 0.42340  0.50759  0.28719  Biso   1.000  O
  H127     1.0000 0.47598  0.49321  0.21589  Biso   1.000  H
  H128     1.0000 0.51129  0.59590  0.25908  Biso   1.000  H
  C115     1.0000 0.40993  0.63495  0.20520  Biso   1.000  C
  C116     1.0000 0.40993  0.63504  0.20520  Biso   1.000  C
  C117     1.0000 0.47353  0.42780  0.32631  Biso   1.000  C
  C118     1.0000 0.46032  0.55596  0.24138  Biso   1.000  C
  H129     1.0000 0.35772  0.59412  0.19149  Biso   1.000  H
  O23      1.0000 0.38779  0.74456  0.22281  Biso   1.000  O
  H130     1.0000 0.43659  0.64684  0.16939  Biso   1.000  H
  O24      1.0000 0.38779  0.74465  0.22281  Biso   1.000  O
  H131     1.0000 0.43659  0.64693  0.16939  Biso   1.000  H
  C119     1.0000 0.42542  0.35378  0.35671  Biso   1.000  C
  H132     1.0000 0.51173  0.47191  0.35579  Biso   1.000  H
  H133     1.0000 0.50680  0.38076  0.30260  Biso   1.000  H
  H134     1.0000 0.50680  0.38085  0.30260  Biso   1.000  H
  C120     1.0000 0.35390  0.75592  0.27738  Biso   1.000  C
  O25      1.0000 0.38794  0.39407  0.40582  Biso   1.000  O
  H135     1.0000 0.46069  0.28757  0.37129  Biso   1.000  H
  H136     1.0000 0.38072  0.32316  0.32672  Biso   1.000  H
  H137     1.0000 0.46069  0.28765  0.37129  Biso   1.000  H
  H138     1.0000 0.38072  0.32324  0.32672  Biso   1.000  H
  H139     1.0000 0.39799  0.74838  0.31191  Biso   1.000  H
  H140     1.0000 0.31263  0.69486  0.27999  Biso   1.000  H
  C121     1.0000 0.31274  0.87716  0.27752  Biso   1.000  C
  H141     1.0000 0.39799  0.74847  0.31191  Biso   1.000  H
  H142     1.0000 0.31263  0.69495  0.27999  Biso   1.000  H
  C122     1.0000 0.31274  0.87725  0.27752  Biso   1.000  C
  C123     1.0000 0.33294  0.48806  0.39312  Biso   1.000  C
  C124     1.0000 0.33294  0.48815  0.39312  Biso   1.000  C
  O26      1.0000 0.26867  0.87672  0.32929  Biso   1.000  O
  H143     1.0000 0.35480  0.93867  0.28142  Biso   1.000  H
  H144     1.0000 0.27388  0.88968  0.24042  Biso   1.000  H
  H145     1.0000 0.35480  0.93876  0.28142  Biso   1.000  H
  H146     1.0000 0.27388  0.88977  0.24042  Biso   1.000  H
  C125     1.0000 0.28283  0.49978  0.44388  Biso   1.000  C
  H147     1.0000 0.29579  0.47422  0.35520  Biso   1.000  H
  H148     1.0000 0.36411  0.55978  0.38899  Biso   1.000  H
  C126     1.0000 0.22478  0.97897  0.33851  Biso   1.000  C
  C127     1.0000 0.22478  0.97905  0.33851  Biso   1.000  C
  O27      1.0000 0.23891  0.60930  0.43622  Biso   1.000  O
  H149     1.0000 0.24334  0.43534  0.44301  Biso   1.000  H
  H150     1.0000 0.31958  0.49836  0.48258  Biso   1.000  H
  H151     1.0000 0.24334  0.43543  0.44301  Biso   1.000  H
  H152     1.0000 0.31958  0.49845  0.48258  Biso   1.000  H
  C128     1.0000 0.14091  0.99334  0.30769  Biso   1.000  C
  C129     1.0000 0.26383  0.06213  0.37950  Biso   1.000  C
  C130     1.0000 0.18613  0.63495  0.47869  Biso   1.000  C
  C131     1.0000 0.18613  0.63504  0.47869  Biso   1.000  C
  C132     1.0000 0.09833  0.90645  0.26179  Biso   1.000  C
  C133     1.0000 0.09833  0.90654  0.26179  Biso   1.000  C
  C134     1.0000 0.09972  0.09532  0.32140  Biso   1.000  C
  C135     1.0000 0.35513  0.04819  0.41110  Biso   1.000  C
  C136     1.0000 0.21768  0.16304  0.38959  Biso   1.000  C
  C137     1.0000 0.22032  0.68341  0.53449  Biso   1.000  C
  C138     1.0000 0.09859  0.61516  0.46181  Biso   1.000  C
  C139     1.0000 0.09859  0.61525  0.46181  Biso   1.000  C
  C140     1.0000 0.10572  0.77510  0.27701  Biso   1.000  C
  H153     1.0000 0.12029  0.91879  0.22419  Biso   1.000  H
  H154     1.0000 0.03913  0.92598  0.25418  Biso   1.000  H
  H155     1.0000 0.03913  0.92607  0.25418  Biso   1.000  H
  C141     1.0000 0.13530  0.17920  0.36052  Biso   1.000  C
  H156     1.0000 0.04229  0.10713  0.30191  Biso   1.000  H
  C142     1.0000 0.13530  0.17928  0.36052  Biso   1.000  C
  C143     1.0000 0.38271  0.93406  0.44310  Biso   1.000  C
  C144     1.0000 0.38271  0.93414  0.44310  Biso   1.000  C
  H157     1.0000 0.39133  0.06168  0.38069  Biso   1.000  H
  H158     1.0000 0.36623  0.11094  0.44072  Biso   1.000  H
  H159     1.0000 0.39133  0.06177  0.38069  Biso   1.000  H
  H160     1.0000 0.24360  0.22295  0.41729  Biso   1.000  H
  C145     1.0000 0.31544  0.70489  0.55380  Biso   1.000  C
  C146     1.0000 0.16572  0.71075  0.57430  Biso   1.000  C
  C147     1.0000 0.16572  0.71084  0.57430  Biso   1.000  C
  C148     1.0000 0.06373  0.55889  0.40128  Biso   1.000  C
  C149     1.0000 0.04698  0.64605  0.50450  Biso   1.000  C
  C150     1.0000 0.04698  0.64613  0.50450  Biso   1.000  C
  C151     1.0000 0.08140  0.73045  0.33002  Biso   1.000  C
  C152     1.0000 0.08140  0.73054  0.33002  Biso   1.000  C
  C153     1.0000 0.13467  0.69495  0.23629  Biso   1.000  C
  C154     1.0000 0.13467  0.69504  0.23629  Biso   1.000  C
  H161     1.0000 0.10410  0.24913  0.36808  Biso   1.000  H
  C155     1.0000 0.33611  0.87388  0.48130  Biso   1.000  C
  C156     1.0000 0.33611  0.87397  0.48130  Biso   1.000  C
  C157     1.0000 0.46160  0.88577  0.43668  Biso   1.000  C
  C158     1.0000 0.46160  0.88586  0.43668  Biso   1.000  C
  H162     1.0000 0.32233  0.74891  0.59149  Biso   1.000  H
  H163     1.0000 0.34183  0.62909  0.56279  Biso   1.000  H
  C159     1.0000 0.36432  0.76826  0.51092  Biso   1.000  C
  C160     1.0000 0.36432  0.76835  0.51092  Biso   1.000  C
  C161     1.0000 0.07963  0.69353  0.55981  Biso   1.000  C
  H164     1.0000 0.18801  0.74323  0.61369  Biso   1.000  H
  H165     1.0000 0.07948  0.47661  0.40348  Biso   1.000  H
  H166     1.0000 0.00288  0.56191  0.39720  Biso   1.000  H
  C162     1.0000 0.08890  0.60877  0.34369  Biso   1.000  C
  C163     1.0000 0.08890  0.60886  0.34369  Biso   1.000  C
  H167     1.0000 0.98693  0.63389  0.49492  Biso   1.000  H
  O28      1.0000 0.05498  0.80696  0.37180  Biso   1.000  O
  O29      1.0000 0.05498  0.80705  0.37180  Biso   1.000  O
  C164     1.0000 0.14183  0.57673  0.24890  Biso   1.000  C
  H168     1.0000 0.15004  0.72406  0.19860  Biso   1.000  H
  H169     1.0000 0.15004  0.72415  0.19860  Biso   1.000  H
  O30      1.0000 0.25449  0.91577  0.48607  Biso   1.000  O
  O31      1.0000 0.25449  0.91586  0.48607  Biso   1.000  O
  C165     1.0000 0.49072  0.78282  0.46589  Biso   1.000  C
  H170     1.0000 0.49640  0.92571  0.41128  Biso   1.000  H
  C166     1.0000 0.44252  0.72433  0.50239  Biso   1.000  C
  H171     1.0000 0.04272  0.71483  0.58860  Biso   1.000  H
  C167     1.0000 0.12012  0.53510  0.30210  Biso   1.000  C
  C168     1.0000 0.96618  0.82329  0.36680  Biso   1.000  C
  H172     1.0000 0.16193  0.52330  0.22038  Biso   1.000  H
  C169     1.0000 0.24669  0.99166  0.53591  Biso   1.000  C
  C170     1.0000 0.24669  0.99175  0.53591  Biso   1.000  C
  H173     1.0000 0.54522  0.75193  0.46062  Biso   1.000  H
  H174     1.0000 0.46309  0.65199  0.52220  Biso   1.000  H
  H175     1.0000 0.12661  0.45194  0.31122  Biso   1.000  H
  H176     1.0000 0.12661  0.45203  0.31122  Biso   1.000  H
  C171     1.0000 0.95141  0.90663  0.41600  Biso   1.000  C
  H177     1.0000 0.93871  0.74882  0.37152  Biso   1.000  H
  H178     1.0000 0.94412  0.85551  0.32732  Biso   1.000  H
  H179     1.0000 0.26810  0.95394  0.57411  Biso   1.000  H
  C172     1.0000 0.15293  0.01606  0.53151  Biso   1.000  C
  H180     1.0000 0.27750  0.06408  0.53280  Biso   1.000  H
  C173     1.0000 0.15293  0.01615  0.53151  Biso   1.000  C
  H181     1.0000 0.27750  0.06417  0.53280  Biso   1.000  H
  O32      1.0000 0.86320  0.92030  0.41655  Biso   1.000  O
  H182     1.0000 0.97798  0.87681  0.45489  Biso   1.000  H
  H183     1.0000 0.97608  0.98234  0.40931  Biso   1.000  H
  H184     1.0000 0.12234  0.94240  0.52881  Biso   1.000  H
  O33      1.0000 0.13680  0.07970  0.58347  Biso   1.000  O
  H185     1.0000 0.13371  0.06124  0.49510  Biso   1.000  H
  C174     1.0000 0.84713  0.98394  0.46851  Biso   1.000  C
  C175     1.0000 0.04859  0.09337  0.58402  Biso   1.000  C
  C176     1.0000 0.04859  0.09346  0.58402  Biso   1.000  C
  H186     1.0000 0.86629  0.93876  0.50492  Biso   1.000  H
  H187     1.0000 0.86629  0.93885  0.50492  Biso   1.000  H
  C177     1.0000 0.75331  0.00834  0.46410  Biso   1.000  C
  H188     1.0000 0.87772  0.05760  0.47121  Biso   1.000  H
  C178     1.0000 0.03382  0.17671  0.63322  Biso   1.000  C
  H189     1.0000 0.02201  0.12319  0.54509  Biso   1.000  H
  H190     1.0000 0.02392  0.01766  0.59071  Biso   1.000  H
  H191     1.0000 0.02201  0.12328  0.54509  Biso   1.000  H
  H192     1.0000 0.02392  0.01775  0.59071  Biso   1.000  H
  H193     1.0000 0.72249  0.93592  0.46722  Biso   1.000  H
  O34      1.0000 0.74550  0.08423  0.51390  Biso   1.000  O
  H194     1.0000 0.73190  0.04606  0.42591  Biso   1.000  H
  H195     1.0000 0.73190  0.04615  0.42591  Biso   1.000  H
  O35      1.0000 0.94502  0.19304  0.62822  Biso   1.000  O
  H196     1.0000 0.06129  0.25118  0.62850  Biso   1.000  H
  H197     1.0000 0.05594  0.14449  0.67270  Biso   1.000  H
  H198     1.0000 0.06129  0.25126  0.62850  Biso   1.000  H
  H199     1.0000 0.05594  0.14458  0.67270  Biso   1.000  H
  C179     1.0000 0.66389  0.12612  0.51872  Biso   1.000  C
  C180     1.0000 0.91860  0.26955  0.67000  Biso   1.000  C
  C181     1.0000 0.63568  0.23174  0.48910  Biso   1.000  C
  C182     1.0000 0.61729  0.06594  0.55692  Biso   1.000  C
  C183     1.0000 0.89435  0.22490  0.72301  Biso   1.000  C
  C184     1.0000 0.91109  0.39123  0.65629  Biso   1.000  C
  C185     1.0000 0.55754  0.27567  0.49758  Biso   1.000  C
  C186     1.0000 0.68462  0.29511  0.44622  Biso   1.000  C
  C187     1.0000 0.55754  0.27576  0.49758  Biso   1.000  C
  C188     1.0000 0.64493  0.95181  0.58892  Biso   1.000  C
  C189     1.0000 0.53839  0.11423  0.56329  Biso   1.000  C
  C190     1.0000 0.86532  0.30505  0.76368  Biso   1.000  C
  C191     1.0000 0.90172  0.09355  0.73818  Biso   1.000  C
  C192     1.0000 0.87994  0.46490  0.69792  Biso   1.000  C
  C193     1.0000 0.93632  0.44111  0.59869  Biso   1.000  C
  C194     1.0000 0.87994  0.46499  0.69792  Biso   1.000  C
  H200     1.0000 0.53691  0.34801  0.47782  Biso   1.000  H
  C195     1.0000 0.50933  0.21718  0.53408  Biso   1.000  C
  C196     1.0000 0.50933  0.21727  0.53408  Biso   1.000  C
  C197     1.0000 0.77974  0.31659  0.46548  Biso   1.000  C
  H201     1.0000 0.67772  0.25109  0.40848  Biso   1.000  H
  H202     1.0000 0.65822  0.37091  0.43719  Biso   1.000  H
  C198     1.0000 0.77974  0.31668  0.46548  Biso   1.000  C
  H203     1.0000 0.67772  0.25118  0.40848  Biso   1.000  H
  C199     1.0000 0.73623  0.93787  0.62052  Biso   1.000  C
  H204     1.0000 0.60872  0.93832  0.61928  Biso   1.000  H
  H205     1.0000 0.63384  0.88906  0.55930  Biso   1.000  H
  C200     1.0000 0.73623  0.93796  0.62052  Biso   1.000  C
  H206     1.0000 0.63384  0.88915  0.55930  Biso   1.000  H
  H207     1.0000 0.50359  0.07429  0.58869  Biso   1.000  H
  H208     1.0000 0.50359  0.07438  0.58869  Biso   1.000  H
  H209     1.0000 0.85003  0.27594  0.80142  Biso   1.000  H
  C201     1.0000 0.85823  0.42327  0.75112  Biso   1.000  C
  C202     1.0000 0.85823  0.42336  0.75112  Biso   1.000  C
  C203     1.0000 0.85914  0.00666  0.69228  Biso   1.000  C
  H210     1.0000 0.87970  0.08121  0.77579  Biso   1.000  H
  H211     1.0000 0.96093  0.07402  0.74580  Biso   1.000  H
  C204     1.0000 0.85914  0.00675  0.69228  Biso   1.000  C
  H212     1.0000 0.87339  0.54806  0.68880  Biso   1.000  H
  C205     1.0000 0.90140  0.38484  0.53821  Biso   1.000  C
  H213     1.0000 0.92051  0.52339  0.59649  Biso   1.000  H
  H214     1.0000 0.99711  0.43809  0.60282  Biso   1.000  H
  H215     1.0000 0.92051  0.52348  0.59649  Biso   1.000  H
  H216     1.0000 0.99711  0.43818  0.60282  Biso   1.000  H
  H217     1.0000 0.45484  0.24807  0.53940  Biso   1.000  H
  H218     1.0000 0.45484  0.24816  0.53940  Biso   1.000  H
  C206     1.0000 0.81393  0.36505  0.52129  Biso   1.000  C
  C207     1.0000 0.83435  0.28925  0.42572  Biso   1.000  C
  C208     1.0000 0.77522  0.02103  0.66151  Biso   1.000  C
  C209     1.0000 0.78231  0.83696  0.61038  Biso   1.000  C
  C210     1.0000 0.78231  0.83705  0.61038  Biso   1.000  C
  H219     1.0000 0.83812  0.47670  0.77959  Biso   1.000  H
  H220     1.0000 0.83812  0.47679  0.77959  Biso   1.000  H
  C211     1.0000 0.90035  0.90468  0.67862  Biso   1.000  C
  C212     1.0000 0.90035  0.90477  0.67862  Biso   1.000  C
  C213     1.0000 0.95302  0.35395  0.49552  Biso   1.000  C
  O36      1.0000 0.76109  0.39070  0.56380  Biso   1.000  O
  O37      1.0000 0.76109  0.39079  0.56380  Biso   1.000  O
  C214     1.0000 0.92044  0.30647  0.44021  Biso   1.000  C
  C215     1.0000 0.92044  0.30656  0.44021  Biso   1.000  C
  H221     1.0000 0.81198  0.25677  0.38629  Biso   1.000  H
  H222     1.0000 0.81198  0.25686  0.38629  Biso   1.000  H
  O38      1.0000 0.73132  0.12328  0.67068  Biso   1.000  O
  O39      1.0000 0.73132  0.12337  0.67068  Biso   1.000  O
  C216     1.0000 0.86470  0.82080  0.63950  Biso   1.000  C
  H223     1.0000 0.75639  0.77705  0.58269  Biso   1.000  H
  H224     1.0000 0.75639  0.77714  0.58269  Biso   1.000  H
  H225     1.0000 0.95771  0.89287  0.69811  Biso   1.000  H
  H226     1.0000 0.95771  0.89296  0.69811  Biso   1.000  H
  H227     1.0000 0.01313  0.36611  0.50510  Biso   1.000  H
  C217     1.0000 0.71722  0.50022  0.55609  Biso   1.000  C
  H228     1.0000 0.95734  0.28517  0.41142  Biso   1.000  H
  H229     1.0000 0.95734  0.28526  0.41142  Biso   1.000  H
  C218     1.0000 0.68732  0.12284  0.72250  Biso   1.000  C
  H230     1.0000 0.89589  0.75087  0.63189  Biso   1.000  H
  H231     1.0000 0.89589  0.75095  0.63189  Biso   1.000  H
  H232     1.0000 0.75672  0.56466  0.55701  Biso   1.000  H
  H233     1.0000 0.68041  0.50164  0.51739  Biso   1.000  H
  C219     1.0000 0.66712  0.51194  0.60690  Biso   1.000  C
  C220     1.0000 0.64609  0.24408  0.72259  Biso   1.000  C
  H234     1.0000 0.64520  0.06133  0.71860  Biso   1.000  H
  H235     1.0000 0.72612  0.11032  0.75960  Biso   1.000  H
  C221     1.0000 0.64609  0.24416  0.72259  Biso   1.000  C
  O40      1.0000 0.61212  0.60593  0.59420  Biso   1.000  O
  H236     1.0000 0.70421  0.52578  0.64482  Biso   1.000  H
  H237     1.0000 0.63588  0.44022  0.61098  Biso   1.000  H
  H238     1.0000 0.70421  0.52587  0.64482  Biso   1.000  H
  O41      1.0000 0.61221  0.25544  0.77721  Biso   1.000  O
  H239     1.0000 0.60201  0.25162  0.68811  Biso   1.000  H
  H240     1.0000 0.68742  0.30514  0.71998  Biso   1.000  H
  C222     1.0000 0.57464  0.64622  0.64331  Biso   1.000  C
  C223     1.0000 0.59013  0.36505  0.79482  Biso   1.000  C
  H241     1.0000 0.53930  0.71243  0.62868  Biso   1.000  H
  H242     1.0000 0.61935  0.67684  0.67330  Biso   1.000  H
  C224     1.0000 0.52654  0.57220  0.67371  Biso   1.000  C
  C225     1.0000 0.52654  0.57229  0.67371  Biso   1.000  C
  C226     1.0000 0.53973  0.44404  0.75859  Biso   1.000  C
  H243     1.0000 0.56340  0.35316  0.83058  Biso   1.000  H
  H244     1.0000 0.64233  0.40588  0.80848  Biso   1.000  H
  H245     1.0000 0.64233  0.40596  0.80848  Biso   1.000  H
  O42      1.0000 0.57659  0.49241  0.71278  Biso   1.000  O
  H246     1.0000 0.49320  0.61924  0.69742  Biso   1.000  H
  H247     1.0000 0.48832  0.52809  0.64418  Biso   1.000  H
  H248     1.0000 0.48832  0.52818  0.64418  Biso   1.000  H
  H249     1.0000 0.52401  0.50679  0.78409  Biso   1.000  H
  H250     1.0000 0.48870  0.40410  0.74089  Biso   1.000  H
  H251     1.0000 0.52401  0.50688  0.78409  Biso   1.000  H
  H252     1.0000 0.48870  0.40419  0.74089  Biso   1.000  H
  C227     1.0000 0.46032  0.55605  0.24138  Biso   1.000  C
  O43      1.0000 0.42340  0.50759  0.28719  Biso   1.000  O
  H253     1.0000 0.47598  0.49321  0.21589  Biso   1.000  H
  H254     1.0000 0.51129  0.59590  0.25908  Biso   1.000  H
  C228     1.0000 0.40993  0.63495  0.20520  Biso   1.000  C
  C229     1.0000 0.40993  0.63504  0.20520  Biso   1.000  C
  C230     1.0000 0.47353  0.42780  0.32631  Biso   1.000  C
  C231     1.0000 0.46032  0.55596  0.24138  Biso   1.000  C
  H255     1.0000 0.35772  0.59412  0.19149  Biso   1.000  H
  O44      1.0000 0.38779  0.74456  0.22281  Biso   1.000  O
  H256     1.0000 0.43659  0.64684  0.16939  Biso   1.000  H
  O45      1.0000 0.38779  0.74465  0.22281  Biso   1.000  O
  H257     1.0000 0.43659  0.64693  0.16939  Biso   1.000  H
  C232     1.0000 0.42542  0.35378  0.35671  Biso   1.000  C
  H258     1.0000 0.51173  0.47191  0.35579  Biso   1.000  H
  H259     1.0000 0.50680  0.38076  0.30260  Biso   1.000  H
  H260     1.0000 0.50680  0.38085  0.30260  Biso   1.000  H
  C233     1.0000 0.35390  0.75592  0.27738  Biso   1.000  C
  O46      1.0000 0.38794  0.39407  0.40582  Biso   1.000  O
  H261     1.0000 0.46069  0.28757  0.37129  Biso   1.000  H
  H262     1.0000 0.38072  0.32316  0.32672  Biso   1.000  H
  H263     1.0000 0.46069  0.28765  0.37129  Biso   1.000  H
  H264     1.0000 0.38072  0.32324  0.32672  Biso   1.000  H
  H265     1.0000 0.39799  0.74838  0.31191  Biso   1.000  H
  H266     1.0000 0.31263  0.69486  0.27999  Biso   1.000  H
  C234     1.0000 0.31274  0.87716  0.27752  Biso   1.000  C
  H267     1.0000 0.39799  0.74847  0.31191  Biso   1.000  H
  H268     1.0000 0.31263  0.69495  0.27999  Biso   1.000  H
  C235     1.0000 0.31274  0.87725  0.27752  Biso   1.000  C
  C236     1.0000 0.33294  0.48806  0.39312  Biso   1.000  C
  C237     1.0000 0.33294  0.48815  0.39312  Biso   1.000  C
  O47      1.0000 0.26867  0.87672  0.32929  Biso   1.000  O
  H269     1.0000 0.35480  0.93867  0.28142  Biso   1.000  H
  H270     1.0000 0.27388  0.88968  0.24042  Biso   1.000  H
  H271     1.0000 0.35480  0.93876  0.28142  Biso   1.000  H
  H272     1.0000 0.27388  0.88977  0.24042  Biso   1.000  H
  C238     1.0000 0.28283  0.49978  0.44388  Biso   1.000  C
  H273     1.0000 0.29579  0.47422  0.35520  Biso   1.000  H
  H274     1.0000 0.36411  0.55978  0.38899  Biso   1.000  H
  C239     1.0000 0.22478  0.97897  0.33851  Biso   1.000  C
  C240     1.0000 0.22478  0.97905  0.33851  Biso   1.000  C
  O48      1.0000 0.23891  0.60930  0.43622  Biso   1.000  O
  H275     1.0000 0.24334  0.43534  0.44301  Biso   1.000  H
  H276     1.0000 0.31958  0.49836  0.48258  Biso   1.000  H
  H277     1.0000 0.24334  0.43543  0.44301  Biso   1.000  H
  H278     1.0000 0.31958  0.49845  0.48258  Biso   1.000  H
  C241     1.0000 0.14091  0.99334  0.30769  Biso   1.000  C
  C242     1.0000 0.26383  0.06213  0.37950  Biso   1.000  C
  C243     1.0000 0.18613  0.63495  0.47869  Biso   1.000  C
  C244     1.0000 0.18613  0.63504  0.47869  Biso   1.000  C
  C245     1.0000 0.09833  0.90645  0.26179  Biso   1.000  C
  C246     1.0000 0.09833  0.90654  0.26179  Biso   1.000  C
  C247     1.0000 0.09972  0.09532  0.32140  Biso   1.000  C
  C248     1.0000 0.35513  0.04819  0.41110  Biso   1.000  C
  C249     1.0000 0.21768  0.16304  0.38959  Biso   1.000  C
  C250     1.0000 0.22032  0.68341  0.53449  Biso   1.000  C
  C251     1.0000 0.09859  0.61516  0.46181  Biso   1.000  C
  C252     1.0000 0.09859  0.61525  0.46181  Biso   1.000  C
  C253     1.0000 0.10572  0.77510  0.27701  Biso   1.000  C
  H279     1.0000 0.12029  0.91879  0.22419  Biso   1.000  H
  H280     1.0000 0.03913  0.92598  0.25418  Biso   1.000  H
  H281     1.0000 0.03913  0.92607  0.25418  Biso   1.000  H
  C254     1.0000 0.13530  0.17920  0.36052  Biso   1.000  C
  H282     1.0000 0.04229  0.10713  0.30191  Biso   1.000  H
  C255     1.0000 0.13530  0.17928  0.36052  Biso   1.000  C
  C256     1.0000 0.38271  0.93406  0.44310  Biso   1.000  C
  C257     1.0000 0.38271  0.93414  0.44310  Biso   1.000  C
  H283     1.0000 0.39133  0.06168  0.38069  Biso   1.000  H
  H284     1.0000 0.36623  0.11094  0.44072  Biso   1.000  H
  H285     1.0000 0.39133  0.06177  0.38069  Biso   1.000  H
  H286     1.0000 0.24360  0.22295  0.41729  Biso   1.000  H
  C258     1.0000 0.31544  0.70489  0.55380  Biso   1.000  C
  C259     1.0000 0.16572  0.71075  0.57430  Biso   1.000  C
  C260     1.0000 0.16572  0.71084  0.57430  Biso   1.000  C
  C261     1.0000 0.06373  0.55889  0.40128  Biso   1.000  C
  C262     1.0000 0.04698  0.64605  0.50450  Biso   1.000  C
  C263     1.0000 0.04698  0.64613  0.50450  Biso   1.000  C
  C264     1.0000 0.08140  0.73045  0.33002  Biso   1.000  C
  C265     1.0000 0.08140  0.73054  0.33002  Biso   1.000  C
  C266     1.0000 0.13467  0.69495  0.23629  Biso   1.000  C
  C267     1.0000 0.13467  0.69504  0.23629  Biso   1.000  C
  H287     1.0000 0.10410  0.24913  0.36808  Biso   1.000  H
  C268     1.0000 0.33611  0.87388  0.48130  Biso   1.000  C
  C269     1.0000 0.33611  0.87397  0.48130  Biso   1.000  C
  C270     1.0000 0.46160  0.88577  0.43668  Biso   1.000  C
  C271     1.0000 0.46160  0.88586  0.43668  Biso   1.000  C
  H288     1.0000 0.32233  0.74891  0.59149  Biso   1.000  H
  H289     1.0000 0.34183  0.62909  0.56279  Biso   1.000  H
  C272     1.0000 0.36432  0.76826  0.51092  Biso   1.000  C
  C273     1.0000 0.36432  0.76835  0.51092  Biso   1.000  C
  C274     1.0000 0.07963  0.69353  0.55981  Biso   1.000  C
  H290     1.0000 0.18801  0.74323  0.61369  Biso   1.000  H
  H291     1.0000 0.07948  0.47661  0.40348  Biso   1.000  H
  H292     1.0000 0.00288  0.56191  0.39720  Biso   1.000  H
  C275     1.0000 0.08890  0.60877  0.34369  Biso   1.000  C
  C276     1.0000 0.08890  0.60886  0.34369  Biso   1.000  C
  H293     1.0000 0.98693  0.63389  0.49492  Biso   1.000  H
  O49      1.0000 0.05498  0.80696  0.37180  Biso   1.000  O
  O50      1.0000 0.05498  0.80705  0.37180  Biso   1.000  O
  C277     1.0000 0.14183  0.57673  0.24890  Biso   1.000  C
  H294     1.0000 0.15004  0.72406  0.19860  Biso   1.000  H
  H295     1.0000 0.15004  0.72415  0.19860  Biso   1.000  H
  O51      1.0000 0.25449  0.91577  0.48607  Biso   1.000  O
  O52      1.0000 0.25449  0.91586  0.48607  Biso   1.000  O
  C278     1.0000 0.49072  0.78282  0.46589  Biso   1.000  C
  H296     1.0000 0.49640  0.92571  0.41128  Biso   1.000  H
  C279     1.0000 0.44252  0.72433  0.50239  Biso   1.000  C
  H297     1.0000 0.04272  0.71483  0.58860  Biso   1.000  H
  C280     1.0000 0.12012  0.53510  0.30210  Biso   1.000  C
  C281     1.0000 0.96618  0.82329  0.36680  Biso   1.000  C
  H298     1.0000 0.16193  0.52330  0.22038  Biso   1.000  H
  C282     1.0000 0.24669  0.99166  0.53591  Biso   1.000  C
  C283     1.0000 0.24669  0.99175  0.53591  Biso   1.000  C
  H299     1.0000 0.54522  0.75193  0.46062  Biso   1.000  H
  H300     1.0000 0.46309  0.65199  0.52220  Biso   1.000  H
  H301     1.0000 0.12661  0.45194  0.31122  Biso   1.000  H
  H302     1.0000 0.12661  0.45203  0.31122  Biso   1.000  H
  C284     1.0000 0.95141  0.90663  0.41600  Biso   1.000  C
  H303     1.0000 0.93871  0.74882  0.37152  Biso   1.000  H
  H304     1.0000 0.94412  0.85551  0.32732  Biso   1.000  H
  H305     1.0000 0.26810  0.95394  0.57411  Biso   1.000  H
  C285     1.0000 0.15293  0.01606  0.53151  Biso   1.000  C
  H306     1.0000 0.27750  0.06408  0.53280  Biso   1.000  H
  C286     1.0000 0.15293  0.01615  0.53151  Biso   1.000  C
  H307     1.0000 0.27750  0.06417  0.53280  Biso   1.000  H
  O53      1.0000 0.86320  0.92030  0.41655  Biso   1.000  O
  H308     1.0000 0.97798  0.87681  0.45489  Biso   1.000  H
  H309     1.0000 0.97608  0.98234  0.40931  Biso   1.000  H
  H310     1.0000 0.12234  0.94240  0.52881  Biso   1.000  H
  O54      1.0000 0.13680  0.07970  0.58347  Biso   1.000  O
  H311     1.0000 0.13371  0.06124  0.49510  Biso   1.000  H
  C287     1.0000 0.84713  0.98394  0.46851  Biso   1.000  C
  C288     1.0000 0.04859  0.09337  0.58402  Biso   1.000  C
  C289     1.0000 0.04859  0.09346  0.58402  Biso   1.000  C
  H312     1.0000 0.86629  0.93876  0.50492  Biso   1.000  H
  H313     1.0000 0.86629  0.93885  0.50492  Biso   1.000  H
  C290     1.0000 0.75331  0.00834  0.46410  Biso   1.000  C
  H314     1.0000 0.87772  0.05760  0.47121  Biso   1.000  H
  C291     1.0000 0.03382  0.17671  0.63322  Biso   1.000  C
  H315     1.0000 0.02201  0.12319  0.54509  Biso   1.000  H
  H316     1.0000 0.02392  0.01766  0.59071  Biso   1.000  H
  H317     1.0000 0.02201  0.12328  0.54509  Biso   1.000  H
  H318     1.0000 0.02392  0.01775  0.59071  Biso   1.000  H
  H319     1.0000 0.72249  0.93592  0.46722  Biso   1.000  H
  O55      1.0000 0.74550  0.08423  0.51390  Biso   1.000  O
  H320     1.0000 0.73190  0.04606  0.42591  Biso   1.000  H
  H321     1.0000 0.73190  0.04615  0.42591  Biso   1.000  H
  O56      1.0000 0.94502  0.19304  0.62822  Biso   1.000  O
  H322     1.0000 0.06129  0.25118  0.62850  Biso   1.000  H
  H323     1.0000 0.05594  0.14449  0.67270  Biso   1.000  H
  H324     1.0000 0.06129  0.25126  0.62850  Biso   1.000  H
  H325     1.0000 0.05594  0.14458  0.67270  Biso   1.000  H
  C292     1.0000 0.66389  0.12612  0.51872  Biso   1.000  C
  C293     1.0000 0.91860  0.26955  0.67000  Biso   1.000  C
  C294     1.0000 0.63568  0.23174  0.48910  Biso   1.000  C
  C295     1.0000 0.61729  0.06594  0.55692  Biso   1.000  C
  C296     1.0000 0.89435  0.22490  0.72301  Biso   1.000  C
  C297     1.0000 0.91109  0.39123  0.65629  Biso   1.000  C
  C298     1.0000 0.55754  0.27567  0.49758  Biso   1.000  C
  C299     1.0000 0.68462  0.29511  0.44622  Biso   1.000  C
  C300     1.0000 0.55754  0.27576  0.49758  Biso   1.000  C
  C301     1.0000 0.64493  0.95181  0.58892  Biso   1.000  C
  C302     1.0000 0.53839  0.11423  0.56329  Biso   1.000  C
  C303     1.0000 0.86532  0.30505  0.76368  Biso   1.000  C
  C304     1.0000 0.90172  0.09355  0.73818  Biso   1.000  C
  C305     1.0000 0.87994  0.46490  0.69792  Biso   1.000  C
  C306     1.0000 0.93632  0.44111  0.59869  Biso   1.000  C
  C307     1.0000 0.87994  0.46499  0.69792  Biso   1.000  C
  H326     1.0000 0.53691  0.34801  0.47782  Biso   1.000  H
  C308     1.0000 0.50933  0.21718  0.53408  Biso   1.000  C
  C309     1.0000 0.50933  0.21727  0.53408  Biso   1.000  C
  C310     1.0000 0.77974  0.31659  0.46548  Biso   1.000  C
  H327     1.0000 0.67772  0.25109  0.40848  Biso   1.000  H
  H328     1.0000 0.65822  0.37091  0.43719  Biso   1.000  H
  C311     1.0000 0.77974  0.31668  0.46548  Biso   1.000  C
  H329     1.0000 0.67772  0.25118  0.40848  Biso   1.000  H
  C312     1.0000 0.73623  0.93787  0.62052  Biso   1.000  C
  H330     1.0000 0.60872  0.93832  0.61928  Biso   1.000  H
  H331     1.0000 0.63384  0.88906  0.55930  Biso   1.000  H
  C313     1.0000 0.73623  0.93796  0.62052  Biso   1.000  C
  H332     1.0000 0.63384  0.88915  0.55930  Biso   1.000  H
  H333     1.0000 0.50359  0.07429  0.58869  Biso   1.000  H
  H334     1.0000 0.50359  0.07438  0.58869  Biso   1.000  H
  H335     1.0000 0.85003  0.27594  0.80142  Biso   1.000  H
  C314     1.0000 0.85823  0.42327  0.75112  Biso   1.000  C
  C315     1.0000 0.85823  0.42336  0.75112  Biso   1.000  C
  C316     1.0000 0.85914  0.00666  0.69228  Biso   1.000  C
  H336     1.0000 0.87970  0.08121  0.77579  Biso   1.000  H
  H337     1.0000 0.96093  0.07402  0.74580  Biso   1.000  H
  C317     1.0000 0.85914  0.00675  0.69228  Biso   1.000  C
  H338     1.0000 0.87339  0.54806  0.68880  Biso   1.000  H
  C318     1.0000 0.90140  0.38484  0.53821  Biso   1.000  C
  H339     1.0000 0.92051  0.52339  0.59649  Biso   1.000  H
  H340     1.0000 0.99711  0.43809  0.60282  Biso   1.000  H
  H341     1.0000 0.92051  0.52348  0.59649  Biso   1.000  H
  H342     1.0000 0.99711  0.43818  0.60282  Biso   1.000  H
  H343     1.0000 0.45484  0.24807  0.53940  Biso   1.000  H
  H344     1.0000 0.45484  0.24816  0.53940  Biso   1.000  H
  C319     1.0000 0.81393  0.36505  0.52129  Biso   1.000  C
  C320     1.0000 0.83435  0.28925  0.42572  Biso   1.000  C
  C321     1.0000 0.77522  0.02103  0.66151  Biso   1.000  C
  C322     1.0000 0.78231  0.83696  0.61038  Biso   1.000  C
  C323     1.0000 0.78231  0.83705  0.61038  Biso   1.000  C
  H345     1.0000 0.83812  0.47670  0.77959  Biso   1.000  H
  H346     1.0000 0.83812  0.47679  0.77959  Biso   1.000  H
  C324     1.0000 0.90035  0.90468  0.67862  Biso   1.000  C
  C325     1.0000 0.90035  0.90477  0.67862  Biso   1.000  C
  C326     1.0000 0.95302  0.35395  0.49552  Biso   1.000  C
  O57      1.0000 0.76109  0.39070  0.56380  Biso   1.000  O
  O58      1.0000 0.76109  0.39079  0.56380  Biso   1.000  O
  C327     1.0000 0.92044  0.30647  0.44021  Biso   1.000  C
  C328     1.0000 0.92044  0.30656  0.44021  Biso   1.000  C
  H347     1.0000 0.81198  0.25677  0.38629  Biso   1.000  H
  H348     1.0000 0.81198  0.25686  0.38629  Biso   1.000  H
  O59      1.0000 0.73132  0.12328  0.67068  Biso   1.000  O
  O60      1.0000 0.73132  0.12337  0.67068  Biso   1.000  O
  C329     1.0000 0.86470  0.82080  0.63950  Biso   1.000  C
  H349     1.0000 0.75639  0.77705  0.58269  Biso   1.000  H
  H350     1.0000 0.75639  0.77714  0.58269  Biso   1.000  H
  H351     1.0000 0.95771  0.89287  0.69811  Biso   1.000  H
  H352     1.0000 0.95771  0.89296  0.69811  Biso   1.000  H
  H353     1.0000 0.01313  0.36611  0.50510  Biso   1.000  H
  C330     1.0000 0.71722  0.50022  0.55609  Biso   1.000  C
  H354     1.0000 0.95734  0.28517  0.41142  Biso   1.000  H
  H355     1.0000 0.95734  0.28526  0.41142  Biso   1.000  H
  C331     1.0000 0.68732  0.12284  0.72250  Biso   1.000  C
  H356     1.0000 0.89589  0.75087  0.63189  Biso   1.000  H
  H357     1.0000 0.89589  0.75095  0.63189  Biso   1.000  H
  H358     1.0000 0.75672  0.56466  0.55701  Biso   1.000  H
  H359     1.0000 0.68041  0.50164  0.51739  Biso   1.000  H
  C332     1.0000 0.66712  0.51194  0.60690  Biso   1.000  C
  C333     1.0000 0.64609  0.24408  0.72259  Biso   1.000  C
  H360     1.0000 0.64520  0.06133  0.71860  Biso   1.000  H
  H361     1.0000 0.72612  0.11032  0.75960  Biso   1.000  H
  C334     1.0000 0.64609  0.24416  0.72259  Biso   1.000  C
  O61      1.0000 0.61212  0.60593  0.59420  Biso   1.000  O
  H362     1.0000 0.70421  0.52578  0.64482  Biso   1.000  H
  H363     1.0000 0.63588  0.44022  0.61098  Biso   1.000  H
  H364     1.0000 0.70421  0.52587  0.64482  Biso   1.000  H
  O62      1.0000 0.61221  0.25544  0.77721  Biso   1.000  O
  H365     1.0000 0.60201  0.25162  0.68811  Biso   1.000  H
  H366     1.0000 0.68742  0.30514  0.71998  Biso   1.000  H
  C335     1.0000 0.57464  0.64622  0.64331  Biso   1.000  C
  C336     1.0000 0.59013  0.36505  0.79482  Biso   1.000  C
  H367     1.0000 0.53930  0.71243  0.62868  Biso   1.000  H
  H368     1.0000 0.61935  0.67684  0.67330  Biso   1.000  H
  C337     1.0000 0.52654  0.57220  0.67371  Biso   1.000  C
  C338     1.0000 0.52654  0.57229  0.67371  Biso   1.000  C
  C339     1.0000 0.53973  0.44404  0.75859  Biso   1.000  C
  H369     1.0000 0.56340  0.35316  0.83058  Biso   1.000  H
  H370     1.0000 0.64233  0.40588  0.80848  Biso   1.000  H
  H371     1.0000 0.64233  0.40596  0.80848  Biso   1.000  H
  O63      1.0000 0.57659  0.49241  0.71278  Biso   1.000  O
  H372     1.0000 0.49320  0.61924  0.69742  Biso   1.000  H
  H373     1.0000 0.48832  0.52809  0.64418  Biso   1.000  H
  H374     1.0000 0.48832  0.52818  0.64418  Biso   1.000  H
  H375     1.0000 0.52401  0.50679  0.78409  Biso   1.000  H
  H376     1.0000 0.48870  0.40410  0.74089  Biso   1.000  H
  H377     1.0000 0.52401  0.50688  0.78409  Biso   1.000  H
  H378     1.0000 0.48870  0.40419  0.74089  Biso   1.000  H
  C340     1.0000 0.46032  0.55605  0.24138  Biso   1.000  C
  O64      1.0000 0.42340  0.50759  0.28719  Biso   1.000  O
  H379     1.0000 0.47598  0.49321  0.21589  Biso   1.000  H
  H380     1.0000 0.51129  0.59590  0.25908  Biso   1.000  H
  C341     1.0000 0.40993  0.63495  0.20520  Biso   1.000  C
  C342     1.0000 0.40993  0.63504  0.20520  Biso   1.000  C
  C343     1.0000 0.47353  0.42780  0.32631  Biso   1.000  C
  C344     1.0000 0.46032  0.55596  0.24138  Biso   1.000  C
  H381     1.0000 0.35772  0.59412  0.19149  Biso   1.000  H
  O65      1.0000 0.38779  0.74456  0.22281  Biso   1.000  O
  H382     1.0000 0.43659  0.64684  0.16939  Biso   1.000  H
  O66      1.0000 0.38779  0.74465  0.22281  Biso   1.000  O
  H383     1.0000 0.43659  0.64693  0.16939  Biso   1.000  H
  C345     1.0000 0.42542  0.35378  0.35671  Biso   1.000  C
  H384     1.0000 0.51173  0.47191  0.35579  Biso   1.000  H
  H385     1.0000 0.50680  0.38076  0.30260  Biso   1.000  H
  H386     1.0000 0.50680  0.38085  0.30260  Biso   1.000  H
  C346     1.0000 0.35390  0.75592  0.27738  Biso   1.000  C
  O67      1.0000 0.38794  0.39407  0.40582  Biso   1.000  O
  H387     1.0000 0.46069  0.28757  0.37129  Biso   1.000  H
  H388     1.0000 0.38072  0.32316  0.32672  Biso   1.000  H
  H389     1.0000 0.46069  0.28765  0.37129  Biso   1.000  H
  H390     1.0000 0.38072  0.32324  0.32672  Biso   1.000  H
  H391     1.0000 0.39799  0.74838  0.31191  Biso   1.000  H
  H392     1.0000 0.31263  0.69486  0.27999  Biso   1.000  H
  C347     1.0000 0.31274  0.87716  0.27752  Biso   1.000  C
  H393     1.0000 0.39799  0.74847  0.31191  Biso   1.000  H
  H394     1.0000 0.31263  0.69495  0.27999  Biso   1.000  H
  C348     1.0000 0.31274  0.87725  0.27752  Biso   1.000  C
  C349     1.0000 0.33294  0.48806  0.39312  Biso   1.000  C
  C350     1.0000 0.33294  0.48815  0.39312  Biso   1.000  C
  O68      1.0000 0.26867  0.87672  0.32929  Biso   1.000  O
  H395     1.0000 0.35480  0.93867  0.28142  Biso   1.000  H
  H396     1.0000 0.27388  0.88968  0.24042  Biso   1.000  H
  H397     1.0000 0.35480  0.93876  0.28142  Biso   1.000  H
  H398     1.0000 0.27388  0.88977  0.24042  Biso   1.000  H
  C351     1.0000 0.28283  0.49978  0.44388  Biso   1.000  C
  H399     1.0000 0.29579  0.47422  0.35520  Biso   1.000  H
  H400     1.0000 0.36411  0.55978  0.38899  Biso   1.000  H
  C352     1.0000 0.22478  0.97897  0.33851  Biso   1.000  C
  C353     1.0000 0.22478  0.97905  0.33851  Biso   1.000  C
  O69      1.0000 0.23891  0.60930  0.43622  Biso   1.000  O
  H401     1.0000 0.24334  0.43534  0.44301  Biso   1.000  H
  H402     1.0000 0.31958  0.49836  0.48258  Biso   1.000  H
  H403     1.0000 0.24334  0.43543  0.44301  Biso   1.000  H
  H404     1.0000 0.31958  0.49845  0.48258  Biso   1.000  H
  C354     1.0000 0.14091  0.99334  0.30769  Biso   1.000  C
  C355     1.0000 0.26383  0.06213  0.37950  Biso   1.000  C
  C356     1.0000 0.18613  0.63495  0.47869  Biso   1.000  C
  C357     1.0000 0.18613  0.63504  0.47869  Biso   1.000  C
  C358     1.0000 0.09833  0.90645  0.26179  Biso   1.000  C
  C359     1.0000 0.09833  0.90654  0.26179  Biso   1.000  C
  C360     1.0000 0.09972  0.09532  0.32140  Biso   1.000  C
  C361     1.0000 0.35513  0.04819  0.41110  Biso   1.000  C
  C362     1.0000 0.21768  0.16304  0.38959  Biso   1.000  C
  C363     1.0000 0.22032  0.68341  0.53449  Biso   1.000  C
  C364     1.0000 0.09859  0.61516  0.46181  Biso   1.000  C
  C365     1.0000 0.09859  0.61525  0.46181  Biso   1.000  C
  C366     1.0000 0.10572  0.77510  0.27701  Biso   1.000  C
  H405     1.0000 0.12029  0.91879  0.22419  Biso   1.000  H
  H406     1.0000 0.03913  0.92598  0.25418  Biso   1.000  H
  H407     1.0000 0.03913  0.92607  0.25418  Biso   1.000  H
  C367     1.0000 0.13530  0.17920  0.36052  Biso   1.000  C
  H408     1.0000 0.04229  0.10713  0.30191  Biso   1.000  H
  C368     1.0000 0.13530  0.17928  0.36052  Biso   1.000  C
  C369     1.0000 0.38271  0.93406  0.44310  Biso   1.000  C
  C370     1.0000 0.38271  0.93414  0.44310  Biso   1.000  C
  H409     1.0000 0.39133  0.06168  0.38069  Biso   1.000  H
  H410     1.0000 0.36623  0.11094  0.44072  Biso   1.000  H
  H411     1.0000 0.39133  0.06177  0.38069  Biso   1.000  H
  H412     1.0000 0.24360  0.22295  0.41729  Biso   1.000  H
  C371     1.0000 0.31544  0.70489  0.55380  Biso   1.000  C
  C372     1.0000 0.16572  0.71075  0.57430  Biso   1.000  C
  C373     1.0000 0.16572  0.71084  0.57430  Biso   1.000  C
  C374     1.0000 0.06373  0.55889  0.40128  Biso   1.000  C
  C375     1.0000 0.04698  0.64605  0.50450  Biso   1.000  C
  C376     1.0000 0.04698  0.64613  0.50450  Biso   1.000  C
  C377     1.0000 0.08140  0.73045  0.33002  Biso   1.000  C
  C378     1.0000 0.08140  0.73054  0.33002  Biso   1.000  C
  C379     1.0000 0.13467  0.69495  0.23629  Biso   1.000  C
  C380     1.0000 0.13467  0.69504  0.23629  Biso   1.000  C
  H413     1.0000 0.10410  0.24913  0.36808  Biso   1.000  H
  C381     1.0000 0.33611  0.87388  0.48130  Biso   1.000  C
  C382     1.0000 0.33611  0.87397  0.48130  Biso   1.000  C
  C383     1.0000 0.46160  0.88577  0.43668  Biso   1.000  C
  C384     1.0000 0.46160  0.88586  0.43668  Biso   1.000  C
  H414     1.0000 0.32233  0.74891  0.59149  Biso   1.000  H
  H415     1.0000 0.34183  0.62909  0.56279  Biso   1.000  H
  C385     1.0000 0.36432  0.76826  0.51092  Biso   1.000  C
  C386     1.0000 0.36432  0.76835  0.51092  Biso   1.000  C
  C387     1.0000 0.07963  0.69353  0.55981  Biso   1.000  C
  H416     1.0000 0.18801  0.74323  0.61369  Biso   1.000  H
  H417     1.0000 0.07948  0.47661  0.40348  Biso   1.000  H
  H418     1.0000 0.00288  0.56191  0.39720  Biso   1.000  H
  C388     1.0000 0.08890  0.60877  0.34369  Biso   1.000  C
  C389     1.0000 0.08890  0.60886  0.34369  Biso   1.000  C
  H419     1.0000 0.98693  0.63389  0.49492  Biso   1.000  H
  O70      1.0000 0.05498  0.80696  0.37180  Biso   1.000  O
  O71      1.0000 0.05498  0.80705  0.37180  Biso   1.000  O
  C390     1.0000 0.14183  0.57673  0.24890  Biso   1.000  C
  H420     1.0000 0.15004  0.72406  0.19860  Biso   1.000  H
  H421     1.0000 0.15004  0.72415  0.19860  Biso   1.000  H
  O72      1.0000 0.25449  0.91577  0.48607  Biso   1.000  O
  O73      1.0000 0.25449  0.91586  0.48607  Biso   1.000  O
  C391     1.0000 0.49072  0.78282  0.46589  Biso   1.000  C
  H422     1.0000 0.49640  0.92571  0.41128  Biso   1.000  H
  C392     1.0000 0.44252  0.72433  0.50239  Biso   1.000  C
  H423     1.0000 0.04272  0.71483  0.58860  Biso   1.000  H
  C393     1.0000 0.12012  0.53510  0.30210  Biso   1.000  C
  C394     1.0000 0.96618  0.82329  0.36680  Biso   1.000  C
  H424     1.0000 0.16193  0.52330  0.22038  Biso   1.000  H
  C395     1.0000 0.24669  0.99166  0.53591  Biso   1.000  C
  C396     1.0000 0.24669  0.99175  0.53591  Biso   1.000  C
  H425     1.0000 0.54522  0.75193  0.46062  Biso   1.000  H
  H426     1.0000 0.46309  0.65199  0.52220  Biso   1.000  H
  H427     1.0000 0.12661  0.45194  0.31122  Biso   1.000  H
  H428     1.0000 0.12661  0.45203  0.31122  Biso   1.000  H
  C397     1.0000 0.95141  0.90663  0.41600  Biso   1.000  C
  H429     1.0000 0.93871  0.74882  0.37152  Biso   1.000  H
  H430     1.0000 0.94412  0.85551  0.32732  Biso   1.000  H
  H431     1.0000 0.26810  0.95394  0.57411  Biso   1.000  H
  C398     1.0000 0.15293  0.01606  0.53151  Biso   1.000  C
  H432     1.0000 0.27750  0.06408  0.53280  Biso   1.000  H
  C399     1.0000 0.15293  0.01615  0.53151  Biso   1.000  C
  H433     1.0000 0.27750  0.06417  0.53280  Biso   1.000  H
  O74      1.0000 0.86320  0.92030  0.41655  Biso   1.000  O
  H434     1.0000 0.97798  0.87681  0.45489  Biso   1.000  H
  H435     1.0000 0.97608  0.98234  0.40931  Biso   1.000  H
  H436     1.0000 0.12234  0.94240  0.52881  Biso   1.000  H
  O75      1.0000 0.13680  0.07970  0.58347  Biso   1.000  O
  H437     1.0000 0.13371  0.06124  0.49510  Biso   1.000  H
  C400     1.0000 0.84713  0.98394  0.46851  Biso   1.000  C
  C401     1.0000 0.04859  0.09337  0.58402  Biso   1.000  C
  C402     1.0000 0.04859  0.09346  0.58402  Biso   1.000  C
  H438     1.0000 0.86629  0.93876  0.50492  Biso   1.000  H
  H439     1.0000 0.86629  0.93885  0.50492  Biso   1.000  H
  C403     1.0000 0.75331  0.00834  0.46410  Biso   1.000  C
  H440     1.0000 0.87772  0.05760  0.47121  Biso   1.000  H
  C404     1.0000 0.03382  0.17671  0.63322  Biso   1.000  C
  H441     1.0000 0.02201  0.12319  0.54509  Biso   1.000  H
  H442     1.0000 0.02392  0.01766  0.59071  Biso   1.000  H
  H443     1.0000 0.02201  0.12328  0.54509  Biso   1.000  H
  H444     1.0000 0.02392  0.01775  0.59071  Biso   1.000  H
  H445     1.0000 0.72249  0.93592  0.46722  Biso   1.000  H
  O76      1.0000 0.74550  0.08423  0.51390  Biso   1.000  O
  H446     1.0000 0.73190  0.04606  0.42591  Biso   1.000  H
  H447     1.0000 0.73190  0.04615  0.42591  Biso   1.000  H
  O77      1.0000 0.94502  0.19304  0.62822  Biso   1.000  O
  H448     1.0000 0.06129  0.25118  0.62850  Biso   1.000  H
  H449     1.0000 0.05594  0.14449  0.67270  Biso   1.000  H
  H450     1.0000 0.06129  0.25126  0.62850  Biso   1.000  H
  H451     1.0000 0.05594  0.14458  0.67270  Biso   1.000  H
  C405     1.0000 0.66389  0.12612  0.51872  Biso   1.000  C
  C406     1.0000 0.91860  0.26955  0.67000  Biso   1.000  C
  C407     1.0000 0.63568  0.23174  0.48910  Biso   1.000  C
  C408     1.0000 0.61729  0.06594  0.55692  Biso   1.000  C
  C409     1.0000 0.89435  0.22490  0.72301  Biso   1.000  C
  C410     1.0000 0.91109  0.39123  0.65629  Biso   1.000  C
  C411     1.0000 0.55754  0.27567  0.49758  Biso   1.000  C
  C412     1.0000 0.68462  0.29511  0.44622  Biso   1.000  C
  C413     1.0000 0.55754  0.27576  0.49758  Biso   1.000  C
  C414     1.0000 0.64493  0.95181  0.58892  Biso   1.000  C
  C415     1.0000 0.53839  0.11423  0.56329  Biso   1.000  C
  C416     1.0000 0.86532  0.30505  0.76368  Biso   1.000  C
  C417     1.0000 0.90172  0.09355  0.73818  Biso   1.000  C
  C418     1.0000 0.87994  0.46490  0.69792  Biso   1.000  C
  C419     1.0000 0.93632  0.44111  0.59869  Biso   1.000  C
  C420     1.0000 0.87994  0.46499  0.69792  Biso   1.000  C
  H452     1.0000 0.53691  0.34801  0.47782  Biso   1.000  H
  C421     1.0000 0.50933  0.21718  0.53408  Biso   1.000  C
  C422     1.0000 0.50933  0.21727  0.53408  Biso   1.000  C
  C423     1.0000 0.77974  0.31659  0.46548  Biso   1.000  C
  H453     1.0000 0.67772  0.25109  0.40848  Biso   1.000  H
  H454     1.0000 0.65822  0.37091  0.43719  Biso   1.000  H
  C424     1.0000 0.77974  0.31668  0.46548  Biso   1.000  C
  H455     1.0000 0.67772  0.25118  0.40848  Biso   1.000  H
  C425     1.0000 0.73623  0.93787  0.62052  Biso   1.000  C
  H456     1.0000 0.60872  0.93832  0.61928  Biso   1.000  H
  H457     1.0000 0.63384  0.88906  0.55930  Biso   1.000  H
  C426     1.0000 0.73623  0.93796  0.62052  Biso   1.000  C
  H458     1.0000 0.63384  0.88915  0.55930  Biso   1.000  H
  H459     1.0000 0.50359  0.07429  0.58869  Biso   1.000  H
  H460     1.0000 0.50359  0.07438  0.58869  Biso   1.000  H
  H461     1.0000 0.85003  0.27594  0.80142  Biso   1.000  H
  C427     1.0000 0.85823  0.42327  0.75112  Biso   1.000  C
  C428     1.0000 0.85823  0.42336  0.75112  Biso   1.000  C
  C429     1.0000 0.85914  0.00666  0.69228  Biso   1.000  C
  H462     1.0000 0.87970  0.08121  0.77579  Biso   1.000  H
  H463     1.0000 0.96093  0.07402  0.74580  Biso   1.000  H
  C430     1.0000 0.85914  0.00675  0.69228  Biso   1.000  C
  H464     1.0000 0.87339  0.54806  0.68880  Biso   1.000  H
  C431     1.0000 0.90140  0.38484  0.53821  Biso   1.000  C
  H465     1.0000 0.92051  0.52339  0.59649  Biso   1.000  H
  H466     1.0000 0.99711  0.43809  0.60282  Biso   1.000  H
  H467     1.0000 0.92051  0.52348  0.59649  Biso   1.000  H
  H468     1.0000 0.99711  0.43818  0.60282  Biso   1.000  H
  H469     1.0000 0.45484  0.24807  0.53940  Biso   1.000  H
  H470     1.0000 0.45484  0.24816  0.53940  Biso   1.000  H
  C432     1.0000 0.81393  0.36505  0.52129  Biso   1.000  C
  C433     1.0000 0.83435  0.28925  0.42572  Biso   1.000  C
  C434     1.0000 0.77522  0.02103  0.66151  Biso   1.000  C
  C435     1.0000 0.78231  0.83696  0.61038  Biso   1.000  C
  C436     1.0000 0.78231  0.83705  0.61038  Biso   1.000  C
  H471     1.0000 0.83812  0.47670  0.77959  Biso   1.000  H
  H472     1.0000 0.83812  0.47679  0.77959  Biso   1.000  H
  C437     1.0000 0.90035  0.90468  0.67862  Biso   1.000  C
  C438     1.0000 0.90035  0.90477  0.67862  Biso   1.000  C
  C439     1.0000 0.95302  0.35395  0.49552  Biso   1.000  C
  O78      1.0000 0.76109  0.39070  0.56380  Biso   1.000  O
  O79      1.0000 0.76109  0.39079  0.56380  Biso   1.000  O
  C440     1.0000 0.92044  0.30647  0.44021  Biso   1.000  C
  C441     1.0000 0.92044  0.30656  0.44021  Biso   1.000  C
  H473     1.0000 0.81198  0.25677  0.38629  Biso   1.000  H
  H474     1.0000 0.81198  0.25686  0.38629  Biso   1.000  H
  O80      1.0000 0.73132  0.12328  0.67068  Biso   1.000  O
  O81      1.0000 0.73132  0.12337  0.67068  Biso   1.000  O
  C442     1.0000 0.86470  0.82080  0.63950  Biso   1.000  C
  H475     1.0000 0.75639  0.77705  0.58269  Biso   1.000  H
  H476     1.0000 0.75639  0.77714  0.58269  Biso   1.000  H
  H477     1.0000 0.95771  0.89287  0.69811  Biso   1.000  H
  H478     1.0000 0.95771  0.89296  0.69811  Biso   1.000  H
  H479     1.0000 0.01313  0.36611  0.50510  Biso   1.000  H
  C443     1.0000 0.71722  0.50022  0.55609  Biso   1.000  C
  H480     1.0000 0.95734  0.28517  0.41142  Biso   1.000  H
  H481     1.0000 0.95734  0.28526  0.41142  Biso   1.000  H
  C444     1.0000 0.68732  0.12284  0.72250  Biso   1.000  C
  H482     1.0000 0.89589  0.75087  0.63189  Biso   1.000  H
  H483     1.0000 0.89589  0.75095  0.63189  Biso   1.000  H
  H484     1.0000 0.75672  0.56466  0.55701  Biso   1.000  H
  H485     1.0000 0.68041  0.50164  0.51739  Biso   1.000  H
  C445     1.0000 0.66712  0.51194  0.60690  Biso   1.000  C
  C446     1.0000 0.64609  0.24408  0.72259  Biso   1.000  C
  H486     1.0000 0.64520  0.06133  0.71860  Biso   1.000  H
  H487     1.0000 0.72612  0.11032  0.75960  Biso   1.000  H
  C447     1.0000 0.64609  0.24416  0.72259  Biso   1.000  C
  O82      1.0000 0.61212  0.60593  0.59420  Biso   1.000  O
  H488     1.0000 0.70421  0.52578  0.64482  Biso   1.000  H
  H489     1.0000 0.63588  0.44022  0.61098  Biso   1.000  H
  H490     1.0000 0.70421  0.52587  0.64482  Biso   1.000  H
  O83      1.0000 0.61221  0.25544  0.77721  Biso   1.000  O
  H491     1.0000 0.60201  0.25162  0.68811  Biso   1.000  H
  H492     1.0000 0.68742  0.30514  0.71998  Biso   1.000  H
  C448     1.0000 0.57464  0.64622  0.64331  Biso   1.000  C
  C449     1.0000 0.59013  0.36505  0.79482  Biso   1.000  C
  H493     1.0000 0.53930  0.71243  0.62868  Biso   1.000  H
  H494     1.0000 0.61935  0.67684  0.67330  Biso   1.000  H
  C450     1.0000 0.52654  0.57220  0.67371  Biso   1.000  C
  C451     1.0000 0.52654  0.57229  0.67371  Biso   1.000  C
  C452     1.0000 0.53973  0.44404  0.75859  Biso   1.000  C
  H495     1.0000 0.56340  0.35316  0.83058  Biso   1.000  H
  H496     1.0000 0.64233  0.40588  0.80848  Biso   1.000  H
  H497     1.0000 0.64233  0.40596  0.80848  Biso   1.000  H
  O84      1.0000 0.57659  0.49241  0.71278  Biso   1.000  O
  H498     1.0000 0.49320  0.61924  0.69742  Biso   1.000  H
  H499     1.0000 0.48832  0.52809  0.64418  Biso   1.000  H
  H500     1.0000 0.48832  0.52818  0.64418  Biso   1.000  H
  H501     1.0000 0.52401  0.50679  0.78409  Biso   1.000  H
  H502     1.0000 0.48870  0.40410  0.74089  Biso   1.000  H
  H503     1.0000 0.52401  0.50688  0.78409  Biso   1.000  H
  H504     1.0000 0.48870  0.40419  0.74089  Biso   1.000  H
  C453     1.0000 0.64490  0.54824  0.08891  Biso   1.000  C
  C454     1.0000 0.73620  0.56208  0.12051  Biso   1.000  C
  C455     1.0000 0.73625  0.56208  0.12046  Biso   1.000  C
  C456     1.0000 0.61732  0.43410  0.05691  Biso   1.000  C
  H505     1.0000 0.60870  0.56173  0.11932  Biso   1.000  H
  H506     1.0000 0.63380  0.61090  0.05929  Biso   1.000  H
  C457     1.0000 0.61731  0.43410  0.05686  Biso   1.000  C
  H507     1.0000 0.60876  0.56173  0.11927  Biso   1.000  H
  C458     1.0000 0.77519  0.47901  0.16150  Biso   1.000  C
  C459     1.0000 0.77525  0.47901  0.16150  Biso   1.000  C
  C460     1.0000 0.78229  0.66300  0.11042  Biso   1.000  C
  C461     1.0000 0.78235  0.66300  0.11037  Biso   1.000  C
  C462     1.0000 0.64495  0.54824  0.08887  Biso   1.000  C
  C463     1.0000 0.66392  0.37392  0.01871  Biso   1.000  C
  C464     1.0000 0.53842  0.38582  0.06328  Biso   1.000  C
  C465     1.0000 0.66391  0.37392  0.01866  Biso   1.000  C
  O85      1.0000 0.73129  0.37668  0.17067  Biso   1.000  O
  O86      1.0000 0.73135  0.37668  0.17067  Biso   1.000  O
  C466     1.0000 0.85912  0.49330  0.19232  Biso   1.000  C
  C467     1.0000 0.85911  0.49330  0.19227  Biso   1.000  C
  H508     1.0000 0.75642  0.72291  0.08268  Biso   1.000  H
  C468     1.0000 0.86473  0.67924  0.13949  Biso   1.000  C
  C469     1.0000 0.63571  0.26831  0.98909  Biso   1.000  C
  O87      1.0000 0.74547  0.41582  0.01389  Biso   1.000  O
  O88      1.0000 0.74553  0.41582  0.01389  Biso   1.000  O
  C470     1.0000 0.50931  0.28277  0.03412  Biso   1.000  C
  H509     1.0000 0.50362  0.42576  0.08868  Biso   1.000  H
  C471     1.0000 0.50930  0.28277  0.03407  Biso   1.000  C
  C472     1.0000 0.68729  0.37721  0.22249  Biso   1.000  C
  C473     1.0000 0.68735  0.37721  0.22249  Biso   1.000  C
  C474     1.0000 0.90031  0.59528  0.17861  Biso   1.000  C
  C475     1.0000 0.90170  0.40650  0.23822  Biso   1.000  C
  C476     1.0000 0.90030  0.59528  0.17856  Biso   1.000  C
  C477     1.0000 0.90176  0.40650  0.23817  Biso   1.000  C
  H510     1.0000 0.89592  0.74909  0.13188  Biso   1.000  H
  C478     1.0000 0.68459  0.20493  0.94621  Biso   1.000  C
  C479     1.0000 0.68465  0.20493  0.94617  Biso   1.000  C
  C480     1.0000 0.55751  0.22428  0.99762  Biso   1.000  C
  C481     1.0000 0.55751  0.22428  0.99757  Biso   1.000  C
  C482     1.0000 0.75328  0.49170  0.96410  Biso   1.000  C
  C483     1.0000 0.75334  0.49170  0.96410  Biso   1.000  C
  H511     1.0000 0.45481  0.25189  0.03939  Biso   1.000  H
  C484     1.0000 0.64613  0.25588  0.22258  Biso   1.000  C
  H512     1.0000 0.64523  0.43871  0.21859  Biso   1.000  H
  H513     1.0000 0.72609  0.38972  0.25959  Biso   1.000  H
  H514     1.0000 0.72615  0.38972  0.25959  Biso   1.000  H
  H515     1.0000 0.95768  0.60708  0.19810  Biso   1.000  H
  H516     1.0000 0.95774  0.60708  0.19810  Biso   1.000  H
  C485     1.0000 0.89432  0.27514  0.22300  Biso   1.000  C
  H517     1.0000 0.87974  0.41883  0.27582  Biso   1.000  H
  H518     1.0000 0.96089  0.42602  0.24579  Biso   1.000  H
  H519     1.0000 0.87973  0.41883  0.27578  Biso   1.000  H
  H520     1.0000 0.96096  0.42602  0.24579  Biso   1.000  H
  C486     1.0000 0.77972  0.18337  0.96552  Biso   1.000  C
  C487     1.0000 0.77971  0.18337  0.96547  Biso   1.000  C
  H521     1.0000 0.67770  0.24887  0.90852  Biso   1.000  H
  H522     1.0000 0.65819  0.12914  0.93718  Biso   1.000  H
  H523     1.0000 0.67769  0.24887  0.90847  Biso   1.000  H
  H524     1.0000 0.65825  0.12914  0.93718  Biso   1.000  H
  H525     1.0000 0.53688  0.15204  0.97781  Biso   1.000  H
  H526     1.0000 0.53693  0.15204  0.97776  Biso   1.000  H
  H527     1.0000 0.73193  0.45389  0.92590  Biso   1.000  H
  H528     1.0000 0.72253  0.56413  0.96721  Biso   1.000  H
  C488     1.0000 0.84710  0.51611  0.96850  Biso   1.000  C
  H529     1.0000 0.72252  0.56413  0.96717  Biso   1.000  H
  O89      1.0000 0.61218  0.24461  0.27720  Biso   1.000  O
  O90      1.0000 0.61224  0.24461  0.27720  Biso   1.000  O
  H530     1.0000 0.60198  0.24842  0.18810  Biso   1.000  H
  H531     1.0000 0.68740  0.19491  0.22002  Biso   1.000  H
  H532     1.0000 0.60205  0.24842  0.18810  Biso   1.000  H
  H533     1.0000 0.68745  0.19491  0.21997  Biso   1.000  H
  C489     1.0000 0.91863  0.23050  0.16999  Biso   1.000  C
  C490     1.0000 0.86530  0.19499  0.26372  Biso   1.000  C
  C491     1.0000 0.86535  0.19499  0.26367  Biso   1.000  C
  C492     1.0000 0.81391  0.13500  0.02132  Biso   1.000  C
  C493     1.0000 0.81390  0.13500  0.02128  Biso   1.000  C
  C494     1.0000 0.83431  0.21079  0.92571  Biso   1.000  C
  C495     1.0000 0.83430  0.21079  0.92567  Biso   1.000  C
  H534     1.0000 0.86632  0.56120  0.00491  Biso   1.000  H
  H535     1.0000 0.86631  0.56120  0.00486  Biso   1.000  H
  O91      1.0000 0.86317  0.57975  0.91654  Biso   1.000  O
  H536     1.0000 0.87769  0.44244  0.97120  Biso   1.000  H
  O92      1.0000 0.86323  0.57975  0.91654  Biso   1.000  O
  H537     1.0000 0.87775  0.44244  0.97120  Biso   1.000  H
  C496     1.0000 0.59010  0.13500  0.29481  Biso   1.000  C
  C497     1.0000 0.59017  0.13500  0.29481  Biso   1.000  C
  C498     1.0000 0.91113  0.10881  0.15632  Biso   1.000  C
  C499     1.0000 0.91112  0.10881  0.15628  Biso   1.000  C
  O93      1.0000 0.94499  0.30700  0.12821  Biso   1.000  O
  O94      1.0000 0.94504  0.30700  0.12817  Biso   1.000  O
  H538     1.0000 0.85000  0.22411  0.30141  Biso   1.000  H
  C500     1.0000 0.85820  0.07668  0.25111  Biso   1.000  C
  H539     1.0000 0.85005  0.22411  0.30136  Biso   1.000  H
  C501     1.0000 0.85827  0.07668  0.25111  Biso   1.000  C
  O95      1.0000 0.76112  0.10935  0.06379  Biso   1.000  O
  C502     1.0000 0.90137  0.11520  0.03820  Biso   1.000  C
  C503     1.0000 0.90144  0.11520  0.03820  Biso   1.000  C
  C504     1.0000 0.92041  0.19349  0.94020  Biso   1.000  C
  H540     1.0000 0.81201  0.24319  0.88628  Biso   1.000  H
  C505     1.0000 0.95138  0.59341  0.91599  Biso   1.000  C
  C506     1.0000 0.95144  0.59341  0.91599  Biso   1.000  C
  C507     1.0000 0.53970  0.05600  0.25858  Biso   1.000  C
  H541     1.0000 0.56344  0.14689  0.33062  Biso   1.000  H
  H542     1.0000 0.64231  0.09408  0.30852  Biso   1.000  H
  H543     1.0000 0.56343  0.14689  0.33057  Biso   1.000  H
  H544     1.0000 0.64236  0.09408  0.30847  Biso   1.000  H
  C508     1.0000 0.93629  0.05893  0.09868  Biso   1.000  C
  C509     1.0000 0.93636  0.05893  0.09868  Biso   1.000  C
  C510     1.0000 0.87991  0.03506  0.19791  Biso   1.000  C
  C511     1.0000 0.87990  0.03506  0.19787  Biso   1.000  C
  C512     1.0000 0.03379  0.32333  0.13321  Biso   1.000  C
  C513     1.0000 0.03384  0.32333  0.13316  Biso   1.000  C
  H545     1.0000 0.83809  0.02334  0.27958  Biso   1.000  H
  H546     1.0000 0.83815  0.02334  0.27958  Biso   1.000  H
  C514     1.0000 0.71719  0.99982  0.05608  Biso   1.000  C
  C515     1.0000 0.71725  0.99982  0.05608  Biso   1.000  C
  C516     1.0000 0.95299  0.14609  0.99551  Biso   1.000  C
  C517     1.0000 0.95304  0.14609  0.99546  Biso   1.000  C
  H547     1.0000 0.95731  0.21479  0.91141  Biso   1.000  H
  H548     1.0000 0.95730  0.21479  0.91136  Biso   1.000  H
  C518     1.0000 0.96621  0.67676  0.86679  Biso   1.000  C
  H549     1.0000 0.97801  0.62324  0.95488  Biso   1.000  H
  H550     1.0000 0.97612  0.51771  0.90930  Biso   1.000  H
  O96      1.0000 0.57663  0.00763  0.21282  Biso   1.000  O
  H551     1.0000 0.48867  0.09594  0.24088  Biso   1.000  H
  O97      1.0000 0.57662  0.00763  0.21277  Biso   1.000  O
  H552     1.0000 0.48873  0.09594  0.24088  Biso   1.000  H
  H553     1.0000 0.52399  0.99317  0.28412  Biso   1.000  H
  H554     1.0000 0.52404  0.99317  0.28408  Biso   1.000  H
  H555     1.0000 0.99708  0.06186  0.10281  Biso   1.000  H
  H556     1.0000 0.99714  0.06186  0.10276  Biso   1.000  H
  H557     1.0000 0.92047  0.97657  0.09648  Biso   1.000  H
  H558     1.0000 0.92054  0.97657  0.09648  Biso   1.000  H
  H559     1.0000 0.87342  0.95198  0.18879  Biso   1.000  H
  H560     1.0000 0.06132  0.24878  0.12849  Biso   1.000  H
  H561     1.0000 0.05591  0.35555  0.17269  Biso   1.000  H
  C519     1.0000 0.04862  0.40659  0.08401  Biso   1.000  C
  C520     1.0000 0.04861  0.40659  0.08396  Biso   1.000  C
  C521     1.0000 0.66709  0.98811  0.10689  Biso   1.000  C
  C522     1.0000 0.66715  0.98811  0.10689  Biso   1.000  C
  H562     1.0000 0.75669  0.93539  0.05700  Biso   1.000  H
  H563     1.0000 0.68038  0.99840  0.01738  Biso   1.000  H
  H564     1.0000 0.75675  0.93539  0.05700  Biso   1.000  H
  H565     1.0000 0.68044  0.99840  0.01738  Biso   1.000  H
  H566     1.0000 0.01310  0.13393  0.00509  Biso   1.000  H
  H567     1.0000 0.93868  0.75122  0.87151  Biso   1.000  H
  H568     1.0000 0.94409  0.64454  0.82731  Biso   1.000  H
  H569     1.0000 0.93873  0.75122  0.87147  Biso   1.000  H
  H570     1.0000 0.94414  0.64454  0.82726  Biso   1.000  H
  O98      1.0000 0.05501  0.69300  0.87179  Biso   1.000  O
  C523     1.0000 0.52650  0.92775  0.17370  Biso   1.000  C
  O99      1.0000 0.13683  0.42034  0.08346  Biso   1.000  O
  H571     1.0000 0.02199  0.37685  0.04512  Biso   1.000  H
  H572     1.0000 0.02388  0.48229  0.09070  Biso   1.000  H
  O100     1.0000 0.13682  0.42034  0.08341  Biso   1.000  O
  H573     1.0000 0.02204  0.37685  0.04508  Biso   1.000  H
  H574     1.0000 0.02395  0.48229  0.09070  Biso   1.000  H
  O101     1.0000 0.61209  0.89412  0.09419  Biso   1.000  O
  O102     1.0000 0.61215  0.89412  0.09419  Biso   1.000  O
  H575     1.0000 0.63592  0.05982  0.11102  Biso   1.000  H
  H576     1.0000 0.63591  0.05982  0.11097  Biso   1.000  H
  H577     1.0000 0.70418  0.97417  0.14481  Biso   1.000  H
  H578     1.0000 0.70423  0.97417  0.14477  Biso   1.000  H
  C524     1.0000 0.08137  0.76950  0.83001  Biso   1.000  C
  C525     1.0000 0.08142  0.76950  0.82997  Biso   1.000  C
  C526     1.0000 0.57461  0.85382  0.14330  Biso   1.000  C
  H579     1.0000 0.49323  0.88080  0.19741  Biso   1.000  H
  H580     1.0000 0.48830  0.97186  0.14422  Biso   1.000  H
  H581     1.0000 0.49322  0.88080  0.19736  Biso   1.000  H
  H582     1.0000 0.48835  0.97186  0.14417  Biso   1.000  H
  C527     1.0000 0.15290  0.48389  0.03150  Biso   1.000  C
  C528     1.0000 0.10568  0.72495  0.77700  Biso   1.000  C
  C529     1.0000 0.08887  0.89128  0.84368  Biso   1.000  C
  C530     1.0000 0.10575  0.72495  0.77700  Biso   1.000  C
  C531     1.0000 0.08893  0.89128  0.84368  Biso   1.000  C
  H583     1.0000 0.53934  0.78761  0.12872  Biso   1.000  H
  H584     1.0000 0.61932  0.82320  0.17329  Biso   1.000  H
  H585     1.0000 0.53933  0.78761  0.12867  Biso   1.000  H
  H586     1.0000 0.13368  0.43880  0.99509  Biso   1.000  H
  H587     1.0000 0.13374  0.43880  0.99509  Biso   1.000  H
  H588     1.0000 0.12231  0.55765  0.02880  Biso   1.000  H
  C532     1.0000 0.24672  0.50830  0.03590  Biso   1.000  C
  C533     1.0000 0.13470  0.80501  0.73628  Biso   1.000  C
  C534     1.0000 0.09830  0.59350  0.76178  Biso   1.000  C
  C535     1.0000 0.12009  0.96494  0.80209  Biso   1.000  C
  C536     1.0000 0.06371  0.94116  0.90132  Biso   1.000  C
  C537     1.0000 0.12015  0.96494  0.80209  Biso   1.000  C
  C538     1.0000 0.06370  0.94116  0.90127  Biso   1.000  C
  O103     1.0000 0.25453  0.58418  0.98611  Biso   1.000  O
  O104     1.0000 0.25452  0.58418  0.98606  Biso   1.000  O
  H589     1.0000 0.26807  0.54611  0.07410  Biso   1.000  H
  H590     1.0000 0.27747  0.43587  0.03279  Biso   1.000  H
  H591     1.0000 0.26814  0.54611  0.07410  Biso   1.000  H
  H592     1.0000 0.27754  0.43587  0.03279  Biso   1.000  H
  H593     1.0000 0.15000  0.77589  0.69859  Biso   1.000  H
  C539     1.0000 0.14180  0.92332  0.74889  Biso   1.000  C
  C540     1.0000 0.14088  0.50670  0.80768  Biso   1.000  C
  H594     1.0000 0.12026  0.58125  0.72418  Biso   1.000  H
  H595     1.0000 0.03911  0.57398  0.75421  Biso   1.000  H
  C541     1.0000 0.14094  0.50670  0.80768  Biso   1.000  C
  H596     1.0000 0.12032  0.58125  0.72418  Biso   1.000  H
  H597     1.0000 0.03910  0.57398  0.75417  Biso   1.000  H
  H598     1.0000 0.12658  0.04802  0.81121  Biso   1.000  H
  H599     1.0000 0.12663  0.04802  0.81117  Biso   1.000  H
  C542     1.0000 0.09863  0.88480  0.96180  Biso   1.000  C
  H600     1.0000 0.00292  0.93814  0.89719  Biso   1.000  H
  H601     1.0000 0.07953  0.02343  0.90352  Biso   1.000  H
  H602     1.0000 0.07952  0.02343  0.90347  Biso   1.000  H
  C543     1.0000 0.33608  0.62616  0.98129  Biso   1.000  C
  C544     1.0000 0.33614  0.62616  0.98129  Biso   1.000  C
  H603     1.0000 0.16191  0.97675  0.72042  Biso   1.000  H
  H604     1.0000 0.16190  0.97675  0.72037  Biso   1.000  H
  C545     1.0000 0.22481  0.52099  0.83850  Biso   1.000  C
  C546     1.0000 0.09969  0.40472  0.82139  Biso   1.000  C
  C547     1.0000 0.09975  0.40472  0.82139  Biso   1.000  C
  C548     1.0000 0.18609  0.86500  0.97868  Biso   1.000  C
  C549     1.0000 0.04701  0.85391  0.00449  Biso   1.000  C
  C550     1.0000 0.38268  0.56590  0.94309  Biso   1.000  C
  C551     1.0000 0.38274  0.56590  0.94309  Biso   1.000  C
  C552     1.0000 0.36429  0.73169  0.01091  Biso   1.000  C
  C553     1.0000 0.36434  0.73169  0.01087  Biso   1.000  C
  C554     1.0000 0.26380  0.43792  0.87949  Biso   1.000  C
  O105     1.0000 0.26871  0.62332  0.82933  Biso   1.000  O
  O106     1.0000 0.26870  0.62332  0.82928  Biso   1.000  O
  C555     1.0000 0.13527  0.32085  0.86051  Biso   1.000  C
  H605     1.0000 0.04232  0.39292  0.80190  Biso   1.000  H
  C556     1.0000 0.13532  0.32085  0.86046  Biso   1.000  C
  C557     1.0000 0.22028  0.81663  0.03448  Biso   1.000  C
  C558     1.0000 0.22035  0.81663  0.03448  Biso   1.000  C
  O107     1.0000 0.23888  0.89074  0.93621  Biso   1.000  O
  O108     1.0000 0.23895  0.89074  0.93621  Biso   1.000  O
  H606     1.0000 0.98690  0.86616  0.99491  Biso   1.000  H
  H607     1.0000 0.98695  0.86616  0.99486  Biso   1.000  H
  C559     1.0000 0.07959  0.80651  0.05980  Biso   1.000  C
  C560     1.0000 0.07966  0.80651  0.05980  Biso   1.000  C
  C561     1.0000 0.35510  0.45185  0.91109  Biso   1.000  C
  C562     1.0000 0.46158  0.61418  0.93672  Biso   1.000  C
  C563     1.0000 0.46163  0.61418  0.93667  Biso   1.000  C
  C564     1.0000 0.44249  0.77572  0.00238  Biso   1.000  C
  C565     1.0000 0.31541  0.79515  0.05379  Biso   1.000  C
  C566     1.0000 0.44255  0.77572  0.00238  Biso   1.000  C
  C567     1.0000 0.21771  0.33700  0.88958  Biso   1.000  C
  C568     1.0000 0.31271  0.62279  0.77751  Biso   1.000  C
  C569     1.0000 0.31270  0.62279  0.77746  Biso   1.000  C
  H608     1.0000 0.10408  0.25091  0.86812  Biso   1.000  H
  H609     1.0000 0.10413  0.25091  0.86807  Biso   1.000  H
  C570     1.0000 0.16569  0.78921  0.07429  Biso   1.000  C
  C571     1.0000 0.16575  0.78921  0.07429  Biso   1.000  C
  C572     1.0000 0.28281  0.00027  0.94392  Biso   1.000  C
  C573     1.0000 0.28280  0.00027  0.94387  Biso   1.000  C
  H610     1.0000 0.04269  0.78521  0.08859  Biso   1.000  H
  H611     1.0000 0.04275  0.78521  0.08859  Biso   1.000  H
  H612     1.0000 0.39130  0.43836  0.88068  Biso   1.000  H
  H613     1.0000 0.36620  0.38910  0.94071  Biso   1.000  H
  H614     1.0000 0.36625  0.38910  0.94066  Biso   1.000  H
  C574     1.0000 0.49069  0.71723  0.96588  Biso   1.000  C
  H615     1.0000 0.49638  0.57433  0.91132  Biso   1.000  H
  C575     1.0000 0.49076  0.71723  0.96588  Biso   1.000  C
  H616     1.0000 0.49643  0.57433  0.91127  Biso   1.000  H
  H617     1.0000 0.46312  0.84805  0.02219  Biso   1.000  H
  H618     1.0000 0.32230  0.75113  0.09148  Biso   1.000  H
  H619     1.0000 0.34181  0.87095  0.06282  Biso   1.000  H
  H620     1.0000 0.34180  0.87095  0.06278  Biso   1.000  H
  H621     1.0000 0.24358  0.27709  0.91732  Biso   1.000  H
  H622     1.0000 0.24363  0.27709  0.91728  Biso   1.000  H
  C576     1.0000 0.35387  0.74412  0.77742  Biso   1.000  C
  H623     1.0000 0.35477  0.56129  0.78141  Biso   1.000  H
  H624     1.0000 0.27391  0.61028  0.74041  Biso   1.000  H
  C577     1.0000 0.35393  0.74412  0.77737  Biso   1.000  C
  H625     1.0000 0.35483  0.56129  0.78136  Biso   1.000  H
  H626     1.0000 0.27390  0.61028  0.74037  Biso   1.000  H
  H627     1.0000 0.18799  0.75681  0.11372  Biso   1.000  H
  H628     1.0000 0.18804  0.75681  0.11368  Biso   1.000  H
  H629     1.0000 0.24331  0.06461  0.94300  Biso   1.000  H
  H630     1.0000 0.31962  0.00160  0.98262  Biso   1.000  H
  C578     1.0000 0.33291  0.01189  0.89311  Biso   1.000  C
  H631     1.0000 0.31961  0.00160  0.98257  Biso   1.000  H
  C579     1.0000 0.33290  0.01189  0.89306  Biso   1.000  C
  H632     1.0000 0.54519  0.74811  0.96061  Biso   1.000  H
  H633     1.0000 0.54524  0.74811  0.96056  Biso   1.000  H
  O109     1.0000 0.38782  0.75539  0.72280  Biso   1.000  O
  H634     1.0000 0.39802  0.75166  0.81190  Biso   1.000  H
  H635     1.0000 0.31260  0.80509  0.77998  Biso   1.000  H
  H636     1.0000 0.36408  0.94027  0.88898  Biso   1.000  H
  H637     1.0000 0.36414  0.94027  0.88898  Biso   1.000  H
  O110     1.0000 0.38791  0.10597  0.90581  Biso   1.000  O
  H638     1.0000 0.29582  0.02583  0.85519  Biso   1.000  H
  O111     1.0000 0.38790  0.10597  0.90577  Biso   1.000  O
  C580     1.0000 0.40990  0.86500  0.70519  Biso   1.000  C
  C581     1.0000 0.42539  0.14627  0.85670  Biso   1.000  C
  C582     1.0000 0.42545  0.14627  0.85670  Biso   1.000  C
  C583     1.0000 0.46030  0.94400  0.74142  Biso   1.000  C
  H639     1.0000 0.43656  0.85311  0.66938  Biso   1.000  H
  H640     1.0000 0.35769  0.90592  0.69148  Biso   1.000  H
  C584     1.0000 0.46029  0.94400  0.74137  Biso   1.000  C
  H641     1.0000 0.43662  0.85311  0.66938  Biso   1.000  H
  H642     1.0000 0.46066  0.21248  0.87128  Biso   1.000  H
  H643     1.0000 0.38068  0.17680  0.82671  Biso   1.000  H
  C585     1.0000 0.47350  0.07225  0.82630  Biso   1.000  C
  H644     1.0000 0.46073  0.21248  0.87128  Biso   1.000  H
  H645     1.0000 0.38074  0.17680  0.82667  Biso   1.000  H
  O112     1.0000 0.42337  0.99246  0.78718  Biso   1.000  O
  H646     1.0000 0.51133  0.90414  0.75912  Biso   1.000  H
  O113     1.0000 0.42343  0.99246  0.78718  Biso   1.000  O
  H647     1.0000 0.51132  0.90414  0.75907  Biso   1.000  H
  H648     1.0000 0.47601  0.00683  0.71588  Biso   1.000  H
  H649     1.0000 0.50677  0.11920  0.80259  Biso   1.000  H
  H650     1.0000 0.51170  0.02814  0.85578  Biso   1.000  H
  H651     1.0000 0.50683  0.11920  0.80259  Biso   1.000  H
  C586     1.0000 0.64490  0.54824  0.08891  Biso   1.000  C
  C587     1.0000 0.73620  0.56208  0.12051  Biso   1.000  C
  C588     1.0000 0.73625  0.56208  0.12046  Biso   1.000  C
  H652     1.0000 0.63380  0.61090  0.05929  Biso   1.000  H
  C589     1.0000 0.61732  0.43410  0.05691  Biso   1.000  C
  H653     1.0000 0.60870  0.56173  0.11932  Biso   1.000  H
  C590     1.0000 0.61731  0.43410  0.05686  Biso   1.000  C
  H654     1.0000 0.60876  0.56173  0.11927  Biso   1.000  H
  C591     1.0000 0.77519  0.47901  0.16150  Biso   1.000  C
  C592     1.0000 0.77525  0.47901  0.16150  Biso   1.000  C
  C593     1.0000 0.78229  0.66300  0.11042  Biso   1.000  C
  C594     1.0000 0.78235  0.66300  0.11037  Biso   1.000  C
  C595     1.0000 0.64495  0.54824  0.08887  Biso   1.000  C
  C596     1.0000 0.53842  0.38582  0.06328  Biso   1.000  C
  C597     1.0000 0.66392  0.37392  0.01871  Biso   1.000  C
  C598     1.0000 0.66391  0.37392  0.01866  Biso   1.000  C
  O114     1.0000 0.73129  0.37668  0.17067  Biso   1.000  O
  O115     1.0000 0.73135  0.37668  0.17067  Biso   1.000  O
  C599     1.0000 0.85912  0.49330  0.19232  Biso   1.000  C
  C600     1.0000 0.85911  0.49330  0.19227  Biso   1.000  C
  H655     1.0000 0.75642  0.72291  0.08268  Biso   1.000  H
  C601     1.0000 0.86473  0.67924  0.13949  Biso   1.000  C
  H656     1.0000 0.50362  0.42576  0.08868  Biso   1.000  H
  C602     1.0000 0.50931  0.28277  0.03412  Biso   1.000  C
  C603     1.0000 0.50930  0.28277  0.03407  Biso   1.000  C
  C604     1.0000 0.63571  0.26831  0.98909  Biso   1.000  C
  O116     1.0000 0.74547  0.41582  0.01389  Biso   1.000  O
  O117     1.0000 0.74553  0.41582  0.01389  Biso   1.000  O
  C605     1.0000 0.68729  0.37721  0.22249  Biso   1.000  C
  C606     1.0000 0.68735  0.37721  0.22249  Biso   1.000  C
  C607     1.0000 0.90031  0.59528  0.17861  Biso   1.000  C
  C608     1.0000 0.90170  0.40650  0.23822  Biso   1.000  C
  C609     1.0000 0.90030  0.59528  0.17856  Biso   1.000  C
  C610     1.0000 0.90176  0.40650  0.23817  Biso   1.000  C
  H657     1.0000 0.89592  0.74909  0.13188  Biso   1.000  H
  C611     1.0000 0.55751  0.22428  0.99762  Biso   1.000  C
  C612     1.0000 0.55751  0.22428  0.99757  Biso   1.000  C
  H658     1.0000 0.45481  0.25189  0.03939  Biso   1.000  H
  C613     1.0000 0.68459  0.20493  0.94621  Biso   1.000  C
  C614     1.0000 0.68465  0.20493  0.94617  Biso   1.000  C
  C615     1.0000 0.75328  0.49170  0.96410  Biso   1.000  C
  C616     1.0000 0.75334  0.49170  0.96410  Biso   1.000  C
  C617     1.0000 0.64613  0.25588  0.22258  Biso   1.000  C
  H659     1.0000 0.64523  0.43871  0.21859  Biso   1.000  H
  H660     1.0000 0.72609  0.38972  0.25959  Biso   1.000  H
  H661     1.0000 0.72615  0.38972  0.25959  Biso   1.000  H
  H662     1.0000 0.95768  0.60708  0.19810  Biso   1.000  H
  H663     1.0000 0.95774  0.60708  0.19810  Biso   1.000  H
  C618     1.0000 0.89432  0.27514  0.22300  Biso   1.000  C
  H664     1.0000 0.87974  0.41883  0.27582  Biso   1.000  H
  H665     1.0000 0.96089  0.42602  0.24579  Biso   1.000  H
  H666     1.0000 0.87973  0.41883  0.27578  Biso   1.000  H
  H667     1.0000 0.96096  0.42602  0.24579  Biso   1.000  H
  H668     1.0000 0.53688  0.15204  0.97781  Biso   1.000  H
  H669     1.0000 0.53693  0.15204  0.97776  Biso   1.000  H
  C619     1.0000 0.77972  0.18337  0.96552  Biso   1.000  C
  C620     1.0000 0.77971  0.18337  0.96547  Biso   1.000  C
  H670     1.0000 0.67770  0.24887  0.90852  Biso   1.000  H
  H671     1.0000 0.65819  0.12914  0.93718  Biso   1.000  H
  H672     1.0000 0.67769  0.24887  0.90847  Biso   1.000  H
  H673     1.0000 0.65825  0.12914  0.93718  Biso   1.000  H
  H674     1.0000 0.73193  0.45389  0.92590  Biso   1.000  H
  H675     1.0000 0.72253  0.56413  0.96721  Biso   1.000  H
  C621     1.0000 0.84710  0.51611  0.96850  Biso   1.000  C
  H676     1.0000 0.72252  0.56413  0.96717  Biso   1.000  H
  O118     1.0000 0.61218  0.24461  0.27720  Biso   1.000  O
  O119     1.0000 0.61224  0.24461  0.27720  Biso   1.000  O
  H677     1.0000 0.60198  0.24842  0.18810  Biso   1.000  H
  H678     1.0000 0.68740  0.19491  0.22002  Biso   1.000  H
  H679     1.0000 0.60205  0.24842  0.18810  Biso   1.000  H
  H680     1.0000 0.68745  0.19491  0.21997  Biso   1.000  H
  C622     1.0000 0.91863  0.23050  0.16999  Biso   1.000  C
  C623     1.0000 0.86530  0.19499  0.26372  Biso   1.000  C
  C624     1.0000 0.86535  0.19499  0.26367  Biso   1.000  C
  C625     1.0000 0.81391  0.13500  0.02132  Biso   1.000  C
  C626     1.0000 0.81390  0.13500  0.02128  Biso   1.000  C
  C627     1.0000 0.83431  0.21079  0.92571  Biso   1.000  C
  C628     1.0000 0.83430  0.21079  0.92567  Biso   1.000  C
  H681     1.0000 0.86632  0.56120  0.00491  Biso   1.000  H
  H682     1.0000 0.86631  0.56120  0.00486  Biso   1.000  H
  O120     1.0000 0.86317  0.57975  0.91654  Biso   1.000  O
  H683     1.0000 0.87769  0.44244  0.97120  Biso   1.000  H
  O121     1.0000 0.86323  0.57975  0.91654  Biso   1.000  O
  H684     1.0000 0.87775  0.44244  0.97120  Biso   1.000  H
  C629     1.0000 0.59010  0.13500  0.29481  Biso   1.000  C
  C630     1.0000 0.59017  0.13500  0.29481  Biso   1.000  C
  C631     1.0000 0.91113  0.10881  0.15632  Biso   1.000  C
  C632     1.0000 0.91112  0.10881  0.15628  Biso   1.000  C
  O122     1.0000 0.94499  0.30700  0.12821  Biso   1.000  O
  O123     1.0000 0.94504  0.30700  0.12817  Biso   1.000  O
  H685     1.0000 0.85000  0.22411  0.30141  Biso   1.000  H
  C633     1.0000 0.85820  0.07668  0.25111  Biso   1.000  C
  H686     1.0000 0.85005  0.22411  0.30136  Biso   1.000  H
  C634     1.0000 0.85827  0.07668  0.25111  Biso   1.000  C
  O124     1.0000 0.76112  0.10935  0.06379  Biso   1.000  O
  C635     1.0000 0.90137  0.11520  0.03820  Biso   1.000  C
  C636     1.0000 0.90144  0.11520  0.03820  Biso   1.000  C
  C637     1.0000 0.92041  0.19349  0.94020  Biso   1.000  C
  H687     1.0000 0.81201  0.24319  0.88628  Biso   1.000  H
  C638     1.0000 0.95138  0.59341  0.91599  Biso   1.000  C
  C639     1.0000 0.95144  0.59341  0.91599  Biso   1.000  C
  C640     1.0000 0.53970  0.05600  0.25858  Biso   1.000  C
  H688     1.0000 0.56344  0.14689  0.33062  Biso   1.000  H
  H689     1.0000 0.64231  0.09408  0.30852  Biso   1.000  H
  H690     1.0000 0.56343  0.14689  0.33057  Biso   1.000  H
  H691     1.0000 0.64236  0.09408  0.30847  Biso   1.000  H
  C641     1.0000 0.93629  0.05893  0.09868  Biso   1.000  C
  C642     1.0000 0.93636  0.05893  0.09868  Biso   1.000  C
  C643     1.0000 0.87991  0.03506  0.19791  Biso   1.000  C
  C644     1.0000 0.87990  0.03506  0.19787  Biso   1.000  C
  C645     1.0000 0.03379  0.32333  0.13321  Biso   1.000  C
  C646     1.0000 0.03384  0.32333  0.13316  Biso   1.000  C
  H692     1.0000 0.83809  0.02334  0.27958  Biso   1.000  H
  H693     1.0000 0.83815  0.02334  0.27958  Biso   1.000  H
  C647     1.0000 0.71719  0.99982  0.05608  Biso   1.000  C
  C648     1.0000 0.71725  0.99982  0.05608  Biso   1.000  C
  C649     1.0000 0.95299  0.14609  0.99551  Biso   1.000  C
  C650     1.0000 0.95304  0.14609  0.99546  Biso   1.000  C
  H694     1.0000 0.95731  0.21479  0.91141  Biso   1.000  H
  H695     1.0000 0.95730  0.21479  0.91136  Biso   1.000  H
  C651     1.0000 0.96621  0.67676  0.86679  Biso   1.000  C
  H696     1.0000 0.97801  0.62324  0.95488  Biso   1.000  H
  H697     1.0000 0.97612  0.51771  0.90930  Biso   1.000  H
  O125     1.0000 0.57663  0.00763  0.21282  Biso   1.000  O
  H698     1.0000 0.48867  0.09594  0.24088  Biso   1.000  H
  O126     1.0000 0.57662  0.00763  0.21277  Biso   1.000  O
  H699     1.0000 0.48873  0.09594  0.24088  Biso   1.000  H
  H700     1.0000 0.52399  0.99317  0.28412  Biso   1.000  H
  H701     1.0000 0.52404  0.99317  0.28408  Biso   1.000  H
  H702     1.0000 0.99708  0.06186  0.10281  Biso   1.000  H
  H703     1.0000 0.99714  0.06186  0.10276  Biso   1.000  H
  H704     1.0000 0.92047  0.97657  0.09648  Biso   1.000  H
  H705     1.0000 0.92054  0.97657  0.09648  Biso   1.000  H
  H706     1.0000 0.87342  0.95198  0.18879  Biso   1.000  H
  H707     1.0000 0.06132  0.24878  0.12849  Biso   1.000  H
  H708     1.0000 0.05591  0.35555  0.17269  Biso   1.000  H
  C652     1.0000 0.04862  0.40659  0.08401  Biso   1.000  C
  C653     1.0000 0.04861  0.40659  0.08396  Biso   1.000  C
  C654     1.0000 0.66709  0.98811  0.10689  Biso   1.000  C
  C655     1.0000 0.66715  0.98811  0.10689  Biso   1.000  C
  H709     1.0000 0.75669  0.93539  0.05700  Biso   1.000  H
  H710     1.0000 0.68038  0.99840  0.01738  Biso   1.000  H
  H711     1.0000 0.75675  0.93539  0.05700  Biso   1.000  H
  H712     1.0000 0.68044  0.99840  0.01738  Biso   1.000  H
  H713     1.0000 0.01310  0.13393  0.00509  Biso   1.000  H
  H714     1.0000 0.93868  0.75122  0.87151  Biso   1.000  H
  H715     1.0000 0.94409  0.64454  0.82731  Biso   1.000  H
  H716     1.0000 0.93873  0.75122  0.87147  Biso   1.000  H
  H717     1.0000 0.94414  0.64454  0.82726  Biso   1.000  H
  O127     1.0000 0.05501  0.69300  0.87179  Biso   1.000  O
  C656     1.0000 0.52650  0.92775  0.17370  Biso   1.000  C
  O128     1.0000 0.13683  0.42034  0.08346  Biso   1.000  O
  H718     1.0000 0.02199  0.37685  0.04512  Biso   1.000  H
  H719     1.0000 0.02388  0.48229  0.09070  Biso   1.000  H
  O129     1.0000 0.13682  0.42034  0.08341  Biso   1.000  O
  H720     1.0000 0.02204  0.37685  0.04508  Biso   1.000  H
  H721     1.0000 0.02395  0.48229  0.09070  Biso   1.000  H
  O130     1.0000 0.61209  0.89412  0.09419  Biso   1.000  O
  O131     1.0000 0.61215  0.89412  0.09419  Biso   1.000  O
  H722     1.0000 0.63592  0.05982  0.11102  Biso   1.000  H
  H723     1.0000 0.63591  0.05982  0.11097  Biso   1.000  H
  H724     1.0000 0.70418  0.97417  0.14481  Biso   1.000  H
  H725     1.0000 0.70423  0.97417  0.14477  Biso   1.000  H
  C657     1.0000 0.08137  0.76950  0.83001  Biso   1.000  C
  C658     1.0000 0.08142  0.76950  0.82997  Biso   1.000  C
  C659     1.0000 0.57461  0.85382  0.14330  Biso   1.000  C
  H726     1.0000 0.49323  0.88080  0.19741  Biso   1.000  H
  H727     1.0000 0.48830  0.97186  0.14422  Biso   1.000  H
  H728     1.0000 0.49322  0.88080  0.19736  Biso   1.000  H
  H729     1.0000 0.48835  0.97186  0.14417  Biso   1.000  H
  C660     1.0000 0.15290  0.48389  0.03150  Biso   1.000  C
  C661     1.0000 0.10568  0.72495  0.77700  Biso   1.000  C
  C662     1.0000 0.08887  0.89128  0.84368  Biso   1.000  C
  C663     1.0000 0.10575  0.72495  0.77700  Biso   1.000  C
  C664     1.0000 0.08893  0.89128  0.84368  Biso   1.000  C
  H730     1.0000 0.53934  0.78761  0.12872  Biso   1.000  H
  H731     1.0000 0.61932  0.82320  0.17329  Biso   1.000  H
  H732     1.0000 0.53933  0.78761  0.12867  Biso   1.000  H
  H733     1.0000 0.13368  0.43880  0.99509  Biso   1.000  H
  H734     1.0000 0.13374  0.43880  0.99509  Biso   1.000  H
  H735     1.0000 0.12231  0.55765  0.02880  Biso   1.000  H
  C665     1.0000 0.24672  0.50830  0.03590  Biso   1.000  C
  C666     1.0000 0.13470  0.80501  0.73628  Biso   1.000  C
  C667     1.0000 0.09830  0.59350  0.76178  Biso   1.000  C
  C668     1.0000 0.12009  0.96494  0.80209  Biso   1.000  C
  C669     1.0000 0.06371  0.94116  0.90132  Biso   1.000  C
  C670     1.0000 0.12015  0.96494  0.80209  Biso   1.000  C
  C671     1.0000 0.06370  0.94116  0.90127  Biso   1.000  C
  O132     1.0000 0.25453  0.58418  0.98611  Biso   1.000  O
  O133     1.0000 0.25452  0.58418  0.98606  Biso   1.000  O
  H736     1.0000 0.26807  0.54611  0.07410  Biso   1.000  H
  H737     1.0000 0.27747  0.43587  0.03279  Biso   1.000  H
  H738     1.0000 0.26814  0.54611  0.07410  Biso   1.000  H
  H739     1.0000 0.27754  0.43587  0.03279  Biso   1.000  H
  H740     1.0000 0.15000  0.77589  0.69859  Biso   1.000  H
  C672     1.0000 0.14180  0.92332  0.74889  Biso   1.000  C
  C673     1.0000 0.14088  0.50670  0.80768  Biso   1.000  C
  H741     1.0000 0.12026  0.58125  0.72418  Biso   1.000  H
  H742     1.0000 0.03911  0.57398  0.75421  Biso   1.000  H
  C674     1.0000 0.14094  0.50670  0.80768  Biso   1.000  C
  H743     1.0000 0.12032  0.58125  0.72418  Biso   1.000  H
  H744     1.0000 0.03910  0.57398  0.75417  Biso   1.000  H
  H745     1.0000 0.12658  0.04802  0.81121  Biso   1.000  H
  H746     1.0000 0.12663  0.04802  0.81117  Biso   1.000  H
  C675     1.0000 0.09863  0.88480  0.96180  Biso   1.000  C
  H747     1.0000 0.00292  0.93814  0.89719  Biso   1.000  H
  H748     1.0000 0.07953  0.02343  0.90352  Biso   1.000  H
  H749     1.0000 0.07952  0.02343  0.90347  Biso   1.000  H
  C676     1.0000 0.33608  0.62616  0.98129  Biso   1.000  C
  C677     1.0000 0.33614  0.62616  0.98129  Biso   1.000  C
  H750     1.0000 0.16191  0.97675  0.72042  Biso   1.000  H
  H751     1.0000 0.16190  0.97675  0.72037  Biso   1.000  H
  C678     1.0000 0.22481  0.52099  0.83850  Biso   1.000  C
  C679     1.0000 0.09969  0.40472  0.82139  Biso   1.000  C
  C680     1.0000 0.09975  0.40472  0.82139  Biso   1.000  C
  C681     1.0000 0.18609  0.86500  0.97868  Biso   1.000  C
  C682     1.0000 0.04701  0.85391  0.00449  Biso   1.000  C
  C683     1.0000 0.38268  0.56590  0.94309  Biso   1.000  C
  C684     1.0000 0.38274  0.56590  0.94309  Biso   1.000  C
  C685     1.0000 0.36429  0.73169  0.01091  Biso   1.000  C
  C686     1.0000 0.36434  0.73169  0.01087  Biso   1.000  C
  C687     1.0000 0.26380  0.43792  0.87949  Biso   1.000  C
  O134     1.0000 0.26871  0.62332  0.82933  Biso   1.000  O
  O135     1.0000 0.26870  0.62332  0.82928  Biso   1.000  O
  C688     1.0000 0.13527  0.32085  0.86051  Biso   1.000  C
  H752     1.0000 0.04232  0.39292  0.80190  Biso   1.000  H
  C689     1.0000 0.13532  0.32085  0.86046  Biso   1.000  C
  C690     1.0000 0.22028  0.81663  0.03448  Biso   1.000  C
  C691     1.0000 0.22035  0.81663  0.03448  Biso   1.000  C
  O136     1.0000 0.23888  0.89074  0.93621  Biso   1.000  O
  O137     1.0000 0.23895  0.89074  0.93621  Biso   1.000  O
  H753     1.0000 0.98690  0.86616  0.99491  Biso   1.000  H
  H754     1.0000 0.98695  0.86616  0.99486  Biso   1.000  H
  C692     1.0000 0.07959  0.80651  0.05980  Biso   1.000  C
  C693     1.0000 0.07966  0.80651  0.05980  Biso   1.000  C
  C694     1.0000 0.35510  0.45185  0.91109  Biso   1.000  C
  C695     1.0000 0.46158  0.61418  0.93672  Biso   1.000  C
  C696     1.0000 0.46163  0.61418  0.93667  Biso   1.000  C
  C697     1.0000 0.44249  0.77572  0.00238  Biso   1.000  C
  C698     1.0000 0.31541  0.79515  0.05379  Biso   1.000  C
  C699     1.0000 0.44255  0.77572  0.00238  Biso   1.000  C
  C700     1.0000 0.21771  0.33700  0.88958  Biso   1.000  C
  C701     1.0000 0.31271  0.62279  0.77751  Biso   1.000  C
  C702     1.0000 0.31270  0.62279  0.77746  Biso   1.000  C
  H755     1.0000 0.10408  0.25091  0.86812  Biso   1.000  H
  H756     1.0000 0.10413  0.25091  0.86807  Biso   1.000  H
  C703     1.0000 0.16569  0.78921  0.07429  Biso   1.000  C
  C704     1.0000 0.16575  0.78921  0.07429  Biso   1.000  C
  C705     1.0000 0.28281  0.00027  0.94392  Biso   1.000  C
  C706     1.0000 0.28280  0.00027  0.94387  Biso   1.000  C
  H757     1.0000 0.04269  0.78521  0.08859  Biso   1.000  H
  H758     1.0000 0.04275  0.78521  0.08859  Biso   1.000  H
  H759     1.0000 0.39130  0.43836  0.88068  Biso   1.000  H
  H760     1.0000 0.36620  0.38910  0.94071  Biso   1.000  H
  H761     1.0000 0.36625  0.38910  0.94066  Biso   1.000  H
  C707     1.0000 0.49069  0.71723  0.96588  Biso   1.000  C
  H762     1.0000 0.49638  0.57433  0.91132  Biso   1.000  H
  C708     1.0000 0.49076  0.71723  0.96588  Biso   1.000  C
  H763     1.0000 0.49643  0.57433  0.91127  Biso   1.000  H
  H764     1.0000 0.46312  0.84805  0.02219  Biso   1.000  H
  H765     1.0000 0.32230  0.75113  0.09148  Biso   1.000  H
  H766     1.0000 0.34181  0.87095  0.06282  Biso   1.000  H
  H767     1.0000 0.34180  0.87095  0.06278  Biso   1.000  H
  H768     1.0000 0.24358  0.27709  0.91732  Biso   1.000  H
  H769     1.0000 0.24363  0.27709  0.91728  Biso   1.000  H
  C709     1.0000 0.35387  0.74412  0.77742  Biso   1.000  C
  H770     1.0000 0.35477  0.56129  0.78141  Biso   1.000  H
  H771     1.0000 0.27391  0.61028  0.74041  Biso   1.000  H
  C710     1.0000 0.35393  0.74412  0.77737  Biso   1.000  C
  H772     1.0000 0.35483  0.56129  0.78136  Biso   1.000  H
  H773     1.0000 0.27390  0.61028  0.74037  Biso   1.000  H
  H774     1.0000 0.18799  0.75681  0.11372  Biso   1.000  H
  H775     1.0000 0.18804  0.75681  0.11368  Biso   1.000  H
  H776     1.0000 0.24331  0.06461  0.94300  Biso   1.000  H
  H777     1.0000 0.31962  0.00160  0.98262  Biso   1.000  H
  C711     1.0000 0.33291  0.01189  0.89311  Biso   1.000  C
  H778     1.0000 0.31961  0.00160  0.98257  Biso   1.000  H
  C712     1.0000 0.33290  0.01189  0.89306  Biso   1.000  C
  H779     1.0000 0.54519  0.74811  0.96061  Biso   1.000  H
  H780     1.0000 0.54524  0.74811  0.96056  Biso   1.000  H
  O138     1.0000 0.38782  0.75539  0.72280  Biso   1.000  O
  H781     1.0000 0.39802  0.75166  0.81190  Biso   1.000  H
  H782     1.0000 0.31260  0.80509  0.77998  Biso   1.000  H
  H783     1.0000 0.36408  0.94027  0.88898  Biso   1.000  H
  H784     1.0000 0.36414  0.94027  0.88898  Biso   1.000  H
  O139     1.0000 0.38791  0.10597  0.90581  Biso   1.000  O
  H785     1.0000 0.29582  0.02583  0.85519  Biso   1.000  H
  O140     1.0000 0.38790  0.10597  0.90577  Biso   1.000  O
  C713     1.0000 0.40990  0.86500  0.70519  Biso   1.000  C
  C714     1.0000 0.42539  0.14627  0.85670  Biso   1.000  C
  C715     1.0000 0.42545  0.14627  0.85670  Biso   1.000  C
  C716     1.0000 0.46030  0.94400  0.74142  Biso   1.000  C
  H786     1.0000 0.43656  0.85311  0.66938  Biso   1.000  H
  H787     1.0000 0.35769  0.90592  0.69148  Biso   1.000  H
  C717     1.0000 0.46029  0.94400  0.74137  Biso   1.000  C
  H788     1.0000 0.43662  0.85311  0.66938  Biso   1.000  H
  H789     1.0000 0.46066  0.21248  0.87128  Biso   1.000  H
  H790     1.0000 0.38068  0.17680  0.82671  Biso   1.000  H
  C718     1.0000 0.47350  0.07225  0.82630  Biso   1.000  C
  H791     1.0000 0.46073  0.21248  0.87128  Biso   1.000  H
  H792     1.0000 0.38074  0.17680  0.82667  Biso   1.000  H
  O141     1.0000 0.42337  0.99246  0.78718  Biso   1.000  O
  H793     1.0000 0.51133  0.90414  0.75912  Biso   1.000  H
  O142     1.0000 0.42343  0.99246  0.78718  Biso   1.000  O
  H794     1.0000 0.51132  0.90414  0.75907  Biso   1.000  H
  H795     1.0000 0.47601  0.00683  0.71588  Biso   1.000  H
  H796     1.0000 0.50677  0.11920  0.80259  Biso   1.000  H
  H797     1.0000 0.51170  0.02814  0.85578  Biso   1.000  H
  H798     1.0000 0.50683  0.11920  0.80259  Biso   1.000  H
  C719     1.0000 0.64490  0.54824  0.08891  Biso   1.000  C
  C720     1.0000 0.73620  0.56208  0.12051  Biso   1.000  C
  C721     1.0000 0.73625  0.56208  0.12046  Biso   1.000  C
  H799     1.0000 0.63380  0.61090  0.05929  Biso   1.000  H
  C722     1.0000 0.61732  0.43410  0.05691  Biso   1.000  C
  H800     1.0000 0.60870  0.56173  0.11932  Biso   1.000  H
  C723     1.0000 0.61731  0.43410  0.05686  Biso   1.000  C
  H801     1.0000 0.60876  0.56173  0.11927  Biso   1.000  H
  C724     1.0000 0.77519  0.47901  0.16150  Biso   1.000  C
  C725     1.0000 0.77525  0.47901  0.16150  Biso   1.000  C
  C726     1.0000 0.78229  0.66300  0.11042  Biso   1.000  C
  C727     1.0000 0.78235  0.66300  0.11037  Biso   1.000  C
  C728     1.0000 0.64495  0.54824  0.08887  Biso   1.000  C
  C729     1.0000 0.53842  0.38582  0.06328  Biso   1.000  C
  C730     1.0000 0.66392  0.37392  0.01871  Biso   1.000  C
  C731     1.0000 0.66391  0.37392  0.01866  Biso   1.000  C
  O143     1.0000 0.73129  0.37668  0.17067  Biso   1.000  O
  O144     1.0000 0.73135  0.37668  0.17067  Biso   1.000  O
  C732     1.0000 0.85912  0.49330  0.19232  Biso   1.000  C
  C733     1.0000 0.85911  0.49330  0.19227  Biso   1.000  C
  H802     1.0000 0.75642  0.72291  0.08268  Biso   1.000  H
  C734     1.0000 0.86473  0.67924  0.13949  Biso   1.000  C
  H803     1.0000 0.50362  0.42576  0.08868  Biso   1.000  H
  C735     1.0000 0.50931  0.28277  0.03412  Biso   1.000  C
  C736     1.0000 0.50930  0.28277  0.03407  Biso   1.000  C
  C737     1.0000 0.63571  0.26831  0.98909  Biso   1.000  C
  O145     1.0000 0.74547  0.41582  0.01389  Biso   1.000  O
  O146     1.0000 0.74553  0.41582  0.01389  Biso   1.000  O
  C738     1.0000 0.68729  0.37721  0.22249  Biso   1.000  C
  C739     1.0000 0.68735  0.37721  0.22249  Biso   1.000  C
  C740     1.0000 0.90031  0.59528  0.17861  Biso   1.000  C
  C741     1.0000 0.90170  0.40650  0.23822  Biso   1.000  C
  C742     1.0000 0.90030  0.59528  0.17856  Biso   1.000  C
  C743     1.0000 0.90176  0.40650  0.23817  Biso   1.000  C
  H804     1.0000 0.89592  0.74909  0.13188  Biso   1.000  H
  C744     1.0000 0.55751  0.22428  0.99762  Biso   1.000  C
  C745     1.0000 0.55751  0.22428  0.99757  Biso   1.000  C
  H805     1.0000 0.45481  0.25189  0.03939  Biso   1.000  H
  C746     1.0000 0.68459  0.20493  0.94621  Biso   1.000  C
  C747     1.0000 0.68465  0.20493  0.94617  Biso   1.000  C
  C748     1.0000 0.75328  0.49170  0.96410  Biso   1.000  C
  C749     1.0000 0.75334  0.49170  0.96410  Biso   1.000  C
  C750     1.0000 0.64613  0.25588  0.22258  Biso   1.000  C
  H806     1.0000 0.64523  0.43871  0.21859  Biso   1.000  H
  H807     1.0000 0.72609  0.38972  0.25959  Biso   1.000  H
  H808     1.0000 0.72615  0.38972  0.25959  Biso   1.000  H
  H809     1.0000 0.95768  0.60708  0.19810  Biso   1.000  H
  H810     1.0000 0.95774  0.60708  0.19810  Biso   1.000  H
  C751     1.0000 0.89432  0.27514  0.22300  Biso   1.000  C
  H811     1.0000 0.87974  0.41883  0.27582  Biso   1.000  H
  H812     1.0000 0.96089  0.42602  0.24579  Biso   1.000  H
  H813     1.0000 0.87973  0.41883  0.27578  Biso   1.000  H
  H814     1.0000 0.96096  0.42602  0.24579  Biso   1.000  H
  H815     1.0000 0.53688  0.15204  0.97781  Biso   1.000  H
  H816     1.0000 0.53693  0.15204  0.97776  Biso   1.000  H
  C752     1.0000 0.77972  0.18337  0.96552  Biso   1.000  C
  C753     1.0000 0.77971  0.18337  0.96547  Biso   1.000  C
  H817     1.0000 0.67770  0.24887  0.90852  Biso   1.000  H
  H818     1.0000 0.65819  0.12914  0.93718  Biso   1.000  H
  H819     1.0000 0.67769  0.24887  0.90847  Biso   1.000  H
  H820     1.0000 0.65825  0.12914  0.93718  Biso   1.000  H
  H821     1.0000 0.73193  0.45389  0.92590  Biso   1.000  H
  H822     1.0000 0.72253  0.56413  0.96721  Biso   1.000  H
  C754     1.0000 0.84710  0.51611  0.96850  Biso   1.000  C
  H823     1.0000 0.72252  0.56413  0.96717  Biso   1.000  H
  O147     1.0000 0.61218  0.24461  0.27720  Biso   1.000  O
  O148     1.0000 0.61224  0.24461  0.27720  Biso   1.000  O
  H824     1.0000 0.60198  0.24842  0.18810  Biso   1.000  H
  H825     1.0000 0.68740  0.19491  0.22002  Biso   1.000  H
  H826     1.0000 0.60205  0.24842  0.18810  Biso   1.000  H
  H827     1.0000 0.68745  0.19491  0.21997  Biso   1.000  H
  C755     1.0000 0.91863  0.23050  0.16999  Biso   1.000  C
  C756     1.0000 0.86530  0.19499  0.26372  Biso   1.000  C
  C757     1.0000 0.86535  0.19499  0.26367  Biso   1.000  C
  C758     1.0000 0.81391  0.13500  0.02132  Biso   1.000  C
  C759     1.0000 0.81390  0.13500  0.02128  Biso   1.000  C
  C760     1.0000 0.83431  0.21079  0.92571  Biso   1.000  C
  C761     1.0000 0.83430  0.21079  0.92567  Biso   1.000  C
  O149     1.0000 0.86317  0.57975  0.91654  Biso   1.000  O
  H828     1.0000 0.87769  0.44244  0.97120  Biso   1.000  H
  O150     1.0000 0.86323  0.57975  0.91654  Biso   1.000  O
  H829     1.0000 0.87775  0.44244  0.97120  Biso   1.000  H
  H830     1.0000 0.86632  0.56120  0.00491  Biso   1.000  H
  H831     1.0000 0.86631  0.56120  0.00486  Biso   1.000  H
  C762     1.0000 0.59010  0.13500  0.29481  Biso   1.000  C
  C763     1.0000 0.59017  0.13500  0.29481  Biso   1.000  C
  C764     1.0000 0.91113  0.10881  0.15632  Biso   1.000  C
  C765     1.0000 0.91112  0.10881  0.15628  Biso   1.000  C
  O151     1.0000 0.94499  0.30700  0.12821  Biso   1.000  O
  O152     1.0000 0.94504  0.30700  0.12817  Biso   1.000  O
  H832     1.0000 0.85000  0.22411  0.30141  Biso   1.000  H
  C766     1.0000 0.85820  0.07668  0.25111  Biso   1.000  C
  H833     1.0000 0.85005  0.22411  0.30136  Biso   1.000  H
  C767     1.0000 0.85827  0.07668  0.25111  Biso   1.000  C
  O153     1.0000 0.76112  0.10935  0.06379  Biso   1.000  O
  C768     1.0000 0.90137  0.11520  0.03820  Biso   1.000  C
  C769     1.0000 0.90144  0.11520  0.03820  Biso   1.000  C
  C770     1.0000 0.92041  0.19349  0.94020  Biso   1.000  C
  H834     1.0000 0.81201  0.24319  0.88628  Biso   1.000  H
  C771     1.0000 0.95138  0.59341  0.91599  Biso   1.000  C
  C772     1.0000 0.95144  0.59341  0.91599  Biso   1.000  C
  C773     1.0000 0.53970  0.05600  0.25858  Biso   1.000  C
  H835     1.0000 0.56344  0.14689  0.33062  Biso   1.000  H
  H836     1.0000 0.64231  0.09408  0.30852  Biso   1.000  H
  H837     1.0000 0.56343  0.14689  0.33057  Biso   1.000  H
  H838     1.0000 0.64236  0.09408  0.30847  Biso   1.000  H
  C774     1.0000 0.93629  0.05893  0.09868  Biso   1.000  C
  C775     1.0000 0.93636  0.05893  0.09868  Biso   1.000  C
  C776     1.0000 0.87991  0.03506  0.19791  Biso   1.000  C
  C777     1.0000 0.87990  0.03506  0.19787  Biso   1.000  C
  C778     1.0000 0.03379  0.32333  0.13321  Biso   1.000  C
  C779     1.0000 0.03384  0.32333  0.13316  Biso   1.000  C
  H839     1.0000 0.83809  0.02334  0.27958  Biso   1.000  H
  H840     1.0000 0.83815  0.02334  0.27958  Biso   1.000  H
  C780     1.0000 0.71719  0.99982  0.05608  Biso   1.000  C
  C781     1.0000 0.71725  0.99982  0.05608  Biso   1.000  C
  C782     1.0000 0.95299  0.14609  0.99551  Biso   1.000  C
  C783     1.0000 0.95304  0.14609  0.99546  Biso   1.000  C
  H841     1.0000 0.95731  0.21479  0.91141  Biso   1.000  H
  H842     1.0000 0.95730  0.21479  0.91136  Biso   1.000  H
  C784     1.0000 0.96621  0.67676  0.86679  Biso   1.000  C
  H843     1.0000 0.97801  0.62324  0.95488  Biso   1.000  H
  H844     1.0000 0.97612  0.51771  0.90930  Biso   1.000  H
  H845     1.0000 0.52399  0.99317  0.28412  Biso   1.000  H
  H846     1.0000 0.52404  0.99317  0.28408  Biso   1.000  H
  O154     1.0000 0.57663  0.00763  0.21282  Biso   1.000  O
  H847     1.0000 0.48867  0.09594  0.24088  Biso   1.000  H
  O155     1.0000 0.57662  0.00763  0.21277  Biso   1.000  O
  H848     1.0000 0.48873  0.09594  0.24088  Biso   1.000  H
  H849     1.0000 0.92047  0.97657  0.09648  Biso   1.000  H
  H850     1.0000 0.92054  0.97657  0.09648  Biso   1.000  H
  H851     1.0000 0.99708  0.06186  0.10281  Biso   1.000  H
  H852     1.0000 0.99714  0.06186  0.10276  Biso   1.000  H
  H853     1.0000 0.87342  0.95198  0.18879  Biso   1.000  H
  H854     1.0000 0.06132  0.24878  0.12849  Biso   1.000  H
  H855     1.0000 0.05591  0.35555  0.17269  Biso   1.000  H
  C785     1.0000 0.04862  0.40659  0.08401  Biso   1.000  C
  C786     1.0000 0.04861  0.40659  0.08396  Biso   1.000  C
  C787     1.0000 0.66709  0.98811  0.10689  Biso   1.000  C
  C788     1.0000 0.66715  0.98811  0.10689  Biso   1.000  C
  H856     1.0000 0.75669  0.93539  0.05700  Biso   1.000  H
  H857     1.0000 0.68038  0.99840  0.01738  Biso   1.000  H
  H858     1.0000 0.75675  0.93539  0.05700  Biso   1.000  H
  H859     1.0000 0.68044  0.99840  0.01738  Biso   1.000  H
  H860     1.0000 0.01310  0.13393  0.00509  Biso   1.000  H
  H861     1.0000 0.93868  0.75122  0.87151  Biso   1.000  H
  H862     1.0000 0.94409  0.64454  0.82731  Biso   1.000  H
  H863     1.0000 0.93873  0.75122  0.87147  Biso   1.000  H
  H864     1.0000 0.94414  0.64454  0.82726  Biso   1.000  H
  O156     1.0000 0.05501  0.69300  0.87179  Biso   1.000  O
  C789     1.0000 0.52650  0.92775  0.17370  Biso   1.000  C
  O157     1.0000 0.13683  0.42034  0.08346  Biso   1.000  O
  H865     1.0000 0.02199  0.37685  0.04512  Biso   1.000  H
  H866     1.0000 0.02388  0.48229  0.09070  Biso   1.000  H
  O158     1.0000 0.13682  0.42034  0.08341  Biso   1.000  O
  H867     1.0000 0.02204  0.37685  0.04508  Biso   1.000  H
  H868     1.0000 0.02395  0.48229  0.09070  Biso   1.000  H
  O159     1.0000 0.61209  0.89412  0.09419  Biso   1.000  O
  O160     1.0000 0.61215  0.89412  0.09419  Biso   1.000  O
  H869     1.0000 0.70418  0.97417  0.14481  Biso   1.000  H
  H870     1.0000 0.70423  0.97417  0.14477  Biso   1.000  H
  H871     1.0000 0.63592  0.05982  0.11102  Biso   1.000  H
  H872     1.0000 0.63591  0.05982  0.11097  Biso   1.000  H
  C790     1.0000 0.08137  0.76950  0.83001  Biso   1.000  C
  C791     1.0000 0.08142  0.76950  0.82997  Biso   1.000  C
  C792     1.0000 0.57461  0.85382  0.14330  Biso   1.000  C
  H873     1.0000 0.49323  0.88080  0.19741  Biso   1.000  H
  H874     1.0000 0.48830  0.97186  0.14422  Biso   1.000  H
  H875     1.0000 0.49322  0.88080  0.19736  Biso   1.000  H
  H876     1.0000 0.48835  0.97186  0.14417  Biso   1.000  H
  C793     1.0000 0.15290  0.48389  0.03150  Biso   1.000  C
  C794     1.0000 0.10568  0.72495  0.77700  Biso   1.000  C
  C795     1.0000 0.08887  0.89128  0.84368  Biso   1.000  C
  C796     1.0000 0.10575  0.72495  0.77700  Biso   1.000  C
  C797     1.0000 0.08893  0.89128  0.84368  Biso   1.000  C
  H877     1.0000 0.53934  0.78761  0.12872  Biso   1.000  H
  H878     1.0000 0.61932  0.82320  0.17329  Biso   1.000  H
  H879     1.0000 0.53933  0.78761  0.12867  Biso   1.000  H
  H880     1.0000 0.13368  0.43880  0.99509  Biso   1.000  H
  H881     1.0000 0.13374  0.43880  0.99509  Biso   1.000  H
  H882     1.0000 0.12231  0.55765  0.02880  Biso   1.000  H
  C798     1.0000 0.24672  0.50830  0.03590  Biso   1.000  C
  C799     1.0000 0.13470  0.80501  0.73628  Biso   1.000  C
  C800     1.0000 0.09830  0.59350  0.76178  Biso   1.000  C
  C801     1.0000 0.12009  0.96494  0.80209  Biso   1.000  C
  C802     1.0000 0.06371  0.94116  0.90132  Biso   1.000  C
  C803     1.0000 0.12015  0.96494  0.80209  Biso   1.000  C
  C804     1.0000 0.06370  0.94116  0.90127  Biso   1.000  C
  O161     1.0000 0.25453  0.58418  0.98611  Biso   1.000  O
  O162     1.0000 0.25452  0.58418  0.98606  Biso   1.000  O
  H883     1.0000 0.26807  0.54611  0.07410  Biso   1.000  H
  H884     1.0000 0.27747  0.43587  0.03279  Biso   1.000  H
  H885     1.0000 0.26814  0.54611  0.07410  Biso   1.000  H
  H886     1.0000 0.27754  0.43587  0.03279  Biso   1.000  H
  H887     1.0000 0.15000  0.77589  0.69859  Biso   1.000  H
  C805     1.0000 0.14180  0.92332  0.74889  Biso   1.000  C
  C806     1.0000 0.14088  0.50670  0.80768  Biso   1.000  C
  H888     1.0000 0.12026  0.58125  0.72418  Biso   1.000  H
  H889     1.0000 0.03911  0.57398  0.75421  Biso   1.000  H
  C807     1.0000 0.14094  0.50670  0.80768  Biso   1.000  C
  H890     1.0000 0.12032  0.58125  0.72418  Biso   1.000  H
  H891     1.0000 0.03910  0.57398  0.75417  Biso   1.000  H
  H892     1.0000 0.12658  0.04802  0.81121  Biso   1.000  H
  H893     1.0000 0.12663  0.04802  0.81117  Biso   1.000  H
  C808     1.0000 0.09863  0.88480  0.96180  Biso   1.000  C
  H894     1.0000 0.00292  0.93814  0.89719  Biso   1.000  H
  H895     1.0000 0.07953  0.02343  0.90352  Biso   1.000  H
  H896     1.0000 0.07952  0.02343  0.90347  Biso   1.000  H
  C809     1.0000 0.33608  0.62616  0.98129  Biso   1.000  C
  C810     1.0000 0.33614  0.62616  0.98129  Biso   1.000  C
  H897     1.0000 0.16191  0.97675  0.72042  Biso   1.000  H
  H898     1.0000 0.16190  0.97675  0.72037  Biso   1.000  H
  C811     1.0000 0.22481  0.52099  0.83850  Biso   1.000  C
  C812     1.0000 0.09969  0.40472  0.82139  Biso   1.000  C
  C813     1.0000 0.09975  0.40472  0.82139  Biso   1.000  C
  C814     1.0000 0.18609  0.86500  0.97868  Biso   1.000  C
  C815     1.0000 0.04701  0.85391  0.00449  Biso   1.000  C
  C816     1.0000 0.38268  0.56590  0.94309  Biso   1.000  C
  C817     1.0000 0.38274  0.56590  0.94309  Biso   1.000  C
  C818     1.0000 0.36429  0.73169  0.01091  Biso   1.000  C
  C819     1.0000 0.36434  0.73169  0.01087  Biso   1.000  C
  C820     1.0000 0.26380  0.43792  0.87949  Biso   1.000  C
  O163     1.0000 0.26871  0.62332  0.82933  Biso   1.000  O
  O164     1.0000 0.26870  0.62332  0.82928  Biso   1.000  O
  C821     1.0000 0.13527  0.32085  0.86051  Biso   1.000  C
  H899     1.0000 0.04232  0.39292  0.80190  Biso   1.000  H
  C822     1.0000 0.13532  0.32085  0.86046  Biso   1.000  C
  C823     1.0000 0.22028  0.81663  0.03448  Biso   1.000  C
  C824     1.0000 0.22035  0.81663  0.03448  Biso   1.000  C
  O165     1.0000 0.23888  0.89074  0.93621  Biso   1.000  O
  O166     1.0000 0.23895  0.89074  0.93621  Biso   1.000  O
  H900     1.0000 0.98690  0.86616  0.99491  Biso   1.000  H
  H901     1.0000 0.98695  0.86616  0.99486  Biso   1.000  H
  C825     1.0000 0.07959  0.80651  0.05980  Biso   1.000  C
  C826     1.0000 0.07966  0.80651  0.05980  Biso   1.000  C
  C827     1.0000 0.35510  0.45185  0.91109  Biso   1.000  C
  C828     1.0000 0.46158  0.61418  0.93672  Biso   1.000  C
  C829     1.0000 0.46163  0.61418  0.93667  Biso   1.000  C
  C830     1.0000 0.44249  0.77572  0.00238  Biso   1.000  C
  C831     1.0000 0.31541  0.79515  0.05379  Biso   1.000  C
  C832     1.0000 0.44255  0.77572  0.00238  Biso   1.000  C
  C833     1.0000 0.21771  0.33700  0.88958  Biso   1.000  C
  C834     1.0000 0.31271  0.62279  0.77751  Biso   1.000  C
  C835     1.0000 0.31270  0.62279  0.77746  Biso   1.000  C
  H902     1.0000 0.10408  0.25091  0.86812  Biso   1.000  H
  H903     1.0000 0.10413  0.25091  0.86807  Biso   1.000  H
  C836     1.0000 0.16569  0.78921  0.07429  Biso   1.000  C
  C837     1.0000 0.16575  0.78921  0.07429  Biso   1.000  C
  C838     1.0000 0.28281  0.00027  0.94392  Biso   1.000  C
  C839     1.0000 0.28280  0.00027  0.94387  Biso   1.000  C
  H904     1.0000 0.04269  0.78521  0.08859  Biso   1.000  H
  H905     1.0000 0.04275  0.78521  0.08859  Biso   1.000  H
  H906     1.0000 0.39130  0.43836  0.88068  Biso   1.000  H
  H907     1.0000 0.36620  0.38910  0.94071  Biso   1.000  H
  H908     1.0000 0.36625  0.38910  0.94066  Biso   1.000  H
  C840     1.0000 0.49069  0.71723  0.96588  Biso   1.000  C
  H909     1.0000 0.49638  0.57433  0.91132  Biso   1.000  H
  C841     1.0000 0.49076  0.71723  0.96588  Biso   1.000  C
  H910     1.0000 0.49643  0.57433  0.91127  Biso   1.000  H
  H911     1.0000 0.46312  0.84805  0.02219  Biso   1.000  H
  H912     1.0000 0.32230  0.75113  0.09148  Biso   1.000  H
  H913     1.0000 0.34181  0.87095  0.06282  Biso   1.000  H
  H914     1.0000 0.34180  0.87095  0.06278  Biso   1.000  H
  H915     1.0000 0.24358  0.27709  0.91732  Biso   1.000  H
  H916     1.0000 0.24363  0.27709  0.91728  Biso   1.000  H
  C842     1.0000 0.35387  0.74412  0.77742  Biso   1.000  C
  H917     1.0000 0.35477  0.56129  0.78141  Biso   1.000  H
  H918     1.0000 0.27391  0.61028  0.74041  Biso   1.000  H
  C843     1.0000 0.35393  0.74412  0.77737  Biso   1.000  C
  H919     1.0000 0.35483  0.56129  0.78136  Biso   1.000  H
  H920     1.0000 0.27390  0.61028  0.74037  Biso   1.000  H
  H921     1.0000 0.18799  0.75681  0.11372  Biso   1.000  H
  H922     1.0000 0.18804  0.75681  0.11368  Biso   1.000  H
  H923     1.0000 0.24331  0.06461  0.94300  Biso   1.000  H
  H924     1.0000 0.31962  0.00160  0.98262  Biso   1.000  H
  C844     1.0000 0.33291  0.01189  0.89311  Biso   1.000  C
  H925     1.0000 0.31961  0.00160  0.98257  Biso   1.000  H
  C845     1.0000 0.33290  0.01189  0.89306  Biso   1.000  C
  H926     1.0000 0.54519  0.74811  0.96061  Biso   1.000  H
  H927     1.0000 0.54524  0.74811  0.96056  Biso   1.000  H
  O167     1.0000 0.38782  0.75539  0.72280  Biso   1.000  O
  H928     1.0000 0.39802  0.75166  0.81190  Biso   1.000  H
  H929     1.0000 0.31260  0.80509  0.77998  Biso   1.000  H
  H930     1.0000 0.36408  0.94027  0.88898  Biso   1.000  H
  H931     1.0000 0.36414  0.94027  0.88898  Biso   1.000  H
  O168     1.0000 0.38791  0.10597  0.90581  Biso   1.000  O
  H932     1.0000 0.29582  0.02583  0.85519  Biso   1.000  H
  O169     1.0000 0.38790  0.10597  0.90577  Biso   1.000  O
  C846     1.0000 0.40990  0.86500  0.70519  Biso   1.000  C
  C847     1.0000 0.42539  0.14627  0.85670  Biso   1.000  C
  C848     1.0000 0.42545  0.14627  0.85670  Biso   1.000  C
  C849     1.0000 0.46030  0.94400  0.74142  Biso   1.000  C
  H933     1.0000 0.43656  0.85311  0.66938  Biso   1.000  H
  H934     1.0000 0.35769  0.90592  0.69148  Biso   1.000  H
  C850     1.0000 0.46029  0.94400  0.74137  Biso   1.000  C
  H935     1.0000 0.43662  0.85311  0.66938  Biso   1.000  H
  H936     1.0000 0.46066  0.21248  0.87128  Biso   1.000  H
  H937     1.0000 0.38068  0.17680  0.82671  Biso   1.000  H
  C851     1.0000 0.47350  0.07225  0.82630  Biso   1.000  C
  H938     1.0000 0.46073  0.21248  0.87128  Biso   1.000  H
  H939     1.0000 0.38074  0.17680  0.82667  Biso   1.000  H
  O170     1.0000 0.42337  0.99246  0.78718  Biso   1.000  O
  H940     1.0000 0.51133  0.90414  0.75912  Biso   1.000  H
  O171     1.0000 0.42343  0.99246  0.78718  Biso   1.000  O
  H941     1.0000 0.51132  0.90414  0.75907  Biso   1.000  H
  H942     1.0000 0.47601  0.00683  0.71588  Biso   1.000  H
  H943     1.0000 0.50677  0.11920  0.80259  Biso   1.000  H
  H944     1.0000 0.51170  0.02814  0.85578  Biso   1.000  H
  H945     1.0000 0.50683  0.11920  0.80259  Biso   1.000  H
  C852     1.0000 0.64490  0.54824  0.08891  Biso   1.000  C
  C853     1.0000 0.73620  0.56208  0.12051  Biso   1.000  C
  C854     1.0000 0.73625  0.56208  0.12046  Biso   1.000  C
  H946     1.0000 0.63380  0.61090  0.05929  Biso   1.000  H
  C855     1.0000 0.61732  0.43410  0.05691  Biso   1.000  C
  H947     1.0000 0.60870  0.56173  0.11932  Biso   1.000  H
  C856     1.0000 0.61731  0.43410  0.05686  Biso   1.000  C
  H948     1.0000 0.60876  0.56173  0.11927  Biso   1.000  H
  C857     1.0000 0.77519  0.47901  0.16150  Biso   1.000  C
  C858     1.0000 0.77525  0.47901  0.16150  Biso   1.000  C
  C859     1.0000 0.78229  0.66300  0.11042  Biso   1.000  C
  C860     1.0000 0.78235  0.66300  0.11037  Biso   1.000  C
  C861     1.0000 0.64495  0.54824  0.08887  Biso   1.000  C
  C862     1.0000 0.53842  0.38582  0.06328  Biso   1.000  C
  C863     1.0000 0.66392  0.37392  0.01871  Biso   1.000  C
  C864     1.0000 0.66391  0.37392  0.01866  Biso   1.000  C
  O172     1.0000 0.73129  0.37668  0.17067  Biso   1.000  O
  O173     1.0000 0.73135  0.37668  0.17067  Biso   1.000  O
  C865     1.0000 0.85912  0.49330  0.19232  Biso   1.000  C
  C866     1.0000 0.85911  0.49330  0.19227  Biso   1.000  C
  H949     1.0000 0.75642  0.72291  0.08268  Biso   1.000  H
  C867     1.0000 0.86473  0.67924  0.13949  Biso   1.000  C
  H950     1.0000 0.50362  0.42576  0.08868  Biso   1.000  H
  C868     1.0000 0.50931  0.28277  0.03412  Biso   1.000  C
  C869     1.0000 0.50930  0.28277  0.03407  Biso   1.000  C
  C870     1.0000 0.63571  0.26831  0.98909  Biso   1.000  C
  O174     1.0000 0.74547  0.41582  0.01389  Biso   1.000  O
  O175     1.0000 0.74553  0.41582  0.01389  Biso   1.000  O
  C871     1.0000 0.68729  0.37721  0.22249  Biso   1.000  C
  C872     1.0000 0.68735  0.37721  0.22249  Biso   1.000  C
  C873     1.0000 0.90031  0.59528  0.17861  Biso   1.000  C
  C874     1.0000 0.90170  0.40650  0.23822  Biso   1.000  C
  C875     1.0000 0.90030  0.59528  0.17856  Biso   1.000  C
  C876     1.0000 0.90176  0.40650  0.23817  Biso   1.000  C
  H951     1.0000 0.89592  0.74909  0.13188  Biso   1.000  H
  C877     1.0000 0.55751  0.22428  0.99762  Biso   1.000  C
  C878     1.0000 0.55751  0.22428  0.99757  Biso   1.000  C
  H952     1.0000 0.45481  0.25189  0.03939  Biso   1.000  H
  C879     1.0000 0.68459  0.20493  0.94621  Biso   1.000  C
  C880     1.0000 0.68465  0.20493  0.94617  Biso   1.000  C
  C881     1.0000 0.75328  0.49170  0.96410  Biso   1.000  C
  C882     1.0000 0.75334  0.49170  0.96410  Biso   1.000  C
  C883     1.0000 0.64613  0.25588  0.22258  Biso   1.000  C
  H953     1.0000 0.64523  0.43871  0.21859  Biso   1.000  H
  H954     1.0000 0.72609  0.38972  0.25959  Biso   1.000  H
  H955     1.0000 0.72615  0.38972  0.25959  Biso   1.000  H
  H956     1.0000 0.95768  0.60708  0.19810  Biso   1.000  H
  H957     1.0000 0.95774  0.60708  0.19810  Biso   1.000  H
  C884     1.0000 0.89432  0.27514  0.22300  Biso   1.000  C
  H958     1.0000 0.87974  0.41883  0.27582  Biso   1.000  H
  H959     1.0000 0.96089  0.42602  0.24579  Biso   1.000  H
  H960     1.0000 0.87973  0.41883  0.27578  Biso   1.000  H
  H961     1.0000 0.96096  0.42602  0.24579  Biso   1.000  H
  H962     1.0000 0.53688  0.15204  0.97781  Biso   1.000  H
  H963     1.0000 0.53693  0.15204  0.97776  Biso   1.000  H
  C885     1.0000 0.77972  0.18337  0.96552  Biso   1.000  C
  C886     1.0000 0.77971  0.18337  0.96547  Biso   1.000  C
  H964     1.0000 0.67770  0.24887  0.90852  Biso   1.000  H
  H965     1.0000 0.65819  0.12914  0.93718  Biso   1.000  H
  H966     1.0000 0.67769  0.24887  0.90847  Biso   1.000  H
  H967     1.0000 0.65825  0.12914  0.93718  Biso   1.000  H
  H968     1.0000 0.73193  0.45389  0.92590  Biso   1.000  H
  H969     1.0000 0.72253  0.56413  0.96721  Biso   1.000  H
  C887     1.0000 0.84710  0.51611  0.96850  Biso   1.000  C
  H970     1.0000 0.72252  0.56413  0.96717  Biso   1.000  H
  O176     1.0000 0.61218  0.24461  0.27720  Biso   1.000  O
  O177     1.0000 0.61224  0.24461  0.27720  Biso   1.000  O
  H971     1.0000 0.60198  0.24842  0.18810  Biso   1.000  H
  H972     1.0000 0.68740  0.19491  0.22002  Biso   1.000  H
  H973     1.0000 0.60205  0.24842  0.18810  Biso   1.000  H
  H974     1.0000 0.68745  0.19491  0.21997  Biso   1.000  H
  C888     1.0000 0.91863  0.23050  0.16999  Biso   1.000  C
  C889     1.0000 0.86530  0.19499  0.26372  Biso   1.000  C
  C890     1.0000 0.86535  0.19499  0.26367  Biso   1.000  C
  C891     1.0000 0.81391  0.13500  0.02132  Biso   1.000  C
  C892     1.0000 0.81390  0.13500  0.02128  Biso   1.000  C
  C893     1.0000 0.83431  0.21079  0.92571  Biso   1.000  C
  C894     1.0000 0.83430  0.21079  0.92567  Biso   1.000  C
  O178     1.0000 0.86317  0.57975  0.91654  Biso   1.000  O
  H975     1.0000 0.87769  0.44244  0.97120  Biso   1.000  H
  O179     1.0000 0.86323  0.57975  0.91654  Biso   1.000  O
  H976     1.0000 0.87775  0.44244  0.97120  Biso   1.000  H
  H977     1.0000 0.86632  0.56120  0.00491  Biso   1.000  H
  H978     1.0000 0.86631  0.56120  0.00486  Biso   1.000  H
  C895     1.0000 0.59010  0.13500  0.29481  Biso   1.000  C
  C896     1.0000 0.59017  0.13500  0.29481  Biso   1.000  C
  C897     1.0000 0.91113  0.10881  0.15632  Biso   1.000  C
  C898     1.0000 0.91112  0.10881  0.15628  Biso   1.000  C
  O180     1.0000 0.94499  0.30700  0.12821  Biso   1.000  O
  O181     1.0000 0.94504  0.30700  0.12817  Biso   1.000  O
  H979     1.0000 0.85000  0.22411  0.30141  Biso   1.000  H
  C899     1.0000 0.85820  0.07668  0.25111  Biso   1.000  C
  H980     1.0000 0.85005  0.22411  0.30136  Biso   1.000  H
  C900     1.0000 0.85827  0.07668  0.25111  Biso   1.000  C
  O182     1.0000 0.76112  0.10935  0.06379  Biso   1.000  O
  C901     1.0000 0.90137  0.11520  0.03820  Biso   1.000  C
  C902     1.0000 0.90144  0.11520  0.03820  Biso   1.000  C
  C903     1.0000 0.92041  0.19349  0.94020  Biso   1.000  C
  H981     1.0000 0.81201  0.24319  0.88628  Biso   1.000  H
  C904     1.0000 0.95138  0.59341  0.91599  Biso   1.000  C
  C905     1.0000 0.95144  0.59341  0.91599  Biso   1.000  C
  C906     1.0000 0.53970  0.05600  0.25858  Biso   1.000  C
  H982     1.0000 0.56344  0.14689  0.33062  Biso   1.000  H
  H983     1.0000 0.64231  0.09408  0.30852  Biso   1.000  H
  H984     1.0000 0.56343  0.14689  0.33057  Biso   1.000  H
  H985     1.0000 0.64236  0.09408  0.30847  Biso   1.000  H
  C907     1.0000 0.93629  0.05893  0.09868  Biso   1.000  C
  C908     1.0000 0.93636  0.05893  0.09868  Biso   1.000  C
  C909     1.0000 0.87991  0.03506  0.19791  Biso   1.000  C
  C910     1.0000 0.87990  0.03506  0.19787  Biso   1.000  C
  C911     1.0000 0.03379  0.32333  0.13321  Biso   1.000  C
  C912     1.0000 0.03384  0.32333  0.13316  Biso   1.000  C
  H986     1.0000 0.83809  0.02334  0.27958  Biso   1.000  H
  H987     1.0000 0.83815  0.02334  0.27958  Biso   1.000  H
  C913     1.0000 0.71719  0.99982  0.05608  Biso   1.000  C
  C914     1.0000 0.71725  0.99982  0.05608  Biso   1.000  C
  C915     1.0000 0.95299  0.14609  0.99551  Biso   1.000  C
  C916     1.0000 0.95304  0.14609  0.99546  Biso   1.000  C
  H988     1.0000 0.95731  0.21479  0.91141  Biso   1.000  H
  H989     1.0000 0.95730  0.21479  0.91136  Biso   1.000  H
  C917     1.0000 0.96621  0.67676  0.86679  Biso   1.000  C
  H990     1.0000 0.97801  0.62324  0.95488  Biso   1.000  H
  H991     1.0000 0.97612  0.51771  0.90930  Biso   1.000  H
  H992     1.0000 0.52399  0.99317  0.28412  Biso   1.000  H
  H993     1.0000 0.52404  0.99317  0.28408  Biso   1.000  H
  O183     1.0000 0.57663  0.00763  0.21282  Biso   1.000  O
  H994     1.0000 0.48867  0.09594  0.24088  Biso   1.000  H
  O184     1.0000 0.57662  0.00763  0.21277  Biso   1.000  O
  H995     1.0000 0.48873  0.09594  0.24088  Biso   1.000  H
  H996     1.0000 0.92047  0.97657  0.09648  Biso   1.000  H
  H997     1.0000 0.92054  0.97657  0.09648  Biso   1.000  H
  H998     1.0000 0.99708  0.06186  0.10281  Biso   1.000  H
  H999     1.0000 0.99714  0.06186  0.10276  Biso   1.000  H
  H1000    1.0000 0.87342  0.95198  0.18879  Biso   1.000  H
  H1001    1.0000 0.06132  0.24878  0.12849  Biso   1.000  H
  H1002    1.0000 0.05591  0.35555  0.17269  Biso   1.000  H
  C918     1.0000 0.04862  0.40659  0.08401  Biso   1.000  C
  C919     1.0000 0.04861  0.40659  0.08396  Biso   1.000  C
  C920     1.0000 0.66709  0.98811  0.10689  Biso   1.000  C
  C921     1.0000 0.66715  0.98811  0.10689  Biso   1.000  C
  H1003    1.0000 0.75669  0.93539  0.05700  Biso   1.000  H
  H1004    1.0000 0.68038  0.99840  0.01738  Biso   1.000  H
  H1005    1.0000 0.75675  0.93539  0.05700  Biso   1.000  H
  H1006    1.0000 0.68044  0.99840  0.01738  Biso   1.000  H
  H1007    1.0000 0.01310  0.13393  0.00509  Biso   1.000  H
  H1008    1.0000 0.93868  0.75122  0.87151  Biso   1.000  H
  H1009    1.0000 0.94409  0.64454  0.82731  Biso   1.000  H
  H1010    1.0000 0.93873  0.75122  0.87147  Biso   1.000  H
  H1011    1.0000 0.94414  0.64454  0.82726  Biso   1.000  H
  O185     1.0000 0.05501  0.69300  0.87179  Biso   1.000  O
  C922     1.0000 0.52650  0.92775  0.17370  Biso   1.000  C
  O186     1.0000 0.13683  0.42034  0.08346  Biso   1.000  O
  H1012    1.0000 0.02199  0.37685  0.04512  Biso   1.000  H
  H1013    1.0000 0.02388  0.48229  0.09070  Biso   1.000  H
  O187     1.0000 0.13682  0.42034  0.08341  Biso   1.000  O
  H1014    1.0000 0.02204  0.37685  0.04508  Biso   1.000  H
  H1015    1.0000 0.02395  0.48229  0.09070  Biso   1.000  H
  O188     1.0000 0.61209  0.89412  0.09419  Biso   1.000  O
  O189     1.0000 0.61215  0.89412  0.09419  Biso   1.000  O
  H1016    1.0000 0.70418  0.97417  0.14481  Biso   1.000  H
  H1017    1.0000 0.70423  0.97417  0.14477  Biso   1.000  H
  H1018    1.0000 0.63592  0.05982  0.11102  Biso   1.000  H
  H1019    1.0000 0.63591  0.05982  0.11097  Biso   1.000  H
  C923     1.0000 0.08137  0.76950  0.83001  Biso   1.000  C
  C924     1.0000 0.08142  0.76950  0.82997  Biso   1.000  C
  C925     1.0000 0.57461  0.85382  0.14330  Biso   1.000  C
  H1020    1.0000 0.49323  0.88080  0.19741  Biso   1.000  H
  H1021    1.0000 0.48830  0.97186  0.14422  Biso   1.000  H
  H1022    1.0000 0.49322  0.88080  0.19736  Biso   1.000  H
  H1023    1.0000 0.48835  0.97186  0.14417  Biso   1.000  H
  C926     1.0000 0.15290  0.48389  0.03150  Biso   1.000  C
  C927     1.0000 0.10568  0.72495  0.77700  Biso   1.000  C
  C928     1.0000 0.08887  0.89128  0.84368  Biso   1.000  C
  C929     1.0000 0.10575  0.72495  0.77700  Biso   1.000  C
  C930     1.0000 0.08893  0.89128  0.84368  Biso   1.000  C
  H1024    1.0000 0.53934  0.78761  0.12872  Biso   1.000  H
  H1025    1.0000 0.61932  0.82320  0.17329  Biso   1.000  H
  H1026    1.0000 0.53933  0.78761  0.12867  Biso   1.000  H
  H1027    1.0000 0.13368  0.43880  0.99509  Biso   1.000  H
  H1028    1.0000 0.13374  0.43880  0.99509  Biso   1.000  H
  H1029    1.0000 0.12231  0.55765  0.02880  Biso   1.000  H
  C931     1.0000 0.24672  0.50830  0.03590  Biso   1.000  C
  C932     1.0000 0.13470  0.80501  0.73628  Biso   1.000  C
  C933     1.0000 0.09830  0.59350  0.76178  Biso   1.000  C
  C934     1.0000 0.12009  0.96494  0.80209  Biso   1.000  C
  C935     1.0000 0.06371  0.94116  0.90132  Biso   1.000  C
  C936     1.0000 0.12015  0.96494  0.80209  Biso   1.000  C
  C937     1.0000 0.06370  0.94116  0.90127  Biso   1.000  C
  O190     1.0000 0.25453  0.58418  0.98611  Biso   1.000  O
  O191     1.0000 0.25452  0.58418  0.98606  Biso   1.000  O
  H1030    1.0000 0.26807  0.54611  0.07410  Biso   1.000  H
  H1031    1.0000 0.27747  0.43587  0.03279  Biso   1.000  H
  H1032    1.0000 0.26814  0.54611  0.07410  Biso   1.000  H
  H1033    1.0000 0.27754  0.43587  0.03279  Biso   1.000  H
  H1034    1.0000 0.15000  0.77589  0.69859  Biso   1.000  H
  C938     1.0000 0.14180  0.92332  0.74889  Biso   1.000  C
  C939     1.0000 0.14088  0.50670  0.80768  Biso   1.000  C
  H1035    1.0000 0.12026  0.58125  0.72418  Biso   1.000  H
  H1036    1.0000 0.03911  0.57398  0.75421  Biso   1.000  H
  C940     1.0000 0.14094  0.50670  0.80768  Biso   1.000  C
  H1037    1.0000 0.12032  0.58125  0.72418  Biso   1.000  H
  H1038    1.0000 0.03910  0.57398  0.75417  Biso   1.000  H
  H1039    1.0000 0.12658  0.04802  0.81121  Biso   1.000  H
  H1040    1.0000 0.12663  0.04802  0.81117  Biso   1.000  H
  C941     1.0000 0.09863  0.88480  0.96180  Biso   1.000  C
  H1041    1.0000 0.00292  0.93814  0.89719  Biso   1.000  H
  H1042    1.0000 0.07953  0.02343  0.90352  Biso   1.000  H
  H1043    1.0000 0.07952  0.02343  0.90347  Biso   1.000  H
  C942     1.0000 0.33608  0.62616  0.98129  Biso   1.000  C
  C943     1.0000 0.33614  0.62616  0.98129  Biso   1.000  C
  H1044    1.0000 0.16191  0.97675  0.72042  Biso   1.000  H
  H1045    1.0000 0.16190  0.97675  0.72037  Biso   1.000  H
  C944     1.0000 0.22481  0.52099  0.83850  Biso   1.000  C
  C945     1.0000 0.09969  0.40472  0.82139  Biso   1.000  C
  C946     1.0000 0.09975  0.40472  0.82139  Biso   1.000  C
  C947     1.0000 0.18609  0.86500  0.97868  Biso   1.000  C
  C948     1.0000 0.04701  0.85391  0.00449  Biso   1.000  C
  C949     1.0000 0.38268  0.56590  0.94309  Biso   1.000  C
  C950     1.0000 0.38274  0.56590  0.94309  Biso   1.000  C
  C951     1.0000 0.36429  0.73169  0.01091  Biso   1.000  C
  C952     1.0000 0.36434  0.73169  0.01087  Biso   1.000  C
  C953     1.0000 0.26380  0.43792  0.87949  Biso   1.000  C
  O192     1.0000 0.26871  0.62332  0.82933  Biso   1.000  O
  O193     1.0000 0.26870  0.62332  0.82928  Biso   1.000  O
  C954     1.0000 0.13527  0.32085  0.86051  Biso   1.000  C
  H1046    1.0000 0.04232  0.39292  0.80190  Biso   1.000  H
  C955     1.0000 0.13532  0.32085  0.86046  Biso   1.000  C
  C956     1.0000 0.22028  0.81663  0.03448  Biso   1.000  C
  C957     1.0000 0.22035  0.81663  0.03448  Biso   1.000  C
  O194     1.0000 0.23888  0.89074  0.93621  Biso   1.000  O
  O195     1.0000 0.23895  0.89074  0.93621  Biso   1.000  O
  H1047    1.0000 0.98690  0.86616  0.99491  Biso   1.000  H
  H1048    1.0000 0.98695  0.86616  0.99486  Biso   1.000  H
  C958     1.0000 0.07959  0.80651  0.05980  Biso   1.000  C
  C959     1.0000 0.07966  0.80651  0.05980  Biso   1.000  C
  C960     1.0000 0.35510  0.45185  0.91109  Biso   1.000  C
  C961     1.0000 0.46158  0.61418  0.93672  Biso   1.000  C
  C962     1.0000 0.46163  0.61418  0.93667  Biso   1.000  C
  C963     1.0000 0.44249  0.77572  0.00238  Biso   1.000  C
  C964     1.0000 0.31541  0.79515  0.05379  Biso   1.000  C
  C965     1.0000 0.44255  0.77572  0.00238  Biso   1.000  C
  C966     1.0000 0.21771  0.33700  0.88958  Biso   1.000  C
  C967     1.0000 0.31271  0.62279  0.77751  Biso   1.000  C
  C968     1.0000 0.31270  0.62279  0.77746  Biso   1.000  C
  H1049    1.0000 0.10408  0.25091  0.86812  Biso   1.000  H
  H1050    1.0000 0.10413  0.25091  0.86807  Biso   1.000  H
  C969     1.0000 0.16569  0.78921  0.07429  Biso   1.000  C
  C970     1.0000 0.16575  0.78921  0.07429  Biso   1.000  C
  C971     1.0000 0.28281  0.00027  0.94392  Biso   1.000  C
  C972     1.0000 0.28280  0.00027  0.94387  Biso   1.000  C
  H1051    1.0000 0.04269  0.78521  0.08859  Biso   1.000  H
  H1052    1.0000 0.04275  0.78521  0.08859  Biso   1.000  H
  H1053    1.0000 0.39130  0.43836  0.88068  Biso   1.000  H
  H1054    1.0000 0.36620  0.38910  0.94071  Biso   1.000  H
  H1055    1.0000 0.36625  0.38910  0.94066  Biso   1.000  H
  C973     1.0000 0.49069  0.71723  0.96588  Biso   1.000  C
  H1056    1.0000 0.49638  0.57433  0.91132  Biso   1.000  H
  C974     1.0000 0.49076  0.71723  0.96588  Biso   1.000  C
  H1057    1.0000 0.49643  0.57433  0.91127  Biso   1.000  H
  H1058    1.0000 0.46312  0.84805  0.02219  Biso   1.000  H
  H1059    1.0000 0.32230  0.75113  0.09148  Biso   1.000  H
  H1060    1.0000 0.34181  0.87095  0.06282  Biso   1.000  H
  H1061    1.0000 0.34180  0.87095  0.06278  Biso   1.000  H
  H1062    1.0000 0.24358  0.27709  0.91732  Biso   1.000  H
  H1063    1.0000 0.24363  0.27709  0.91728  Biso   1.000  H
  C975     1.0000 0.35387  0.74412  0.77742  Biso   1.000  C
  H1064    1.0000 0.35477  0.56129  0.78141  Biso   1.000  H
  H1065    1.0000 0.27391  0.61028  0.74041  Biso   1.000  H
  C976     1.0000 0.35393  0.74412  0.77737  Biso   1.000  C
  H1066    1.0000 0.35483  0.56129  0.78136  Biso   1.000  H
  H1067    1.0000 0.27390  0.61028  0.74037  Biso   1.000  H
  H1068    1.0000 0.18799  0.75681  0.11372  Biso   1.000  H
  H1069    1.0000 0.18804  0.75681  0.11368  Biso   1.000  H
  H1070    1.0000 0.24331  0.06461  0.94300  Biso   1.000  H
  H1071    1.0000 0.31962  0.00160  0.98262  Biso   1.000  H
  C977     1.0000 0.33291  0.01189  0.89311  Biso   1.000  C
  H1072    1.0000 0.31961  0.00160  0.98257  Biso   1.000  H
  C978     1.0000 0.33290  0.01189  0.89306  Biso   1.000  C
  H1073    1.0000 0.54519  0.74811  0.96061  Biso   1.000  H
  H1074    1.0000 0.54524  0.74811  0.96056  Biso   1.000  H
  O196     1.0000 0.38782  0.75539  0.72280  Biso   1.000  O
  H1075    1.0000 0.39802  0.75166  0.81190  Biso   1.000  H
  H1076    1.0000 0.31260  0.80509  0.77998  Biso   1.000  H
  H1077    1.0000 0.36408  0.94027  0.88898  Biso   1.000  H
  H1078    1.0000 0.36414  0.94027  0.88898  Biso   1.000  H
  O197     1.0000 0.38791  0.10597  0.90581  Biso   1.000  O
  H1079    1.0000 0.29582  0.02583  0.85519  Biso   1.000  H
  O198     1.0000 0.38790  0.10597  0.90577  Biso   1.000  O
  C979     1.0000 0.40990  0.86500  0.70519  Biso   1.000  C
  C980     1.0000 0.42539  0.14627  0.85670  Biso   1.000  C
  C981     1.0000 0.42545  0.14627  0.85670  Biso   1.000  C
  C982     1.0000 0.46030  0.94400  0.74142  Biso   1.000  C
  H1080    1.0000 0.43656  0.85311  0.66938  Biso   1.000  H
  H1081    1.0000 0.35769  0.90592  0.69148  Biso   1.000  H
  C983     1.0000 0.46029  0.94400  0.74137  Biso   1.000  C
  H1082    1.0000 0.43662  0.85311  0.66938  Biso   1.000  H
  H1083    1.0000 0.46066  0.21248  0.87128  Biso   1.000  H
  H1084    1.0000 0.38068  0.17680  0.82671  Biso   1.000  H
  C984     1.0000 0.47350  0.07225  0.82630  Biso   1.000  C
  H1085    1.0000 0.46073  0.21248  0.87128  Biso   1.000  H
  H1086    1.0000 0.38074  0.17680  0.82667  Biso   1.000  H
  O199     1.0000 0.42337  0.99246  0.78718  Biso   1.000  O
  H1087    1.0000 0.51133  0.90414  0.75912  Biso   1.000  H
  O200     1.0000 0.42343  0.99246  0.78718  Biso   1.000  O
  H1088    1.0000 0.51132  0.90414  0.75907  Biso   1.000  H
  H1089    1.0000 0.47601  0.00683  0.71588  Biso   1.000  H
  H1090    1.0000 0.50677  0.11920  0.80259  Biso   1.000  H
  H1091    1.0000 0.51170  0.02814  0.85578  Biso   1.000  H
  H1092    1.0000 0.50683  0.11920  0.80259  Biso   1.000  H
