data_image0
_cell_length_a       8.356
_cell_length_b       17.029
_cell_length_c       11.059
_cell_angle_alpha    90
_cell_angle_beta     111.26
_cell_angle_gamma    90

_symmetry_space_group_name_H-M    "P 1"
_symmetry_int_tables_number       1

loop_
  _symmetry_equiv_pos_as_xyz
  'x, y, z'

loop_
  _atom_site_label
  _atom_site_occupancy
  _atom_site_fract_x
  _atom_site_fract_y
  _atom_site_fract_z
  _atom_site_thermal_displace_type
  _atom_site_B_iso_or_equiv
  _atom_site_type_symbol
  C1       1.0000 0.99312  0.86541  0.92781  Biso   1.000  C
  O1       1.0000 0.04372  0.78572  0.92975  Biso   1.000  O
  O2       1.0000 0.04376  0.78572  0.92985  Biso   1.000  O
  C2       1.0000 0.90164  0.89001  0.78955  Biso   1.000  C
  H1       1.0000 0.91799  0.87098  0.97400  Biso   1.000  H
  H2       1.0000 0.09105  0.89700  0.96604  Biso   1.000  H
  C3       1.0000 0.02679  0.74068  0.03163  Biso   1.000  C
  C4       1.0000 0.94275  0.95373  0.73706  Biso   1.000  C
  C5       1.0000 0.75579  0.83522  0.71930  Biso   1.000  C
  C6       1.0000 0.94279  0.95373  0.73715  Biso   1.000  C
  C7       1.0000 0.17295  0.74819  0.15689  Biso   1.000  C
  H3       1.0000 0.01797  0.68700  0.00602  Biso   1.000  H
  H4       1.0000 0.92499  0.75700  0.04395  Biso   1.000  H
  H5       1.0000 0.92504  0.75700  0.04405  Biso   1.000  H
  C8       1.0000 0.84975  0.97980  0.59889  Biso   1.000  C
  C9       1.0000 0.08320  0.00981  0.80954  Biso   1.000  C
  O3       1.0000 0.64812  0.82142  0.79120  Biso   1.000  O
  H6       1.0000 0.68901  0.85801  0.63799  Biso   1.000  H
  H7       1.0000 0.80196  0.78701  0.70504  Biso   1.000  H
  O4       1.0000 0.17792  0.82500  0.20715  Biso   1.000  O
  H8       1.0000 0.27697  0.73798  0.14399  Biso   1.000  H
  H9       1.0000 0.15893  0.71102  0.21695  Biso   1.000  H
  O5       1.0000 0.17796  0.82500  0.20725  Biso   1.000  O
  H10      1.0000 0.15897  0.71102  0.21705  Biso   1.000  H
  H11      1.0000 0.74399  0.95202  0.56503  Biso   1.000  H
  H12      1.0000 0.91905  0.96800  0.54902  Biso   1.000  H
  O6       1.0000 0.81589  0.06148  0.59142  Biso   1.000  O
  H13      1.0000 0.14996  0.98802  0.89104  Biso   1.000  H
  H14      1.0000 0.03399  0.05802  0.82195  Biso   1.000  H
  O7       1.0000 0.18965  0.02331  0.73609  Biso   1.000  O
  H15      1.0000 0.03404  0.05802  0.82205  Biso   1.000  H
  O8       1.0000 0.18970  0.02331  0.73618  Biso   1.000  O
  C10      1.0000 0.55038  0.88801  0.79799  Biso   1.000  C
  C11      1.0000 0.30901  0.83428  0.32970  Biso   1.000  C
  C12      1.0000 0.68022  0.08127  0.63314  Biso   1.000  C
  C13      1.0000 0.25394  0.10083  0.74637  Biso   1.000  C
  C14      1.0000 0.25399  0.10083  0.74647  Biso   1.000  C
  C15      1.0000 0.49165  0.87968  0.90928  Biso   1.000  C
  H16      1.0000 0.61898  0.93399  0.81002  Biso   1.000  H
  H17      1.0000 0.45298  0.89201  0.71998  Biso   1.000  H
  C16      1.0000 0.49169  0.87968  0.90938  Biso   1.000  C
  H18      1.0000 0.45303  0.89201  0.72008  Biso   1.000  H
  C17      1.0000 0.31978  0.91873  0.36686  Biso   1.000  C
  H19      1.0000 0.41495  0.81802  0.32601  Biso   1.000  H
  H20      1.0000 0.28302  0.80398  0.39199  Biso   1.000  H
  C18      1.0000 0.31983  0.91873  0.36696  Biso   1.000  C
  C19      1.0000 0.69099  0.16572  0.67030  Biso   1.000  C
  H21      1.0000 0.68802  0.04997  0.70601  Biso   1.000  H
  H22      1.0000 0.57405  0.07199  0.56503  Biso   1.000  H
  C20      1.0000 0.41055  0.11422  0.86348  Biso   1.000  C
  H23      1.0000 0.28099  0.11099  0.67205  Biso   1.000  H
  H24      1.0000 0.16700  0.13600  0.74899  Biso   1.000  H
  C21      1.0000 0.41060  0.11422  0.86358  Biso   1.000  C
  H25      1.0000 0.40700  0.91902  0.90297  Biso   1.000  H
  H26      1.0000 0.44401  0.82900  0.90802  Biso   1.000  H
  H27      1.0000 0.40705  0.91902  0.90307  Biso   1.000  H
  O9       1.0000 0.63329  0.89013  0.02513  Biso   1.000  O
  O10      1.0000 0.18411  0.93852  0.40858  Biso   1.000  O
  H28      1.0000 0.31198  0.95003  0.29399  Biso   1.000  H
  H29      1.0000 0.42595  0.92801  0.43497  Biso   1.000  H
  O11      1.0000 0.18416  0.93852  0.40868  Biso   1.000  O
  H30      1.0000 0.42600  0.92801  0.43507  Biso   1.000  H
  O12      1.0000 0.82208  0.17500  0.79285  Biso   1.000  O
  H31      1.0000 0.58505  0.18198  0.67399  Biso   1.000  H
  H32      1.0000 0.71698  0.19602  0.60801  Biso   1.000  H
  O13      1.0000 0.36671  0.10987  0.97487  Biso   1.000  O
  H33      1.0000 0.49304  0.07499  0.86804  Biso   1.000  H
  H34      1.0000 0.45604  0.16501  0.85902  Biso   1.000  H
  O14      1.0000 0.36676  0.10987  0.97497  Biso   1.000  O
  C22      1.0000 0.58945  0.88578  0.13652  Biso   1.000  C
  C23      1.0000 0.15025  0.02020  0.40111  Biso   1.000  C
  C24      1.0000 0.82705  0.25181  0.84311  Biso   1.000  C
  C25      1.0000 0.50835  0.12032  0.09072  Biso   1.000  C
  C26      1.0000 0.74606  0.89917  0.25363  Biso   1.000  C
  H35      1.0000 0.50696  0.92501  0.13196  Biso   1.000  H
  H36      1.0000 0.54396  0.83499  0.14098  Biso   1.000  H
  H37      1.0000 0.50701  0.92501  0.13205  Biso   1.000  H
  H38      1.0000 0.54401  0.83499  0.14108  Biso   1.000  H
  C27      1.0000 0.05725  0.04627  0.26294  Biso   1.000  C
  H39      1.0000 0.25601  0.04798  0.43497  Biso   1.000  H
  H40      1.0000 0.08095  0.03200  0.45098  Biso   1.000  H
  H41      1.0000 0.25606  0.04798  0.43507  Biso   1.000  H
  H42      1.0000 0.08100  0.03200  0.45108  Biso   1.000  H
  C28      1.0000 0.97321  0.25932  0.96837  Biso   1.000  C
  C29      1.0000 0.97326  0.25932  0.96847  Biso   1.000  C
  H43      1.0000 0.72303  0.26202  0.85601  Biso   1.000  H
  H44      1.0000 0.84107  0.28898  0.78305  Biso   1.000  H
  C30      1.0000 0.44962  0.11199  0.20201  Biso   1.000  C
  H45      1.0000 0.59300  0.08098  0.09703  Biso   1.000  H
  H46      1.0000 0.55599  0.17100  0.09198  Biso   1.000  H
  H47      1.0000 0.55604  0.17100  0.09208  Biso   1.000  H
  O15      1.0000 0.81035  0.97669  0.26391  Biso   1.000  O
  H48      1.0000 0.71901  0.88901  0.32795  Biso   1.000  H
  H49      1.0000 0.83300  0.86400  0.25101  Biso   1.000  H
  H50      1.0000 0.71906  0.88901  0.32805  Biso   1.000  H
  C31      1.0000 0.91680  0.99019  0.19046  Biso   1.000  C
  C32      1.0000 0.91684  0.99019  0.19056  Biso   1.000  C
  C33      1.0000 0.09836  0.10999  0.21045  Biso   1.000  C
  C34      1.0000 0.09841  0.10999  0.21055  Biso   1.000  C
  O16      1.0000 0.95628  0.21428  0.07025  Biso   1.000  O
  H51      1.0000 0.98203  0.31300  0.99398  Biso   1.000  H
  H52      1.0000 0.98208  0.31300  0.99408  Biso   1.000  H
  H53      1.0000 0.07501  0.24300  0.95605  Biso   1.000  H
  O17      1.0000 0.35188  0.17858  0.20880  Biso   1.000  O
  H54      1.0000 0.38102  0.06601  0.18998  Biso   1.000  H
  H55      1.0000 0.54702  0.10799  0.28002  Biso   1.000  H
  H56      1.0000 0.38107  0.06601  0.19008  Biso   1.000  H
  H57      1.0000 0.96601  0.94198  0.17805  Biso   1.000  H
  H58      1.0000 0.85004  0.01198  0.10896  Biso   1.000  H
  H59      1.0000 0.85009  0.01198  0.10906  Biso   1.000  H
  C35      1.0000 0.00688  0.13459  0.07219  Biso   1.000  C
  C36      1.0000 0.24421  0.16478  0.28070  Biso   1.000  C
  H60      1.0000 0.90895  0.10300  0.03396  Biso   1.000  H
  H61      1.0000 0.90900  0.10300  0.03406  Biso   1.000  H
  H62      1.0000 0.08201  0.12902  0.02600  Biso   1.000  H
  H63      1.0000 0.31099  0.14199  0.36201  Biso   1.000  H
  H64      1.0000 0.19804  0.21299  0.29496  Biso   1.000  H
  H65      1.0000 0.19808  0.21299  0.29506  Biso   1.000  H
  C37      1.0000 0.99312  0.86541  0.92781  Biso   1.000  C
  O18      1.0000 0.04372  0.78572  0.92975  Biso   1.000  O
  O19      1.0000 0.04376  0.78572  0.92985  Biso   1.000  O
  C38      1.0000 0.90164  0.89001  0.78955  Biso   1.000  C
  H66      1.0000 0.91799  0.87098  0.97400  Biso   1.000  H
  H67      1.0000 0.09105  0.89700  0.96604  Biso   1.000  H
  C39      1.0000 0.02679  0.74068  0.03163  Biso   1.000  C
  C40      1.0000 0.94275  0.95373  0.73706  Biso   1.000  C
  C41      1.0000 0.75579  0.83522  0.71930  Biso   1.000  C
  C42      1.0000 0.94279  0.95373  0.73715  Biso   1.000  C
  C43      1.0000 0.17295  0.74819  0.15689  Biso   1.000  C
  H68      1.0000 0.01797  0.68700  0.00602  Biso   1.000  H
  H69      1.0000 0.92499  0.75700  0.04395  Biso   1.000  H
  H70      1.0000 0.92504  0.75700  0.04405  Biso   1.000  H
  C44      1.0000 0.84975  0.97980  0.59889  Biso   1.000  C
  C45      1.0000 0.08320  0.00981  0.80954  Biso   1.000  C
  O20      1.0000 0.64812  0.82142  0.79120  Biso   1.000  O
  H71      1.0000 0.68901  0.85801  0.63799  Biso   1.000  H
  H72      1.0000 0.80196  0.78701  0.70504  Biso   1.000  H
  H73      1.0000 0.27697  0.73798  0.14399  Biso   1.000  H
  O21      1.0000 0.17792  0.82500  0.20715  Biso   1.000  O
  H74      1.0000 0.15893  0.71102  0.21695  Biso   1.000  H
  O22      1.0000 0.17796  0.82500  0.20725  Biso   1.000  O
  H75      1.0000 0.15897  0.71102  0.21705  Biso   1.000  H
  H76      1.0000 0.74399  0.95202  0.56503  Biso   1.000  H
  H77      1.0000 0.91905  0.96800  0.54902  Biso   1.000  H
  O23      1.0000 0.81589  0.06148  0.59142  Biso   1.000  O
  H78      1.0000 0.14996  0.98802  0.89104  Biso   1.000  H
  H79      1.0000 0.03399  0.05802  0.82195  Biso   1.000  H
  O24      1.0000 0.18965  0.02331  0.73609  Biso   1.000  O
  H80      1.0000 0.03404  0.05802  0.82205  Biso   1.000  H
  O25      1.0000 0.18970  0.02331  0.73618  Biso   1.000  O
  C46      1.0000 0.55038  0.88801  0.79799  Biso   1.000  C
  C47      1.0000 0.30901  0.83428  0.32970  Biso   1.000  C
  C48      1.0000 0.68022  0.08127  0.63314  Biso   1.000  C
  C49      1.0000 0.25394  0.10083  0.74637  Biso   1.000  C
  C50      1.0000 0.25399  0.10083  0.74647  Biso   1.000  C
  C51      1.0000 0.49165  0.87968  0.90928  Biso   1.000  C
  H81      1.0000 0.61898  0.93399  0.81002  Biso   1.000  H
  H82      1.0000 0.45298  0.89201  0.71998  Biso   1.000  H
  C52      1.0000 0.49169  0.87968  0.90938  Biso   1.000  C
  H83      1.0000 0.45303  0.89201  0.72008  Biso   1.000  H
  H84      1.0000 0.41495  0.81802  0.32601  Biso   1.000  H
  H85      1.0000 0.28302  0.80398  0.39199  Biso   1.000  H
  C53      1.0000 0.31978  0.91873  0.36686  Biso   1.000  C
  C54      1.0000 0.31983  0.91873  0.36696  Biso   1.000  C
  C55      1.0000 0.69099  0.16572  0.67030  Biso   1.000  C
  H86      1.0000 0.68802  0.04997  0.70601  Biso   1.000  H
  H87      1.0000 0.57405  0.07199  0.56503  Biso   1.000  H
  C56      1.0000 0.41055  0.11422  0.86348  Biso   1.000  C
  H88      1.0000 0.28099  0.11099  0.67205  Biso   1.000  H
  H89      1.0000 0.16700  0.13600  0.74899  Biso   1.000  H
  C57      1.0000 0.41060  0.11422  0.86358  Biso   1.000  C
  H90      1.0000 0.40700  0.91902  0.90297  Biso   1.000  H
  H91      1.0000 0.44401  0.82900  0.90802  Biso   1.000  H
  H92      1.0000 0.40705  0.91902  0.90307  Biso   1.000  H
  O26      1.0000 0.63329  0.89013  0.02513  Biso   1.000  O
  H93      1.0000 0.31198  0.95003  0.29399  Biso   1.000  H
  O27      1.0000 0.18411  0.93852  0.40858  Biso   1.000  O
  H94      1.0000 0.42595  0.92801  0.43497  Biso   1.000  H
  O28      1.0000 0.18416  0.93852  0.40868  Biso   1.000  O
  H95      1.0000 0.42600  0.92801  0.43507  Biso   1.000  H
  O29      1.0000 0.82208  0.17500  0.79285  Biso   1.000  O
  H96      1.0000 0.58505  0.18198  0.67399  Biso   1.000  H
  H97      1.0000 0.71698  0.19602  0.60801  Biso   1.000  H
  O30      1.0000 0.36671  0.10987  0.97487  Biso   1.000  O
  H98      1.0000 0.49304  0.07499  0.86804  Biso   1.000  H
  H99      1.0000 0.45604  0.16501  0.85902  Biso   1.000  H
  O31      1.0000 0.36676  0.10987  0.97497  Biso   1.000  O
  C58      1.0000 0.58945  0.88578  0.13652  Biso   1.000  C
  C59      1.0000 0.15025  0.02020  0.40111  Biso   1.000  C
  C60      1.0000 0.82705  0.25181  0.84311  Biso   1.000  C
  C61      1.0000 0.50835  0.12032  0.09072  Biso   1.000  C
  C62      1.0000 0.74606  0.89917  0.25363  Biso   1.000  C
  H100     1.0000 0.50696  0.92501  0.13196  Biso   1.000  H
  H101     1.0000 0.54396  0.83499  0.14098  Biso   1.000  H
  H102     1.0000 0.50701  0.92501  0.13205  Biso   1.000  H
  H103     1.0000 0.54401  0.83499  0.14108  Biso   1.000  H
  C63      1.0000 0.05725  0.04627  0.26294  Biso   1.000  C
  H104     1.0000 0.25601  0.04798  0.43497  Biso   1.000  H
  H105     1.0000 0.08095  0.03200  0.45098  Biso   1.000  H
  H106     1.0000 0.25606  0.04798  0.43507  Biso   1.000  H
  H107     1.0000 0.08100  0.03200  0.45108  Biso   1.000  H
  C64      1.0000 0.97321  0.25932  0.96837  Biso   1.000  C
  C65      1.0000 0.97326  0.25932  0.96847  Biso   1.000  C
  H108     1.0000 0.72303  0.26202  0.85601  Biso   1.000  H
  H109     1.0000 0.84107  0.28898  0.78305  Biso   1.000  H
  C66      1.0000 0.44962  0.11199  0.20201  Biso   1.000  C
  H110     1.0000 0.59300  0.08098  0.09703  Biso   1.000  H
  H111     1.0000 0.55599  0.17100  0.09198  Biso   1.000  H
  H112     1.0000 0.55604  0.17100  0.09208  Biso   1.000  H
  O32      1.0000 0.81035  0.97669  0.26391  Biso   1.000  O
  H113     1.0000 0.71901  0.88901  0.32795  Biso   1.000  H
  H114     1.0000 0.83300  0.86400  0.25101  Biso   1.000  H
  H115     1.0000 0.71906  0.88901  0.32805  Biso   1.000  H
  C67      1.0000 0.91680  0.99019  0.19046  Biso   1.000  C
  C68      1.0000 0.91684  0.99019  0.19056  Biso   1.000  C
  C69      1.0000 0.09836  0.10999  0.21045  Biso   1.000  C
  C70      1.0000 0.09841  0.10999  0.21055  Biso   1.000  C
  O33      1.0000 0.95628  0.21428  0.07025  Biso   1.000  O
  H116     1.0000 0.98203  0.31300  0.99398  Biso   1.000  H
  H117     1.0000 0.98208  0.31300  0.99408  Biso   1.000  H
  H118     1.0000 0.07501  0.24300  0.95605  Biso   1.000  H
  O34      1.0000 0.35188  0.17858  0.20880  Biso   1.000  O
  H119     1.0000 0.38102  0.06601  0.18998  Biso   1.000  H
  H120     1.0000 0.54702  0.10799  0.28002  Biso   1.000  H
  H121     1.0000 0.38107  0.06601  0.19008  Biso   1.000  H
  H122     1.0000 0.96601  0.94198  0.17805  Biso   1.000  H
  H123     1.0000 0.85004  0.01198  0.10896  Biso   1.000  H
  H124     1.0000 0.85009  0.01198  0.10906  Biso   1.000  H
  C71      1.0000 0.00688  0.13459  0.07219  Biso   1.000  C
  C72      1.0000 0.24421  0.16478  0.28070  Biso   1.000  C
  H125     1.0000 0.90895  0.10300  0.03396  Biso   1.000  H
  H126     1.0000 0.90900  0.10300  0.03406  Biso   1.000  H
  H127     1.0000 0.08201  0.12902  0.02600  Biso   1.000  H
  H128     1.0000 0.31099  0.14199  0.36201  Biso   1.000  H
  H129     1.0000 0.19804  0.21299  0.29496  Biso   1.000  H
  H130     1.0000 0.19808  0.21299  0.29506  Biso   1.000  H
  C73      1.0000 0.99312  0.86541  0.92781  Biso   1.000  C
  O35      1.0000 0.04372  0.78572  0.92975  Biso   1.000  O
  O36      1.0000 0.04376  0.78572  0.92985  Biso   1.000  O
  C74      1.0000 0.90164  0.89001  0.78955  Biso   1.000  C
  H131     1.0000 0.91799  0.87098  0.97400  Biso   1.000  H
  H132     1.0000 0.09105  0.89700  0.96604  Biso   1.000  H
  C75      1.0000 0.02679  0.74068  0.03163  Biso   1.000  C
  C76      1.0000 0.94275  0.95373  0.73706  Biso   1.000  C
  C77      1.0000 0.75579  0.83522  0.71930  Biso   1.000  C
  C78      1.0000 0.94279  0.95373  0.73715  Biso   1.000  C
  C79      1.0000 0.17295  0.74819  0.15689  Biso   1.000  C
  H133     1.0000 0.01797  0.68700  0.00602  Biso   1.000  H
  H134     1.0000 0.92499  0.75700  0.04395  Biso   1.000  H
  H135     1.0000 0.92504  0.75700  0.04405  Biso   1.000  H
  C80      1.0000 0.84975  0.97980  0.59889  Biso   1.000  C
  C81      1.0000 0.08320  0.00981  0.80954  Biso   1.000  C
  O37      1.0000 0.64812  0.82142  0.79120  Biso   1.000  O
  H136     1.0000 0.68901  0.85801  0.63799  Biso   1.000  H
  H137     1.0000 0.80196  0.78701  0.70504  Biso   1.000  H
  H138     1.0000 0.27697  0.73798  0.14399  Biso   1.000  H
  O38      1.0000 0.17792  0.82500  0.20715  Biso   1.000  O
  H139     1.0000 0.15893  0.71102  0.21695  Biso   1.000  H
  O39      1.0000 0.17796  0.82500  0.20725  Biso   1.000  O
  H140     1.0000 0.15897  0.71102  0.21705  Biso   1.000  H
  H141     1.0000 0.74399  0.95202  0.56503  Biso   1.000  H
  H142     1.0000 0.91905  0.96800  0.54902  Biso   1.000  H
  O40      1.0000 0.81589  0.06148  0.59142  Biso   1.000  O
  H143     1.0000 0.14996  0.98802  0.89104  Biso   1.000  H
  H144     1.0000 0.03399  0.05802  0.82195  Biso   1.000  H
  O41      1.0000 0.18965  0.02331  0.73609  Biso   1.000  O
  H145     1.0000 0.03404  0.05802  0.82205  Biso   1.000  H
  O42      1.0000 0.18970  0.02331  0.73618  Biso   1.000  O
  C82      1.0000 0.55038  0.88801  0.79799  Biso   1.000  C
  C83      1.0000 0.30901  0.83428  0.32970  Biso   1.000  C
  C84      1.0000 0.68022  0.08127  0.63314  Biso   1.000  C
  C85      1.0000 0.25394  0.10083  0.74637  Biso   1.000  C
  C86      1.0000 0.25399  0.10083  0.74647  Biso   1.000  C
  C87      1.0000 0.49165  0.87968  0.90928  Biso   1.000  C
  H146     1.0000 0.61898  0.93399  0.81002  Biso   1.000  H
  H147     1.0000 0.45298  0.89201  0.71998  Biso   1.000  H
  C88      1.0000 0.49169  0.87968  0.90938  Biso   1.000  C
  H148     1.0000 0.45303  0.89201  0.72008  Biso   1.000  H
  H149     1.0000 0.41495  0.81802  0.32601  Biso   1.000  H
  H150     1.0000 0.28302  0.80398  0.39199  Biso   1.000  H
  C89      1.0000 0.31978  0.91873  0.36686  Biso   1.000  C
  C90      1.0000 0.31983  0.91873  0.36696  Biso   1.000  C
  C91      1.0000 0.69099  0.16572  0.67030  Biso   1.000  C
  H151     1.0000 0.68802  0.04997  0.70601  Biso   1.000  H
  H152     1.0000 0.57405  0.07199  0.56503  Biso   1.000  H
  C92      1.0000 0.41055  0.11422  0.86348  Biso   1.000  C
  H153     1.0000 0.28099  0.11099  0.67205  Biso   1.000  H
  H154     1.0000 0.16700  0.13600  0.74899  Biso   1.000  H
  C93      1.0000 0.41060  0.11422  0.86358  Biso   1.000  C
  H155     1.0000 0.40700  0.91902  0.90297  Biso   1.000  H
  H156     1.0000 0.44401  0.82900  0.90802  Biso   1.000  H
  H157     1.0000 0.40705  0.91902  0.90307  Biso   1.000  H
  O43      1.0000 0.63329  0.89013  0.02513  Biso   1.000  O
  H158     1.0000 0.31198  0.95003  0.29399  Biso   1.000  H
  O44      1.0000 0.18411  0.93852  0.40858  Biso   1.000  O
  H159     1.0000 0.42595  0.92801  0.43497  Biso   1.000  H
  O45      1.0000 0.18416  0.93852  0.40868  Biso   1.000  O
  H160     1.0000 0.42600  0.92801  0.43507  Biso   1.000  H
  O46      1.0000 0.82208  0.17500  0.79285  Biso   1.000  O
  H161     1.0000 0.58505  0.18198  0.67399  Biso   1.000  H
  H162     1.0000 0.71698  0.19602  0.60801  Biso   1.000  H
  O47      1.0000 0.36671  0.10987  0.97487  Biso   1.000  O
  H163     1.0000 0.49304  0.07499  0.86804  Biso   1.000  H
  H164     1.0000 0.45604  0.16501  0.85902  Biso   1.000  H
  O48      1.0000 0.36676  0.10987  0.97497  Biso   1.000  O
  C94      1.0000 0.58945  0.88578  0.13652  Biso   1.000  C
  C95      1.0000 0.15025  0.02020  0.40111  Biso   1.000  C
  C96      1.0000 0.82705  0.25181  0.84311  Biso   1.000  C
  C97      1.0000 0.50835  0.12032  0.09072  Biso   1.000  C
  C98      1.0000 0.74606  0.89917  0.25363  Biso   1.000  C
  H165     1.0000 0.50696  0.92501  0.13196  Biso   1.000  H
  H166     1.0000 0.54396  0.83499  0.14098  Biso   1.000  H
  H167     1.0000 0.50701  0.92501  0.13205  Biso   1.000  H
  H168     1.0000 0.54401  0.83499  0.14108  Biso   1.000  H
  C99      1.0000 0.05725  0.04627  0.26294  Biso   1.000  C
  H169     1.0000 0.25601  0.04798  0.43497  Biso   1.000  H
  H170     1.0000 0.08095  0.03200  0.45098  Biso   1.000  H
  H171     1.0000 0.25606  0.04798  0.43507  Biso   1.000  H
  H172     1.0000 0.08100  0.03200  0.45108  Biso   1.000  H
  C100     1.0000 0.97321  0.25932  0.96837  Biso   1.000  C
  C101     1.0000 0.97326  0.25932  0.96847  Biso   1.000  C
  H173     1.0000 0.72303  0.26202  0.85601  Biso   1.000  H
  H174     1.0000 0.84107  0.28898  0.78305  Biso   1.000  H
  C102     1.0000 0.44962  0.11199  0.20201  Biso   1.000  C
  H175     1.0000 0.59300  0.08098  0.09703  Biso   1.000  H
  H176     1.0000 0.55599  0.17100  0.09198  Biso   1.000  H
  H177     1.0000 0.55604  0.17100  0.09208  Biso   1.000  H
  O49      1.0000 0.81035  0.97669  0.26391  Biso   1.000  O
  H178     1.0000 0.71901  0.88901  0.32795  Biso   1.000  H
  H179     1.0000 0.83300  0.86400  0.25101  Biso   1.000  H
  H180     1.0000 0.71906  0.88901  0.32805  Biso   1.000  H
  C103     1.0000 0.91680  0.99019  0.19046  Biso   1.000  C
  C104     1.0000 0.91684  0.99019  0.19056  Biso   1.000  C
  C105     1.0000 0.09836  0.10999  0.21045  Biso   1.000  C
  C106     1.0000 0.09841  0.10999  0.21055  Biso   1.000  C
  O50      1.0000 0.95628  0.21428  0.07025  Biso   1.000  O
  H181     1.0000 0.98203  0.31300  0.99398  Biso   1.000  H
  H182     1.0000 0.98208  0.31300  0.99408  Biso   1.000  H
  H183     1.0000 0.07501  0.24300  0.95605  Biso   1.000  H
  O51      1.0000 0.35188  0.17858  0.20880  Biso   1.000  O
  H184     1.0000 0.38102  0.06601  0.18998  Biso   1.000  H
  H185     1.0000 0.54702  0.10799  0.28002  Biso   1.000  H
  H186     1.0000 0.38107  0.06601  0.19008  Biso   1.000  H
  H187     1.0000 0.96601  0.94198  0.17805  Biso   1.000  H
  H188     1.0000 0.85004  0.01198  0.10896  Biso   1.000  H
  H189     1.0000 0.85009  0.01198  0.10906  Biso   1.000  H
  C107     1.0000 0.00688  0.13459  0.07219  Biso   1.000  C
  C108     1.0000 0.24421  0.16478  0.28070  Biso   1.000  C
  H190     1.0000 0.90895  0.10300  0.03396  Biso   1.000  H
  H191     1.0000 0.90900  0.10300  0.03406  Biso   1.000  H
  H192     1.0000 0.08201  0.12902  0.02600  Biso   1.000  H
  H193     1.0000 0.31099  0.14199  0.36201  Biso   1.000  H
  H194     1.0000 0.19804  0.21299  0.29496  Biso   1.000  H
  H195     1.0000 0.19808  0.21299  0.29506  Biso   1.000  H
  C109     1.0000 0.99312  0.86541  0.92781  Biso   1.000  C
  O52      1.0000 0.04372  0.78572  0.92975  Biso   1.000  O
  O53      1.0000 0.04376  0.78572  0.92985  Biso   1.000  O
  C110     1.0000 0.90164  0.89001  0.78955  Biso   1.000  C
  H196     1.0000 0.91799  0.87098  0.97400  Biso   1.000  H
  H197     1.0000 0.09105  0.89700  0.96604  Biso   1.000  H
  C111     1.0000 0.02679  0.74068  0.03163  Biso   1.000  C
  C112     1.0000 0.94275  0.95373  0.73706  Biso   1.000  C
  C113     1.0000 0.75579  0.83522  0.71930  Biso   1.000  C
  C114     1.0000 0.94279  0.95373  0.73715  Biso   1.000  C
  C115     1.0000 0.17295  0.74819  0.15689  Biso   1.000  C
  H198     1.0000 0.01797  0.68700  0.00602  Biso   1.000  H
  H199     1.0000 0.92499  0.75700  0.04395  Biso   1.000  H
  H200     1.0000 0.92504  0.75700  0.04405  Biso   1.000  H
  C116     1.0000 0.84975  0.97980  0.59889  Biso   1.000  C
  C117     1.0000 0.08320  0.00981  0.80954  Biso   1.000  C
  O54      1.0000 0.64812  0.82142  0.79120  Biso   1.000  O
  H201     1.0000 0.68901  0.85801  0.63799  Biso   1.000  H
  H202     1.0000 0.80196  0.78701  0.70504  Biso   1.000  H
  H203     1.0000 0.27697  0.73798  0.14399  Biso   1.000  H
  O55      1.0000 0.17792  0.82500  0.20715  Biso   1.000  O
  H204     1.0000 0.15893  0.71102  0.21695  Biso   1.000  H
  O56      1.0000 0.17796  0.82500  0.20725  Biso   1.000  O
  H205     1.0000 0.15897  0.71102  0.21705  Biso   1.000  H
  H206     1.0000 0.74399  0.95202  0.56503  Biso   1.000  H
  H207     1.0000 0.91905  0.96800  0.54902  Biso   1.000  H
  O57      1.0000 0.81589  0.06148  0.59142  Biso   1.000  O
  H208     1.0000 0.14996  0.98802  0.89104  Biso   1.000  H
  H209     1.0000 0.03399  0.05802  0.82195  Biso   1.000  H
  O58      1.0000 0.18965  0.02331  0.73609  Biso   1.000  O
  H210     1.0000 0.03404  0.05802  0.82205  Biso   1.000  H
  O59      1.0000 0.18970  0.02331  0.73618  Biso   1.000  O
  C118     1.0000 0.55038  0.88801  0.79799  Biso   1.000  C
  C119     1.0000 0.30901  0.83428  0.32970  Biso   1.000  C
  C120     1.0000 0.68022  0.08127  0.63314  Biso   1.000  C
  C121     1.0000 0.25394  0.10083  0.74637  Biso   1.000  C
  C122     1.0000 0.25399  0.10083  0.74647  Biso   1.000  C
  C123     1.0000 0.49165  0.87968  0.90928  Biso   1.000  C
  H211     1.0000 0.61898  0.93399  0.81002  Biso   1.000  H
  H212     1.0000 0.45298  0.89201  0.71998  Biso   1.000  H
  C124     1.0000 0.49169  0.87968  0.90938  Biso   1.000  C
  H213     1.0000 0.45303  0.89201  0.72008  Biso   1.000  H
  H214     1.0000 0.41495  0.81802  0.32601  Biso   1.000  H
  H215     1.0000 0.28302  0.80398  0.39199  Biso   1.000  H
  C125     1.0000 0.31978  0.91873  0.36686  Biso   1.000  C
  C126     1.0000 0.31983  0.91873  0.36696  Biso   1.000  C
  C127     1.0000 0.69099  0.16572  0.67030  Biso   1.000  C
  H216     1.0000 0.68802  0.04997  0.70601  Biso   1.000  H
  H217     1.0000 0.57405  0.07199  0.56503  Biso   1.000  H
  C128     1.0000 0.41055  0.11422  0.86348  Biso   1.000  C
  H218     1.0000 0.28099  0.11099  0.67205  Biso   1.000  H
  H219     1.0000 0.16700  0.13600  0.74899  Biso   1.000  H
  C129     1.0000 0.41060  0.11422  0.86358  Biso   1.000  C
  H220     1.0000 0.40700  0.91902  0.90297  Biso   1.000  H
  H221     1.0000 0.44401  0.82900  0.90802  Biso   1.000  H
  H222     1.0000 0.40705  0.91902  0.90307  Biso   1.000  H
  O60      1.0000 0.63329  0.89013  0.02513  Biso   1.000  O
  H223     1.0000 0.31198  0.95003  0.29399  Biso   1.000  H
  O61      1.0000 0.18411  0.93852  0.40858  Biso   1.000  O
  H224     1.0000 0.42595  0.92801  0.43497  Biso   1.000  H
  O62      1.0000 0.18416  0.93852  0.40868  Biso   1.000  O
  H225     1.0000 0.42600  0.92801  0.43507  Biso   1.000  H
  O63      1.0000 0.82208  0.17500  0.79285  Biso   1.000  O
  H226     1.0000 0.58505  0.18198  0.67399  Biso   1.000  H
  H227     1.0000 0.71698  0.19602  0.60801  Biso   1.000  H
  O64      1.0000 0.36671  0.10987  0.97487  Biso   1.000  O
  H228     1.0000 0.49304  0.07499  0.86804  Biso   1.000  H
  H229     1.0000 0.45604  0.16501  0.85902  Biso   1.000  H
  O65      1.0000 0.36676  0.10987  0.97497  Biso   1.000  O
  C130     1.0000 0.58945  0.88578  0.13652  Biso   1.000  C
  C131     1.0000 0.15025  0.02020  0.40111  Biso   1.000  C
  C132     1.0000 0.82705  0.25181  0.84311  Biso   1.000  C
  C133     1.0000 0.50835  0.12032  0.09072  Biso   1.000  C
  C134     1.0000 0.74606  0.89917  0.25363  Biso   1.000  C
  H230     1.0000 0.50696  0.92501  0.13196  Biso   1.000  H
  H231     1.0000 0.54396  0.83499  0.14098  Biso   1.000  H
  H232     1.0000 0.50701  0.92501  0.13205  Biso   1.000  H
  H233     1.0000 0.54401  0.83499  0.14108  Biso   1.000  H
  C135     1.0000 0.05725  0.04627  0.26294  Biso   1.000  C
  H234     1.0000 0.25601  0.04798  0.43497  Biso   1.000  H
  H235     1.0000 0.08095  0.03200  0.45098  Biso   1.000  H
  H236     1.0000 0.25606  0.04798  0.43507  Biso   1.000  H
  H237     1.0000 0.08100  0.03200  0.45108  Biso   1.000  H
  C136     1.0000 0.97321  0.25932  0.96837  Biso   1.000  C
  C137     1.0000 0.97326  0.25932  0.96847  Biso   1.000  C
  H238     1.0000 0.72303  0.26202  0.85601  Biso   1.000  H
  H239     1.0000 0.84107  0.28898  0.78305  Biso   1.000  H
  C138     1.0000 0.44962  0.11199  0.20201  Biso   1.000  C
  H240     1.0000 0.59300  0.08098  0.09703  Biso   1.000  H
  H241     1.0000 0.55599  0.17100  0.09198  Biso   1.000  H
  H242     1.0000 0.55604  0.17100  0.09208  Biso   1.000  H
  O66      1.0000 0.81035  0.97669  0.26391  Biso   1.000  O
  H243     1.0000 0.71901  0.88901  0.32795  Biso   1.000  H
  H244     1.0000 0.83300  0.86400  0.25101  Biso   1.000  H
  H245     1.0000 0.71906  0.88901  0.32805  Biso   1.000  H
  C139     1.0000 0.91680  0.99019  0.19046  Biso   1.000  C
  C140     1.0000 0.91684  0.99019  0.19056  Biso   1.000  C
  C141     1.0000 0.09836  0.10999  0.21045  Biso   1.000  C
  C142     1.0000 0.09841  0.10999  0.21055  Biso   1.000  C
  O67      1.0000 0.95628  0.21428  0.07025  Biso   1.000  O
  H246     1.0000 0.98203  0.31300  0.99398  Biso   1.000  H
  H247     1.0000 0.98208  0.31300  0.99408  Biso   1.000  H
  H248     1.0000 0.07501  0.24300  0.95605  Biso   1.000  H
  O68      1.0000 0.35188  0.17858  0.20880  Biso   1.000  O
  H249     1.0000 0.38102  0.06601  0.18998  Biso   1.000  H
  H250     1.0000 0.54702  0.10799  0.28002  Biso   1.000  H
  H251     1.0000 0.38107  0.06601  0.19008  Biso   1.000  H
  H252     1.0000 0.96601  0.94198  0.17805  Biso   1.000  H
  H253     1.0000 0.85004  0.01198  0.10896  Biso   1.000  H
  H254     1.0000 0.85009  0.01198  0.10906  Biso   1.000  H
  C143     1.0000 0.00688  0.13459  0.07219  Biso   1.000  C
  C144     1.0000 0.24421  0.16478  0.28070  Biso   1.000  C
  H255     1.0000 0.90895  0.10300  0.03396  Biso   1.000  H
  H256     1.0000 0.90900  0.10300  0.03406  Biso   1.000  H
  H257     1.0000 0.08201  0.12902  0.02600  Biso   1.000  H
  H258     1.0000 0.31099  0.14199  0.36201  Biso   1.000  H
  H259     1.0000 0.19804  0.21299  0.29496  Biso   1.000  H
  H260     1.0000 0.19808  0.21299  0.29506  Biso   1.000  H
  C145     1.0000 0.99312  0.86541  0.92781  Biso   1.000  C
  O69      1.0000 0.04372  0.78572  0.92975  Biso   1.000  O
  O70      1.0000 0.04376  0.78572  0.92985  Biso   1.000  O
  C146     1.0000 0.90164  0.89001  0.78955  Biso   1.000  C
  H261     1.0000 0.91799  0.87098  0.97400  Biso   1.000  H
  H262     1.0000 0.09105  0.89700  0.96604  Biso   1.000  H
  C147     1.0000 0.02679  0.74068  0.03163  Biso   1.000  C
  C148     1.0000 0.94275  0.95373  0.73706  Biso   1.000  C
  C149     1.0000 0.75579  0.83522  0.71930  Biso   1.000  C
  C150     1.0000 0.94279  0.95373  0.73715  Biso   1.000  C
  C151     1.0000 0.17295  0.74819  0.15689  Biso   1.000  C
  H263     1.0000 0.01797  0.68700  0.00602  Biso   1.000  H
  H264     1.0000 0.92499  0.75700  0.04395  Biso   1.000  H
  H265     1.0000 0.92504  0.75700  0.04405  Biso   1.000  H
  C152     1.0000 0.84975  0.97980  0.59889  Biso   1.000  C
  C153     1.0000 0.08320  0.00981  0.80954  Biso   1.000  C
  O71      1.0000 0.64812  0.82142  0.79120  Biso   1.000  O
  H266     1.0000 0.68901  0.85801  0.63799  Biso   1.000  H
  H267     1.0000 0.80196  0.78701  0.70504  Biso   1.000  H
  H268     1.0000 0.27697  0.73798  0.14399  Biso   1.000  H
  O72      1.0000 0.17792  0.82500  0.20715  Biso   1.000  O
  H269     1.0000 0.15893  0.71102  0.21695  Biso   1.000  H
  O73      1.0000 0.17796  0.82500  0.20725  Biso   1.000  O
  H270     1.0000 0.15897  0.71102  0.21705  Biso   1.000  H
  H271     1.0000 0.74399  0.95202  0.56503  Biso   1.000  H
  H272     1.0000 0.91905  0.96800  0.54902  Biso   1.000  H
  O74      1.0000 0.81589  0.06148  0.59142  Biso   1.000  O
  H273     1.0000 0.14996  0.98802  0.89104  Biso   1.000  H
  H274     1.0000 0.03399  0.05802  0.82195  Biso   1.000  H
  O75      1.0000 0.18965  0.02331  0.73609  Biso   1.000  O
  H275     1.0000 0.03404  0.05802  0.82205  Biso   1.000  H
  O76      1.0000 0.18970  0.02331  0.73618  Biso   1.000  O
  C154     1.0000 0.55038  0.88801  0.79799  Biso   1.000  C
  C155     1.0000 0.30901  0.83428  0.32970  Biso   1.000  C
  C156     1.0000 0.68022  0.08127  0.63314  Biso   1.000  C
  C157     1.0000 0.25394  0.10083  0.74637  Biso   1.000  C
  C158     1.0000 0.25399  0.10083  0.74647  Biso   1.000  C
  C159     1.0000 0.49165  0.87968  0.90928  Biso   1.000  C
  H276     1.0000 0.61898  0.93399  0.81002  Biso   1.000  H
  H277     1.0000 0.45298  0.89201  0.71998  Biso   1.000  H
  C160     1.0000 0.49169  0.87968  0.90938  Biso   1.000  C
  H278     1.0000 0.45303  0.89201  0.72008  Biso   1.000  H
  H279     1.0000 0.41495  0.81802  0.32601  Biso   1.000  H
  H280     1.0000 0.28302  0.80398  0.39199  Biso   1.000  H
  C161     1.0000 0.31978  0.91873  0.36686  Biso   1.000  C
  C162     1.0000 0.31983  0.91873  0.36696  Biso   1.000  C
  C163     1.0000 0.69099  0.16572  0.67030  Biso   1.000  C
  H281     1.0000 0.68802  0.04997  0.70601  Biso   1.000  H
  H282     1.0000 0.57405  0.07199  0.56503  Biso   1.000  H
  C164     1.0000 0.41055  0.11422  0.86348  Biso   1.000  C
  H283     1.0000 0.28099  0.11099  0.67205  Biso   1.000  H
  H284     1.0000 0.16700  0.13600  0.74899  Biso   1.000  H
  C165     1.0000 0.41060  0.11422  0.86358  Biso   1.000  C
  H285     1.0000 0.40700  0.91902  0.90297  Biso   1.000  H
  H286     1.0000 0.44401  0.82900  0.90802  Biso   1.000  H
  H287     1.0000 0.40705  0.91902  0.90307  Biso   1.000  H
  O77      1.0000 0.63329  0.89013  0.02513  Biso   1.000  O
  H288     1.0000 0.31198  0.95003  0.29399  Biso   1.000  H
  O78      1.0000 0.18411  0.93852  0.40858  Biso   1.000  O
  H289     1.0000 0.42595  0.92801  0.43497  Biso   1.000  H
  O79      1.0000 0.18416  0.93852  0.40868  Biso   1.000  O
  H290     1.0000 0.42600  0.92801  0.43507  Biso   1.000  H
  O80      1.0000 0.82208  0.17500  0.79285  Biso   1.000  O
  H291     1.0000 0.58505  0.18198  0.67399  Biso   1.000  H
  H292     1.0000 0.71698  0.19602  0.60801  Biso   1.000  H
  O81      1.0000 0.36671  0.10987  0.97487  Biso   1.000  O
  H293     1.0000 0.49304  0.07499  0.86804  Biso   1.000  H
  H294     1.0000 0.45604  0.16501  0.85902  Biso   1.000  H
  O82      1.0000 0.36676  0.10987  0.97497  Biso   1.000  O
  C166     1.0000 0.58945  0.88578  0.13652  Biso   1.000  C
  C167     1.0000 0.15025  0.02020  0.40111  Biso   1.000  C
  C168     1.0000 0.82705  0.25181  0.84311  Biso   1.000  C
  C169     1.0000 0.50835  0.12032  0.09072  Biso   1.000  C
  C170     1.0000 0.74606  0.89917  0.25363  Biso   1.000  C
  H295     1.0000 0.50696  0.92501  0.13196  Biso   1.000  H
  H296     1.0000 0.54396  0.83499  0.14098  Biso   1.000  H
  H297     1.0000 0.50701  0.92501  0.13205  Biso   1.000  H
  H298     1.0000 0.54401  0.83499  0.14108  Biso   1.000  H
  C171     1.0000 0.05725  0.04627  0.26294  Biso   1.000  C
  H299     1.0000 0.25601  0.04798  0.43497  Biso   1.000  H
  H300     1.0000 0.08095  0.03200  0.45098  Biso   1.000  H
  H301     1.0000 0.25606  0.04798  0.43507  Biso   1.000  H
  H302     1.0000 0.08100  0.03200  0.45108  Biso   1.000  H
  C172     1.0000 0.97321  0.25932  0.96837  Biso   1.000  C
  C173     1.0000 0.97326  0.25932  0.96847  Biso   1.000  C
  H303     1.0000 0.72303  0.26202  0.85601  Biso   1.000  H
  H304     1.0000 0.84107  0.28898  0.78305  Biso   1.000  H
  C174     1.0000 0.44962  0.11199  0.20201  Biso   1.000  C
  H305     1.0000 0.59300  0.08098  0.09703  Biso   1.000  H
  H306     1.0000 0.55599  0.17100  0.09198  Biso   1.000  H
  H307     1.0000 0.55604  0.17100  0.09208  Biso   1.000  H
  O83      1.0000 0.81035  0.97669  0.26391  Biso   1.000  O
  H308     1.0000 0.71901  0.88901  0.32795  Biso   1.000  H
  H309     1.0000 0.83300  0.86400  0.25101  Biso   1.000  H
  H310     1.0000 0.71906  0.88901  0.32805  Biso   1.000  H
  C175     1.0000 0.91680  0.99019  0.19046  Biso   1.000  C
  C176     1.0000 0.91684  0.99019  0.19056  Biso   1.000  C
  C177     1.0000 0.09836  0.10999  0.21045  Biso   1.000  C
  C178     1.0000 0.09841  0.10999  0.21055  Biso   1.000  C
  O84      1.0000 0.95628  0.21428  0.07025  Biso   1.000  O
  H311     1.0000 0.98203  0.31300  0.99398  Biso   1.000  H
  H312     1.0000 0.98208  0.31300  0.99408  Biso   1.000  H
  H313     1.0000 0.07501  0.24300  0.95605  Biso   1.000  H
  O85      1.0000 0.35188  0.17858  0.20880  Biso   1.000  O
  H314     1.0000 0.38102  0.06601  0.18998  Biso   1.000  H
  H315     1.0000 0.54702  0.10799  0.28002  Biso   1.000  H
  H316     1.0000 0.38107  0.06601  0.19008  Biso   1.000  H
  H317     1.0000 0.96601  0.94198  0.17805  Biso   1.000  H
  H318     1.0000 0.85004  0.01198  0.10896  Biso   1.000  H
  H319     1.0000 0.85009  0.01198  0.10906  Biso   1.000  H
  C179     1.0000 0.00688  0.13459  0.07219  Biso   1.000  C
  C180     1.0000 0.24421  0.16478  0.28070  Biso   1.000  C
  H320     1.0000 0.90895  0.10300  0.03396  Biso   1.000  H
  H321     1.0000 0.90900  0.10300  0.03406  Biso   1.000  H
  H322     1.0000 0.08201  0.12902  0.02600  Biso   1.000  H
  H323     1.0000 0.31099  0.14199  0.36201  Biso   1.000  H
  H324     1.0000 0.19804  0.21299  0.29496  Biso   1.000  H
  H325     1.0000 0.19808  0.21299  0.29506  Biso   1.000  H
  C181     1.0000 0.99312  0.86541  0.92781  Biso   1.000  C
  O86      1.0000 0.04372  0.78572  0.92975  Biso   1.000  O
  O87      1.0000 0.04376  0.78572  0.92985  Biso   1.000  O
  C182     1.0000 0.90164  0.89001  0.78955  Biso   1.000  C
  H326     1.0000 0.91799  0.87098  0.97400  Biso   1.000  H
  H327     1.0000 0.09105  0.89700  0.96604  Biso   1.000  H
  C183     1.0000 0.02679  0.74068  0.03163  Biso   1.000  C
  C184     1.0000 0.94275  0.95373  0.73706  Biso   1.000  C
  C185     1.0000 0.75579  0.83522  0.71930  Biso   1.000  C
  C186     1.0000 0.94279  0.95373  0.73715  Biso   1.000  C
  C187     1.0000 0.17295  0.74819  0.15689  Biso   1.000  C
  H328     1.0000 0.01797  0.68700  0.00602  Biso   1.000  H
  H329     1.0000 0.92499  0.75700  0.04395  Biso   1.000  H
  H330     1.0000 0.92504  0.75700  0.04405  Biso   1.000  H
  C188     1.0000 0.84975  0.97980  0.59889  Biso   1.000  C
  C189     1.0000 0.08320  0.00981  0.80954  Biso   1.000  C
  O88      1.0000 0.64812  0.82142  0.79120  Biso   1.000  O
  H331     1.0000 0.68901  0.85801  0.63799  Biso   1.000  H
  H332     1.0000 0.80196  0.78701  0.70504  Biso   1.000  H
  H333     1.0000 0.27697  0.73798  0.14399  Biso   1.000  H
  O89      1.0000 0.17792  0.82500  0.20715  Biso   1.000  O
  H334     1.0000 0.15893  0.71102  0.21695  Biso   1.000  H
  O90      1.0000 0.17796  0.82500  0.20725  Biso   1.000  O
  H335     1.0000 0.15897  0.71102  0.21705  Biso   1.000  H
  H336     1.0000 0.74399  0.95202  0.56503  Biso   1.000  H
  H337     1.0000 0.91905  0.96800  0.54902  Biso   1.000  H
  O91      1.0000 0.81589  0.06148  0.59142  Biso   1.000  O
  H338     1.0000 0.14996  0.98802  0.89104  Biso   1.000  H
  H339     1.0000 0.03399  0.05802  0.82195  Biso   1.000  H
  O92      1.0000 0.18965  0.02331  0.73609  Biso   1.000  O
  H340     1.0000 0.03404  0.05802  0.82205  Biso   1.000  H
  O93      1.0000 0.18970  0.02331  0.73618  Biso   1.000  O
  C190     1.0000 0.55038  0.88801  0.79799  Biso   1.000  C
  C191     1.0000 0.30901  0.83428  0.32970  Biso   1.000  C
  C192     1.0000 0.68022  0.08127  0.63314  Biso   1.000  C
  C193     1.0000 0.25394  0.10083  0.74637  Biso   1.000  C
  C194     1.0000 0.25399  0.10083  0.74647  Biso   1.000  C
  C195     1.0000 0.49165  0.87968  0.90928  Biso   1.000  C
  H341     1.0000 0.61898  0.93399  0.81002  Biso   1.000  H
  H342     1.0000 0.45298  0.89201  0.71998  Biso   1.000  H
  C196     1.0000 0.49169  0.87968  0.90938  Biso   1.000  C
  H343     1.0000 0.45303  0.89201  0.72008  Biso   1.000  H
  H344     1.0000 0.41495  0.81802  0.32601  Biso   1.000  H
  H345     1.0000 0.28302  0.80398  0.39199  Biso   1.000  H
  C197     1.0000 0.31978  0.91873  0.36686  Biso   1.000  C
  C198     1.0000 0.31983  0.91873  0.36696  Biso   1.000  C
  C199     1.0000 0.69099  0.16572  0.67030  Biso   1.000  C
  H346     1.0000 0.68802  0.04997  0.70601  Biso   1.000  H
  H347     1.0000 0.57405  0.07199  0.56503  Biso   1.000  H
  C200     1.0000 0.41055  0.11422  0.86348  Biso   1.000  C
  H348     1.0000 0.28099  0.11099  0.67205  Biso   1.000  H
  H349     1.0000 0.16700  0.13600  0.74899  Biso   1.000  H
  C201     1.0000 0.41060  0.11422  0.86358  Biso   1.000  C
  H350     1.0000 0.40700  0.91902  0.90297  Biso   1.000  H
  H351     1.0000 0.44401  0.82900  0.90802  Biso   1.000  H
  H352     1.0000 0.40705  0.91902  0.90307  Biso   1.000  H
  O94      1.0000 0.63329  0.89013  0.02513  Biso   1.000  O
  H353     1.0000 0.31198  0.95003  0.29399  Biso   1.000  H
  O95      1.0000 0.18411  0.93852  0.40858  Biso   1.000  O
  H354     1.0000 0.42595  0.92801  0.43497  Biso   1.000  H
  O96      1.0000 0.18416  0.93852  0.40868  Biso   1.000  O
  H355     1.0000 0.42600  0.92801  0.43507  Biso   1.000  H
  O97      1.0000 0.82208  0.17500  0.79285  Biso   1.000  O
  H356     1.0000 0.58505  0.18198  0.67399  Biso   1.000  H
  H357     1.0000 0.71698  0.19602  0.60801  Biso   1.000  H
  O98      1.0000 0.36671  0.10987  0.97487  Biso   1.000  O
  H358     1.0000 0.49304  0.07499  0.86804  Biso   1.000  H
  H359     1.0000 0.45604  0.16501  0.85902  Biso   1.000  H
  O99      1.0000 0.36676  0.10987  0.97497  Biso   1.000  O
  C202     1.0000 0.58945  0.88578  0.13652  Biso   1.000  C
  C203     1.0000 0.15025  0.02020  0.40111  Biso   1.000  C
  C204     1.0000 0.82705  0.25181  0.84311  Biso   1.000  C
  C205     1.0000 0.50835  0.12032  0.09072  Biso   1.000  C
  C206     1.0000 0.74606  0.89917  0.25363  Biso   1.000  C
  H360     1.0000 0.50696  0.92501  0.13196  Biso   1.000  H
  H361     1.0000 0.54396  0.83499  0.14098  Biso   1.000  H
  H362     1.0000 0.50701  0.92501  0.13205  Biso   1.000  H
  H363     1.0000 0.54401  0.83499  0.14108  Biso   1.000  H
  C207     1.0000 0.05725  0.04627  0.26294  Biso   1.000  C
  H364     1.0000 0.25601  0.04798  0.43497  Biso   1.000  H
  H365     1.0000 0.08095  0.03200  0.45098  Biso   1.000  H
  H366     1.0000 0.25606  0.04798  0.43507  Biso   1.000  H
  H367     1.0000 0.08100  0.03200  0.45108  Biso   1.000  H
  C208     1.0000 0.97321  0.25932  0.96837  Biso   1.000  C
  C209     1.0000 0.97326  0.25932  0.96847  Biso   1.000  C
  H368     1.0000 0.72303  0.26202  0.85601  Biso   1.000  H
  H369     1.0000 0.84107  0.28898  0.78305  Biso   1.000  H
  C210     1.0000 0.44962  0.11199  0.20201  Biso   1.000  C
  H370     1.0000 0.59300  0.08098  0.09703  Biso   1.000  H
  H371     1.0000 0.55599  0.17100  0.09198  Biso   1.000  H
  H372     1.0000 0.55604  0.17100  0.09208  Biso   1.000  H
  O100     1.0000 0.81035  0.97669  0.26391  Biso   1.000  O
  H373     1.0000 0.71901  0.88901  0.32795  Biso   1.000  H
  H374     1.0000 0.83300  0.86400  0.25101  Biso   1.000  H
  H375     1.0000 0.71906  0.88901  0.32805  Biso   1.000  H
  C211     1.0000 0.91680  0.99019  0.19046  Biso   1.000  C
  C212     1.0000 0.91684  0.99019  0.19056  Biso   1.000  C
  C213     1.0000 0.09836  0.10999  0.21045  Biso   1.000  C
  C214     1.0000 0.09841  0.10999  0.21055  Biso   1.000  C
  O101     1.0000 0.95628  0.21428  0.07025  Biso   1.000  O
  H376     1.0000 0.98203  0.31300  0.99398  Biso   1.000  H
  H377     1.0000 0.98208  0.31300  0.99408  Biso   1.000  H
  H378     1.0000 0.07501  0.24300  0.95605  Biso   1.000  H
  O102     1.0000 0.35188  0.17858  0.20880  Biso   1.000  O
  H379     1.0000 0.38102  0.06601  0.18998  Biso   1.000  H
  H380     1.0000 0.54702  0.10799  0.28002  Biso   1.000  H
  H381     1.0000 0.38107  0.06601  0.19008  Biso   1.000  H
  H382     1.0000 0.96601  0.94198  0.17805  Biso   1.000  H
  H383     1.0000 0.85004  0.01198  0.10896  Biso   1.000  H
  H384     1.0000 0.85009  0.01198  0.10906  Biso   1.000  H
  C215     1.0000 0.00688  0.13459  0.07219  Biso   1.000  C
  C216     1.0000 0.24421  0.16478  0.28070  Biso   1.000  C
  H385     1.0000 0.90895  0.10300  0.03396  Biso   1.000  H
  H386     1.0000 0.90900  0.10300  0.03406  Biso   1.000  H
  H387     1.0000 0.08201  0.12902  0.02600  Biso   1.000  H
  H388     1.0000 0.31099  0.14199  0.36201  Biso   1.000  H
  H389     1.0000 0.19804  0.21299  0.29496  Biso   1.000  H
  H390     1.0000 0.19808  0.21299  0.29506  Biso   1.000  H
  C217     1.0000 0.99312  0.86541  0.92781  Biso   1.000  C
  O103     1.0000 0.04372  0.78572  0.92975  Biso   1.000  O
  O104     1.0000 0.04376  0.78572  0.92985  Biso   1.000  O
  C218     1.0000 0.90164  0.89001  0.78955  Biso   1.000  C
  H391     1.0000 0.91799  0.87098  0.97400  Biso   1.000  H
  H392     1.0000 0.09105  0.89700  0.96604  Biso   1.000  H
  C219     1.0000 0.02679  0.74068  0.03163  Biso   1.000  C
  C220     1.0000 0.94275  0.95373  0.73706  Biso   1.000  C
  C221     1.0000 0.75579  0.83522  0.71930  Biso   1.000  C
  C222     1.0000 0.94279  0.95373  0.73715  Biso   1.000  C
  C223     1.0000 0.17295  0.74819  0.15689  Biso   1.000  C
  H393     1.0000 0.01797  0.68700  0.00602  Biso   1.000  H
  H394     1.0000 0.92499  0.75700  0.04395  Biso   1.000  H
  H395     1.0000 0.92504  0.75700  0.04405  Biso   1.000  H
  C224     1.0000 0.84975  0.97980  0.59889  Biso   1.000  C
  C225     1.0000 0.08320  0.00981  0.80954  Biso   1.000  C
  O105     1.0000 0.64812  0.82142  0.79120  Biso   1.000  O
  H396     1.0000 0.68901  0.85801  0.63799  Biso   1.000  H
  H397     1.0000 0.80196  0.78701  0.70504  Biso   1.000  H
  H398     1.0000 0.27697  0.73798  0.14399  Biso   1.000  H
  O106     1.0000 0.17792  0.82500  0.20715  Biso   1.000  O
  H399     1.0000 0.15893  0.71102  0.21695  Biso   1.000  H
  O107     1.0000 0.17796  0.82500  0.20725  Biso   1.000  O
  H400     1.0000 0.15897  0.71102  0.21705  Biso   1.000  H
  H401     1.0000 0.74399  0.95202  0.56503  Biso   1.000  H
  H402     1.0000 0.91905  0.96800  0.54902  Biso   1.000  H
  O108     1.0000 0.81589  0.06148  0.59142  Biso   1.000  O
  H403     1.0000 0.14996  0.98802  0.89104  Biso   1.000  H
  H404     1.0000 0.03399  0.05802  0.82195  Biso   1.000  H
  O109     1.0000 0.18965  0.02331  0.73609  Biso   1.000  O
  H405     1.0000 0.03404  0.05802  0.82205  Biso   1.000  H
  O110     1.0000 0.18970  0.02331  0.73618  Biso   1.000  O
  C226     1.0000 0.55038  0.88801  0.79799  Biso   1.000  C
  C227     1.0000 0.30901  0.83428  0.32970  Biso   1.000  C
  C228     1.0000 0.68022  0.08127  0.63314  Biso   1.000  C
  C229     1.0000 0.25394  0.10083  0.74637  Biso   1.000  C
  C230     1.0000 0.25399  0.10083  0.74647  Biso   1.000  C
  C231     1.0000 0.49165  0.87968  0.90928  Biso   1.000  C
  H406     1.0000 0.61898  0.93399  0.81002  Biso   1.000  H
  H407     1.0000 0.45298  0.89201  0.71998  Biso   1.000  H
  C232     1.0000 0.49169  0.87968  0.90938  Biso   1.000  C
  H408     1.0000 0.45303  0.89201  0.72008  Biso   1.000  H
  H409     1.0000 0.41495  0.81802  0.32601  Biso   1.000  H
  H410     1.0000 0.28302  0.80398  0.39199  Biso   1.000  H
  C233     1.0000 0.31978  0.91873  0.36686  Biso   1.000  C
  C234     1.0000 0.31983  0.91873  0.36696  Biso   1.000  C
  C235     1.0000 0.69099  0.16572  0.67030  Biso   1.000  C
  H411     1.0000 0.68802  0.04997  0.70601  Biso   1.000  H
  H412     1.0000 0.57405  0.07199  0.56503  Biso   1.000  H
  C236     1.0000 0.41055  0.11422  0.86348  Biso   1.000  C
  H413     1.0000 0.28099  0.11099  0.67205  Biso   1.000  H
  H414     1.0000 0.16700  0.13600  0.74899  Biso   1.000  H
  C237     1.0000 0.41060  0.11422  0.86358  Biso   1.000  C
  H415     1.0000 0.40700  0.91902  0.90297  Biso   1.000  H
  H416     1.0000 0.44401  0.82900  0.90802  Biso   1.000  H
  H417     1.0000 0.40705  0.91902  0.90307  Biso   1.000  H
  O111     1.0000 0.63329  0.89013  0.02513  Biso   1.000  O
  H418     1.0000 0.31198  0.95003  0.29399  Biso   1.000  H
  O112     1.0000 0.18411  0.93852  0.40858  Biso   1.000  O
  H419     1.0000 0.42595  0.92801  0.43497  Biso   1.000  H
  O113     1.0000 0.18416  0.93852  0.40868  Biso   1.000  O
  H420     1.0000 0.42600  0.92801  0.43507  Biso   1.000  H
  O114     1.0000 0.82208  0.17500  0.79285  Biso   1.000  O
  H421     1.0000 0.58505  0.18198  0.67399  Biso   1.000  H
  H422     1.0000 0.71698  0.19602  0.60801  Biso   1.000  H
  O115     1.0000 0.36671  0.10987  0.97487  Biso   1.000  O
  H423     1.0000 0.49304  0.07499  0.86804  Biso   1.000  H
  H424     1.0000 0.45604  0.16501  0.85902  Biso   1.000  H
  O116     1.0000 0.36676  0.10987  0.97497  Biso   1.000  O
  C238     1.0000 0.58945  0.88578  0.13652  Biso   1.000  C
  C239     1.0000 0.15025  0.02020  0.40111  Biso   1.000  C
  C240     1.0000 0.82705  0.25181  0.84311  Biso   1.000  C
  C241     1.0000 0.50835  0.12032  0.09072  Biso   1.000  C
  C242     1.0000 0.74606  0.89917  0.25363  Biso   1.000  C
  H425     1.0000 0.50696  0.92501  0.13196  Biso   1.000  H
  H426     1.0000 0.54396  0.83499  0.14098  Biso   1.000  H
  H427     1.0000 0.50701  0.92501  0.13205  Biso   1.000  H
  H428     1.0000 0.54401  0.83499  0.14108  Biso   1.000  H
  C243     1.0000 0.05725  0.04627  0.26294  Biso   1.000  C
  H429     1.0000 0.25601  0.04798  0.43497  Biso   1.000  H
  H430     1.0000 0.08095  0.03200  0.45098  Biso   1.000  H
  H431     1.0000 0.25606  0.04798  0.43507  Biso   1.000  H
  H432     1.0000 0.08100  0.03200  0.45108  Biso   1.000  H
  C244     1.0000 0.97321  0.25932  0.96837  Biso   1.000  C
  C245     1.0000 0.97326  0.25932  0.96847  Biso   1.000  C
  H433     1.0000 0.72303  0.26202  0.85601  Biso   1.000  H
  H434     1.0000 0.84107  0.28898  0.78305  Biso   1.000  H
  C246     1.0000 0.44962  0.11199  0.20201  Biso   1.000  C
  H435     1.0000 0.59300  0.08098  0.09703  Biso   1.000  H
  H436     1.0000 0.55599  0.17100  0.09198  Biso   1.000  H
  H437     1.0000 0.55604  0.17100  0.09208  Biso   1.000  H
  O117     1.0000 0.81035  0.97669  0.26391  Biso   1.000  O
  H438     1.0000 0.71901  0.88901  0.32795  Biso   1.000  H
  H439     1.0000 0.83300  0.86400  0.25101  Biso   1.000  H
  H440     1.0000 0.71906  0.88901  0.32805  Biso   1.000  H
  C247     1.0000 0.91680  0.99019  0.19046  Biso   1.000  C
  C248     1.0000 0.91684  0.99019  0.19056  Biso   1.000  C
  C249     1.0000 0.09836  0.10999  0.21045  Biso   1.000  C
  C250     1.0000 0.09841  0.10999  0.21055  Biso   1.000  C
  O118     1.0000 0.95628  0.21428  0.07025  Biso   1.000  O
  H441     1.0000 0.98203  0.31300  0.99398  Biso   1.000  H
  H442     1.0000 0.98208  0.31300  0.99408  Biso   1.000  H
  H443     1.0000 0.07501  0.24300  0.95605  Biso   1.000  H
  O119     1.0000 0.35188  0.17858  0.20880  Biso   1.000  O
  H444     1.0000 0.38102  0.06601  0.18998  Biso   1.000  H
  H445     1.0000 0.54702  0.10799  0.28002  Biso   1.000  H
  H446     1.0000 0.38107  0.06601  0.19008  Biso   1.000  H
  H447     1.0000 0.96601  0.94198  0.17805  Biso   1.000  H
  H448     1.0000 0.85004  0.01198  0.10896  Biso   1.000  H
  H449     1.0000 0.85009  0.01198  0.10906  Biso   1.000  H
  C251     1.0000 0.00688  0.13459  0.07219  Biso   1.000  C
  C252     1.0000 0.24421  0.16478  0.28070  Biso   1.000  C
  H450     1.0000 0.90895  0.10300  0.03396  Biso   1.000  H
  H451     1.0000 0.90900  0.10300  0.03406  Biso   1.000  H
  H452     1.0000 0.08201  0.12902  0.02600  Biso   1.000  H
  H453     1.0000 0.31099  0.14199  0.36201  Biso   1.000  H
  H454     1.0000 0.19804  0.21299  0.29496  Biso   1.000  H
  H455     1.0000 0.19808  0.21299  0.29506  Biso   1.000  H
  C253     1.0000 0.99312  0.86541  0.92781  Biso   1.000  C
  O120     1.0000 0.04372  0.78572  0.92975  Biso   1.000  O
  O121     1.0000 0.04376  0.78572  0.92985  Biso   1.000  O
  C254     1.0000 0.90164  0.89001  0.78955  Biso   1.000  C
  H456     1.0000 0.91799  0.87098  0.97400  Biso   1.000  H
  H457     1.0000 0.09105  0.89700  0.96604  Biso   1.000  H
  C255     1.0000 0.02679  0.74068  0.03163  Biso   1.000  C
  C256     1.0000 0.94275  0.95373  0.73706  Biso   1.000  C
  C257     1.0000 0.75579  0.83522  0.71930  Biso   1.000  C
  C258     1.0000 0.94279  0.95373  0.73715  Biso   1.000  C
  C259     1.0000 0.17295  0.74819  0.15689  Biso   1.000  C
  H458     1.0000 0.01797  0.68700  0.00602  Biso   1.000  H
  H459     1.0000 0.92499  0.75700  0.04395  Biso   1.000  H
  H460     1.0000 0.92504  0.75700  0.04405  Biso   1.000  H
  C260     1.0000 0.84975  0.97980  0.59889  Biso   1.000  C
  C261     1.0000 0.08320  0.00981  0.80954  Biso   1.000  C
  O122     1.0000 0.64812  0.82142  0.79120  Biso   1.000  O
  H461     1.0000 0.68901  0.85801  0.63799  Biso   1.000  H
  H462     1.0000 0.80196  0.78701  0.70504  Biso   1.000  H
  H463     1.0000 0.27697  0.73798  0.14399  Biso   1.000  H
  O123     1.0000 0.17792  0.82500  0.20715  Biso   1.000  O
  H464     1.0000 0.15893  0.71102  0.21695  Biso   1.000  H
  O124     1.0000 0.17796  0.82500  0.20725  Biso   1.000  O
  H465     1.0000 0.15897  0.71102  0.21705  Biso   1.000  H
  H466     1.0000 0.74399  0.95202  0.56503  Biso   1.000  H
  H467     1.0000 0.91905  0.96800  0.54902  Biso   1.000  H
  O125     1.0000 0.81589  0.06148  0.59142  Biso   1.000  O
  H468     1.0000 0.14996  0.98802  0.89104  Biso   1.000  H
  H469     1.0000 0.03399  0.05802  0.82195  Biso   1.000  H
  O126     1.0000 0.18965  0.02331  0.73609  Biso   1.000  O
  H470     1.0000 0.03404  0.05802  0.82205  Biso   1.000  H
  O127     1.0000 0.18970  0.02331  0.73618  Biso   1.000  O
  C262     1.0000 0.55038  0.88801  0.79799  Biso   1.000  C
  C263     1.0000 0.30901  0.83428  0.32970  Biso   1.000  C
  C264     1.0000 0.68022  0.08127  0.63314  Biso   1.000  C
  C265     1.0000 0.25394  0.10083  0.74637  Biso   1.000  C
  C266     1.0000 0.25399  0.10083  0.74647  Biso   1.000  C
  C267     1.0000 0.49165  0.87968  0.90928  Biso   1.000  C
  H471     1.0000 0.61898  0.93399  0.81002  Biso   1.000  H
  H472     1.0000 0.45298  0.89201  0.71998  Biso   1.000  H
  C268     1.0000 0.49169  0.87968  0.90938  Biso   1.000  C
  H473     1.0000 0.45303  0.89201  0.72008  Biso   1.000  H
  H474     1.0000 0.41495  0.81802  0.32601  Biso   1.000  H
  H475     1.0000 0.28302  0.80398  0.39199  Biso   1.000  H
  C269     1.0000 0.31978  0.91873  0.36686  Biso   1.000  C
  C270     1.0000 0.31983  0.91873  0.36696  Biso   1.000  C
  C271     1.0000 0.69099  0.16572  0.67030  Biso   1.000  C
  H476     1.0000 0.68802  0.04997  0.70601  Biso   1.000  H
  H477     1.0000 0.57405  0.07199  0.56503  Biso   1.000  H
  C272     1.0000 0.41055  0.11422  0.86348  Biso   1.000  C
  H478     1.0000 0.28099  0.11099  0.67205  Biso   1.000  H
  H479     1.0000 0.16700  0.13600  0.74899  Biso   1.000  H
  C273     1.0000 0.41060  0.11422  0.86358  Biso   1.000  C
  H480     1.0000 0.40700  0.91902  0.90297  Biso   1.000  H
  H481     1.0000 0.44401  0.82900  0.90802  Biso   1.000  H
  H482     1.0000 0.40705  0.91902  0.90307  Biso   1.000  H
  O128     1.0000 0.63329  0.89013  0.02513  Biso   1.000  O
  H483     1.0000 0.31198  0.95003  0.29399  Biso   1.000  H
  O129     1.0000 0.18411  0.93852  0.40858  Biso   1.000  O
  H484     1.0000 0.42595  0.92801  0.43497  Biso   1.000  H
  O130     1.0000 0.18416  0.93852  0.40868  Biso   1.000  O
  H485     1.0000 0.42600  0.92801  0.43507  Biso   1.000  H
  O131     1.0000 0.82208  0.17500  0.79285  Biso   1.000  O
  H486     1.0000 0.58505  0.18198  0.67399  Biso   1.000  H
  H487     1.0000 0.71698  0.19602  0.60801  Biso   1.000  H
  O132     1.0000 0.36671  0.10987  0.97487  Biso   1.000  O
  H488     1.0000 0.49304  0.07499  0.86804  Biso   1.000  H
  H489     1.0000 0.45604  0.16501  0.85902  Biso   1.000  H
  O133     1.0000 0.36676  0.10987  0.97497  Biso   1.000  O
  C274     1.0000 0.58945  0.88578  0.13652  Biso   1.000  C
  C275     1.0000 0.15025  0.02020  0.40111  Biso   1.000  C
  C276     1.0000 0.82705  0.25181  0.84311  Biso   1.000  C
  C277     1.0000 0.50835  0.12032  0.09072  Biso   1.000  C
  C278     1.0000 0.74606  0.89917  0.25363  Biso   1.000  C
  H490     1.0000 0.50696  0.92501  0.13196  Biso   1.000  H
  H491     1.0000 0.54396  0.83499  0.14098  Biso   1.000  H
  H492     1.0000 0.50701  0.92501  0.13205  Biso   1.000  H
  H493     1.0000 0.54401  0.83499  0.14108  Biso   1.000  H
  C279     1.0000 0.05725  0.04627  0.26294  Biso   1.000  C
  H494     1.0000 0.25601  0.04798  0.43497  Biso   1.000  H
  H495     1.0000 0.08095  0.03200  0.45098  Biso   1.000  H
  H496     1.0000 0.25606  0.04798  0.43507  Biso   1.000  H
  H497     1.0000 0.08100  0.03200  0.45108  Biso   1.000  H
  C280     1.0000 0.97321  0.25932  0.96837  Biso   1.000  C
  C281     1.0000 0.97326  0.25932  0.96847  Biso   1.000  C
  H498     1.0000 0.72303  0.26202  0.85601  Biso   1.000  H
  H499     1.0000 0.84107  0.28898  0.78305  Biso   1.000  H
  C282     1.0000 0.44962  0.11199  0.20201  Biso   1.000  C
  H500     1.0000 0.59300  0.08098  0.09703  Biso   1.000  H
  H501     1.0000 0.55599  0.17100  0.09198  Biso   1.000  H
  H502     1.0000 0.55604  0.17100  0.09208  Biso   1.000  H
  O134     1.0000 0.81035  0.97669  0.26391  Biso   1.000  O
  H503     1.0000 0.71901  0.88901  0.32795  Biso   1.000  H
  H504     1.0000 0.83300  0.86400  0.25101  Biso   1.000  H
  H505     1.0000 0.71906  0.88901  0.32805  Biso   1.000  H
  C283     1.0000 0.91680  0.99019  0.19046  Biso   1.000  C
  C284     1.0000 0.91684  0.99019  0.19056  Biso   1.000  C
  C285     1.0000 0.09836  0.10999  0.21045  Biso   1.000  C
  C286     1.0000 0.09841  0.10999  0.21055  Biso   1.000  C
  O135     1.0000 0.95628  0.21428  0.07025  Biso   1.000  O
  H506     1.0000 0.98203  0.31300  0.99398  Biso   1.000  H
  H507     1.0000 0.98208  0.31300  0.99408  Biso   1.000  H
  H508     1.0000 0.07501  0.24300  0.95605  Biso   1.000  H
  O136     1.0000 0.35188  0.17858  0.20880  Biso   1.000  O
  H509     1.0000 0.38102  0.06601  0.18998  Biso   1.000  H
  H510     1.0000 0.54702  0.10799  0.28002  Biso   1.000  H
  H511     1.0000 0.38107  0.06601  0.19008  Biso   1.000  H
  H512     1.0000 0.96601  0.94198  0.17805  Biso   1.000  H
  H513     1.0000 0.85004  0.01198  0.10896  Biso   1.000  H
  H514     1.0000 0.85009  0.01198  0.10906  Biso   1.000  H
  C287     1.0000 0.00688  0.13459  0.07219  Biso   1.000  C
  C288     1.0000 0.24421  0.16478  0.28070  Biso   1.000  C
  H515     1.0000 0.90895  0.10300  0.03396  Biso   1.000  H
  H516     1.0000 0.90900  0.10300  0.03406  Biso   1.000  H
  H517     1.0000 0.08201  0.12902  0.02600  Biso   1.000  H
  H518     1.0000 0.31099  0.14199  0.36201  Biso   1.000  H
  H519     1.0000 0.19804  0.21299  0.29496  Biso   1.000  H
  H520     1.0000 0.19808  0.21299  0.29506  Biso   1.000  H
  O137     1.0000 0.64811  0.67855  0.29118  Biso   1.000  O
  C289     1.0000 0.75578  0.66481  0.21928  Biso   1.000  C
  C290     1.0000 0.55037  0.61201  0.29797  Biso   1.000  C
  C291     1.0000 0.90163  0.61002  0.28953  Biso   1.000  C
  H521     1.0000 0.68900  0.64202  0.13797  Biso   1.000  H
  H522     1.0000 0.80195  0.71302  0.20502  Biso   1.000  H
  C292     1.0000 0.49164  0.62029  0.40926  Biso   1.000  C
  H523     1.0000 0.61897  0.56598  0.31000  Biso   1.000  H
  H524     1.0000 0.45297  0.60802  0.21996  Biso   1.000  H
  C293     1.0000 0.94278  0.54630  0.23713  Biso   1.000  C
  C294     1.0000 0.99311  0.63462  0.42779  Biso   1.000  C
  O138     1.0000 0.63328  0.60990  0.52511  Biso   1.000  O
  H525     1.0000 0.40699  0.58101  0.40295  Biso   1.000  H
  H526     1.0000 0.44400  0.67097  0.40800  Biso   1.000  H
  C295     1.0000 0.84975  0.52017  0.09887  Biso   1.000  C
  C296     1.0000 0.08319  0.49022  0.30952  Biso   1.000  C
  H527     1.0000 0.91798  0.62899  0.47398  Biso   1.000  H
  O139     1.0000 0.04376  0.71431  0.42983  Biso   1.000  O
  H528     1.0000 0.09104  0.60297  0.46602  Biso   1.000  H
  C297     1.0000 0.58944  0.61419  0.63650  Biso   1.000  C
  O140     1.0000 0.81588  0.43849  0.09140  Biso   1.000  O
  H529     1.0000 0.74398  0.54801  0.06501  Biso   1.000  H
  H530     1.0000 0.91904  0.53197  0.04900  Biso   1.000  H
  O141     1.0000 0.18964  0.47672  0.23607  Biso   1.000  O
  H531     1.0000 0.03403  0.44201  0.32203  Biso   1.000  H
  H532     1.0000 0.14995  0.51201  0.39102  Biso   1.000  H
  C298     1.0000 0.02678  0.75929  0.53161  Biso   1.000  C
  C299     1.0000 0.74605  0.60080  0.75361  Biso   1.000  C
  H533     1.0000 0.50700  0.57502  0.63204  Biso   1.000  H
  H534     1.0000 0.54395  0.66498  0.64096  Biso   1.000  H
  C300     1.0000 0.68021  0.41870  0.13312  Biso   1.000  C
  C301     1.0000 0.25393  0.39920  0.24635  Biso   1.000  C
  H535     1.0000 0.92503  0.74303  0.54403  Biso   1.000  H
  C302     1.0000 0.17294  0.75178  0.65687  Biso   1.000  C
  H536     1.0000 0.01796  0.81302  0.50600  Biso   1.000  H
  O142     1.0000 0.81034  0.52328  0.76390  Biso   1.000  O
  H537     1.0000 0.71905  0.61102  0.82803  Biso   1.000  H
  H538     1.0000 0.83299  0.63597  0.75099  Biso   1.000  H
  C303     1.0000 0.69098  0.33431  0.17028  Biso   1.000  C
  H539     1.0000 0.68801  0.45000  0.20599  Biso   1.000  H
  H540     1.0000 0.57404  0.42798  0.06501  Biso   1.000  H
  C304     1.0000 0.41054  0.38581  0.36346  Biso   1.000  C
  H541     1.0000 0.28098  0.38898  0.17203  Biso   1.000  H
  H542     1.0000 0.16699  0.36403  0.24897  Biso   1.000  H
  O143     1.0000 0.17796  0.67502  0.70723  Biso   1.000  O
  H543     1.0000 0.27697  0.76199  0.64397  Biso   1.000  H
  H544     1.0000 0.15896  0.78901  0.71703  Biso   1.000  H
  C305     1.0000 0.91684  0.50978  0.69054  Biso   1.000  C
  O144     1.0000 0.82207  0.32498  0.29283  Biso   1.000  O
  H545     1.0000 0.58504  0.31799  0.17397  Biso   1.000  H
  H546     1.0000 0.71698  0.30401  0.10799  Biso   1.000  H
  O145     1.0000 0.36670  0.39010  0.47485  Biso   1.000  O
  H547     1.0000 0.49303  0.42498  0.36802  Biso   1.000  H
  H548     1.0000 0.45603  0.33502  0.35900  Biso   1.000  H
  C306     1.0000 0.30900  0.66569  0.82968  Biso   1.000  C
  C307     1.0000 0.05724  0.45370  0.76293  Biso   1.000  C
  H549     1.0000 0.96600  0.55799  0.67803  Biso   1.000  H
  H550     1.0000 0.85008  0.48799  0.60904  Biso   1.000  H
  C308     1.0000 0.82704  0.24822  0.34309  Biso   1.000  C
  C309     1.0000 0.50834  0.37971  0.59070  Biso   1.000  C
  C310     1.0000 0.31982  0.58130  0.86694  Biso   1.000  C
  H551     1.0000 0.41494  0.68201  0.82599  Biso   1.000  H
  H552     1.0000 0.28301  0.69599  0.89197  Biso   1.000  H
  C311     1.0000 0.09840  0.38998  0.71053  Biso   1.000  C
  C312     1.0000 0.15024  0.47983  0.90109  Biso   1.000  C
  C313     1.0000 0.97325  0.24071  0.46845  Biso   1.000  C
  H553     1.0000 0.72302  0.23801  0.35599  Biso   1.000  H
  H554     1.0000 0.84107  0.21099  0.28303  Biso   1.000  H
  C314     1.0000 0.44962  0.38799  0.70199  Biso   1.000  C
  H555     1.0000 0.59299  0.41899  0.59701  Biso   1.000  H
  H556     1.0000 0.55598  0.32903  0.59196  Biso   1.000  H
  O146     1.0000 0.18410  0.56151  0.90856  Biso   1.000  O
  H557     1.0000 0.31197  0.55000  0.79397  Biso   1.000  H
  H558     1.0000 0.42594  0.57202  0.93496  Biso   1.000  H
  C315     1.0000 0.00687  0.36538  0.57217  Biso   1.000  C
  C316     1.0000 0.24420  0.33519  0.78068  Biso   1.000  C
  H559     1.0000 0.25600  0.45199  0.93496  Biso   1.000  H
  H560     1.0000 0.08094  0.46803  0.95096  Biso   1.000  H
  O147     1.0000 0.95627  0.28569  0.57023  Biso   1.000  O
  H561     1.0000 0.98203  0.18698  0.49397  Biso   1.000  H
  H562     1.0000 0.07500  0.25697  0.45603  Biso   1.000  H
  O148     1.0000 0.35187  0.32145  0.70878  Biso   1.000  O
  H563     1.0000 0.38101  0.43402  0.68996  Biso   1.000  H
  H564     1.0000 0.54701  0.39198  0.78000  Biso   1.000  H
  H565     1.0000 0.90899  0.39703  0.53404  Biso   1.000  H
  H566     1.0000 0.08200  0.37101  0.52599  Biso   1.000  H
  H567     1.0000 0.31098  0.35798  0.86199  Biso   1.000  H
  H568     1.0000 0.19808  0.28698  0.79504  Biso   1.000  H
  O149     1.0000 0.64811  0.67855  0.29118  Biso   1.000  O
  C317     1.0000 0.75578  0.66481  0.21928  Biso   1.000  C
  C318     1.0000 0.55037  0.61201  0.29797  Biso   1.000  C
  C319     1.0000 0.90163  0.61002  0.28953  Biso   1.000  C
  H569     1.0000 0.68900  0.64202  0.13797  Biso   1.000  H
  H570     1.0000 0.80195  0.71302  0.20502  Biso   1.000  H
  C320     1.0000 0.49164  0.62029  0.40926  Biso   1.000  C
  H571     1.0000 0.61897  0.56598  0.31000  Biso   1.000  H
  H572     1.0000 0.45297  0.60802  0.21996  Biso   1.000  H
  C321     1.0000 0.94278  0.54630  0.23713  Biso   1.000  C
  C322     1.0000 0.99311  0.63462  0.42779  Biso   1.000  C
  O150     1.0000 0.63328  0.60990  0.52511  Biso   1.000  O
  H573     1.0000 0.40699  0.58101  0.40295  Biso   1.000  H
  H574     1.0000 0.44400  0.67097  0.40800  Biso   1.000  H
  C323     1.0000 0.84975  0.52017  0.09887  Biso   1.000  C
  C324     1.0000 0.08319  0.49022  0.30952  Biso   1.000  C
  H575     1.0000 0.91798  0.62899  0.47398  Biso   1.000  H
  O151     1.0000 0.04376  0.71431  0.42983  Biso   1.000  O
  H576     1.0000 0.09104  0.60297  0.46602  Biso   1.000  H
  C325     1.0000 0.58944  0.61419  0.63650  Biso   1.000  C
  O152     1.0000 0.81588  0.43849  0.09140  Biso   1.000  O
  H577     1.0000 0.74398  0.54801  0.06501  Biso   1.000  H
  H578     1.0000 0.91904  0.53197  0.04900  Biso   1.000  H
  O153     1.0000 0.18964  0.47672  0.23607  Biso   1.000  O
  H579     1.0000 0.03403  0.44201  0.32203  Biso   1.000  H
  H580     1.0000 0.14995  0.51201  0.39102  Biso   1.000  H
  C326     1.0000 0.02678  0.75929  0.53161  Biso   1.000  C
  C327     1.0000 0.74605  0.60080  0.75361  Biso   1.000  C
  H581     1.0000 0.50700  0.57502  0.63204  Biso   1.000  H
  H582     1.0000 0.54395  0.66498  0.64096  Biso   1.000  H
  C328     1.0000 0.68021  0.41870  0.13312  Biso   1.000  C
  C329     1.0000 0.25393  0.39920  0.24635  Biso   1.000  C
  H583     1.0000 0.92503  0.74303  0.54403  Biso   1.000  H
  C330     1.0000 0.17294  0.75178  0.65687  Biso   1.000  C
  H584     1.0000 0.01796  0.81302  0.50600  Biso   1.000  H
  O154     1.0000 0.81034  0.52328  0.76390  Biso   1.000  O
  H585     1.0000 0.71905  0.61102  0.82803  Biso   1.000  H
  H586     1.0000 0.83299  0.63597  0.75099  Biso   1.000  H
  C331     1.0000 0.69098  0.33431  0.17028  Biso   1.000  C
  H587     1.0000 0.68801  0.45000  0.20599  Biso   1.000  H
  H588     1.0000 0.57404  0.42798  0.06501  Biso   1.000  H
  C332     1.0000 0.41054  0.38581  0.36346  Biso   1.000  C
  H589     1.0000 0.28098  0.38898  0.17203  Biso   1.000  H
  H590     1.0000 0.16699  0.36403  0.24897  Biso   1.000  H
  O155     1.0000 0.17796  0.67502  0.70723  Biso   1.000  O
  H591     1.0000 0.27697  0.76199  0.64397  Biso   1.000  H
  H592     1.0000 0.15896  0.78901  0.71703  Biso   1.000  H
  C333     1.0000 0.91684  0.50978  0.69054  Biso   1.000  C
  O156     1.0000 0.82207  0.32498  0.29283  Biso   1.000  O
  H593     1.0000 0.58504  0.31799  0.17397  Biso   1.000  H
  H594     1.0000 0.71698  0.30401  0.10799  Biso   1.000  H
  O157     1.0000 0.36670  0.39010  0.47485  Biso   1.000  O
  H595     1.0000 0.49303  0.42498  0.36802  Biso   1.000  H
  H596     1.0000 0.45603  0.33502  0.35900  Biso   1.000  H
  C334     1.0000 0.30900  0.66569  0.82968  Biso   1.000  C
  C335     1.0000 0.05724  0.45370  0.76293  Biso   1.000  C
  H597     1.0000 0.96600  0.55799  0.67803  Biso   1.000  H
  H598     1.0000 0.85008  0.48799  0.60904  Biso   1.000  H
  C336     1.0000 0.82704  0.24822  0.34309  Biso   1.000  C
  C337     1.0000 0.50834  0.37971  0.59070  Biso   1.000  C
  C338     1.0000 0.31982  0.58130  0.86694  Biso   1.000  C
  H599     1.0000 0.41494  0.68201  0.82599  Biso   1.000  H
  H600     1.0000 0.28301  0.69599  0.89197  Biso   1.000  H
  C339     1.0000 0.09840  0.38998  0.71053  Biso   1.000  C
  C340     1.0000 0.15024  0.47983  0.90109  Biso   1.000  C
  C341     1.0000 0.97325  0.24071  0.46845  Biso   1.000  C
  H601     1.0000 0.72302  0.23801  0.35599  Biso   1.000  H
  H602     1.0000 0.84107  0.21099  0.28303  Biso   1.000  H
  C342     1.0000 0.44962  0.38799  0.70199  Biso   1.000  C
  H603     1.0000 0.59299  0.41899  0.59701  Biso   1.000  H
  H604     1.0000 0.55598  0.32903  0.59196  Biso   1.000  H
  O158     1.0000 0.18410  0.56151  0.90856  Biso   1.000  O
  H605     1.0000 0.31197  0.55000  0.79397  Biso   1.000  H
  H606     1.0000 0.42594  0.57202  0.93496  Biso   1.000  H
  C343     1.0000 0.00687  0.36538  0.57217  Biso   1.000  C
  C344     1.0000 0.24420  0.33519  0.78068  Biso   1.000  C
  H607     1.0000 0.25600  0.45199  0.93496  Biso   1.000  H
  H608     1.0000 0.08094  0.46803  0.95096  Biso   1.000  H
  O159     1.0000 0.95627  0.28569  0.57023  Biso   1.000  O
  H609     1.0000 0.98203  0.18698  0.49397  Biso   1.000  H
  H610     1.0000 0.07500  0.25697  0.45603  Biso   1.000  H
  O160     1.0000 0.35187  0.32145  0.70878  Biso   1.000  O
  H611     1.0000 0.38101  0.43402  0.68996  Biso   1.000  H
  H612     1.0000 0.54701  0.39198  0.78000  Biso   1.000  H
  H613     1.0000 0.90899  0.39703  0.53404  Biso   1.000  H
  H614     1.0000 0.08200  0.37101  0.52599  Biso   1.000  H
  H615     1.0000 0.31098  0.35798  0.86199  Biso   1.000  H
  H616     1.0000 0.19808  0.28698  0.79504  Biso   1.000  H
