data_image0
_cell_length_a       32.036
_cell_length_b       32.036
_cell_length_c       12.417
_cell_angle_alpha    90
_cell_angle_beta     90
_cell_angle_gamma    120

_symmetry_space_group_name_H-M    "P 1"
_symmetry_int_tables_number       1

loop_
  _symmetry_equiv_pos_as_xyz
  'x, y, z'

loop_
  _atom_site_label
  _atom_site_occupancy
  _atom_site_fract_x
  _atom_site_fract_y
  _atom_site_fract_z
  _atom_site_thermal_displace_type
  _atom_site_B_iso_or_equiv
  _atom_site_type_symbol
  C1       1.0000 0.58456  0.42932  0.55529  Biso   1.000  C
  N1       1.0000 0.54960  0.38862  0.51494  Biso   1.000  N
  O1       1.0000 0.61804  0.46396  0.50262  Biso   1.000  O
  N2       1.0000 0.58225  0.42939  0.66610  Biso   1.000  N
  C2       1.0000 0.55062  0.37500  0.40533  Biso   1.000  C
  C3       1.0000 0.52122  0.35528  0.60055  Biso   1.000  C
  C4       1.0000 0.54373  0.38419  0.70492  Biso   1.000  C
  C5       1.0000 0.61891  0.46500  0.73520  Biso   1.000  C
  N3       1.0000 0.51696  0.37896  0.33502  Biso   1.000  N
  H1       1.0000 0.54371  0.34119  0.40412  Biso   1.000  H
  H2       1.0000 0.58360  0.39551  0.37650  Biso   1.000  H
  N4       1.0000 0.47245  0.34407  0.60780  Biso   1.000  N
  H3       1.0000 0.52370  0.32540  0.59813  Biso   1.000  H
  N5       1.0000 0.50416  0.38671  0.75405  Biso   1.000  N
  H4       1.0000 0.55590  0.36750  0.75276  Biso   1.000  H
  N6       1.0000 0.60849  0.50209  0.77499  Biso   1.000  N
  H5       1.0000 0.62331  0.44839  0.79786  Biso   1.000  H
  H6       1.0000 0.64981  0.48111  0.69510  Biso   1.000  H
  C6       1.0000 0.46585  0.34505  0.33462  Biso   1.000  C
  C7       1.0000 0.53011  0.41551  0.26182  Biso   1.000  C
  C8       1.0000 0.43553  0.31812  0.52573  Biso   1.000  C
  C9       1.0000 0.46214  0.36217  0.69638  Biso   1.000  C
  C10      1.0000 0.50675  0.40967  0.85600  Biso   1.000  C
  C11      1.0000 0.57660  0.49549  0.86333  Biso   1.000  C
  C12      1.0000 0.62571  0.54621  0.72465  Biso   1.000  C
  C13      1.0000 0.44612  0.36383  0.24748  Biso   1.000  C
  N7       1.0000 0.44139  0.34707  0.43142  Biso   1.000  N
  H7       1.0000 0.45881  0.31149  0.31892  Biso   1.000  H
  N8       1.0000 0.48895  0.40942  0.21390  Biso   1.000  N
  O2       1.0000 0.57118  0.44709  0.24160  Biso   1.000  O
  H8       1.0000 0.40341  0.30731  0.55738  Biso   1.000  H
  H9       1.0000 0.43682  0.28911  0.50358  Biso   1.000  H
  O3       1.0000 0.42343  0.35647  0.72360  Biso   1.000  O
  N9       1.0000 0.52686  0.46151  0.84972  Biso   1.000  N
  H10      1.0000 0.47390  0.39511  0.88661  Biso   1.000  H
  H11      1.0000 0.52650  0.40279  0.90634  Biso   1.000  H
  H12      1.0000 0.58910  0.48940  0.93187  Biso   1.000  H
  C14      1.0000 0.57821  0.54412  0.86784  Biso   1.000  C
  O4       1.0000 0.65538  0.56099  0.65225  Biso   1.000  O
  N10      1.0000 0.60550  0.57011  0.77273  Biso   1.000  N
  N11      1.0000 0.41143  0.37093  0.30209  Biso   1.000  N
  H13      1.0000 0.43170  0.34061  0.18628  Biso   1.000  H
  C15      1.0000 0.40843  0.36163  0.41008  Biso   1.000  C
  C16      1.0000 0.48947  0.43555  0.11903  Biso   1.000  C
  C17      1.0000 0.49841  0.48227  0.85786  Biso   1.000  C
  N12      1.0000 0.52760  0.53136  0.86510  Biso   1.000  N
  H14      1.0000 0.59421  0.56200  0.93533  Biso   1.000  H
  C18      1.0000 0.62421  0.61931  0.75203  Biso   1.000  C
  C19      1.0000 0.37580  0.38070  0.24805  Biso   1.000  C
  O5       1.0000 0.38155  0.36404  0.47403  Biso   1.000  O
  N13      1.0000 0.47240  0.46864  0.13490  Biso   1.000  N
  H15      1.0000 0.52291  0.45361  0.09133  Biso   1.000  H
  H16      1.0000 0.46940  0.41209  0.06290  Biso   1.000  H
  O6       1.0000 0.45421  0.46086  0.86092  Biso   1.000  O
  C20      1.0000 0.51053  0.56445  0.88105  Biso   1.000  C
  N14      1.0000 0.58857  0.62907  0.69791  Biso   1.000  N
  H17      1.0000 0.63429  0.63729  0.82081  Biso   1.000  H
  H18      1.0000 0.65310  0.63102  0.70581  Biso   1.000  H
  N15      1.0000 0.39450  0.42989  0.22727  Biso   1.000  N
  H19      1.0000 0.36571  0.36271  0.17919  Biso   1.000  H
  H20      1.0000 0.34692  0.36902  0.29419  Biso   1.000  H
  C21      1.0000 0.42180  0.45592  0.13224  Biso   1.000  C
  C22      1.0000 0.50159  0.51773  0.14222  Biso   1.000  C
  N16      1.0000 0.51105  0.59058  0.78610  Biso   1.000  N
  H21      1.0000 0.47709  0.54639  0.90875  Biso   1.000  H
  H22      1.0000 0.53060  0.58791  0.93710  Biso   1.000  H
  C23      1.0000 0.55390  0.63621  0.75252  Biso   1.000  C
  C24      1.0000 0.59159  0.63841  0.58992  Biso   1.000  C
  C25      1.0000 0.37429  0.45379  0.27543  Biso   1.000  C
  C26      1.0000 0.42340  0.50451  0.13667  Biso   1.000  C
  H23      1.0000 0.40579  0.43800  0.06467  Biso   1.000  H
  N17      1.0000 0.47314  0.53850  0.15028  Biso   1.000  N
  O7       1.0000 0.54579  0.53914  0.13908  Biso   1.000  O
  C27      1.0000 0.46989  0.58449  0.73826  Biso   1.000  C
  C28      1.0000 0.53415  0.65495  0.66546  Biso   1.000  C
  H24      1.0000 0.56830  0.65939  0.81372  Biso   1.000  H
  N18      1.0000 0.55864  0.65293  0.56866  Biso   1.000  N
  O8       1.0000 0.61845  0.63596  0.52605  Biso   1.000  O
  O9       1.0000 0.34462  0.43901  0.34783  Biso   1.000  O
  N19      1.0000 0.39151  0.49791  0.22501  Biso   1.000  N
  H25      1.0000 0.41090  0.51060  0.06821  Biso   1.000  H
  C29      1.0000 0.49325  0.59033  0.14400  Biso   1.000  C
  N20      1.0000 0.48304  0.62104  0.66506  Biso   1.000  N
  O10      1.0000 0.42882  0.55291  0.75840  Biso   1.000  O
  H26      1.0000 0.54122  0.68851  0.68108  Biso   1.000  H
  C30      1.0000 0.56447  0.68188  0.47435  Biso   1.000  C
  C31      1.0000 0.38109  0.53500  0.26480  Biso   1.000  C
  N21      1.0000 0.49584  0.61329  0.24603  Biso   1.000  N
  H27      1.0000 0.52610  0.60489  0.11339  Biso   1.000  H
  H28      1.0000 0.47350  0.59721  0.09374  Biso   1.000  H
  C32      1.0000 0.44938  0.62500  0.59475  Biso   1.000  C
  N22      1.0000 0.52755  0.65593  0.39220  Biso   1.000  N
  H29      1.0000 0.59660  0.69269  0.44262  Biso   1.000  H
  H30      1.0000 0.56318  0.71089  0.49642  Biso   1.000  H
  N23      1.0000 0.41775  0.57061  0.33390  Biso   1.000  N
  H31      1.0000 0.37669  0.55161  0.20222  Biso   1.000  H
  H32      1.0000 0.35019  0.51889  0.30490  Biso   1.000  H
  C33      1.0000 0.45627  0.61581  0.29508  Biso   1.000  C
  C34      1.0000 0.53786  0.63783  0.30362  Biso   1.000  C
  N24      1.0000 0.45040  0.61138  0.48514  Biso   1.000  N
  H33      1.0000 0.45629  0.65881  0.59596  Biso   1.000  H
  H34      1.0000 0.41640  0.60449  0.62350  Biso   1.000  H
  C35      1.0000 0.47878  0.64472  0.39953  Biso   1.000  C
  C36      1.0000 0.41546  0.57072  0.44471  Biso   1.000  C
  H35      1.0000 0.44410  0.63250  0.24732  Biso   1.000  H
  O11      1.0000 0.57657  0.64353  0.27640  Biso   1.000  O
  H36      1.0000 0.47630  0.67460  0.40195  Biso   1.000  H
  O12      1.0000 0.38196  0.53604  0.49738  Biso   1.000  O
  C37      1.0000 0.67839  0.54588  0.33204  Biso   1.000  C
  N25      1.0000 0.68043  0.57238  0.23524  Biso   1.000  N
  H37      1.0000 0.64484  0.51936  0.34775  Biso   1.000  H
  N26      1.0000 0.71229  0.52866  0.33164  Biso   1.000  N
  C38      1.0000 0.69714  0.58438  0.41918  Biso   1.000  C
  C39      1.0000 0.65146  0.54927  0.14094  Biso   1.000  C
  C40      1.0000 0.69495  0.61988  0.25658  Biso   1.000  C
  C41      1.0000 0.70834  0.49103  0.26134  Biso   1.000  C
  C42      1.0000 0.74885  0.55208  0.40485  Biso   1.000  C
  N27      1.0000 0.70426  0.62615  0.36458  Biso   1.000  N
  N28      1.0000 0.74276  0.58715  0.45277  Biso   1.000  N
  H38      1.0000 0.67395  0.57558  0.48039  Biso   1.000  H
  N29      1.0000 0.67742  0.53831  0.05887  Biso   1.000  N
  H39      1.0000 0.64064  0.57057  0.10929  Biso   1.000  H
  H40      1.0000 0.62245  0.51896  0.16308  Biso   1.000  H
  O13      1.0000 0.69737  0.64915  0.19264  Biso   1.000  O
  N30      1.0000 0.72194  0.50570  0.15181  Biso   1.000  N
  H41      1.0000 0.67453  0.46417  0.26254  Biso   1.000  H
  H42      1.0000 0.72882  0.47855  0.29017  Biso   1.000  H
  O14      1.0000 0.78045  0.54260  0.42506  Biso   1.000  O
  C43      1.0000 0.71405  0.67157  0.41870  Biso   1.000  C
  C44      1.0000 0.76890  0.61278  0.54772  Biso   1.000  C
  C45      1.0000 0.68862  0.50072  0.06620  Biso   1.000  C
  C46      1.0000 0.69550  0.56668  0.97028  Biso   1.000  C
  C47      1.0000 0.76264  0.51143  0.11138  Biso   1.000  C
  N31      1.0000 0.76322  0.70206  0.43940  Biso   1.000  N
  H43      1.0000 0.69605  0.66368  0.48748  Biso   1.000  H
  H44      1.0000 0.70232  0.68876  0.37247  Biso   1.000  H
  N32      1.0000 0.80194  0.66288  0.53177  Biso   1.000  N
  H45      1.0000 0.78694  0.59735  0.57542  Biso   1.000  H
  H46      1.0000 0.74543  0.60936  0.60377  Biso   1.000  H
  H47      1.0000 0.65873  0.46835  0.06854  Biso   1.000  H
  C48      1.0000 0.71755  0.50714  0.96175  Biso   1.000  C
  O15      1.0000 0.68979  0.59970  0.94306  Biso   1.000  O
  N33      1.0000 0.72004  0.54920  0.91270  Biso   1.000  N
  N34      1.0000 0.76274  0.51380  0.00056  Biso   1.000  N
  O16      1.0000 0.79727  0.51258  0.16405  Biso   1.000  O
  C49      1.0000 0.78716  0.74618  0.39132  Biso   1.000  C
  C50      1.0000 0.78923  0.70076  0.53451  Biso   1.000  C
  C51      1.0000 0.85108  0.68281  0.52452  Biso   1.000  C
  H48      1.0000 0.70083  0.47827  0.91399  Biso   1.000  H
  C52      1.0000 0.74300  0.56960  0.81066  Biso   1.000  C
  C53      1.0000 0.79833  0.51276  0.93146  Biso   1.000  C
  O17      1.0000 0.77234  0.76107  0.31884  Biso   1.000  O
  N35      1.0000 0.83122  0.77307  0.44165  Biso   1.000  N
  C54      1.0000 0.83783  0.74777  0.53000  Biso   1.000  C
  H49      1.0000 0.77133  0.69885  0.60200  Biso   1.000  H
  N36      1.0000 0.87181  0.73201  0.51639  Biso   1.000  N
  O18      1.0000 0.87250  0.66003  0.52758  Biso   1.000  O
  N37      1.0000 0.79485  0.60132  0.81694  Biso   1.000  N
  H50      1.0000 0.72845  0.58788  0.78006  Biso   1.000  H
  H51      1.0000 0.73615  0.54296  0.76033  Biso   1.000  H
  N38      1.0000 0.83545  0.56027  0.89168  Biso   1.000  N
  H52      1.0000 0.78176  0.49178  0.86889  Biso   1.000  H
  H53      1.0000 0.81445  0.49798  0.97157  Biso   1.000  H
  C55      1.0000 0.86833  0.82057  0.40187  Biso   1.000  C
  H54      1.0000 0.84394  0.76636  0.59845  Biso   1.000  H
  C56      1.0000 0.92366  0.76373  0.52267  Biso   1.000  C
  C57      1.0000 0.82884  0.58557  0.80333  Biso   1.000  C
  C58      1.0000 0.81558  0.65052  0.80889  Biso   1.000  C
  C59      1.0000 0.87954  0.58715  0.94210  Biso   1.000  C
  N39      1.0000 0.90393  0.81953  0.33277  Biso   1.000  N
  H55      1.0000 0.88494  0.84155  0.46444  Biso   1.000  H
  H56      1.0000 0.85222  0.83535  0.36176  Biso   1.000  H
  N40      1.0000 0.94663  0.78413  0.42071  Biso   1.000  N
  H57      1.0000 0.93822  0.74546  0.55327  Biso   1.000  H
  H58      1.0000 0.93055  0.79037  0.57300  Biso   1.000  H
  H59      1.0000 0.82272  0.56697  0.73488  Biso   1.000  H
  C60      1.0000 0.87743  0.63257  0.79882  Biso   1.000  C
  O19      1.0000 0.79418  0.67334  0.80575  Biso   1.000  O
  N41      1.0000 0.86472  0.67045  0.80156  Biso   1.000  N
  O20      1.0000 0.89432  0.57227  0.01450  Biso   1.000  O
  N42      1.0000 0.90344  0.63127  0.89394  Biso   1.000  N
  C61      1.0000 0.90402  0.82191  0.22195  Biso   1.000  C
  C62      1.0000 0.94912  0.82620  0.37159  Biso   1.000  C
  C63      1.0000 0.97116  0.76665  0.36305  Biso   1.000  C
  H60      1.0000 0.89534  0.63448  0.73134  Biso   1.000  H
  C64      1.0000 0.89777  0.72055  0.78570  Biso   1.000  C
  C65      1.0000 0.95262  0.66176  0.91463  Biso   1.000  C
  O21      1.0000 0.86939  0.82075  0.16928  Biso   1.000  O
  N43      1.0000 0.94472  0.82764  0.18161  Biso   1.000  N
  C66      1.0000 0.97805  0.83261  0.26721  Biso   1.000  C
  H61      1.0000 0.96583  0.85507  0.41934  Biso   1.000  H
  N44      1.0000 0.98927  0.79506  0.27446  Biso   1.000  N
  O22      1.0000 0.97688  0.73364  0.39027  Biso   1.000  O
  N45      1.0000 0.92393  0.74622  0.88057  Biso   1.000  N
  H62      1.0000 0.87973  0.73598  0.75799  Biso   1.000  H
  H63      1.0000 0.92123  0.72398  0.72956  Biso   1.000  H
  N46      1.0000 0.96241  0.70718  0.96875  Biso   1.000  N
  H64      1.0000 0.97065  0.66966  0.84586  Biso   1.000  H
  H65      1.0000 0.96434  0.64457  0.96086  Biso   1.000  H
  C67      1.0000 0.95833  0.84231  0.07200  Biso   1.000  C
  H66      1.0000 0.00794  0.86498  0.26480  Biso   1.000  H
  C68      1.0000 0.01520  0.78406  0.19240  Biso   1.000  C
  C69      1.0000 0.96953  0.74896  0.91415  Biso   1.000  C
  C70      1.0000 0.91783  0.78129  0.92849  Biso   1.000  C
  C71      1.0000 0.97172  0.71345  0.07675  Biso   1.000  C
  N47      1.0000 0.95441  0.80468  0.00169  Biso   1.000  N
  H67      1.0000 0.99214  0.86916  0.07079  Biso   1.000  H
  H68      1.0000 0.93785  0.85478  0.04317  Biso   1.000  H
  N48      1.0000 0.98627  0.76096  0.09809  Biso   1.000  N
  H69      1.0000 0.02603  0.76276  0.22405  Biso   1.000  H
  H70      1.0000 0.04425  0.81437  0.17025  Biso   1.000  H
  C72      1.0000 0.98829  0.78749  0.00129  Biso   1.000  C
  H71      1.0000 0.99273  0.75779  0.85294  Biso   1.000  H
  O23      1.0000 0.88624  0.79077  0.90827  Biso   1.000  O
  O24      1.0000 0.96929  0.68418  0.14069  Biso   1.000  O
  H72      1.0000 0.02183  0.81398  0.98558  Biso   1.000  H
  O25      1.0000 0.45742  0.23785  0.42506  Biso   1.000  O
  C73      1.0000 0.44793  0.19676  0.40485  Biso   1.000  C
  N49      1.0000 0.41286  0.15560  0.45277  Biso   1.000  N
  N50      1.0000 0.47135  0.18361  0.33164  Biso   1.000  N
  C74      1.0000 0.38722  0.15614  0.54772  Biso   1.000  C
  C75      1.0000 0.41564  0.11278  0.41918  Biso   1.000  C
  C76      1.0000 0.45414  0.13253  0.33204  Biso   1.000  C
  C77      1.0000 0.50899  0.21731  0.26134  Biso   1.000  C
  N51      1.0000 0.33710  0.13906  0.53177  Biso   1.000  N
  H73      1.0000 0.40262  0.18955  0.57542  Biso   1.000  H
  H74      1.0000 0.39064  0.13607  0.60377  Biso   1.000  H
  N52      1.0000 0.37383  0.07811  0.36458  Biso   1.000  N
  H75      1.0000 0.42445  0.09836  0.48039  Biso   1.000  H
  N53      1.0000 0.42764  0.10806  0.23524  Biso   1.000  N
  H76      1.0000 0.48064  0.12547  0.34775  Biso   1.000  H
  N54      1.0000 0.49432  0.21626  0.15181  Biso   1.000  N
  H77      1.0000 0.53582  0.21035  0.26254  Biso   1.000  H
  H78      1.0000 0.52143  0.25025  0.29017  Biso   1.000  H
  C78      1.0000 0.31718  0.16825  0.52452  Biso   1.000  C
  C79      1.0000 0.29922  0.08845  0.53451  Biso   1.000  C
  C80      1.0000 0.32842  0.04246  0.41870  Biso   1.000  C
  C81      1.0000 0.38012  0.07508  0.25658  Biso   1.000  C
  C82      1.0000 0.45074  0.10218  0.14094  Biso   1.000  C
  C83      1.0000 0.48856  0.25119  0.11138  Biso   1.000  C
  C84      1.0000 0.49927  0.18790  0.06620  Biso   1.000  C
  N55      1.0000 0.26800  0.13981  0.51639  Biso   1.000  N
  O26      1.0000 0.33998  0.21248  0.52758  Biso   1.000  O
  C85      1.0000 0.25224  0.09007  0.53000  Biso   1.000  C
  N56      1.0000 0.29794  0.06117  0.43940  Biso   1.000  N
  H79      1.0000 0.30113  0.07248  0.60200  Biso   1.000  H
  H80      1.0000 0.33632  0.03237  0.48748  Biso   1.000  H
  H81      1.0000 0.31121  0.01355  0.37247  Biso   1.000  H
  O27      1.0000 0.35084  0.04823  0.19264  Biso   1.000  O
  N57      1.0000 0.46172  0.13913  0.05887  Biso   1.000  N
  H82      1.0000 0.42943  0.07007  0.10929  Biso   1.000  H
  H83      1.0000 0.48104  0.10348  0.16308  Biso   1.000  H
  N58      1.0000 0.48618  0.24892  0.00056  Biso   1.000  N
  O28      1.0000 0.48744  0.28471  0.16405  Biso   1.000  O
  C86      1.0000 0.49287  0.21042  0.96175  Biso   1.000  C
  H84      1.0000 0.53164  0.19038  0.06854  Biso   1.000  H
  C87      1.0000 0.23626  0.15993  0.52267  Biso   1.000  C
  N59      1.0000 0.22693  0.05817  0.44165  Biso   1.000  N
  H85      1.0000 0.23363  0.07757  0.59845  Biso   1.000  H
  C88      1.0000 0.25385  0.04098  0.39132  Biso   1.000  C
  C89      1.0000 0.43331  0.12882  0.97028  Biso   1.000  C
  C90      1.0000 0.48724  0.28558  0.93146  Biso   1.000  C
  N60      1.0000 0.45079  0.17085  0.91270  Biso   1.000  N
  H86      1.0000 0.52173  0.22257  0.91399  Biso   1.000  H
  N61      1.0000 0.21587  0.16249  0.42071  Biso   1.000  N
  H87      1.0000 0.25455  0.19276  0.55327  Biso   1.000  H
  H88      1.0000 0.20965  0.14017  0.57300  Biso   1.000  H
  C91      1.0000 0.17942  0.04776  0.40187  Biso   1.000  C
  O29      1.0000 0.23894  0.01128  0.31884  Biso   1.000  O
  O30      1.0000 0.40029  0.09007  0.94306  Biso   1.000  O
  N62      1.0000 0.43974  0.27516  0.89168  Biso   1.000  N
  H89      1.0000 0.50823  0.28997  0.86889  Biso   1.000  H
  H90      1.0000 0.50203  0.31646  0.97157  Biso   1.000  H
  C92      1.0000 0.43041  0.17341  0.81066  Biso   1.000  C
  C93      1.0000 0.23336  0.20451  0.36305  Biso   1.000  C
  C94      1.0000 0.17380  0.12291  0.37159  Biso   1.000  C
  N63      1.0000 0.18049  0.08441  0.33277  Biso   1.000  N
  H91      1.0000 0.15843  0.04336  0.46444  Biso   1.000  H
  H92      1.0000 0.16463  0.01687  0.36176  Biso   1.000  H
  C95      1.0000 0.41281  0.29235  0.94210  Biso   1.000  C
  C96      1.0000 0.41443  0.24326  0.80333  Biso   1.000  C
  N64      1.0000 0.39867  0.19352  0.81694  Biso   1.000  N
  H93      1.0000 0.41215  0.14057  0.78006  Biso   1.000  H
  H94      1.0000 0.45702  0.19316  0.76033  Biso   1.000  H
  N65      1.0000 0.20495  0.19420  0.27446  Biso   1.000  N
  O31      1.0000 0.26637  0.24326  0.39027  Biso   1.000  O
  C97      1.0000 0.16739  0.14544  0.26721  Biso   1.000  C
  H95      1.0000 0.14494  0.11076  0.41934  Biso   1.000  H
  C98      1.0000 0.17811  0.08214  0.22195  Biso   1.000  C
  N66      1.0000 0.36873  0.27217  0.89394  Biso   1.000  N
  O32      1.0000 0.42773  0.32205  0.01450  Biso   1.000  O
  C99      1.0000 0.36745  0.24488  0.79882  Biso   1.000  C
  H96      1.0000 0.43304  0.25577  0.73488  Biso   1.000  H
  C100     1.0000 0.34949  0.16508  0.80889  Biso   1.000  C
  C101     1.0000 0.21593  0.23115  0.19240  Biso   1.000  C
  N67      1.0000 0.17234  0.11707  0.18161  Biso   1.000  N
  H97      1.0000 0.13503  0.14295  0.26480  Biso   1.000  H
  O33      1.0000 0.17923  0.04862  0.16928  Biso   1.000  O
  C102     1.0000 0.33825  0.29087  0.91463  Biso   1.000  C
  N68      1.0000 0.32956  0.19428  0.80156  Biso   1.000  N
  H98      1.0000 0.36555  0.26089  0.73134  Biso   1.000  H
  O34      1.0000 0.32669  0.12086  0.80575  Biso   1.000  O
  N69      1.0000 0.23903  0.22527  0.09809  Biso   1.000  N
  H99      1.0000 0.23723  0.26326  0.22405  Biso   1.000  H
  H100     1.0000 0.18563  0.22985  0.17025  Biso   1.000  H
  C103     1.0000 0.15771  0.11603  0.07200  Biso   1.000  C
  N70      1.0000 0.29283  0.25523  0.96875  Biso   1.000  N
  H101     1.0000 0.33034  0.30097  0.84586  Biso   1.000  H
  H102     1.0000 0.35545  0.31978  0.96086  Biso   1.000  H
  C104     1.0000 0.27944  0.17719  0.78570  Biso   1.000  C
  C105     1.0000 0.28654  0.25825  0.07675  Biso   1.000  C
  C106     1.0000 0.21252  0.20080  0.00129  Biso   1.000  C
  N71      1.0000 0.19535  0.14973  0.00169  Biso   1.000  N
  H103     1.0000 0.13085  0.12298  0.07079  Biso   1.000  H
  H104     1.0000 0.14524  0.08308  0.04317  Biso   1.000  H
  C107     1.0000 0.25102  0.22055  0.91415  Biso   1.000  C
  N72      1.0000 0.25381  0.17773  0.88057  Biso   1.000  N
  H105     1.0000 0.26405  0.14378  0.75799  Biso   1.000  H
  H106     1.0000 0.27603  0.19727  0.72956  Biso   1.000  H
  O35      1.0000 0.31583  0.28511  0.14069  Biso   1.000  O
  H107     1.0000 0.18603  0.20786  0.98558  Biso   1.000  H
  C108     1.0000 0.21874  0.13657  0.92849  Biso   1.000  C
  H108     1.0000 0.24225  0.23497  0.85294  Biso   1.000  H
  O36      1.0000 0.20925  0.09548  0.90827  Biso   1.000  O
  C109     1.0000 0.82435  0.44936  0.40533  Biso   1.000  C
  N73      1.0000 0.83901  0.45040  0.51494  Biso   1.000  N
  H109     1.0000 0.79752  0.45632  0.40412  Biso   1.000  H
  H110     1.0000 0.81190  0.41641  0.37650  Biso   1.000  H
  N74      1.0000 0.86199  0.48306  0.33502  Biso   1.000  N
  N75      1.0000 0.86202  0.48306  0.33502  Biso   1.000  N
  C110     1.0000 0.83406  0.47877  0.60055  Biso   1.000  C
  C111     1.0000 0.84477  0.41548  0.55529  Biso   1.000  C
  C112     1.0000 0.82438  0.44936  0.40533  Biso   1.000  C
  C113     1.0000 0.88541  0.46990  0.26182  Biso   1.000  C
  C114     1.0000 0.87919  0.53413  0.33462  Biso   1.000  C
  N76      1.0000 0.87162  0.52754  0.60780  Biso   1.000  N
  H111     1.0000 0.80171  0.47632  0.59813  Biso   1.000  H
  C115     1.0000 0.84048  0.45628  0.70492  Biso   1.000  C
  N77      1.0000 0.84716  0.41775  0.66610  Biso   1.000  N
  O37      1.0000 0.84590  0.38196  0.50262  Biso   1.000  O
  O38      1.0000 0.87591  0.42881  0.24160  Biso   1.000  O
  N78      1.0000 0.92047  0.51107  0.21390  Biso   1.000  N
  N79      1.0000 0.90569  0.55861  0.43142  Biso   1.000  N
  C116     1.0000 0.91769  0.55389  0.24748  Biso   1.000  C
  H112     1.0000 0.85269  0.54120  0.31892  Biso   1.000  H
  C117     1.0000 0.88260  0.56448  0.52573  Biso   1.000  C
  C118     1.0000 0.90003  0.53785  0.69638  Biso   1.000  C
  N80      1.0000 0.88254  0.49582  0.75405  Biso   1.000  N
  H113     1.0000 0.81160  0.44410  0.75276  Biso   1.000  H
  C119     1.0000 0.84609  0.38109  0.73520  Biso   1.000  C
  C120     1.0000 0.94611  0.51052  0.11903  Biso   1.000  C
  C121     1.0000 0.95321  0.59159  0.41008  Biso   1.000  C
  N81      1.0000 0.95950  0.58856  0.30209  Biso   1.000  N
  H114     1.0000 0.90889  0.56830  0.18628  Biso   1.000  H
  H115     1.0000 0.90892  0.56830  0.18628  Biso   1.000  H
  H116     1.0000 0.90390  0.59660  0.55738  Biso   1.000  H
  H117     1.0000 0.85229  0.56319  0.50358  Biso   1.000  H
  O39      1.0000 0.93304  0.57659  0.72360  Biso   1.000  O
  C122     1.0000 0.90292  0.49326  0.85600  Biso   1.000  C
  N82      1.0000 0.89359  0.39151  0.77499  Biso   1.000  N
  H118     1.0000 0.82510  0.37669  0.79786  Biso   1.000  H
  H119     1.0000 0.83130  0.35020  0.69510  Biso   1.000  H
  N83      1.0000 0.99623  0.52761  0.13490  Biso   1.000  N
  H120     1.0000 0.93071  0.47711  0.09133  Biso   1.000  H
  H121     1.0000 0.94269  0.53060  0.06290  Biso   1.000  H
  O40      1.0000 0.98249  0.61844  0.47403  Biso   1.000  O
  C123     1.0000 0.00492  0.62421  0.24805  Biso   1.000  C
  N84      1.0000 0.93466  0.47315  0.84972  Biso   1.000  N
  H122     1.0000 0.87632  0.47351  0.90634  Biso   1.000  H
  H123     1.0000 0.92118  0.52610  0.88661  Biso   1.000  H
  H124     1.0000 0.92121  0.52610  0.88661  Biso   1.000  H
  C124     1.0000 0.91891  0.42341  0.86333  Biso   1.000  C
  C125     1.0000 0.92052  0.37432  0.72465  Biso   1.000  C
  C126     1.0000 0.01616  0.49841  0.14222  Biso   1.000  C
  C127     1.0000 0.03411  0.57822  0.13224  Biso   1.000  C
  H125     1.0000 0.99701  0.63430  0.17919  Biso   1.000  H
  N85      1.0000 0.03539  0.60550  0.22727  Biso   1.000  N
  H126     1.0000 0.02212  0.65311  0.29419  Biso   1.000  H
  C128     1.0000 0.98384  0.50159  0.85786  Biso   1.000  C
  H127     1.0000 0.90029  0.41090  0.93187  Biso   1.000  H
  C129     1.0000 0.96589  0.42179  0.86784  Biso   1.000  C
  O41      1.0000 0.90561  0.34462  0.65225  Biso   1.000  O
  N86      1.0000 0.96461  0.39450  0.77273  Biso   1.000  N
  O42      1.0000 0.99336  0.45419  0.13908  Biso   1.000  O
  N87      1.0000 0.06535  0.52689  0.15028  Biso   1.000  N
  C130     1.0000 0.08109  0.57659  0.13667  Biso   1.000  C
  H128     1.0000 0.03222  0.59422  0.06467  Biso   1.000  H
  C131     1.0000 0.07948  0.62569  0.27543  Biso   1.000  C
  O43      1.0000 0.00664  0.54581  0.86092  Biso   1.000  O
  N88      1.0000 0.00377  0.47239  0.86510  Biso   1.000  N
  H129     1.0000 0.96780  0.40582  0.93533  Biso   1.000  H
  C132     1.0000 0.99511  0.37579  0.75203  Biso   1.000  C
  C133     1.0000 0.09708  0.50674  0.14400  Biso   1.000  C
  N89      1.0000 0.10641  0.60849  0.22501  Biso   1.000  N
  H130     1.0000 0.09971  0.58910  0.06821  Biso   1.000  H
  O44      1.0000 0.09439  0.65539  0.34783  Biso   1.000  O
  C134     1.0000 0.05389  0.48948  0.88105  Biso   1.000  C
  H131     1.0000 0.97788  0.34689  0.70581  Biso   1.000  H
  N90      1.0000 0.04050  0.41144  0.69791  Biso   1.000  N
  H132     1.0000 0.00299  0.36570  0.82081  Biso   1.000  H
  N91      1.0000 0.11746  0.50418  0.24603  Biso   1.000  N
  H133     1.0000 0.12368  0.52649  0.09374  Biso   1.000  H
  H134     1.0000 0.07882  0.47390  0.11339  Biso   1.000  H
  C135     1.0000 0.15391  0.61891  0.26480  Biso   1.000  C
  N92      1.0000 0.07953  0.48893  0.78610  Biso   1.000  N
  H135     1.0000 0.06929  0.52289  0.90875  Biso   1.000  H
  H136     1.0000 0.05731  0.46940  0.93710  Biso   1.000  H
  C136     1.0000 0.08231  0.44611  0.75252  Biso   1.000  C
  C137     1.0000 0.04679  0.40841  0.58992  Biso   1.000  C
  C138     1.0000 0.09997  0.46215  0.30362  Biso   1.000  C
  C139     1.0000 0.15954  0.54376  0.29508  Biso   1.000  C
  N93      1.0000 0.15284  0.58225  0.33390  Biso   1.000  N
  H137     1.0000 0.17490  0.62331  0.20222  Biso   1.000  H
  H138     1.0000 0.16870  0.64980  0.30490  Biso   1.000  H
  C140     1.0000 0.11459  0.53010  0.73826  Biso   1.000  C
  C141     1.0000 0.12081  0.46587  0.66546  Biso   1.000  C
  H139     1.0000 0.09111  0.43170  0.81372  Biso   1.000  H
  O45      1.0000 0.01751  0.38156  0.52605  Biso   1.000  O
  N94      1.0000 0.09431  0.44139  0.56866  Biso   1.000  N
  N95      1.0000 0.12838  0.47246  0.39220  Biso   1.000  N
  O46      1.0000 0.06696  0.42341  0.27640  Biso   1.000  O
  C142     1.0000 0.16594  0.52123  0.39953  Biso   1.000  C
  H140     1.0000 0.18840  0.55590  0.24732  Biso   1.000  H
  C143     1.0000 0.15525  0.58456  0.44471  Biso   1.000  C
  O47      1.0000 0.12409  0.57119  0.75840  Biso   1.000  O
  N96      1.0000 0.13798  0.51694  0.66506  Biso   1.000  N
  N97      1.0000 0.13801  0.51694  0.66506  Biso   1.000  N
  H141     1.0000 0.14731  0.45880  0.68108  Biso   1.000  H
  C144     1.0000 0.11740  0.43552  0.47435  Biso   1.000  C
  N98      1.0000 0.16099  0.54960  0.48514  Biso   1.000  N
  H142     1.0000 0.19831  0.52372  0.40195  Biso   1.000  H
  O48      1.0000 0.15410  0.61804  0.49738  Biso   1.000  O
  C145     1.0000 0.17562  0.55064  0.59475  Biso   1.000  C
  C146     1.0000 0.17565  0.55064  0.59475  Biso   1.000  C
  H143     1.0000 0.09610  0.40340  0.44262  Biso   1.000  H
  H144     1.0000 0.14771  0.43682  0.49642  Biso   1.000  H
  H145     1.0000 0.20248  0.54369  0.59596  Biso   1.000  H
  H146     1.0000 0.18810  0.58359  0.62350  Biso   1.000  H
  O49      1.0000 0.53606  0.15409  0.50262  Biso   1.000  O
  C147     1.0000 0.57069  0.15524  0.55529  Biso   1.000  C
  N99      1.0000 0.57059  0.15286  0.66610  Biso   1.000  N
  N100     1.0000 0.61139  0.16097  0.51494  Biso   1.000  N
  C148     1.0000 0.53500  0.15391  0.73520  Biso   1.000  C
  C149     1.0000 0.61579  0.15953  0.70492  Biso   1.000  C
  C150     1.0000 0.64472  0.16595  0.60055  Biso   1.000  C
  C151     1.0000 0.62500  0.17564  0.40533  Biso   1.000  C
  N101     1.0000 0.49789  0.10640  0.77499  Biso   1.000  N
  H147     1.0000 0.51888  0.16869  0.69510  Biso   1.000  H
  H148     1.0000 0.55163  0.17492  0.79786  Biso   1.000  H
  H149     1.0000 0.51890  0.16872  0.69510  Biso   1.000  H
  N102     1.0000 0.61330  0.11747  0.75405  Biso   1.000  N
  H150     1.0000 0.63250  0.18840  0.75276  Biso   1.000  H
  N103     1.0000 0.65593  0.12839  0.60780  Biso   1.000  N
  H151     1.0000 0.67460  0.19831  0.59813  Biso   1.000  H
  H152     1.0000 0.65881  0.20249  0.40412  Biso   1.000  H
  H153     1.0000 0.60451  0.18811  0.37650  Biso   1.000  H
  N104     1.0000 0.62107  0.13801  0.33502  Biso   1.000  N
  N105     1.0000 0.62104  0.13801  0.33502  Biso   1.000  N
  C152     1.0000 0.45382  0.07951  0.72465  Biso   1.000  C
  C153     1.0000 0.45379  0.07951  0.72465  Biso   1.000  C
  C154     1.0000 0.50450  0.08110  0.86333  Biso   1.000  C
  C155     1.0000 0.59033  0.09707  0.85600  Biso   1.000  C
  C156     1.0000 0.63783  0.09999  0.69638  Biso   1.000  C
  C157     1.0000 0.68187  0.11739  0.52573  Biso   1.000  C
  C158     1.0000 0.58448  0.11458  0.26182  Biso   1.000  C
  C159     1.0000 0.58450  0.11462  0.26182  Biso   1.000  C
  C160     1.0000 0.65496  0.12082  0.33462  Biso   1.000  C
  O50      1.0000 0.43901  0.09440  0.65225  Biso   1.000  O
  N106     1.0000 0.42989  0.03540  0.77273  Biso   1.000  N
  C161     1.0000 0.45590  0.03410  0.86784  Biso   1.000  C
  N107     1.0000 0.53848  0.06535  0.84972  Biso   1.000  N
  H154     1.0000 0.51061  0.09970  0.93187  Biso   1.000  H
  H155     1.0000 0.60488  0.07879  0.88661  Biso   1.000  H
  H156     1.0000 0.59722  0.12370  0.90634  Biso   1.000  H
  H157     1.0000 0.59719  0.12370  0.90634  Biso   1.000  H
  O51      1.0000 0.64355  0.06697  0.72360  Biso   1.000  O
  H158     1.0000 0.69270  0.09609  0.55738  Biso   1.000  H
  H159     1.0000 0.71092  0.14771  0.50358  Biso   1.000  H
  N108     1.0000 0.65293  0.09429  0.43142  Biso   1.000  N
  N109     1.0000 0.65290  0.09429  0.43142  Biso   1.000  N
  O52      1.0000 0.55290  0.12410  0.24160  Biso   1.000  O
  N110     1.0000 0.59059  0.07955  0.21390  Biso   1.000  N
  C162     1.0000 0.63619  0.08229  0.24748  Biso   1.000  C
  H160     1.0000 0.68850  0.14731  0.31892  Biso   1.000  H
  C163     1.0000 0.38071  0.00490  0.75203  Biso   1.000  C
  H161     1.0000 0.43799  0.03219  0.93533  Biso   1.000  H
  N111     1.0000 0.46861  0.99622  0.86510  Biso   1.000  N
  C164     1.0000 0.51775  0.01615  0.85786  Biso   1.000  C
  C165     1.0000 0.63839  0.04678  0.41008  Biso   1.000  C
  C166     1.0000 0.56443  0.05389  0.11903  Biso   1.000  C
  N112     1.0000 0.62907  0.04051  0.30209  Biso   1.000  N
  H162     1.0000 0.65940  0.09112  0.18628  Biso   1.000  H
  H163     1.0000 0.36899  0.02209  0.70581  Biso   1.000  H
  N113     1.0000 0.37093  0.95949  0.69791  Biso   1.000  N
  H164     1.0000 0.36269  0.99701  0.82081  Biso   1.000  H
  C167     1.0000 0.43557  0.94611  0.88105  Biso   1.000  C
  O53      1.0000 0.53917  0.99337  0.86092  Biso   1.000  O
  O54      1.0000 0.63596  0.01752  0.47403  Biso   1.000  O
  N114     1.0000 0.53139  0.00378  0.13490  Biso   1.000  N
  H165     1.0000 0.54639  0.06931  0.09133  Biso   1.000  H
  H166     1.0000 0.58790  0.05731  0.06290  Biso   1.000  H
  C168     1.0000 0.61929  0.99510  0.24805  Biso   1.000  C
  C169     1.0000 0.36161  0.95322  0.58992  Biso   1.000  C
  C170     1.0000 0.36381  0.91771  0.75252  Biso   1.000  C
  N115     1.0000 0.40943  0.92049  0.78610  Biso   1.000  N
  H167     1.0000 0.45361  0.93069  0.90875  Biso   1.000  H
  H168     1.0000 0.41210  0.94269  0.93710  Biso   1.000  H
  C171     1.0000 0.48225  0.98385  0.14222  Biso   1.000  C
  C172     1.0000 0.54410  0.96590  0.13224  Biso   1.000  C
  H169     1.0000 0.63731  0.00299  0.17919  Biso   1.000  H
  N116     1.0000 0.57011  0.96460  0.22727  Biso   1.000  N
  H170     1.0000 0.63101  0.97791  0.29419  Biso   1.000  H
  O55      1.0000 0.36404  0.98248  0.52605  Biso   1.000  O
  N117     1.0000 0.34710  0.90571  0.56866  Biso   1.000  N
  C173     1.0000 0.34506  0.87922  0.66546  Biso   1.000  C
  H171     1.0000 0.34062  0.90892  0.81372  Biso   1.000  H
  C174     1.0000 0.41552  0.88542  0.73826  Biso   1.000  C
  N118     1.0000 0.46152  0.93465  0.15028  Biso   1.000  N
  O56      1.0000 0.46083  0.00663  0.13908  Biso   1.000  O
  O57      1.0000 0.46085  0.00667  0.13908  Biso   1.000  O
  C175     1.0000 0.49550  0.91890  0.13667  Biso   1.000  C
  H172     1.0000 0.56201  0.96781  0.06467  Biso   1.000  H
  C176     1.0000 0.54621  0.92049  0.27543  Biso   1.000  C
  C177     1.0000 0.31813  0.88261  0.47435  Biso   1.000  C
  H173     1.0000 0.31150  0.85269  0.68108  Biso   1.000  H
  N119     1.0000 0.37896  0.86199  0.66506  Biso   1.000  N
  O58      1.0000 0.44711  0.87594  0.75840  Biso   1.000  O
  C178     1.0000 0.40967  0.90293  0.14400  Biso   1.000  C
  N120     1.0000 0.50211  0.89360  0.22501  Biso   1.000  N
  H174     1.0000 0.48939  0.90030  0.06821  Biso   1.000  H
  O59      1.0000 0.56099  0.90560  0.34783  Biso   1.000  O
  H175     1.0000 0.30730  0.90391  0.44262  Biso   1.000  H
  N121     1.0000 0.34408  0.87165  0.39220  Biso   1.000  N
  H176     1.0000 0.28908  0.85229  0.49642  Biso   1.000  H
  C179     1.0000 0.37500  0.82436  0.59475  Biso   1.000  C
  N122     1.0000 0.38670  0.88253  0.24603  Biso   1.000  N
  H177     1.0000 0.39512  0.92121  0.11339  Biso   1.000  H
  H178     1.0000 0.40281  0.87630  0.09374  Biso   1.000  H
  C180     1.0000 0.46500  0.84609  0.26480  Biso   1.000  C
  C181     1.0000 0.35528  0.83405  0.39953  Biso   1.000  C
  C182     1.0000 0.35530  0.83409  0.39953  Biso   1.000  C
  C183     1.0000 0.36219  0.90005  0.30362  Biso   1.000  C
  N123     1.0000 0.38861  0.83903  0.48514  Biso   1.000  N
  H179     1.0000 0.34119  0.79751  0.59596  Biso   1.000  H
  H180     1.0000 0.39549  0.81189  0.62350  Biso   1.000  H
  C184     1.0000 0.38421  0.84047  0.29508  Biso   1.000  C
  N124     1.0000 0.42941  0.84714  0.33390  Biso   1.000  N
  H181     1.0000 0.44842  0.82512  0.20222  Biso   1.000  H
  H182     1.0000 0.48112  0.83131  0.30490  Biso   1.000  H
  H183     1.0000 0.44839  0.82512  0.20222  Biso   1.000  H
  H184     1.0000 0.32540  0.80169  0.40195  Biso   1.000  H
  O60      1.0000 0.35645  0.93303  0.27640  Biso   1.000  O
  C185     1.0000 0.42931  0.84476  0.44471  Biso   1.000  C
  H185     1.0000 0.36750  0.81160  0.24732  Biso   1.000  H
  O61      1.0000 0.46394  0.84591  0.49738  Biso   1.000  O
  C186     1.0000 0.28595  0.32843  0.58138  Biso   1.000  C
  N125     1.0000 0.23678  0.29794  0.56068  Biso   1.000  N
  N126     1.0000 0.29574  0.37385  0.63542  Biso   1.000  N
  H186     1.0000 0.30398  0.33633  0.51252  Biso   1.000  H
  H187     1.0000 0.29768  0.31124  0.62753  Biso   1.000  H
  C187     1.0000 0.21077  0.29924  0.46557  Biso   1.000  C
  C188     1.0000 0.21288  0.25382  0.60876  Biso   1.000  C
  C189     1.0000 0.30286  0.41562  0.58082  Biso   1.000  C
  C190     1.0000 0.30505  0.38012  0.74350  Biso   1.000  C
  N127     1.0000 0.19806  0.33712  0.46823  Biso   1.000  N
  C191     1.0000 0.16217  0.25223  0.47008  Biso   1.000  C
  H188     1.0000 0.22867  0.30115  0.39808  Biso   1.000  H
  N128     1.0000 0.16878  0.22693  0.55835  Biso   1.000  N
  O62      1.0000 0.22766  0.23893  0.68116  Biso   1.000  O
  N129     1.0000 0.25726  0.41288  0.54723  Biso   1.000  N
  H189     1.0000 0.32607  0.42445  0.51961  Biso   1.000  H
  C192     1.0000 0.32163  0.45415  0.66796  Biso   1.000  C
  O63      1.0000 0.30263  0.35085  0.80736  Biso   1.000  O
  N130     1.0000 0.31957  0.42762  0.76476  Biso   1.000  N
  C193     1.0000 0.14892  0.31719  0.47556  Biso   1.000  C
  C194     1.0000 0.23110  0.38722  0.45236  Biso   1.000  C
  N131     1.0000 0.12819  0.26799  0.48361  Biso   1.000  N
  H190     1.0000 0.15606  0.23364  0.40155  Biso   1.000  H
  C195     1.0000 0.13167  0.17943  0.59813  Biso   1.000  C
  C196     1.0000 0.25115  0.44792  0.59515  Biso   1.000  C
  N132     1.0000 0.28771  0.47135  0.66836  Biso   1.000  N
  H191     1.0000 0.35516  0.48064  0.65225  Biso   1.000  H
  C197     1.0000 0.34854  0.45073  0.85906  Biso   1.000  C
  O64      1.0000 0.12752  0.34000  0.47242  Biso   1.000  O
  H192     1.0000 0.21306  0.40265  0.42466  Biso   1.000  H
  H193     1.0000 0.25457  0.39064  0.39623  Biso   1.000  H
  C198     1.0000 0.07634  0.23627  0.47733  Biso   1.000  C
  N133     1.0000 0.09607  0.18047  0.66723  Biso   1.000  N
  H194     1.0000 0.11506  0.15845  0.53556  Biso   1.000  H
  H195     1.0000 0.14778  0.16465  0.63824  Biso   1.000  H
  O65      1.0000 0.21957  0.45743  0.57494  Biso   1.000  O
  C199     1.0000 0.29166  0.50898  0.73866  Biso   1.000  C
  N134     1.0000 0.32260  0.46172  0.94113  Biso   1.000  N
  H196     1.0000 0.35936  0.42943  0.89079  Biso   1.000  H
  H197     1.0000 0.37759  0.48104  0.83700  Biso   1.000  H
  N135     1.0000 0.05337  0.21587  0.57937  Biso   1.000  N
  H198     1.0000 0.06178  0.25454  0.44673  Biso   1.000  H
  H199     1.0000 0.06948  0.20963  0.42708  Biso   1.000  H
  C200     1.0000 0.09598  0.17809  0.77805  Biso   1.000  C
  C201     1.0000 0.05088  0.17380  0.62849  Biso   1.000  C
  N136     1.0000 0.27806  0.49431  0.84827  Biso   1.000  N
  H200     1.0000 0.32547  0.53583  0.73746  Biso   1.000  H
  H201     1.0000 0.27118  0.52145  0.70983  Biso   1.000  H
  C202     1.0000 0.31138  0.49928  0.93388  Biso   1.000  C
  C203     1.0000 0.30450  0.43332  0.02980  Biso   1.000  C
  C204     1.0000 0.02884  0.23335  0.63695  Biso   1.000  C
  O66      1.0000 0.13061  0.17925  0.83080  Biso   1.000  O
  N137     1.0000 0.05528  0.17236  0.81847  Biso   1.000  N
  C205     1.0000 0.02195  0.16739  0.73287  Biso   1.000  C
  H202     1.0000 0.03417  0.14493  0.58066  Biso   1.000  H
  C206     1.0000 0.23736  0.48857  0.88870  Biso   1.000  C
  H203     1.0000 0.34127  0.53165  0.93146  Biso   1.000  H
  C207     1.0000 0.28245  0.49286  0.03825  Biso   1.000  C
  O67      1.0000 0.31022  0.40030  0.05694  Biso   1.000  O
  N138     1.0000 0.27996  0.45080  0.08738  Biso   1.000  N
  O68      1.0000 0.02312  0.26636  0.60973  Biso   1.000  O
  N139     1.0000 0.01075  0.20498  0.72554  Biso   1.000  N
  C208     1.0000 0.04167  0.15769  0.92808  Biso   1.000  C
  H204     1.0000 0.99206  0.13502  0.73528  Biso   1.000  H
  O69      1.0000 0.20273  0.48742  0.83595  Biso   1.000  O
  N140     1.0000 0.23726  0.48620  0.99944  Biso   1.000  N
  H205     1.0000 0.29917  0.52173  0.08609  Biso   1.000  H
  C209     1.0000 0.25700  0.43040  0.18934  Biso   1.000  C
  C210     1.0000 0.98480  0.21594  0.80768  Biso   1.000  C
  H206     1.0000 0.00786  0.13084  0.92929  Biso   1.000  H
  H207     1.0000 0.06215  0.14522  0.95683  Biso   1.000  H
  N141     1.0000 0.04563  0.19532  0.99839  Biso   1.000  N
  C211     1.0000 0.20167  0.48724  0.06854  Biso   1.000  C
  N142     1.0000 0.20515  0.39868  0.18306  Biso   1.000  N
  H208     1.0000 0.27155  0.41213  0.21994  Biso   1.000  H
  H209     1.0000 0.26385  0.45704  0.23967  Biso   1.000  H
  N143     1.0000 0.01377  0.23904  0.90199  Biso   1.000  N
  H210     1.0000 0.97397  0.23724  0.77595  Biso   1.000  H
  H211     1.0000 0.95575  0.18563  0.82975  Biso   1.000  H
  C212     1.0000 0.01173  0.21255  0.99879  Biso   1.000  C
  C213     1.0000 0.08219  0.21875  0.07160  Biso   1.000  C
  N144     1.0000 0.16455  0.43973  0.10840  Biso   1.000  N
  H212     1.0000 0.21827  0.50822  0.13119  Biso   1.000  H
  H213     1.0000 0.18555  0.50202  0.02843  Biso   1.000  H
  C214     1.0000 0.17116  0.41443  0.19667  Biso   1.000  C
  C215     1.0000 0.18442  0.34948  0.19119  Biso   1.000  C
  C216     1.0000 0.02828  0.28655  0.92325  Biso   1.000  C
  H214     1.0000 0.97817  0.18602  0.01450  Biso   1.000  H
  C217     1.0000 0.03047  0.25105  0.08585  Biso   1.000  C
  O70      1.0000 0.11378  0.20927  0.09173  Biso   1.000  O
  N145     1.0000 0.07609  0.25382  0.11943  Biso   1.000  N
  C218     1.0000 0.12046  0.41285  0.05799  Biso   1.000  C
  H215     1.0000 0.17728  0.43303  0.26520  Biso   1.000  H
  C219     1.0000 0.12257  0.36743  0.20118  Biso   1.000  C
  N146     1.0000 0.13528  0.32955  0.19844  Biso   1.000  N
  O71      1.0000 0.20583  0.32670  0.19425  Biso   1.000  O
  O72      1.0000 0.03071  0.31582  0.85939  Biso   1.000  O
  N147     1.0000 0.03760  0.29282  0.03125  Biso   1.000  N
  H216     1.0000 0.00728  0.24225  0.14706  Biso   1.000  H
  C220     1.0000 0.10223  0.27945  0.21438  Biso   1.000  C
  N148     1.0000 0.09656  0.36873  0.10606  Biso   1.000  N
  O73      1.0000 0.10568  0.42773  0.98558  Biso   1.000  O
  H217     1.0000 0.10466  0.36552  0.26866  Biso   1.000  H
  C221     1.0000 0.04738  0.33824  0.08537  Biso   1.000  C
  H218     1.0000 0.12027  0.26402  0.24209  Biso   1.000  H
  H219     1.0000 0.07877  0.27602  0.27044  Biso   1.000  H
  H220     1.0000 0.02935  0.33034  0.15414  Biso   1.000  H
  H221     1.0000 0.03566  0.35543  0.03914  Biso   1.000  H
  C222     1.0000 0.78271  0.29167  0.26134  Biso   1.000  C
  N149     1.0000 0.78373  0.27804  0.15181  Biso   1.000  N
  H222     1.0000 0.78963  0.32548  0.26254  Biso   1.000  H
  H223     1.0000 0.74973  0.27116  0.29017  Biso   1.000  H
  N150     1.0000 0.81638  0.28770  0.33164  Biso   1.000  N
  C223     1.0000 0.74880  0.23738  0.11138  Biso   1.000  C
  C224     1.0000 0.81211  0.31138  0.06620  Biso   1.000  C
  C225     1.0000 0.86748  0.32162  0.33204  Biso   1.000  C
  C226     1.0000 0.80322  0.25115  0.40485  Biso   1.000  C
  O74      1.0000 0.71529  0.20271  0.16405  Biso   1.000  O
  N151     1.0000 0.75108  0.23728  0.00056  Biso   1.000  N
  C227     1.0000 0.78960  0.28248  0.96175  Biso   1.000  C
  N152     1.0000 0.86088  0.32259  0.05887  Biso   1.000  N
  H224     1.0000 0.80963  0.34126  0.06854  Biso   1.000  H
  N153     1.0000 0.89198  0.31960  0.23524  Biso   1.000  N
  H225     1.0000 0.87455  0.35518  0.34775  Biso   1.000  H
  C228     1.0000 0.88722  0.30284  0.41918  Biso   1.000  C
  O75      1.0000 0.76215  0.21958  0.42506  Biso   1.000  O
  N154     1.0000 0.84438  0.25724  0.45277  Biso   1.000  N
  C229     1.0000 0.71442  0.20167  0.93146  Biso   1.000  C
  N155     1.0000 0.82917  0.27995  0.91270  Biso   1.000  N
  H226     1.0000 0.77744  0.29916  0.91399  Biso   1.000  H
  C230     1.0000 0.89780  0.34854  0.14094  Biso   1.000  C
  C231     1.0000 0.87119  0.30450  0.97028  Biso   1.000  C
  C232     1.0000 0.92495  0.30508  0.25658  Biso   1.000  C
  N156     1.0000 0.92191  0.29574  0.36458  Biso   1.000  N
  H227     1.0000 0.90163  0.32605  0.48039  Biso   1.000  H
  C233     1.0000 0.84386  0.23111  0.54772  Biso   1.000  C
  N157     1.0000 0.72485  0.16458  0.89168  Biso   1.000  N
  H228     1.0000 0.71003  0.21828  0.86889  Biso   1.000  H
  H229     1.0000 0.68352  0.18555  0.97157  Biso   1.000  H
  C234     1.0000 0.82659  0.25699  0.81066  Biso   1.000  C
  H230     1.0000 0.92993  0.35936  0.10929  Biso   1.000  H
  H231     1.0000 0.89655  0.37756  0.16308  Biso   1.000  H
  O76      1.0000 0.90990  0.31019  0.94306  Biso   1.000  O
  O77      1.0000 0.95179  0.30262  0.19264  Biso   1.000  O
  C235     1.0000 0.95754  0.28597  0.41870  Biso   1.000  C
  N158     1.0000 0.86094  0.19802  0.53177  Biso   1.000  N
  H232     1.0000 0.81042  0.21306  0.57542  Biso   1.000  H
  H233     1.0000 0.86393  0.25458  0.60377  Biso   1.000  H
  C236     1.0000 0.70763  0.12046  0.94210  Biso   1.000  C
  C237     1.0000 0.75674  0.17117  0.80333  Biso   1.000  C
  N159     1.0000 0.80648  0.20516  0.81694  Biso   1.000  N
  H234     1.0000 0.85943  0.27155  0.78006  Biso   1.000  H
  H235     1.0000 0.80684  0.26388  0.76033  Biso   1.000  H
  N160     1.0000 0.93884  0.23677  0.43940  Biso   1.000  N
  H236     1.0000 0.96762  0.30396  0.48748  Biso   1.000  H
  H237     1.0000 0.98641  0.29765  0.37247  Biso   1.000  H
  C238     1.0000 0.83174  0.14893  0.52452  Biso   1.000  C
  C239     1.0000 0.91155  0.21078  0.53451  Biso   1.000  C
  O78      1.0000 0.67795  0.10568  0.01450  Biso   1.000  O
  N161     1.0000 0.72783  0.09656  0.89394  Biso   1.000  N
  H238     1.0000 0.74424  0.17726  0.73488  Biso   1.000  H
  C240     1.0000 0.75512  0.12255  0.79882  Biso   1.000  C
  C241     1.0000 0.83493  0.18440  0.80889  Biso   1.000  C
  C242     1.0000 0.95904  0.21287  0.39132  Biso   1.000  C
  O79      1.0000 0.78754  0.12752  0.52758  Biso   1.000  O
  N162     1.0000 0.86019  0.12817  0.51639  Biso   1.000  N
  C243     1.0000 0.90993  0.16216  0.53000  Biso   1.000  C
  H239     1.0000 0.92754  0.22866  0.60200  Biso   1.000  H
  C244     1.0000 0.70913  0.04736  0.91463  Biso   1.000  C
  N163     1.0000 0.80573  0.13531  0.80156  Biso   1.000  N
  H240     1.0000 0.73913  0.10467  0.73134  Biso   1.000  H
  O80      1.0000 0.87913  0.20581  0.80575  Biso   1.000  O
  O81      1.0000 0.98875  0.22765  0.31884  Biso   1.000  O
  N164     1.0000 0.94182  0.16876  0.44165  Biso   1.000  N
  C245     1.0000 0.84008  0.07634  0.52267  Biso   1.000  C
  H241     1.0000 0.92243  0.15607  0.59845  Biso   1.000  H
  N165     1.0000 0.74476  0.03759  0.96875  Biso   1.000  N
  H242     1.0000 0.69904  0.02938  0.84586  Biso   1.000  H
  H243     1.0000 0.68025  0.03568  0.96086  Biso   1.000  H
  C246     1.0000 0.82280  0.10222  0.78570  Biso   1.000  C
  C247     1.0000 0.95224  0.13167  0.40187  Biso   1.000  C
  N166     1.0000 0.83753  0.05338  0.42071  Biso   1.000  N
  H244     1.0000 0.80723  0.06178  0.55327  Biso   1.000  H
  H245     1.0000 0.85983  0.06946  0.57300  Biso   1.000  H
  C248     1.0000 0.74177  0.02829  0.07675  Biso   1.000  C
  C249     1.0000 0.77945  0.03049  0.91415  Biso   1.000  C
  N167     1.0000 0.82229  0.07609  0.88057  Biso   1.000  N
  H246     1.0000 0.85624  0.12028  0.75799  Biso   1.000  H
  H247     1.0000 0.80274  0.07876  0.72956  Biso   1.000  H
  N168     1.0000 0.91558  0.09606  0.33277  Biso   1.000  N
  H248     1.0000 0.95664  0.11505  0.46444  Biso   1.000  H
  H249     1.0000 0.98315  0.14778  0.36176  Biso   1.000  H
  C250     1.0000 0.79548  0.02884  0.36305  Biso   1.000  C
  C251     1.0000 0.87706  0.05086  0.37159  Biso   1.000  C
  O82      1.0000 0.71488  0.03071  0.14069  Biso   1.000  O
  N169     1.0000 0.77472  0.01373  0.09809  Biso   1.000  N
  C252     1.0000 0.79918  0.01171  0.00129  Biso   1.000  C
  H250     1.0000 0.76503  0.00728  0.85294  Biso   1.000  H
  C253     1.0000 0.86345  0.08218  0.92849  Biso   1.000  C
  C254     1.0000 0.91789  0.09598  0.22195  Biso   1.000  C
  N170     1.0000 0.80578  0.01074  0.27446  Biso   1.000  N
  O83      1.0000 0.75676  0.02314  0.39027  Biso   1.000  O
  C255     1.0000 0.85456  0.02195  0.26721  Biso   1.000  C
  H251     1.0000 0.88923  0.03417  0.41934  Biso   1.000  H
  C256     1.0000 0.76886  0.98479  0.19240  Biso   1.000  C
  N171     1.0000 0.85029  0.04563  0.00169  Biso   1.000  N
  H252     1.0000 0.79214  0.97816  0.98558  Biso   1.000  H
  O84      1.0000 0.90452  0.11375  0.90827  Biso   1.000  O
  N172     1.0000 0.88293  0.05529  0.18161  Biso   1.000  N
  O85      1.0000 0.95138  0.13062  0.16928  Biso   1.000  O
  H253     1.0000 0.85704  0.99207  0.26480  Biso   1.000  H
  H254     1.0000 0.73674  0.97398  0.22405  Biso   1.000  H
  H255     1.0000 0.77015  0.95577  0.17025  Biso   1.000  H
  C257     1.0000 0.88396  0.04167  0.07200  Biso   1.000  C
  H256     1.0000 0.87704  0.00786  0.07079  Biso   1.000  H
  H257     1.0000 0.91693  0.06218  0.04317  Biso   1.000  H
  O86      1.0000 0.68417  0.71489  0.85939  Biso   1.000  O
  C258     1.0000 0.71346  0.74175  0.92325  Biso   1.000  C
  N173     1.0000 0.76097  0.77473  0.90199  Biso   1.000  N
  N174     1.0000 0.70717  0.74477  0.03125  Biso   1.000  N
  C259     1.0000 0.78407  0.76885  0.80768  Biso   1.000  C
  C260     1.0000 0.78748  0.79920  0.99879  Biso   1.000  C
  C261     1.0000 0.66175  0.70913  0.08537  Biso   1.000  C
  C262     1.0000 0.74898  0.77945  0.08585  Biso   1.000  C
  N175     1.0000 0.79505  0.80580  0.72554  Biso   1.000  N
  H258     1.0000 0.76277  0.73674  0.77595  Biso   1.000  H
  H259     1.0000 0.81437  0.77015  0.82975  Biso   1.000  H
  N176     1.0000 0.80468  0.85027  0.99839  Biso   1.000  N
  H260     1.0000 0.81397  0.79214  0.01450  Biso   1.000  H
  N177     1.0000 0.63127  0.72783  0.10606  Biso   1.000  N
  H261     1.0000 0.66966  0.69903  0.15414  Biso   1.000  H
  H262     1.0000 0.64455  0.68022  0.03914  Biso   1.000  H
  N178     1.0000 0.74619  0.82227  0.11943  Biso   1.000  N
  H263     1.0000 0.75778  0.76503  0.14706  Biso   1.000  H
  C263     1.0000 0.76664  0.79549  0.63695  Biso   1.000  C
  C264     1.0000 0.83261  0.85456  0.73287  Biso   1.000  C
  C265     1.0000 0.84232  0.88398  0.92808  Biso   1.000  C
  C266     1.0000 0.78126  0.86343  0.07160  Biso   1.000  C
  C267     1.0000 0.58719  0.70765  0.05799  Biso   1.000  C
  C268     1.0000 0.63255  0.75512  0.20118  Biso   1.000  C
  C269     1.0000 0.72056  0.82281  0.21438  Biso   1.000  C
  N179     1.0000 0.78413  0.83751  0.57937  Biso   1.000  N
  O87      1.0000 0.73363  0.75674  0.60973  Biso   1.000  O
  C270     1.0000 0.82620  0.87709  0.62849  Biso   1.000  C
  N180     1.0000 0.82766  0.88293  0.81847  Biso   1.000  N
  H264     1.0000 0.86497  0.85705  0.73528  Biso   1.000  H
  H265     1.0000 0.86915  0.87702  0.92929  Biso   1.000  H
  H266     1.0000 0.85476  0.91692  0.95683  Biso   1.000  H
  O88      1.0000 0.79075  0.90452  0.09173  Biso   1.000  O
  N181     1.0000 0.56026  0.72484  0.10840  Biso   1.000  N
  O89      1.0000 0.57227  0.67795  0.98558  Biso   1.000  O
  C271     1.0000 0.58557  0.75674  0.19667  Biso   1.000  C
  N182     1.0000 0.67044  0.80572  0.19844  Biso   1.000  N
  H267     1.0000 0.63447  0.73915  0.26866  Biso   1.000  H
  H268     1.0000 0.73595  0.85622  0.24209  Biso   1.000  H
  H269     1.0000 0.72397  0.80273  0.27044  Biso   1.000  H
  C272     1.0000 0.76374  0.84007  0.47733  Biso   1.000  C
  N183     1.0000 0.81951  0.91559  0.66723  Biso   1.000  N
  H270     1.0000 0.85506  0.88924  0.58066  Biso   1.000  H
  C273     1.0000 0.82191  0.91789  0.77805  Biso   1.000  C
  C274     1.0000 0.51276  0.71443  0.06854  Biso   1.000  C
  N184     1.0000 0.60133  0.80648  0.18306  Biso   1.000  N
  H271     1.0000 0.56696  0.74423  0.26520  Biso   1.000  H
  C275     1.0000 0.65051  0.83492  0.19119  Biso   1.000  C
  N185     1.0000 0.73202  0.86022  0.48361  Biso   1.000  N
  H272     1.0000 0.74548  0.80724  0.44673  Biso   1.000  H
  H273     1.0000 0.79035  0.85983  0.42708  Biso   1.000  H
  C276     1.0000 0.82058  0.95224  0.59813  Biso   1.000  C
  O90      1.0000 0.82077  0.95138  0.83080  Biso   1.000  O
  N186     1.0000 0.51382  0.75108  0.99944  Biso   1.000  N
  H274     1.0000 0.49177  0.71003  0.13119  Biso   1.000  H
  H275     1.0000 0.49797  0.68354  0.02843  Biso   1.000  H
  C277     1.0000 0.56959  0.82659  0.18934  Biso   1.000  C
  O91      1.0000 0.67331  0.87915  0.19425  Biso   1.000  O
  C278     1.0000 0.68282  0.83175  0.47556  Biso   1.000  C
  C279     1.0000 0.74776  0.90993  0.47008  Biso   1.000  C
  N187     1.0000 0.77307  0.94183  0.55835  Biso   1.000  N
  H276     1.0000 0.84157  0.95664  0.53556  Biso   1.000  H
  H277     1.0000 0.83537  0.98313  0.63824  Biso   1.000  H
  C280     1.0000 0.51144  0.74881  0.88870  Biso   1.000  C
  C281     1.0000 0.50715  0.78961  0.03825  Biso   1.000  C
  N188     1.0000 0.54921  0.82915  0.08738  Biso   1.000  N
  H278     1.0000 0.58788  0.85943  0.21994  Biso   1.000  H
  H279     1.0000 0.54298  0.80684  0.23967  Biso   1.000  H
  N189     1.0000 0.66290  0.86094  0.46823  Biso   1.000  N
  O92      1.0000 0.66002  0.78752  0.47242  Biso   1.000  O
  C282     1.0000 0.70078  0.91155  0.46557  Biso   1.000  C
  H280     1.0000 0.76637  0.92243  0.40155  Biso   1.000  H
  C283     1.0000 0.74615  0.95902  0.60876  Biso   1.000  C
  N190     1.0000 0.50570  0.78377  0.84827  Biso   1.000  N
  O93      1.0000 0.51256  0.71529  0.83595  Biso   1.000  O
  C284     1.0000 0.50073  0.81210  0.93388  Biso   1.000  C
  H281     1.0000 0.47827  0.77743  0.08609  Biso   1.000  H
  C285     1.0000 0.56669  0.87118  0.02980  Biso   1.000  C
  C286     1.0000 0.61278  0.84386  0.45236  Biso   1.000  C
  N191     1.0000 0.70206  0.93883  0.56068  Biso   1.000  N
  H282     1.0000 0.69889  0.92755  0.39808  Biso   1.000  H
  O94      1.0000 0.76106  0.98872  0.68116  Biso   1.000  O
  C287     1.0000 0.49105  0.78269  0.73866  Biso   1.000  C
  N192     1.0000 0.53828  0.86087  0.94113  Biso   1.000  N
  H283     1.0000 0.46838  0.80965  0.93146  Biso   1.000  H
  O95      1.0000 0.59971  0.90993  0.05694  Biso   1.000  O
  N193     1.0000 0.58714  0.84440  0.54723  Biso   1.000  N
  H284     1.0000 0.59738  0.81045  0.42466  Biso   1.000  H
  H285     1.0000 0.60936  0.86393  0.39623  Biso   1.000  H
  C288     1.0000 0.67158  0.95754  0.58138  Biso   1.000  C
  N194     1.0000 0.52869  0.81639  0.66836  Biso   1.000  N
  H286     1.0000 0.46418  0.78965  0.73746  Biso   1.000  H
  H287     1.0000 0.47857  0.74975  0.70983  Biso   1.000  H
  C289     1.0000 0.54926  0.89782  0.85906  Biso   1.000  C
  C290     1.0000 0.55207  0.80324  0.59515  Biso   1.000  C
  C291     1.0000 0.58436  0.88722  0.58082  Biso   1.000  C
  N195     1.0000 0.62617  0.92189  0.63542  Biso   1.000  N
  H288     1.0000 0.66368  0.96763  0.51252  Biso   1.000  H
  H289     1.0000 0.68879  0.98645  0.62753  Biso   1.000  H
  C292     1.0000 0.54586  0.86747  0.66796  Biso   1.000  C
  N196     1.0000 0.57236  0.89194  0.76476  Biso   1.000  N
  H290     1.0000 0.57057  0.92993  0.89079  Biso   1.000  H
  H291     1.0000 0.51896  0.89652  0.83700  Biso   1.000  H
  O96      1.0000 0.54258  0.76215  0.57494  Biso   1.000  O
  H292     1.0000 0.57558  0.90164  0.51961  Biso   1.000  H
  C293     1.0000 0.61988  0.92492  0.74350  Biso   1.000  C
  H293     1.0000 0.51936  0.87453  0.65225  Biso   1.000  H
  O97      1.0000 0.64916  0.95177  0.80736  Biso   1.000  O
  C294     1.0000 0.21729  0.70833  0.73866  Biso   1.000  C
  N197     1.0000 0.18362  0.71230  0.66836  Biso   1.000  N
  N198     1.0000 0.21627  0.72196  0.84827  Biso   1.000  N
  H294     1.0000 0.21037  0.67452  0.73746  Biso   1.000  H
  H295     1.0000 0.25027  0.72884  0.70983  Biso   1.000  H
  C295     1.0000 0.19678  0.74885  0.59515  Biso   1.000  C
  C296     1.0000 0.13252  0.67838  0.66796  Biso   1.000  C
  C297     1.0000 0.25122  0.76265  0.88870  Biso   1.000  C
  C298     1.0000 0.18789  0.68862  0.93388  Biso   1.000  C
  O98      1.0000 0.23785  0.78042  0.57494  Biso   1.000  O
  N199     1.0000 0.15562  0.74276  0.54723  Biso   1.000  N
  C299     1.0000 0.11278  0.69716  0.58082  Biso   1.000  C
  N200     1.0000 0.10802  0.68040  0.76476  Biso   1.000  N
  H296     1.0000 0.12545  0.64482  0.65225  Biso   1.000  H
  O99      1.0000 0.28471  0.79729  0.83595  Biso   1.000  O
  N201     1.0000 0.24892  0.76272  0.99944  Biso   1.000  N
  N202     1.0000 0.13912  0.67741  0.94113  Biso   1.000  N
  H297     1.0000 0.19037  0.65874  0.93146  Biso   1.000  H
  C300     1.0000 0.21040  0.71752  0.03825  Biso   1.000  C
  C301     1.0000 0.15616  0.76892  0.45236  Biso   1.000  C
  N203     1.0000 0.07809  0.70426  0.63542  Biso   1.000  N
  H298     1.0000 0.09837  0.67395  0.51961  Biso   1.000  H
  C302     1.0000 0.10220  0.65146  0.85906  Biso   1.000  C
  C303     1.0000 0.07510  0.69496  0.74350  Biso   1.000  C
  C304     1.0000 0.28558  0.79834  0.06854  Biso   1.000  C
  C305     1.0000 0.12881  0.69550  0.02980  Biso   1.000  C
  N204     1.0000 0.17083  0.72005  0.08738  Biso   1.000  N
  H299     1.0000 0.22256  0.70084  0.08609  Biso   1.000  H
  N205     1.0000 0.13906  0.80198  0.46823  Biso   1.000  N
  H300     1.0000 0.18958  0.78695  0.42466  Biso   1.000  H
  H301     1.0000 0.13607  0.74542  0.39623  Biso   1.000  H
  C306     1.0000 0.04246  0.71403  0.58138  Biso   1.000  C
  H302     1.0000 0.07007  0.64064  0.89079  Biso   1.000  H
  H303     1.0000 0.10349  0.62244  0.83700  Biso   1.000  H
  O100     1.0000 0.04821  0.69738  0.80736  Biso   1.000  O
  N206     1.0000 0.27515  0.83542  0.10840  Biso   1.000  N
  H304     1.0000 0.28997  0.78172  0.13119  Biso   1.000  H
  H305     1.0000 0.31648  0.81445  0.02843  Biso   1.000  H
  O101     1.0000 0.09010  0.68981  0.05694  Biso   1.000  O
  C307     1.0000 0.17341  0.74301  0.18934  Biso   1.000  C
  C308     1.0000 0.16828  0.85110  0.47556  Biso   1.000  C
  C309     1.0000 0.08847  0.78925  0.46557  Biso   1.000  C
  N207     1.0000 0.06116  0.76323  0.56068  Biso   1.000  N
  H306     1.0000 0.03238  0.69604  0.51252  Biso   1.000  H
  H307     1.0000 0.01359  0.70235  0.62753  Biso   1.000  H
  C310     1.0000 0.29237  0.87954  0.05799  Biso   1.000  C
  C311     1.0000 0.24326  0.82883  0.19667  Biso   1.000  C
  N208     1.0000 0.19352  0.79484  0.18306  Biso   1.000  N
  H308     1.0000 0.14057  0.72845  0.21994  Biso   1.000  H
  H309     1.0000 0.19316  0.73612  0.23967  Biso   1.000  H
  O102     1.0000 0.21248  0.87251  0.47242  Biso   1.000  O
  N209     1.0000 0.13981  0.87183  0.48361  Biso   1.000  N
  C312     1.0000 0.09007  0.83784  0.47008  Biso   1.000  C
  H310     1.0000 0.07246  0.77134  0.39808  Biso   1.000  H
  C313     1.0000 0.04096  0.78713  0.60876  Biso   1.000  C
  O103     1.0000 0.32205  0.89432  0.98558  Biso   1.000  O
  N210     1.0000 0.27217  0.90344  0.10606  Biso   1.000  N
  H311     1.0000 0.25576  0.82274  0.26520  Biso   1.000  H
  C314     1.0000 0.24488  0.87745  0.20118  Biso   1.000  C
  C315     1.0000 0.16507  0.81560  0.19119  Biso   1.000  C
  C316     1.0000 0.15992  0.92366  0.47733  Biso   1.000  C
  N211     1.0000 0.05818  0.83124  0.55835  Biso   1.000  N
  H312     1.0000 0.07757  0.84393  0.40155  Biso   1.000  H
  O104     1.0000 0.01128  0.77235  0.68116  Biso   1.000  O
  C317     1.0000 0.29087  0.95264  0.08537  Biso   1.000  C
  N212     1.0000 0.19427  0.86469  0.19844  Biso   1.000  N
  H313     1.0000 0.26087  0.89533  0.26866  Biso   1.000  H
  O105     1.0000 0.12087  0.79419  0.19425  Biso   1.000  O
  N213     1.0000 0.16250  0.94662  0.57937  Biso   1.000  N
  H314     1.0000 0.19277  0.93822  0.44673  Biso   1.000  H
  H315     1.0000 0.14017  0.93054  0.42708  Biso   1.000  H
  C318     1.0000 0.04776  0.86833  0.59813  Biso   1.000  C
  N214     1.0000 0.25524  0.96241  0.03125  Biso   1.000  N
  H316     1.0000 0.30096  0.97062  0.15414  Biso   1.000  H
  H317     1.0000 0.31977  0.96435  0.03914  Biso   1.000  H
  C319     1.0000 0.17720  0.89778  0.21438  Biso   1.000  C
  C320     1.0000 0.20452  0.97117  0.63695  Biso   1.000  C
  C321     1.0000 0.12294  0.94914  0.62849  Biso   1.000  C
  N215     1.0000 0.08442  0.90394  0.66723  Biso   1.000  N
  H318     1.0000 0.04336  0.88495  0.53556  Biso   1.000  H
  H319     1.0000 0.01685  0.85222  0.63824  Biso   1.000  H
  C322     1.0000 0.25825  0.97174  0.92325  Biso   1.000  C
  C323     1.0000 0.22057  0.96954  0.08585  Biso   1.000  C
  N216     1.0000 0.17771  0.92391  0.11943  Biso   1.000  N
  H320     1.0000 0.14376  0.87972  0.24209  Biso   1.000  H
  H321     1.0000 0.19726  0.92124  0.27044  Biso   1.000  H
  O106     1.0000 0.24324  0.97686  0.60973  Biso   1.000  O
  N217     1.0000 0.19422  0.98926  0.72554  Biso   1.000  N
  C324     1.0000 0.14544  0.97805  0.73287  Biso   1.000  C
  H322     1.0000 0.11077  0.96583  0.58066  Biso   1.000  H
  C325     1.0000 0.08213  0.90405  0.77805  Biso   1.000  C
  O107     1.0000 0.28512  0.96929  0.85939  Biso   1.000  O
  N218     1.0000 0.22528  0.98627  0.90199  Biso   1.000  N
  C326     1.0000 0.20082  0.98829  0.99879  Biso   1.000  C
  H323     1.0000 0.23497  0.99272  0.14706  Biso   1.000  H
  C327     1.0000 0.13655  0.91782  0.07160  Biso   1.000  C
  C328     1.0000 0.23114  0.01521  0.80768  Biso   1.000  C
  N219     1.0000 0.11707  0.94471  0.81847  Biso   1.000  N
  H324     1.0000 0.14296  0.00793  0.73528  Biso   1.000  H
  O108     1.0000 0.04864  0.86941  0.83080  Biso   1.000  O
  N220     1.0000 0.14971  0.95437  0.99839  Biso   1.000  N
  H325     1.0000 0.20786  0.02184  0.01450  Biso   1.000  H
  O109     1.0000 0.09548  0.88625  0.09173  Biso   1.000  O
  H326     1.0000 0.26326  0.02602  0.77595  Biso   1.000  H
  H327     1.0000 0.22985  0.04423  0.82975  Biso   1.000  H
  C329     1.0000 0.11604  0.95833  0.92808  Biso   1.000  C
  H328     1.0000 0.12296  0.99214  0.92929  Biso   1.000  H
  H329     1.0000 0.08307  0.93782  0.95683  Biso   1.000  H
  Ne1      1.0000 0.33333  0.16667  0.16667  Biso   1.000  Ne
  He1      1.0000 0.37840  0.25033  0.28385  Biso   1.000  He
  He2      1.0000 0.27499  0.05430  0.02147  Biso   1.000  He
  Ar1      1.0000 0.33333  0.16667  0.16667  Biso   1.000  Ar
  Ne2      1.0000 0.16667  0.33334  0.83336  Biso   1.000  Ne
  He3      1.0000 0.21955  0.27602  0.97643  Biso   1.000  He
  He4      1.0000 0.11386  0.39062  0.69042  Biso   1.000  He
  Ar2      1.0000 0.16667  0.33334  0.83336  Biso   1.000  Ar
  Ne3      1.0000 0.50000  0.50000  0.50002  Biso   1.000  Ne
  He5      1.0000 0.41975  0.46325  0.61382  Biso   1.000  He
  He6      1.0000 0.58413  0.53884  0.38242  Biso   1.000  He
  Ar3      1.0000 0.50001  0.50001  0.50003  Biso   1.000  Ar
  Ne4      1.0000 0.50185  0.00354  0.49066  Biso   1.000  Ne
  He7      1.0000 0.55026  0.93732  0.62993  Biso   1.000  He
  He8      1.0000 0.44719  0.05729  0.35708  Biso   1.000  He
  Ar4      1.0000 0.49961  0.00281  0.49203  Biso   1.000  Ar
  Ne5      1.0000 0.83334  0.66667  0.16667  Biso   1.000  Ne
  He9      1.0000 0.88621  0.60935  0.30976  Biso   1.000  He
  He10     1.0000 0.78053  0.72395  0.02372  Biso   1.000  He
  Ar5      1.0000 0.83333  0.66667  0.16667  Biso   1.000  Ar
  Ne6      1.0000 0.66667  0.83334  0.83336  Biso   1.000  Ne
  He11     1.0000 0.71343  0.91809  0.94699  Biso   1.000  He
  He12     1.0000 0.60833  0.72096  0.68815  Biso   1.000  He
  Ar6      1.0000 0.66667  0.83333  0.83336  Biso   1.000  Ar
  Ne7      1.0000 0.83334  0.16667  0.16667  Biso   1.000  Ne
  He13     1.0000 0.75308  0.12992  0.28049  Biso   1.000  He
  He14     1.0000 0.91747  0.20550  0.04905  Biso   1.000  He
  Ar7      1.0000 0.83335  0.16668  0.16668  Biso   1.000  Ar
  Ne8      1.0000 0.99984  0.50009  0.50009  Biso   1.000  Ne
  He15     1.0000 0.04508  0.58367  0.61717  Biso   1.000  He
  He16     1.0000 0.94166  0.38762  0.35482  Biso   1.000  He
  Ar8      1.0000 0.99991  0.49995  0.50023  Biso   1.000  Ar
  Ne9      1.0000 0.16667  0.83334  0.83336  Biso   1.000  Ne
  He17     1.0000 0.08642  0.79659  0.94715  Biso   1.000  He
  He18     1.0000 0.25080  0.87217  0.71575  Biso   1.000  He
  Ar9      1.0000 0.16668  0.83335  0.83337  Biso   1.000  Ar
