data_image0
_cell_length_a       28.709
_cell_length_b       17.337
_cell_length_c       19.464
_cell_angle_alpha    90
_cell_angle_beta     90
_cell_angle_gamma    90

_symmetry_space_group_name_H-M    "P 1"
_symmetry_int_tables_number       1

loop_
  _symmetry_equiv_pos_as_xyz
  'x, y, z'

loop_
  _atom_site_label
  _atom_site_occupancy
  _atom_site_fract_x
  _atom_site_fract_y
  _atom_site_fract_z
  _atom_site_thermal_displace_type
  _atom_site_B_iso_or_equiv
  _atom_site_type_symbol
  C1       1.0000 0.60810  0.54087  0.79254  Biso   1.000  C
  N1       1.0000 0.65732  0.52927  0.80369  Biso   1.000  N
  N2       1.0000 0.58637  0.59064  0.84263  Biso   1.000  N
  H1       1.0000 0.59229  0.49011  0.79331  Biso   1.000  H
  H2       1.0000 0.60350  0.56342  0.74620  Biso   1.000  H
  C2       1.0000 0.67390  0.46588  0.83791  Biso   1.000  C
  C3       1.0000 0.69410  0.57599  0.77425  Biso   1.000  C
  C4       1.0000 0.56568  0.56342  0.90089  Biso   1.000  C
  C5       1.0000 0.58407  0.67405  0.83734  Biso   1.000  C
  O1       1.0000 0.65001  0.41437  0.86185  Biso   1.000  O
  N3       1.0000 0.72155  0.46848  0.83719  Biso   1.000  N
  N4       1.0000 0.69849  0.65398  0.80050  Biso   1.000  N
  C6       1.0000 0.73925  0.53562  0.80107  Biso   1.000  C
  H3       1.0000 0.69271  0.57559  0.72292  Biso   1.000  H
  H4       1.0000 0.69271  0.57559  0.72287  Biso   1.000  H
  O2       1.0000 0.56090  0.49501  0.91662  Biso   1.000  O
  N5       1.0000 0.54969  0.62439  0.93799  Biso   1.000  N
  N6       1.0000 0.62810  0.71373  0.84417  Biso   1.000  N
  H5       1.0000 0.56690  0.69072  0.79511  Biso   1.000  H
  C7       1.0000 0.55763  0.69776  0.90393  Biso   1.000  C
  C8       1.0000 0.74990  0.41385  0.87474  Biso   1.000  C
  C9       1.0000 0.73792  0.66396  0.83878  Biso   1.000  C
  C10      1.0000 0.66401  0.71402  0.79259  Biso   1.000  C
  N7       1.0000 0.76077  0.59468  0.84294  Biso   1.000  N
  H6       1.0000 0.76001  0.52022  0.76218  Biso   1.000  H
  C11      1.0000 0.52238  0.61579  0.00000  Biso   1.000  C
  C12      1.0000 0.63015  0.75832  0.90202  Biso   1.000  C
  N8       1.0000 0.58992  0.74892  0.93783  Biso   1.000  N
  H7       1.0000 0.52760  0.72440  0.89308  Biso   1.000  H
  N9       1.0000 0.76213  0.43895  0.94307  Biso   1.000  N
  H8       1.0000 0.73291  0.36442  0.87798  Biso   1.000  H
  H9       1.0000 0.77888  0.40428  0.84849  Biso   1.000  H
  O3       1.0000 0.75126  0.72556  0.86288  Biso   1.000  O
  H10      1.0000 0.67989  0.76461  0.79362  Biso   1.000  H
  H11      1.0000 0.64920  0.70848  0.74692  Biso   1.000  H
  C13      1.0000 0.80644  0.58851  0.87397  Biso   1.000  C
  C14      1.0000 0.80644  0.58851  0.87392  Biso   1.000  C
  H12      1.0000 0.49720  0.65478  0.00000  Biso   1.000  H
  H13      1.0000 0.50761  0.56411  0.00000  Biso   1.000  H
  N10      1.0000 0.54969  0.62439  0.06201  Biso   1.000  N
  O4       1.0000 0.66251  0.80118  0.91733  Biso   1.000  O
  C15      1.0000 0.57989  0.79172  0.00000  Biso   1.000  C
  C16      1.0000 0.80518  0.47719  0.96003  Biso   1.000  C
  C17      1.0000 0.73865  0.41472  0.00000  Biso   1.000  C
  N11      1.0000 0.80612  0.55875  0.94328  Biso   1.000  N
  H14      1.0000 0.82601  0.55442  0.84510  Biso   1.000  H
  H15      1.0000 0.82110  0.64019  0.87418  Biso   1.000  H
  C18      1.0000 0.56568  0.56342  0.09911  Biso   1.000  C
  C19      1.0000 0.55763  0.69776  0.09607  Biso   1.000  C
  H16      1.0000 0.59849  0.83976  0.00000  Biso   1.000  H
  H17      1.0000 0.54659  0.80648  0.00000  Biso   1.000  H
  N12      1.0000 0.58992  0.74892  0.06217  Biso   1.000  N
  H18      1.0000 0.83281  0.44939  0.94092  Biso   1.000  H
  C20      1.0000 0.80518  0.47719  0.03997  Biso   1.000  C
  O5       1.0000 0.70246  0.37648  0.00000  Biso   1.000  O
  N13      1.0000 0.76213  0.43895  0.05693  Biso   1.000  N
  C21      1.0000 0.80637  0.60437  0.00000  Biso   1.000  C
  O6       1.0000 0.56090  0.49501  0.08338  Biso   1.000  O
  N14      1.0000 0.58637  0.59064  0.15737  Biso   1.000  N
  C22      1.0000 0.58407  0.67405  0.16266  Biso   1.000  C
  H19      1.0000 0.52760  0.72440  0.10692  Biso   1.000  H
  C23      1.0000 0.63015  0.75832  0.09798  Biso   1.000  C
  N15      1.0000 0.80612  0.55875  0.05672  Biso   1.000  N
  H20      1.0000 0.83281  0.44939  0.05908  Biso   1.000  H
  C24      1.0000 0.74990  0.41385  0.12526  Biso   1.000  C
  O7       1.0000 0.80839  0.67532  0.00000  Biso   1.000  O
  C25      1.0000 0.60810  0.54087  0.20746  Biso   1.000  C
  N16      1.0000 0.62810  0.71373  0.15583  Biso   1.000  N
  H21      1.0000 0.56690  0.69072  0.20489  Biso   1.000  H
  O8       1.0000 0.66251  0.80118  0.08267  Biso   1.000  O
  C26      1.0000 0.80644  0.58851  0.12603  Biso   1.000  C
  N17      1.0000 0.72155  0.46848  0.16281  Biso   1.000  N
  H22      1.0000 0.73291  0.36442  0.12202  Biso   1.000  H
  H23      1.0000 0.77888  0.40428  0.15151  Biso   1.000  H
  H24      1.0000 0.73291  0.36442  0.12197  Biso   1.000  H
  N18      1.0000 0.65732  0.52927  0.19631  Biso   1.000  N
  H25      1.0000 0.59229  0.49011  0.20669  Biso   1.000  H
  H26      1.0000 0.60350  0.56342  0.25380  Biso   1.000  H
  C27      1.0000 0.66401  0.71402  0.20741  Biso   1.000  C
  N19      1.0000 0.76077  0.59468  0.15706  Biso   1.000  N
  H27      1.0000 0.82601  0.55442  0.15490  Biso   1.000  H
  H28      1.0000 0.82110  0.64019  0.12582  Biso   1.000  H
  H29      1.0000 0.82110  0.64019  0.12577  Biso   1.000  H
  C28      1.0000 0.73925  0.53562  0.19893  Biso   1.000  C
  C29      1.0000 0.67390  0.46588  0.16209  Biso   1.000  C
  C30      1.0000 0.69410  0.57599  0.22575  Biso   1.000  C
  N20      1.0000 0.69849  0.65398  0.19950  Biso   1.000  N
  H30      1.0000 0.67989  0.76461  0.20638  Biso   1.000  H
  H31      1.0000 0.64920  0.70848  0.25308  Biso   1.000  H
  C31      1.0000 0.73792  0.66396  0.16122  Biso   1.000  C
  H32      1.0000 0.76001  0.52022  0.23782  Biso   1.000  H
  H33      1.0000 0.76001  0.52022  0.23777  Biso   1.000  H
  O9       1.0000 0.65001  0.41437  0.13815  Biso   1.000  O
  H34      1.0000 0.69271  0.57559  0.27708  Biso   1.000  H
  O10      1.0000 0.75126  0.72556  0.13712  Biso   1.000  O
  C32      1.0000 0.60810  0.54087  0.79254  Biso   1.000  C
  N21      1.0000 0.65732  0.52927  0.80369  Biso   1.000  N
  N22      1.0000 0.58637  0.59064  0.84263  Biso   1.000  N
  H35      1.0000 0.59229  0.49011  0.79331  Biso   1.000  H
  H36      1.0000 0.60350  0.56342  0.74620  Biso   1.000  H
  C33      1.0000 0.67390  0.46588  0.83791  Biso   1.000  C
  C34      1.0000 0.69410  0.57599  0.77425  Biso   1.000  C
  C35      1.0000 0.56568  0.56342  0.90089  Biso   1.000  C
  C36      1.0000 0.58407  0.67405  0.83734  Biso   1.000  C
  O11      1.0000 0.65001  0.41437  0.86185  Biso   1.000  O
  N23      1.0000 0.72155  0.46848  0.83719  Biso   1.000  N
  N24      1.0000 0.69849  0.65398  0.80050  Biso   1.000  N
  C37      1.0000 0.73925  0.53562  0.80107  Biso   1.000  C
  H37      1.0000 0.69271  0.57559  0.72292  Biso   1.000  H
  H38      1.0000 0.69271  0.57559  0.72287  Biso   1.000  H
  O12      1.0000 0.56090  0.49501  0.91662  Biso   1.000  O
  N25      1.0000 0.54969  0.62439  0.93799  Biso   1.000  N
  N26      1.0000 0.62810  0.71373  0.84417  Biso   1.000  N
  H39      1.0000 0.56690  0.69072  0.79511  Biso   1.000  H
  C38      1.0000 0.55763  0.69776  0.90393  Biso   1.000  C
  C39      1.0000 0.74990  0.41385  0.87474  Biso   1.000  C
  C40      1.0000 0.73792  0.66396  0.83878  Biso   1.000  C
  C41      1.0000 0.66401  0.71402  0.79259  Biso   1.000  C
  N27      1.0000 0.76077  0.59468  0.84294  Biso   1.000  N
  H40      1.0000 0.76001  0.52022  0.76218  Biso   1.000  H
  C42      1.0000 0.52238  0.61579  0.00000  Biso   1.000  C
  C43      1.0000 0.63015  0.75832  0.90202  Biso   1.000  C
  N28      1.0000 0.58992  0.74892  0.93783  Biso   1.000  N
  H41      1.0000 0.52760  0.72440  0.89308  Biso   1.000  H
  N29      1.0000 0.76213  0.43895  0.94307  Biso   1.000  N
  H42      1.0000 0.73291  0.36442  0.87798  Biso   1.000  H
  H43      1.0000 0.77888  0.40428  0.84849  Biso   1.000  H
  O13      1.0000 0.75126  0.72556  0.86288  Biso   1.000  O
  H44      1.0000 0.67989  0.76461  0.79362  Biso   1.000  H
  H45      1.0000 0.64920  0.70848  0.74692  Biso   1.000  H
  C44      1.0000 0.80644  0.58851  0.87397  Biso   1.000  C
  C45      1.0000 0.80644  0.58851  0.87392  Biso   1.000  C
  H46      1.0000 0.49720  0.65478  0.00000  Biso   1.000  H
  H47      1.0000 0.50761  0.56411  0.00000  Biso   1.000  H
  N30      1.0000 0.54969  0.62439  0.06201  Biso   1.000  N
  O14      1.0000 0.66251  0.80118  0.91733  Biso   1.000  O
  C46      1.0000 0.57989  0.79172  0.00000  Biso   1.000  C
  C47      1.0000 0.80518  0.47719  0.96003  Biso   1.000  C
  C48      1.0000 0.73865  0.41472  0.00000  Biso   1.000  C
  N31      1.0000 0.80612  0.55875  0.94328  Biso   1.000  N
  H48      1.0000 0.82601  0.55442  0.84510  Biso   1.000  H
  H49      1.0000 0.82110  0.64019  0.87418  Biso   1.000  H
  C49      1.0000 0.56568  0.56342  0.09911  Biso   1.000  C
  C50      1.0000 0.55763  0.69776  0.09607  Biso   1.000  C
  H50      1.0000 0.59849  0.83976  0.00000  Biso   1.000  H
  H51      1.0000 0.54659  0.80648  0.00000  Biso   1.000  H
  N32      1.0000 0.58992  0.74892  0.06217  Biso   1.000  N
  H52      1.0000 0.83281  0.44939  0.94092  Biso   1.000  H
  C51      1.0000 0.80518  0.47719  0.03997  Biso   1.000  C
  O15      1.0000 0.70246  0.37648  0.00000  Biso   1.000  O
  N33      1.0000 0.76213  0.43895  0.05693  Biso   1.000  N
  C52      1.0000 0.80637  0.60437  0.00000  Biso   1.000  C
  O16      1.0000 0.56090  0.49501  0.08338  Biso   1.000  O
  N34      1.0000 0.58637  0.59064  0.15737  Biso   1.000  N
  C53      1.0000 0.58407  0.67405  0.16266  Biso   1.000  C
  H53      1.0000 0.52760  0.72440  0.10692  Biso   1.000  H
  C54      1.0000 0.63015  0.75832  0.09798  Biso   1.000  C
  N35      1.0000 0.80612  0.55875  0.05672  Biso   1.000  N
  H54      1.0000 0.83281  0.44939  0.05908  Biso   1.000  H
  C55      1.0000 0.74990  0.41385  0.12526  Biso   1.000  C
  O17      1.0000 0.80839  0.67532  0.00000  Biso   1.000  O
  C56      1.0000 0.60810  0.54087  0.20746  Biso   1.000  C
  N36      1.0000 0.62810  0.71373  0.15583  Biso   1.000  N
  H55      1.0000 0.56690  0.69072  0.20489  Biso   1.000  H
  O18      1.0000 0.66251  0.80118  0.08267  Biso   1.000  O
  C57      1.0000 0.80644  0.58851  0.12603  Biso   1.000  C
  N37      1.0000 0.72155  0.46848  0.16281  Biso   1.000  N
  H56      1.0000 0.73291  0.36442  0.12202  Biso   1.000  H
  H57      1.0000 0.77888  0.40428  0.15151  Biso   1.000  H
  H58      1.0000 0.73291  0.36442  0.12197  Biso   1.000  H
  N38      1.0000 0.65732  0.52927  0.19631  Biso   1.000  N
  H59      1.0000 0.59229  0.49011  0.20669  Biso   1.000  H
  H60      1.0000 0.60350  0.56342  0.25380  Biso   1.000  H
  C58      1.0000 0.66401  0.71402  0.20741  Biso   1.000  C
  N39      1.0000 0.76077  0.59468  0.15706  Biso   1.000  N
  H61      1.0000 0.82601  0.55442  0.15490  Biso   1.000  H
  H62      1.0000 0.82110  0.64019  0.12582  Biso   1.000  H
  H63      1.0000 0.82110  0.64019  0.12577  Biso   1.000  H
  C59      1.0000 0.73925  0.53562  0.19893  Biso   1.000  C
  C60      1.0000 0.67390  0.46588  0.16209  Biso   1.000  C
  C61      1.0000 0.69410  0.57599  0.22575  Biso   1.000  C
  N40      1.0000 0.69849  0.65398  0.19950  Biso   1.000  N
  H64      1.0000 0.67989  0.76461  0.20638  Biso   1.000  H
  H65      1.0000 0.64920  0.70848  0.25308  Biso   1.000  H
  C62      1.0000 0.73792  0.66396  0.16122  Biso   1.000  C
  H66      1.0000 0.76001  0.52022  0.23782  Biso   1.000  H
  H67      1.0000 0.76001  0.52022  0.23777  Biso   1.000  H
  O19      1.0000 0.65001  0.41437  0.13815  Biso   1.000  O
  H68      1.0000 0.69271  0.57559  0.27708  Biso   1.000  H
  O20      1.0000 0.75126  0.72556  0.13712  Biso   1.000  O
  C63      1.0000 0.39190  0.45908  0.79254  Biso   1.000  C
  N41      1.0000 0.34268  0.47067  0.80369  Biso   1.000  N
  N42      1.0000 0.41363  0.40936  0.84263  Biso   1.000  N
  H69      1.0000 0.40771  0.50989  0.79331  Biso   1.000  H
  H70      1.0000 0.39650  0.43658  0.74620  Biso   1.000  H
  C64      1.0000 0.30590  0.42395  0.77425  Biso   1.000  C
  C65      1.0000 0.32610  0.53412  0.83791  Biso   1.000  C
  C66      1.0000 0.43432  0.43658  0.90089  Biso   1.000  C
  C67      1.0000 0.41593  0.32595  0.83734  Biso   1.000  C
  N43      1.0000 0.30151  0.34602  0.80050  Biso   1.000  N
  C68      1.0000 0.26075  0.46432  0.80107  Biso   1.000  C
  H71      1.0000 0.30729  0.42441  0.72292  Biso   1.000  H
  H72      1.0000 0.30729  0.42441  0.72287  Biso   1.000  H
  N44      1.0000 0.27845  0.53152  0.83719  Biso   1.000  N
  O21      1.0000 0.34999  0.58563  0.86185  Biso   1.000  O
  O22      1.0000 0.43910  0.50499  0.91662  Biso   1.000  O
  N45      1.0000 0.45031  0.37561  0.93799  Biso   1.000  N
  N46      1.0000 0.37190  0.28627  0.84417  Biso   1.000  N
  H73      1.0000 0.43310  0.30928  0.79511  Biso   1.000  H
  C69      1.0000 0.44237  0.30224  0.90393  Biso   1.000  C
  C70      1.0000 0.26208  0.33604  0.83878  Biso   1.000  C
  C71      1.0000 0.33599  0.28598  0.79259  Biso   1.000  C
  N47      1.0000 0.23923  0.40526  0.84294  Biso   1.000  N
  H74      1.0000 0.23999  0.47978  0.76218  Biso   1.000  H
  C72      1.0000 0.25010  0.58615  0.87474  Biso   1.000  C
  C73      1.0000 0.47762  0.38421  0.00000  Biso   1.000  C
  C74      1.0000 0.36985  0.24168  0.90202  Biso   1.000  C
  N48      1.0000 0.41008  0.25108  0.93783  Biso   1.000  N
  H75      1.0000 0.47240  0.27560  0.89308  Biso   1.000  H
  O23      1.0000 0.24874  0.27438  0.86288  Biso   1.000  O
  H76      1.0000 0.32011  0.23539  0.79362  Biso   1.000  H
  H77      1.0000 0.35080  0.29152  0.74692  Biso   1.000  H
  C75      1.0000 0.19356  0.41143  0.87397  Biso   1.000  C
  C76      1.0000 0.19356  0.41143  0.87392  Biso   1.000  C
  N49      1.0000 0.23787  0.56105  0.94307  Biso   1.000  N
  H78      1.0000 0.26709  0.63558  0.87798  Biso   1.000  H
  H79      1.0000 0.22112  0.59572  0.84849  Biso   1.000  H
  H80      1.0000 0.50280  0.34522  0.00000  Biso   1.000  H
  H81      1.0000 0.49239  0.43589  0.00000  Biso   1.000  H
  N50      1.0000 0.45031  0.37561  0.06201  Biso   1.000  N
  O24      1.0000 0.33749  0.19882  0.91733  Biso   1.000  O
  C77      1.0000 0.42011  0.20828  0.00000  Biso   1.000  C
  N51      1.0000 0.19388  0.44120  0.94328  Biso   1.000  N
  H82      1.0000 0.17399  0.44558  0.84510  Biso   1.000  H
  H83      1.0000 0.17890  0.35981  0.87418  Biso   1.000  H
  C78      1.0000 0.19478  0.52275  0.96003  Biso   1.000  C
  C79      1.0000 0.26131  0.58528  0.00000  Biso   1.000  C
  C80      1.0000 0.43432  0.43658  0.09911  Biso   1.000  C
  C81      1.0000 0.44237  0.30224  0.09607  Biso   1.000  C
  H84      1.0000 0.40151  0.16018  0.00000  Biso   1.000  H
  H85      1.0000 0.45341  0.19352  0.00000  Biso   1.000  H
  N52      1.0000 0.41008  0.25108  0.06217  Biso   1.000  N
  C82      1.0000 0.19363  0.39557  0.00000  Biso   1.000  C
  H86      1.0000 0.16719  0.55061  0.94092  Biso   1.000  H
  C83      1.0000 0.19478  0.52275  0.03997  Biso   1.000  C
  O25      1.0000 0.29754  0.62346  0.00000  Biso   1.000  O
  N53      1.0000 0.23787  0.56105  0.05693  Biso   1.000  N
  O26      1.0000 0.43910  0.50499  0.08338  Biso   1.000  O
  N54      1.0000 0.41363  0.40936  0.15737  Biso   1.000  N
  C84      1.0000 0.41593  0.32595  0.16266  Biso   1.000  C
  H87      1.0000 0.47240  0.27560  0.10692  Biso   1.000  H
  C85      1.0000 0.36985  0.24168  0.09798  Biso   1.000  C
  O27      1.0000 0.19161  0.32468  0.00000  Biso   1.000  O
  N55      1.0000 0.19388  0.44120  0.05672  Biso   1.000  N
  H88      1.0000 0.16719  0.55061  0.05908  Biso   1.000  H
  C86      1.0000 0.25010  0.58615  0.12526  Biso   1.000  C
  C87      1.0000 0.39190  0.45908  0.20746  Biso   1.000  C
  N56      1.0000 0.37190  0.28627  0.15583  Biso   1.000  N
  H89      1.0000 0.43310  0.30928  0.20489  Biso   1.000  H
  O28      1.0000 0.33749  0.19882  0.08267  Biso   1.000  O
  C88      1.0000 0.19356  0.41143  0.12603  Biso   1.000  C
  N57      1.0000 0.27845  0.53152  0.16281  Biso   1.000  N
  H90      1.0000 0.26709  0.63558  0.12202  Biso   1.000  H
  H91      1.0000 0.22112  0.59572  0.15151  Biso   1.000  H
  H92      1.0000 0.26709  0.63558  0.12197  Biso   1.000  H
  N58      1.0000 0.34268  0.47067  0.19631  Biso   1.000  N
  H93      1.0000 0.40771  0.50989  0.20669  Biso   1.000  H
  H94      1.0000 0.39650  0.43658  0.25380  Biso   1.000  H
  C89      1.0000 0.33599  0.28598  0.20741  Biso   1.000  C
  N59      1.0000 0.23923  0.40526  0.15706  Biso   1.000  N
  H95      1.0000 0.17399  0.44558  0.15490  Biso   1.000  H
  H96      1.0000 0.17890  0.35981  0.12582  Biso   1.000  H
  H97      1.0000 0.17890  0.35981  0.12577  Biso   1.000  H
  C90      1.0000 0.26075  0.46432  0.19893  Biso   1.000  C
  C91      1.0000 0.32610  0.53412  0.16209  Biso   1.000  C
  C92      1.0000 0.30590  0.42395  0.22575  Biso   1.000  C
  N60      1.0000 0.30151  0.34602  0.19950  Biso   1.000  N
  H98      1.0000 0.32011  0.23539  0.20638  Biso   1.000  H
  H99      1.0000 0.35080  0.29152  0.25308  Biso   1.000  H
  C93      1.0000 0.26208  0.33604  0.16122  Biso   1.000  C
  H100     1.0000 0.23999  0.47978  0.23782  Biso   1.000  H
  H101     1.0000 0.23999  0.47978  0.23777  Biso   1.000  H
  O29      1.0000 0.34999  0.58563  0.13815  Biso   1.000  O
  H102     1.0000 0.30729  0.42441  0.27708  Biso   1.000  H
  O30      1.0000 0.24874  0.27438  0.13712  Biso   1.000  O
  C94      1.0000 0.39190  0.45908  0.79254  Biso   1.000  C
  N61      1.0000 0.34268  0.47067  0.80369  Biso   1.000  N
  N62      1.0000 0.41363  0.40936  0.84263  Biso   1.000  N
  H103     1.0000 0.40771  0.50989  0.79331  Biso   1.000  H
  H104     1.0000 0.39650  0.43658  0.74620  Biso   1.000  H
  C95      1.0000 0.30590  0.42395  0.77425  Biso   1.000  C
  C96      1.0000 0.32610  0.53412  0.83791  Biso   1.000  C
  C97      1.0000 0.43432  0.43658  0.90089  Biso   1.000  C
  C98      1.0000 0.41593  0.32595  0.83734  Biso   1.000  C
  N63      1.0000 0.30151  0.34602  0.80050  Biso   1.000  N
  C99      1.0000 0.26075  0.46432  0.80107  Biso   1.000  C
  H105     1.0000 0.30729  0.42441  0.72292  Biso   1.000  H
  H106     1.0000 0.30729  0.42441  0.72287  Biso   1.000  H
  N64      1.0000 0.27845  0.53152  0.83719  Biso   1.000  N
  O31      1.0000 0.34999  0.58563  0.86185  Biso   1.000  O
  O32      1.0000 0.43910  0.50499  0.91662  Biso   1.000  O
  N65      1.0000 0.45031  0.37561  0.93799  Biso   1.000  N
  N66      1.0000 0.37190  0.28627  0.84417  Biso   1.000  N
  H107     1.0000 0.43310  0.30928  0.79511  Biso   1.000  H
  C100     1.0000 0.44237  0.30224  0.90393  Biso   1.000  C
  C101     1.0000 0.26208  0.33604  0.83878  Biso   1.000  C
  C102     1.0000 0.33599  0.28598  0.79259  Biso   1.000  C
  N67      1.0000 0.23923  0.40526  0.84294  Biso   1.000  N
  H108     1.0000 0.23999  0.47978  0.76218  Biso   1.000  H
  C103     1.0000 0.25010  0.58615  0.87474  Biso   1.000  C
  C104     1.0000 0.47762  0.38421  0.00000  Biso   1.000  C
  C105     1.0000 0.36985  0.24168  0.90202  Biso   1.000  C
  N68      1.0000 0.41008  0.25108  0.93783  Biso   1.000  N
  H109     1.0000 0.47240  0.27560  0.89308  Biso   1.000  H
  O33      1.0000 0.24874  0.27438  0.86288  Biso   1.000  O
  H110     1.0000 0.32011  0.23539  0.79362  Biso   1.000  H
  H111     1.0000 0.35080  0.29152  0.74692  Biso   1.000  H
  C106     1.0000 0.19356  0.41143  0.87397  Biso   1.000  C
  C107     1.0000 0.19356  0.41143  0.87392  Biso   1.000  C
  N69      1.0000 0.23787  0.56105  0.94307  Biso   1.000  N
  H112     1.0000 0.26709  0.63558  0.87798  Biso   1.000  H
  H113     1.0000 0.22112  0.59572  0.84849  Biso   1.000  H
  H114     1.0000 0.50280  0.34522  0.00000  Biso   1.000  H
  H115     1.0000 0.49239  0.43589  0.00000  Biso   1.000  H
  N70      1.0000 0.45031  0.37561  0.06201  Biso   1.000  N
  O34      1.0000 0.33749  0.19882  0.91733  Biso   1.000  O
  C108     1.0000 0.42011  0.20828  0.00000  Biso   1.000  C
  N71      1.0000 0.19388  0.44120  0.94328  Biso   1.000  N
  H116     1.0000 0.17399  0.44558  0.84510  Biso   1.000  H
  H117     1.0000 0.17890  0.35981  0.87418  Biso   1.000  H
  C109     1.0000 0.19478  0.52275  0.96003  Biso   1.000  C
  C110     1.0000 0.26131  0.58528  0.00000  Biso   1.000  C
  C111     1.0000 0.43432  0.43658  0.09911  Biso   1.000  C
  C112     1.0000 0.44237  0.30224  0.09607  Biso   1.000  C
  H118     1.0000 0.40151  0.16018  0.00000  Biso   1.000  H
  H119     1.0000 0.45341  0.19352  0.00000  Biso   1.000  H
  N72      1.0000 0.41008  0.25108  0.06217  Biso   1.000  N
  C113     1.0000 0.19363  0.39557  0.00000  Biso   1.000  C
  H120     1.0000 0.16719  0.55061  0.94092  Biso   1.000  H
  C114     1.0000 0.19478  0.52275  0.03997  Biso   1.000  C
  O35      1.0000 0.29754  0.62346  0.00000  Biso   1.000  O
  N73      1.0000 0.23787  0.56105  0.05693  Biso   1.000  N
  O36      1.0000 0.43910  0.50499  0.08338  Biso   1.000  O
  N74      1.0000 0.41363  0.40936  0.15737  Biso   1.000  N
  C115     1.0000 0.41593  0.32595  0.16266  Biso   1.000  C
  H121     1.0000 0.47240  0.27560  0.10692  Biso   1.000  H
  C116     1.0000 0.36985  0.24168  0.09798  Biso   1.000  C
  O37      1.0000 0.19161  0.32468  0.00000  Biso   1.000  O
  N75      1.0000 0.19388  0.44120  0.05672  Biso   1.000  N
  H122     1.0000 0.16719  0.55061  0.05908  Biso   1.000  H
  C117     1.0000 0.25010  0.58615  0.12526  Biso   1.000  C
  C118     1.0000 0.39190  0.45908  0.20746  Biso   1.000  C
  N76      1.0000 0.37190  0.28627  0.15583  Biso   1.000  N
  H123     1.0000 0.43310  0.30928  0.20489  Biso   1.000  H
  O38      1.0000 0.33749  0.19882  0.08267  Biso   1.000  O
  C119     1.0000 0.19356  0.41143  0.12603  Biso   1.000  C
  N77      1.0000 0.27845  0.53152  0.16281  Biso   1.000  N
  H124     1.0000 0.26709  0.63558  0.12202  Biso   1.000  H
  H125     1.0000 0.22112  0.59572  0.15151  Biso   1.000  H
  H126     1.0000 0.26709  0.63558  0.12197  Biso   1.000  H
  N78      1.0000 0.34268  0.47067  0.19631  Biso   1.000  N
  H127     1.0000 0.40771  0.50989  0.20669  Biso   1.000  H
  H128     1.0000 0.39650  0.43658  0.25380  Biso   1.000  H
  C120     1.0000 0.33599  0.28598  0.20741  Biso   1.000  C
  N79      1.0000 0.23923  0.40526  0.15706  Biso   1.000  N
  H129     1.0000 0.17399  0.44558  0.15490  Biso   1.000  H
  H130     1.0000 0.17890  0.35981  0.12582  Biso   1.000  H
  H131     1.0000 0.17890  0.35981  0.12577  Biso   1.000  H
  C121     1.0000 0.26075  0.46432  0.19893  Biso   1.000  C
  C122     1.0000 0.32610  0.53412  0.16209  Biso   1.000  C
  C123     1.0000 0.30590  0.42395  0.22575  Biso   1.000  C
  N80      1.0000 0.30151  0.34602  0.19950  Biso   1.000  N
  H132     1.0000 0.32011  0.23539  0.20638  Biso   1.000  H
  H133     1.0000 0.35080  0.29152  0.25308  Biso   1.000  H
  C124     1.0000 0.26208  0.33604  0.16122  Biso   1.000  C
  H134     1.0000 0.23999  0.47978  0.23782  Biso   1.000  H
  H135     1.0000 0.23999  0.47978  0.23777  Biso   1.000  H
  O39      1.0000 0.34999  0.58563  0.13815  Biso   1.000  O
  H136     1.0000 0.30729  0.42441  0.27708  Biso   1.000  H
  O40      1.0000 0.24874  0.27438  0.13712  Biso   1.000  O
  O41      1.0000 0.56648  0.37769  0.58154  Biso   1.000  O
  C125     1.0000 0.57007  0.30899  0.59834  Biso   1.000  C
  N81      1.0000 0.55279  0.24814  0.56242  Biso   1.000  N
  N82      1.0000 0.59013  0.28275  0.65706  Biso   1.000  N
  C126     1.0000 0.52635  0.25708  0.50000  Biso   1.000  C
  C127     1.0000 0.56111  0.17471  0.59695  Biso   1.000  C
  C128     1.0000 0.58832  0.19928  0.66256  Biso   1.000  C
  C129     1.0000 0.61179  0.33304  0.70654  Biso   1.000  C
  H137     1.0000 0.50078  0.21872  0.50000  Biso   1.000  H
  H138     1.0000 0.51190  0.30899  0.50000  Biso   1.000  H
  N83      1.0000 0.55279  0.24814  0.43758  Biso   1.000  N
  N84      1.0000 0.59316  0.12390  0.56211  Biso   1.000  N
  H139     1.0000 0.53130  0.14789  0.60861  Biso   1.000  H
  N85      1.0000 0.63283  0.16116  0.65403  Biso   1.000  N
  H140     1.0000 0.57209  0.18227  0.70551  Biso   1.000  H
  N86      1.0000 0.66101  0.34493  0.69477  Biso   1.000  N
  H141     1.0000 0.60751  0.31090  0.75298  Biso   1.000  H
  H142     1.0000 0.59581  0.38357  0.70551  Biso   1.000  H
  C130     1.0000 0.57007  0.30899  0.40166  Biso   1.000  C
  C131     1.0000 0.56111  0.17471  0.40305  Biso   1.000  C
  C132     1.0000 0.63370  0.11478  0.59710  Biso   1.000  C
  C133     1.0000 0.58274  0.08208  0.50000  Biso   1.000  C
  C134     1.0000 0.66920  0.16006  0.70510  Biso   1.000  C
  C135     1.0000 0.69797  0.29884  0.72488  Biso   1.000  C
  C136     1.0000 0.67735  0.40820  0.66102  Biso   1.000  C
  O42      1.0000 0.56648  0.37769  0.41846  Biso   1.000  O
  N87      1.0000 0.59013  0.28275  0.34294  Biso   1.000  N
  N88      1.0000 0.59316  0.12390  0.43789  Biso   1.000  N
  C137     1.0000 0.58832  0.19928  0.33744  Biso   1.000  C
  H143     1.0000 0.53130  0.14789  0.39139  Biso   1.000  H
  O43      1.0000 0.66568  0.07083  0.58107  Biso   1.000  O
  H144     1.0000 0.54920  0.06852  0.50000  Biso   1.000  H
  H145     1.0000 0.60068  0.03340  0.50000  Biso   1.000  H
  N89      1.0000 0.70319  0.22138  0.69785  Biso   1.000  N
  H146     1.0000 0.68560  0.10988  0.70258  Biso   1.000  H
  H147     1.0000 0.65481  0.16393  0.75118  Biso   1.000  H
  C138     1.0000 0.74294  0.34049  0.69929  Biso   1.000  C
  H148     1.0000 0.69609  0.29873  0.77620  Biso   1.000  H
  O44      1.0000 0.65307  0.45896  0.63553  Biso   1.000  O
  N90      1.0000 0.72486  0.40757  0.66369  Biso   1.000  N
  C139     1.0000 0.61179  0.33304  0.29346  Biso   1.000  C
  C140     1.0000 0.63370  0.11478  0.40290  Biso   1.000  C
  N91      1.0000 0.63283  0.16116  0.34597  Biso   1.000  N
  H149     1.0000 0.57209  0.18227  0.29449  Biso   1.000  H
  C141     1.0000 0.74283  0.21290  0.65958  Biso   1.000  C
  N92      1.0000 0.76533  0.28246  0.65665  Biso   1.000  N
  H150     1.0000 0.76331  0.35577  0.73859  Biso   1.000  H
  C142     1.0000 0.75286  0.46231  0.62521  Biso   1.000  C
  N93      1.0000 0.66101  0.34493  0.30523  Biso   1.000  N
  H151     1.0000 0.60751  0.31090  0.24702  Biso   1.000  H
  H152     1.0000 0.59581  0.38357  0.29449  Biso   1.000  H
  O45      1.0000 0.66568  0.07083  0.41888  Biso   1.000  O
  C143     1.0000 0.66920  0.16006  0.29490  Biso   1.000  C
  O46      1.0000 0.75666  0.15245  0.63445  Biso   1.000  O
  C144     1.0000 0.81152  0.29082  0.62659  Biso   1.000  C
  N94      1.0000 0.76478  0.43675  0.55687  Biso   1.000  N
  H153     1.0000 0.73569  0.51162  0.62181  Biso   1.000  H
  H154     1.0000 0.78198  0.47240  0.65100  Biso   1.000  H
  C145     1.0000 0.69797  0.29884  0.27512  Biso   1.000  C
  C146     1.0000 0.67735  0.40820  0.33898  Biso   1.000  C
  N95      1.0000 0.70319  0.22138  0.30215  Biso   1.000  N
  H155     1.0000 0.68560  0.10988  0.29742  Biso   1.000  H
  H156     1.0000 0.65481  0.16393  0.24882  Biso   1.000  H
  N96      1.0000 0.81128  0.31886  0.55682  Biso   1.000  N
  H157     1.0000 0.82991  0.32682  0.65531  Biso   1.000  H
  H158     1.0000 0.82741  0.24012  0.62767  Biso   1.000  H
  C147     1.0000 0.74060  0.45925  0.50000  Biso   1.000  C
  C148     1.0000 0.80860  0.40030  0.53987  Biso   1.000  C
  C149     1.0000 0.74294  0.34049  0.30071  Biso   1.000  C
  H159     1.0000 0.69609  0.29873  0.22380  Biso   1.000  H
  O47      1.0000 0.65307  0.45896  0.36447  Biso   1.000  O
  N97      1.0000 0.72486  0.40757  0.33631  Biso   1.000  N
  C150     1.0000 0.74283  0.21290  0.34042  Biso   1.000  C
  C151     1.0000 0.81441  0.27277  0.50000  Biso   1.000  C
  N98      1.0000 0.76478  0.43675  0.44313  Biso   1.000  N
  O48      1.0000 0.70424  0.49703  0.50000  Biso   1.000  O
  C152     1.0000 0.80860  0.40030  0.46013  Biso   1.000  C
  H160     1.0000 0.83570  0.42960  0.55878  Biso   1.000  H
  N99      1.0000 0.76533  0.28246  0.34335  Biso   1.000  N
  H161     1.0000 0.76331  0.35577  0.26141  Biso   1.000  H
  C153     1.0000 0.75286  0.46231  0.37474  Biso   1.000  C
  O49      1.0000 0.75666  0.15245  0.36550  Biso   1.000  O
  N100     1.0000 0.81128  0.31886  0.44318  Biso   1.000  N
  O50      1.0000 0.82110  0.20275  0.50000  Biso   1.000  O
  H162     1.0000 0.83570  0.42960  0.44117  Biso   1.000  H
  C154     1.0000 0.81152  0.29082  0.37341  Biso   1.000  C
  H163     1.0000 0.73569  0.51162  0.37819  Biso   1.000  H
  H164     1.0000 0.78198  0.47240  0.34900  Biso   1.000  H
  H165     1.0000 0.82991  0.32682  0.34469  Biso   1.000  H
  H166     1.0000 0.82741  0.24012  0.37228  Biso   1.000  H
  O51      1.0000 0.43352  0.62231  0.58154  Biso   1.000  O
  C155     1.0000 0.42993  0.69101  0.59834  Biso   1.000  C
  N101     1.0000 0.40987  0.71719  0.65706  Biso   1.000  N
  N102     1.0000 0.44721  0.75186  0.56242  Biso   1.000  N
  C156     1.0000 0.38821  0.66696  0.70654  Biso   1.000  C
  C157     1.0000 0.41168  0.80072  0.66256  Biso   1.000  C
  C158     1.0000 0.47365  0.74292  0.50000  Biso   1.000  C
  C159     1.0000 0.43885  0.82529  0.59695  Biso   1.000  C
  N103     1.0000 0.33899  0.65507  0.69477  Biso   1.000  N
  H167     1.0000 0.39249  0.68910  0.75298  Biso   1.000  H
  H168     1.0000 0.40419  0.61637  0.70551  Biso   1.000  H
  N104     1.0000 0.36717  0.83884  0.65403  Biso   1.000  N
  H169     1.0000 0.42791  0.81767  0.70551  Biso   1.000  H
  N105     1.0000 0.44721  0.75186  0.43758  Biso   1.000  N
  H170     1.0000 0.49918  0.78128  0.50000  Biso   1.000  H
  H171     1.0000 0.48810  0.69101  0.50000  Biso   1.000  H
  N106     1.0000 0.40684  0.87610  0.56211  Biso   1.000  N
  H172     1.0000 0.46870  0.85211  0.60861  Biso   1.000  H
  C160     1.0000 0.32265  0.59174  0.66102  Biso   1.000  C
  C161     1.0000 0.30203  0.70116  0.72488  Biso   1.000  C
  C162     1.0000 0.33080  0.83988  0.70510  Biso   1.000  C
  C163     1.0000 0.36630  0.88522  0.59710  Biso   1.000  C
  C164     1.0000 0.42993  0.69101  0.40166  Biso   1.000  C
  C165     1.0000 0.43885  0.82529  0.40305  Biso   1.000  C
  C166     1.0000 0.41726  0.91786  0.50000  Biso   1.000  C
  N107     1.0000 0.27514  0.59237  0.66369  Biso   1.000  N
  O52      1.0000 0.34693  0.54104  0.63553  Biso   1.000  O
  C167     1.0000 0.25706  0.65951  0.69929  Biso   1.000  C
  N108     1.0000 0.29681  0.77862  0.69785  Biso   1.000  N
  H173     1.0000 0.30391  0.70127  0.77620  Biso   1.000  H
  H174     1.0000 0.31440  0.89006  0.70258  Biso   1.000  H
  H175     1.0000 0.34519  0.83607  0.75118  Biso   1.000  H
  O53      1.0000 0.33432  0.92911  0.58107  Biso   1.000  O
  N109     1.0000 0.40987  0.71719  0.34294  Biso   1.000  N
  O54      1.0000 0.43352  0.62231  0.41846  Biso   1.000  O
  C168     1.0000 0.41168  0.80072  0.33744  Biso   1.000  C
  N110     1.0000 0.40684  0.87610  0.43789  Biso   1.000  N
  H176     1.0000 0.46870  0.85211  0.39139  Biso   1.000  H
  H177     1.0000 0.45080  0.93148  0.50000  Biso   1.000  H
  H178     1.0000 0.39928  0.96660  0.50000  Biso   1.000  H
  C169     1.0000 0.24714  0.53769  0.62521  Biso   1.000  C
  N111     1.0000 0.23467  0.71754  0.65665  Biso   1.000  N
  H179     1.0000 0.23669  0.64417  0.73859  Biso   1.000  H
  C170     1.0000 0.25713  0.78710  0.65958  Biso   1.000  C
  C171     1.0000 0.38821  0.66696  0.29346  Biso   1.000  C
  N112     1.0000 0.36717  0.83884  0.34597  Biso   1.000  N
  H180     1.0000 0.42791  0.81767  0.29449  Biso   1.000  H
  C172     1.0000 0.36630  0.88522  0.40290  Biso   1.000  C
  N113     1.0000 0.23522  0.56325  0.55687  Biso   1.000  N
  H181     1.0000 0.26431  0.48838  0.62181  Biso   1.000  H
  H182     1.0000 0.21802  0.52760  0.65100  Biso   1.000  H
  C173     1.0000 0.18848  0.70918  0.62659  Biso   1.000  C
  O55      1.0000 0.24334  0.84755  0.63445  Biso   1.000  O
  N114     1.0000 0.33899  0.65507  0.30523  Biso   1.000  N
  H183     1.0000 0.39249  0.68910  0.24702  Biso   1.000  H
  H184     1.0000 0.40419  0.61637  0.29449  Biso   1.000  H
  C174     1.0000 0.33080  0.83988  0.29490  Biso   1.000  C
  O56      1.0000 0.33432  0.92911  0.41888  Biso   1.000  O
  C175     1.0000 0.25940  0.54075  0.50000  Biso   1.000  C
  C176     1.0000 0.19140  0.59970  0.53987  Biso   1.000  C
  N115     1.0000 0.18872  0.68114  0.55682  Biso   1.000  N
  H185     1.0000 0.17009  0.67318  0.65531  Biso   1.000  H
  H186     1.0000 0.17259  0.75988  0.62767  Biso   1.000  H
  C177     1.0000 0.32265  0.59174  0.33898  Biso   1.000  C
  C178     1.0000 0.30203  0.70116  0.27512  Biso   1.000  C
  N116     1.0000 0.29681  0.77862  0.30215  Biso   1.000  N
  H187     1.0000 0.31440  0.89006  0.29742  Biso   1.000  H
  H188     1.0000 0.34519  0.83607  0.24882  Biso   1.000  H
  N117     1.0000 0.23522  0.56325  0.44313  Biso   1.000  N
  O57      1.0000 0.29576  0.50297  0.50000  Biso   1.000  O
  C179     1.0000 0.19140  0.59970  0.46013  Biso   1.000  C
  H189     1.0000 0.16430  0.57040  0.55878  Biso   1.000  H
  C180     1.0000 0.18559  0.72717  0.50000  Biso   1.000  C
  N118     1.0000 0.27514  0.59237  0.33631  Biso   1.000  N
  O58      1.0000 0.34693  0.54104  0.36447  Biso   1.000  O
  C181     1.0000 0.25706  0.65951  0.30071  Biso   1.000  C
  H190     1.0000 0.30391  0.70127  0.22380  Biso   1.000  H
  C182     1.0000 0.25713  0.78710  0.34042  Biso   1.000  C
  C183     1.0000 0.24714  0.53769  0.37474  Biso   1.000  C
  N119     1.0000 0.18872  0.68114  0.44318  Biso   1.000  N
  H191     1.0000 0.16430  0.57040  0.44117  Biso   1.000  H
  O59      1.0000 0.17886  0.79725  0.50000  Biso   1.000  O
  N120     1.0000 0.23467  0.71754  0.34335  Biso   1.000  N
  H192     1.0000 0.23669  0.64417  0.26141  Biso   1.000  H
  O60      1.0000 0.24334  0.84755  0.36550  Biso   1.000  O
  H193     1.0000 0.26431  0.48838  0.37819  Biso   1.000  H
  H194     1.0000 0.21802  0.52760  0.34900  Biso   1.000  H
  C184     1.0000 0.18848  0.70918  0.37341  Biso   1.000  C
  H195     1.0000 0.17009  0.67318  0.34469  Biso   1.000  H
  H196     1.0000 0.17259  0.75988  0.37228  Biso   1.000  H
  O61      1.0000 0.67888  0.70272  0.50000  Biso   1.000  O
  C185     1.0000 0.68557  0.77280  0.50000  Biso   1.000  C
  N121     1.0000 0.68870  0.81888  0.44318  Biso   1.000  N
  N122     1.0000 0.68870  0.81888  0.55682  Biso   1.000  N
  C186     1.0000 0.69142  0.90027  0.46013  Biso   1.000  C
  C187     1.0000 0.68846  0.79079  0.37341  Biso   1.000  C
  C188     1.0000 0.69142  0.90027  0.53987  Biso   1.000  C
  C189     1.0000 0.68846  0.79079  0.62659  Biso   1.000  C
  N123     1.0000 0.73524  0.93672  0.44313  Biso   1.000  N
  H197     1.0000 0.66429  0.92957  0.44117  Biso   1.000  H
  N124     1.0000 0.73468  0.78249  0.34335  Biso   1.000  N
  H198     1.0000 0.67010  0.82679  0.34469  Biso   1.000  H
  H199     1.0000 0.67261  0.74009  0.37228  Biso   1.000  H
  N125     1.0000 0.73524  0.93672  0.55687  Biso   1.000  N
  H200     1.0000 0.66429  0.92957  0.55878  Biso   1.000  H
  N126     1.0000 0.73468  0.78249  0.65665  Biso   1.000  N
  H201     1.0000 0.67010  0.82679  0.65531  Biso   1.000  H
  H202     1.0000 0.67261  0.74009  0.62767  Biso   1.000  H
  C190     1.0000 0.75941  0.95922  0.50000  Biso   1.000  C
  C191     1.0000 0.74712  0.96228  0.37474  Biso   1.000  C
  C192     1.0000 0.75704  0.84046  0.30071  Biso   1.000  C
  C193     1.0000 0.75715  0.71293  0.34042  Biso   1.000  C
  C194     1.0000 0.74712  0.96228  0.62521  Biso   1.000  C
  C195     1.0000 0.75704  0.84046  0.69929  Biso   1.000  C
  C196     1.0000 0.75715  0.71293  0.65958  Biso   1.000  C
  O62      1.0000 0.79574  0.99700  0.50000  Biso   1.000  O
  N127     1.0000 0.77516  0.90760  0.33631  Biso   1.000  N
  H203     1.0000 0.71800  0.97237  0.34900  Biso   1.000  H
  H204     1.0000 0.76429  0.01159  0.37819  Biso   1.000  H
  H205     1.0000 0.73670  0.85580  0.26141  Biso   1.000  H
  C197     1.0000 0.80201  0.79881  0.27512  Biso   1.000  C
  O63      1.0000 0.74332  0.65248  0.36550  Biso   1.000  O
  N128     1.0000 0.79682  0.72141  0.30215  Biso   1.000  N
  N129     1.0000 0.77516  0.90760  0.66369  Biso   1.000  N
  H206     1.0000 0.71800  0.97237  0.65100  Biso   1.000  H
  H207     1.0000 0.76429  0.01159  0.62181  Biso   1.000  H
  H208     1.0000 0.73670  0.85580  0.73859  Biso   1.000  H
  C198     1.0000 0.80201  0.79881  0.72488  Biso   1.000  C
  O64      1.0000 0.74332  0.65248  0.63445  Biso   1.000  O
  N130     1.0000 0.79682  0.72141  0.69785  Biso   1.000  N
  C199     1.0000 0.82263  0.90823  0.33898  Biso   1.000  C
  N131     1.0000 0.83897  0.84490  0.30523  Biso   1.000  N
  H209     1.0000 0.80389  0.79870  0.22380  Biso   1.000  H
  C200     1.0000 0.83078  0.66009  0.29490  Biso   1.000  C
  C201     1.0000 0.82263  0.90823  0.66102  Biso   1.000  C
  N132     1.0000 0.83897  0.84490  0.69477  Biso   1.000  N
  H210     1.0000 0.80389  0.79870  0.77620  Biso   1.000  H
  C202     1.0000 0.83078  0.66009  0.70510  Biso   1.000  C
  O65      1.0000 0.84695  0.95899  0.36447  Biso   1.000  O
  C203     1.0000 0.88819  0.83302  0.29346  Biso   1.000  C
  N133     1.0000 0.86715  0.66113  0.34597  Biso   1.000  N
  H211     1.0000 0.81441  0.60991  0.29742  Biso   1.000  H
  H212     1.0000 0.84521  0.66390  0.24882  Biso   1.000  H
  O66      1.0000 0.84695  0.95899  0.63553  Biso   1.000  O
  C204     1.0000 0.88819  0.83302  0.70654  Biso   1.000  C
  N134     1.0000 0.86715  0.66113  0.65403  Biso   1.000  N
  H213     1.0000 0.81441  0.60991  0.70258  Biso   1.000  H
  H214     1.0000 0.84521  0.66390  0.75118  Biso   1.000  H
  N135     1.0000 0.90989  0.78278  0.34294  Biso   1.000  N
  H215     1.0000 0.89251  0.81087  0.24702  Biso   1.000  H
  H216     1.0000 0.90421  0.88360  0.29449  Biso   1.000  H
  C205     1.0000 0.91167  0.69926  0.33744  Biso   1.000  C
  C206     1.0000 0.86631  0.61475  0.40290  Biso   1.000  C
  N136     1.0000 0.90989  0.78278  0.65706  Biso   1.000  N
  H217     1.0000 0.89251  0.81087  0.75298  Biso   1.000  H
  H218     1.0000 0.90421  0.88360  0.70551  Biso   1.000  H
  C207     1.0000 0.91167  0.69926  0.66256  Biso   1.000  C
  C208     1.0000 0.86631  0.61475  0.59710  Biso   1.000  C
  C209     1.0000 0.92992  0.80896  0.40166  Biso   1.000  C
  H219     1.0000 0.92790  0.68230  0.29449  Biso   1.000  H
  C210     1.0000 0.93887  0.67468  0.40305  Biso   1.000  C
  O67      1.0000 0.83434  0.57086  0.41888  Biso   1.000  O
  N137     1.0000 0.90686  0.62393  0.43789  Biso   1.000  N
  C211     1.0000 0.92992  0.80896  0.59834  Biso   1.000  C
  H220     1.0000 0.92790  0.68230  0.70551  Biso   1.000  H
  C212     1.0000 0.93887  0.67468  0.59695  Biso   1.000  C
  O68      1.0000 0.83434  0.57086  0.58107  Biso   1.000  O
  N138     1.0000 0.90686  0.62393  0.56211  Biso   1.000  N
  O69      1.0000 0.93351  0.87766  0.41846  Biso   1.000  O
  N139     1.0000 0.94719  0.74811  0.43758  Biso   1.000  N
  H221     1.0000 0.96869  0.64792  0.39139  Biso   1.000  H
  C213     1.0000 0.91727  0.58211  0.50000  Biso   1.000  C
  O70      1.0000 0.93351  0.87766  0.58154  Biso   1.000  O
  N140     1.0000 0.94719  0.74811  0.56242  Biso   1.000  N
  H222     1.0000 0.96869  0.64792  0.60861  Biso   1.000  H
  C214     1.0000 0.97363  0.75711  0.50000  Biso   1.000  C
  H223     1.0000 0.95078  0.56850  0.50000  Biso   1.000  H
  H224     1.0000 0.89930  0.53337  0.50000  Biso   1.000  H
  H225     1.0000 0.99920  0.71869  0.50000  Biso   1.000  H
  H226     1.0000 0.98809  0.80896  0.50000  Biso   1.000  H
  O71      1.0000 0.32112  0.29728  0.50000  Biso   1.000  O
  C215     1.0000 0.31443  0.22720  0.50000  Biso   1.000  C
  N141     1.0000 0.31130  0.18112  0.44318  Biso   1.000  N
  N142     1.0000 0.31130  0.18112  0.55682  Biso   1.000  N
  C216     1.0000 0.31154  0.20915  0.37341  Biso   1.000  C
  C217     1.0000 0.30858  0.09973  0.46013  Biso   1.000  C
  C218     1.0000 0.30858  0.09973  0.53987  Biso   1.000  C
  C219     1.0000 0.31154  0.20915  0.62659  Biso   1.000  C
  N143     1.0000 0.26532  0.21751  0.34335  Biso   1.000  N
  H227     1.0000 0.32990  0.17321  0.34469  Biso   1.000  H
  H228     1.0000 0.32739  0.25991  0.37228  Biso   1.000  H
  N144     1.0000 0.26476  0.06322  0.44313  Biso   1.000  N
  H229     1.0000 0.33571  0.07043  0.44117  Biso   1.000  H
  N145     1.0000 0.26476  0.06322  0.55687  Biso   1.000  N
  H230     1.0000 0.33571  0.07043  0.55878  Biso   1.000  H
  N146     1.0000 0.26532  0.21751  0.65665  Biso   1.000  N
  H231     1.0000 0.32990  0.17321  0.65531  Biso   1.000  H
  H232     1.0000 0.32739  0.25991  0.62767  Biso   1.000  H
  C220     1.0000 0.24296  0.15954  0.30071  Biso   1.000  C
  C221     1.0000 0.24285  0.28707  0.34042  Biso   1.000  C
  C222     1.0000 0.25288  0.03772  0.37474  Biso   1.000  C
  C223     1.0000 0.24059  0.04072  0.50000  Biso   1.000  C
  C224     1.0000 0.25288  0.03772  0.62521  Biso   1.000  C
  C225     1.0000 0.24296  0.15954  0.69929  Biso   1.000  C
  C226     1.0000 0.24285  0.28707  0.65958  Biso   1.000  C
  N147     1.0000 0.22484  0.09240  0.33631  Biso   1.000  N
  H233     1.0000 0.26330  0.14420  0.26141  Biso   1.000  H
  C227     1.0000 0.19799  0.20113  0.27512  Biso   1.000  C
  O72      1.0000 0.25668  0.34752  0.36550  Biso   1.000  O
  N148     1.0000 0.20318  0.27859  0.30215  Biso   1.000  N
  H234     1.0000 0.28200  0.02757  0.34900  Biso   1.000  H
  H235     1.0000 0.23571  0.98841  0.37819  Biso   1.000  H
  O73      1.0000 0.20426  0.00300  0.50000  Biso   1.000  O
  N149     1.0000 0.22484  0.09240  0.66369  Biso   1.000  N
  H236     1.0000 0.28200  0.02757  0.65100  Biso   1.000  H
  H237     1.0000 0.23571  0.98841  0.62181  Biso   1.000  H
  H238     1.0000 0.26330  0.14420  0.73859  Biso   1.000  H
  C228     1.0000 0.19799  0.20113  0.72488  Biso   1.000  C
  O74      1.0000 0.25668  0.34752  0.63445  Biso   1.000  O
  N150     1.0000 0.20318  0.27859  0.69785  Biso   1.000  N
  C229     1.0000 0.17737  0.09177  0.33898  Biso   1.000  C
  N151     1.0000 0.16103  0.15510  0.30523  Biso   1.000  N
  H239     1.0000 0.19611  0.20130  0.22380  Biso   1.000  H
  C230     1.0000 0.16922  0.33991  0.29490  Biso   1.000  C
  C231     1.0000 0.17737  0.09177  0.66102  Biso   1.000  C
  N152     1.0000 0.16103  0.15510  0.69477  Biso   1.000  N
  H240     1.0000 0.19611  0.20130  0.77620  Biso   1.000  H
  C232     1.0000 0.16922  0.33991  0.70510  Biso   1.000  C
  O75      1.0000 0.15305  0.04101  0.36447  Biso   1.000  O
  C233     1.0000 0.11181  0.16698  0.29346  Biso   1.000  C
  N153     1.0000 0.13282  0.33887  0.34597  Biso   1.000  N
  H241     1.0000 0.18559  0.39009  0.29742  Biso   1.000  H
  H242     1.0000 0.15479  0.33610  0.24882  Biso   1.000  H
  O76      1.0000 0.15305  0.04101  0.63553  Biso   1.000  O
  C234     1.0000 0.11181  0.16698  0.70654  Biso   1.000  C
  N154     1.0000 0.13282  0.33887  0.65403  Biso   1.000  N
  H243     1.0000 0.18559  0.39009  0.70258  Biso   1.000  H
  H244     1.0000 0.15479  0.33610  0.75118  Biso   1.000  H
  N155     1.0000 0.09011  0.21722  0.34294  Biso   1.000  N
  H245     1.0000 0.10749  0.18908  0.24702  Biso   1.000  H
  H246     1.0000 0.09579  0.11640  0.29449  Biso   1.000  H
  C235     1.0000 0.08833  0.30074  0.33744  Biso   1.000  C
  C236     1.0000 0.13369  0.38525  0.40290  Biso   1.000  C
  N156     1.0000 0.09011  0.21722  0.65706  Biso   1.000  N
  H247     1.0000 0.10749  0.18908  0.75298  Biso   1.000  H
  H248     1.0000 0.09579  0.11640  0.70551  Biso   1.000  H
  C237     1.0000 0.13369  0.38525  0.59710  Biso   1.000  C
  C238     1.0000 0.08833  0.30074  0.66256  Biso   1.000  C
  C239     1.0000 0.07008  0.19098  0.40166  Biso   1.000  C
  H249     1.0000 0.07210  0.31770  0.29449  Biso   1.000  H
  C240     1.0000 0.06113  0.32532  0.40305  Biso   1.000  C
  O77      1.0000 0.16566  0.42914  0.41888  Biso   1.000  O
  N157     1.0000 0.09314  0.37607  0.43789  Biso   1.000  N
  C241     1.0000 0.07008  0.19098  0.59834  Biso   1.000  C
  N158     1.0000 0.09314  0.37607  0.56211  Biso   1.000  N
  O78      1.0000 0.16566  0.42914  0.58107  Biso   1.000  O
  C242     1.0000 0.06113  0.32532  0.59695  Biso   1.000  C
  H250     1.0000 0.07210  0.31770  0.70551  Biso   1.000  H
  O79      1.0000 0.06649  0.12228  0.41846  Biso   1.000  O
  N159     1.0000 0.05281  0.25189  0.43758  Biso   1.000  N
  H251     1.0000 0.03131  0.35208  0.39139  Biso   1.000  H
  C243     1.0000 0.08273  0.41789  0.50000  Biso   1.000  C
  N160     1.0000 0.05281  0.25189  0.56242  Biso   1.000  N
  O80      1.0000 0.06649  0.12228  0.58154  Biso   1.000  O
  H252     1.0000 0.03131  0.35208  0.60861  Biso   1.000  H
  C244     1.0000 0.02633  0.24289  0.50000  Biso   1.000  C
  H253     1.0000 0.04918  0.43150  0.50000  Biso   1.000  H
  H254     1.0000 0.10070  0.46657  0.50000  Biso   1.000  H
  H255     1.0000 0.00080  0.28131  0.50000  Biso   1.000  H
  H256     1.0000 0.01191  0.19098  0.50000  Biso   1.000  H
  O81      1.0000 0.74875  0.22559  0.86288  Biso   1.000  O
  C245     1.0000 0.76206  0.16393  0.83878  Biso   1.000  C
  N161     1.0000 0.73921  0.09471  0.84294  Biso   1.000  N
  N162     1.0000 0.80153  0.15395  0.80050  Biso   1.000  N
  C246     1.0000 0.69355  0.08854  0.87392  Biso   1.000  C
  C247     1.0000 0.69355  0.08854  0.87397  Biso   1.000  C
  C248     1.0000 0.76074  0.03565  0.80107  Biso   1.000  C
  C249     1.0000 0.80591  0.07602  0.77425  Biso   1.000  C
  C250     1.0000 0.83601  0.21399  0.79259  Biso   1.000  C
  N163     1.0000 0.69389  0.05878  0.94328  Biso   1.000  N
  H257     1.0000 0.67400  0.05439  0.84510  Biso   1.000  H
  H258     1.0000 0.67888  0.14022  0.87418  Biso   1.000  H
  H259     1.0000 0.74001  0.02019  0.76218  Biso   1.000  H
  N164     1.0000 0.77847  0.96845  0.83719  Biso   1.000  N
  N165     1.0000 0.84266  0.02930  0.80369  Biso   1.000  N
  H260     1.0000 0.80731  0.07562  0.72292  Biso   1.000  H
  H261     1.0000 0.80731  0.07562  0.72287  Biso   1.000  H
  N166     1.0000 0.87192  0.21376  0.84417  Biso   1.000  N
  H262     1.0000 0.82009  0.26458  0.79362  Biso   1.000  H
  H263     1.0000 0.85081  0.20851  0.74692  Biso   1.000  H
  C251     1.0000 0.69480  0.97722  0.96003  Biso   1.000  C
  C252     1.0000 0.69365  0.10440  0.00000  Biso   1.000  C
  C253     1.0000 0.75011  0.91383  0.87474  Biso   1.000  C
  C254     1.0000 0.82608  0.96591  0.83791  Biso   1.000  C
  C255     1.0000 0.89192  0.04090  0.79254  Biso   1.000  C
  C256     1.0000 0.91591  0.17402  0.83734  Biso   1.000  C
  C257     1.0000 0.86983  0.25829  0.90202  Biso   1.000  C
  N167     1.0000 0.73785  0.93892  0.94307  Biso   1.000  N
  H264     1.0000 0.66721  0.94941  0.94092  Biso   1.000  H
  C258     1.0000 0.69480  0.97722  0.03997  Biso   1.000  C
  O82      1.0000 0.69163  0.17529  0.00000  Biso   1.000  O
  N168     1.0000 0.69389  0.05878  0.05672  Biso   1.000  N
  H265     1.0000 0.76711  0.86439  0.87798  Biso   1.000  H
  H266     1.0000 0.72110  0.90431  0.84849  Biso   1.000  H
  O83      1.0000 0.84998  0.91440  0.86185  Biso   1.000  O
  N169     1.0000 0.91365  0.09062  0.84263  Biso   1.000  N
  H267     1.0000 0.89651  0.06339  0.74620  Biso   1.000  H
  H268     1.0000 0.90769  0.99008  0.79331  Biso   1.000  H
  H269     1.0000 0.93309  0.19069  0.79511  Biso   1.000  H
  C259     1.0000 0.94235  0.19773  0.90393  Biso   1.000  C
  O84      1.0000 0.83751  0.30115  0.91733  Biso   1.000  O
  N170     1.0000 0.91006  0.24889  0.93783  Biso   1.000  N
  C260     1.0000 0.76133  0.91469  0.00000  Biso   1.000  C
  N171     1.0000 0.73785  0.93892  0.05693  Biso   1.000  N
  H270     1.0000 0.66721  0.94941  0.05908  Biso   1.000  H
  C261     1.0000 0.69355  0.08854  0.12603  Biso   1.000  C
  C262     1.0000 0.93431  0.06339  0.90089  Biso   1.000  C
  N172     1.0000 0.95029  0.12436  0.93799  Biso   1.000  N
  H271     1.0000 0.97241  0.22438  0.89308  Biso   1.000  H
  C263     1.0000 0.92009  0.29169  0.00000  Biso   1.000  C
  O85      1.0000 0.79752  0.87651  0.00000  Biso   1.000  O
  C264     1.0000 0.75011  0.91383  0.12526  Biso   1.000  C
  N173     1.0000 0.73921  0.09471  0.15706  Biso   1.000  N
  H272     1.0000 0.67400  0.05439  0.15490  Biso   1.000  H
  H273     1.0000 0.67888  0.14022  0.12582  Biso   1.000  H
  H274     1.0000 0.67888  0.14022  0.12577  Biso   1.000  H
  O86      1.0000 0.93908  0.99498  0.91662  Biso   1.000  O
  C265     1.0000 0.97760  0.11582  0.00000  Biso   1.000  C
  N174     1.0000 0.91006  0.24889  0.06217  Biso   1.000  N
  H275     1.0000 0.90149  0.33979  0.00000  Biso   1.000  H
  H276     1.0000 0.95339  0.30651  0.00000  Biso   1.000  H
  N175     1.0000 0.77847  0.96845  0.16281  Biso   1.000  N
  H277     1.0000 0.76711  0.86439  0.12202  Biso   1.000  H
  H278     1.0000 0.72110  0.90431  0.15151  Biso   1.000  H
  H279     1.0000 0.76711  0.86439  0.12197  Biso   1.000  H
  C266     1.0000 0.76074  0.03565  0.19893  Biso   1.000  C
  C267     1.0000 0.76206  0.16393  0.16122  Biso   1.000  C
  N176     1.0000 0.95029  0.12436  0.06201  Biso   1.000  N
  H280     1.0000 0.99241  0.06408  0.00000  Biso   1.000  H
  H281     1.0000 0.00279  0.15481  0.00000  Biso   1.000  H
  C268     1.0000 0.86983  0.25829  0.09798  Biso   1.000  C
  C269     1.0000 0.94235  0.19773  0.09607  Biso   1.000  C
  C270     1.0000 0.82608  0.96591  0.16209  Biso   1.000  C
  H282     1.0000 0.74001  0.02019  0.23782  Biso   1.000  H
  C271     1.0000 0.80591  0.07602  0.22575  Biso   1.000  C
  H283     1.0000 0.74001  0.02019  0.23777  Biso   1.000  H
  O87      1.0000 0.74875  0.22559  0.13712  Biso   1.000  O
  N177     1.0000 0.80153  0.15395  0.19950  Biso   1.000  N
  C272     1.0000 0.93431  0.06339  0.09911  Biso   1.000  C
  N178     1.0000 0.87192  0.21376  0.15583  Biso   1.000  N
  O88      1.0000 0.83751  0.30115  0.08267  Biso   1.000  O
  C273     1.0000 0.91591  0.17402  0.16266  Biso   1.000  C
  H284     1.0000 0.97241  0.22438  0.10692  Biso   1.000  H
  O89      1.0000 0.84998  0.91440  0.13815  Biso   1.000  O
  N179     1.0000 0.84266  0.02930  0.19631  Biso   1.000  N
  H285     1.0000 0.80731  0.07562  0.27708  Biso   1.000  H
  C274     1.0000 0.83601  0.21399  0.20741  Biso   1.000  C
  N180     1.0000 0.91365  0.09062  0.15737  Biso   1.000  N
  O90      1.0000 0.93908  0.99498  0.08338  Biso   1.000  O
  H286     1.0000 0.93309  0.19069  0.20489  Biso   1.000  H
  C275     1.0000 0.89192  0.04090  0.20746  Biso   1.000  C
  H287     1.0000 0.82009  0.26458  0.20638  Biso   1.000  H
  H288     1.0000 0.85081  0.20851  0.25308  Biso   1.000  H
  H289     1.0000 0.90769  0.99008  0.20669  Biso   1.000  H
  H290     1.0000 0.89651  0.06339  0.25380  Biso   1.000  H
  O91      1.0000 0.74875  0.22559  0.86288  Biso   1.000  O
  C276     1.0000 0.76206  0.16393  0.83878  Biso   1.000  C
  N181     1.0000 0.73921  0.09471  0.84294  Biso   1.000  N
  N182     1.0000 0.80153  0.15395  0.80050  Biso   1.000  N
  C277     1.0000 0.76074  0.03565  0.80107  Biso   1.000  C
  C278     1.0000 0.69355  0.08854  0.87397  Biso   1.000  C
  C279     1.0000 0.69355  0.08854  0.87392  Biso   1.000  C
  C280     1.0000 0.80591  0.07602  0.77425  Biso   1.000  C
  C281     1.0000 0.83601  0.21399  0.79259  Biso   1.000  C
  H291     1.0000 0.74001  0.02019  0.76218  Biso   1.000  H
  N183     1.0000 0.77847  0.96845  0.83719  Biso   1.000  N
  N184     1.0000 0.69389  0.05878  0.94328  Biso   1.000  N
  H292     1.0000 0.67400  0.05439  0.84510  Biso   1.000  H
  H293     1.0000 0.67888  0.14022  0.87418  Biso   1.000  H
  N185     1.0000 0.84266  0.02930  0.80369  Biso   1.000  N
  H294     1.0000 0.80731  0.07562  0.72292  Biso   1.000  H
  H295     1.0000 0.80731  0.07562  0.72287  Biso   1.000  H
  N186     1.0000 0.87192  0.21376  0.84417  Biso   1.000  N
  H296     1.0000 0.82009  0.26458  0.79362  Biso   1.000  H
  H297     1.0000 0.85081  0.20851  0.74692  Biso   1.000  H
  C282     1.0000 0.75011  0.91383  0.87474  Biso   1.000  C
  C283     1.0000 0.82608  0.96591  0.83791  Biso   1.000  C
  C284     1.0000 0.69480  0.97722  0.96003  Biso   1.000  C
  C285     1.0000 0.69365  0.10440  0.00000  Biso   1.000  C
  C286     1.0000 0.89192  0.04090  0.79254  Biso   1.000  C
  C287     1.0000 0.91591  0.17402  0.83734  Biso   1.000  C
  C288     1.0000 0.86983  0.25829  0.90202  Biso   1.000  C
  N187     1.0000 0.73785  0.93892  0.94307  Biso   1.000  N
  H298     1.0000 0.76711  0.86439  0.87798  Biso   1.000  H
  H299     1.0000 0.72110  0.90431  0.84849  Biso   1.000  H
  O92      1.0000 0.84998  0.91440  0.86185  Biso   1.000  O
  H300     1.0000 0.66721  0.94941  0.94092  Biso   1.000  H
  C289     1.0000 0.69480  0.97722  0.03997  Biso   1.000  C
  O93      1.0000 0.69163  0.17529  0.00000  Biso   1.000  O
  N188     1.0000 0.69389  0.05878  0.05672  Biso   1.000  N
  N189     1.0000 0.91365  0.09062  0.84263  Biso   1.000  N
  H301     1.0000 0.89651  0.06339  0.74620  Biso   1.000  H
  H302     1.0000 0.90769  0.99008  0.79331  Biso   1.000  H
  H303     1.0000 0.93309  0.19069  0.79511  Biso   1.000  H
  C290     1.0000 0.94235  0.19773  0.90393  Biso   1.000  C
  O94      1.0000 0.83751  0.30115  0.91733  Biso   1.000  O
  N190     1.0000 0.91006  0.24889  0.93783  Biso   1.000  N
  C291     1.0000 0.76133  0.91469  0.00000  Biso   1.000  C
  N191     1.0000 0.73785  0.93892  0.05693  Biso   1.000  N
  H304     1.0000 0.66721  0.94941  0.05908  Biso   1.000  H
  C292     1.0000 0.69355  0.08854  0.12603  Biso   1.000  C
  C293     1.0000 0.93431  0.06339  0.90089  Biso   1.000  C
  N192     1.0000 0.95029  0.12436  0.93799  Biso   1.000  N
  H305     1.0000 0.97241  0.22438  0.89308  Biso   1.000  H
  C294     1.0000 0.92009  0.29169  0.00000  Biso   1.000  C
  O95      1.0000 0.79752  0.87651  0.00000  Biso   1.000  O
  C295     1.0000 0.75011  0.91383  0.12526  Biso   1.000  C
  N193     1.0000 0.73921  0.09471  0.15706  Biso   1.000  N
  H306     1.0000 0.67400  0.05439  0.15490  Biso   1.000  H
  H307     1.0000 0.67888  0.14022  0.12582  Biso   1.000  H
  H308     1.0000 0.67888  0.14022  0.12577  Biso   1.000  H
  O96      1.0000 0.93908  0.99498  0.91662  Biso   1.000  O
  C296     1.0000 0.97760  0.11582  0.00000  Biso   1.000  C
  N194     1.0000 0.91006  0.24889  0.06217  Biso   1.000  N
  H309     1.0000 0.90149  0.33979  0.00000  Biso   1.000  H
  H310     1.0000 0.95339  0.30651  0.00000  Biso   1.000  H
  N195     1.0000 0.77847  0.96845  0.16281  Biso   1.000  N
  H311     1.0000 0.76711  0.86439  0.12202  Biso   1.000  H
  H312     1.0000 0.72110  0.90431  0.15151  Biso   1.000  H
  H313     1.0000 0.76711  0.86439  0.12197  Biso   1.000  H
  C297     1.0000 0.76074  0.03565  0.19893  Biso   1.000  C
  C298     1.0000 0.76206  0.16393  0.16122  Biso   1.000  C
  N196     1.0000 0.95029  0.12436  0.06201  Biso   1.000  N
  H314     1.0000 0.99241  0.06408  0.00000  Biso   1.000  H
  H315     1.0000 0.00279  0.15481  0.00000  Biso   1.000  H
  C299     1.0000 0.86983  0.25829  0.09798  Biso   1.000  C
  C300     1.0000 0.94235  0.19773  0.09607  Biso   1.000  C
  C301     1.0000 0.82608  0.96591  0.16209  Biso   1.000  C
  H316     1.0000 0.74001  0.02019  0.23782  Biso   1.000  H
  C302     1.0000 0.80591  0.07602  0.22575  Biso   1.000  C
  H317     1.0000 0.74001  0.02019  0.23777  Biso   1.000  H
  O97      1.0000 0.74875  0.22559  0.13712  Biso   1.000  O
  N197     1.0000 0.80153  0.15395  0.19950  Biso   1.000  N
  C303     1.0000 0.93431  0.06339  0.09911  Biso   1.000  C
  O98      1.0000 0.83751  0.30115  0.08267  Biso   1.000  O
  N198     1.0000 0.87192  0.21376  0.15583  Biso   1.000  N
  C304     1.0000 0.91591  0.17402  0.16266  Biso   1.000  C
  H318     1.0000 0.97241  0.22438  0.10692  Biso   1.000  H
  O99      1.0000 0.84998  0.91440  0.13815  Biso   1.000  O
  N199     1.0000 0.84266  0.02930  0.19631  Biso   1.000  N
  H319     1.0000 0.80731  0.07562  0.27708  Biso   1.000  H
  C305     1.0000 0.83601  0.21399  0.20741  Biso   1.000  C
  O100     1.0000 0.93908  0.99498  0.08338  Biso   1.000  O
  N200     1.0000 0.91365  0.09062  0.15737  Biso   1.000  N
  H320     1.0000 0.93309  0.19069  0.20489  Biso   1.000  H
  C306     1.0000 0.89192  0.04090  0.20746  Biso   1.000  C
  H321     1.0000 0.82009  0.26458  0.20638  Biso   1.000  H
  H322     1.0000 0.85081  0.20851  0.25308  Biso   1.000  H
  H323     1.0000 0.90769  0.99008  0.20669  Biso   1.000  H
  H324     1.0000 0.89651  0.06339  0.25380  Biso   1.000  H
  O101     1.0000 0.25125  0.77441  0.86288  Biso   1.000  O
  C307     1.0000 0.23794  0.83602  0.83878  Biso   1.000  C
  N201     1.0000 0.19847  0.84599  0.80050  Biso   1.000  N
  N202     1.0000 0.26075  0.90529  0.84294  Biso   1.000  N
  C308     1.0000 0.16399  0.78595  0.79259  Biso   1.000  C
  C309     1.0000 0.19409  0.92398  0.77425  Biso   1.000  C
  C310     1.0000 0.23926  0.96435  0.80107  Biso   1.000  C
  C311     1.0000 0.30645  0.91146  0.87397  Biso   1.000  C
  C312     1.0000 0.30645  0.91146  0.87392  Biso   1.000  C
  N203     1.0000 0.12808  0.78624  0.84417  Biso   1.000  N
  H325     1.0000 0.17991  0.73536  0.79362  Biso   1.000  H
  H326     1.0000 0.14919  0.79149  0.74692  Biso   1.000  H
  N204     1.0000 0.15730  0.97070  0.80369  Biso   1.000  N
  H327     1.0000 0.19269  0.92438  0.72292  Biso   1.000  H
  H328     1.0000 0.19269  0.92438  0.72287  Biso   1.000  H
  H329     1.0000 0.25999  0.97981  0.76218  Biso   1.000  H
  N205     1.0000 0.22153  0.03149  0.83719  Biso   1.000  N
  N206     1.0000 0.30611  0.94122  0.94328  Biso   1.000  N
  H330     1.0000 0.32600  0.94561  0.84510  Biso   1.000  H
  H331     1.0000 0.32108  0.85978  0.87418  Biso   1.000  H
  C313     1.0000 0.08409  0.82598  0.83734  Biso   1.000  C
  C314     1.0000 0.13017  0.74165  0.90202  Biso   1.000  C
  C315     1.0000 0.10808  0.95910  0.79254  Biso   1.000  C
  C316     1.0000 0.17388  0.03409  0.83791  Biso   1.000  C
  C317     1.0000 0.24989  0.08612  0.87474  Biso   1.000  C
  C318     1.0000 0.30635  0.89560  0.00000  Biso   1.000  C
  C319     1.0000 0.30520  0.02278  0.96003  Biso   1.000  C
  N207     1.0000 0.08635  0.90933  0.84263  Biso   1.000  N
  H332     1.0000 0.06691  0.80931  0.79511  Biso   1.000  H
  C320     1.0000 0.05765  0.80227  0.90393  Biso   1.000  C
  O102     1.0000 0.16249  0.69879  0.91733  Biso   1.000  O
  N208     1.0000 0.08994  0.75105  0.93783  Biso   1.000  N
  H333     1.0000 0.10349  0.93661  0.74620  Biso   1.000  H
  H334     1.0000 0.09231  0.00986  0.79331  Biso   1.000  H
  O103     1.0000 0.15002  0.08560  0.86185  Biso   1.000  O
  N209     1.0000 0.26211  0.06108  0.94307  Biso   1.000  N
  H335     1.0000 0.23289  0.13561  0.87798  Biso   1.000  H
  H336     1.0000 0.27890  0.09569  0.84849  Biso   1.000  H
  O104     1.0000 0.30837  0.82471  0.00000  Biso   1.000  O
  N210     1.0000 0.30611  0.94122  0.05672  Biso   1.000  N
  H337     1.0000 0.33279  0.05059  0.94092  Biso   1.000  H
  C321     1.0000 0.30520  0.02278  0.03997  Biso   1.000  C
  C322     1.0000 0.06569  0.93655  0.90089  Biso   1.000  C
  N211     1.0000 0.04971  0.87558  0.93799  Biso   1.000  N
  H338     1.0000 0.02759  0.77557  0.89308  Biso   1.000  H
  C323     1.0000 0.07991  0.70831  0.00000  Biso   1.000  C
  C324     1.0000 0.23867  0.08531  0.00000  Biso   1.000  C
  C325     1.0000 0.30645  0.91146  0.12603  Biso   1.000  C
  N212     1.0000 0.26211  0.06108  0.05693  Biso   1.000  N
  H339     1.0000 0.33279  0.05059  0.05908  Biso   1.000  H
  O105     1.0000 0.06092  0.00496  0.91662  Biso   1.000  O
  C326     1.0000 0.02240  0.88418  0.00000  Biso   1.000  C
  N213     1.0000 0.08994  0.75105  0.06217  Biso   1.000  N
  H340     1.0000 0.09851  0.66021  0.00000  Biso   1.000  H
  H341     1.0000 0.04661  0.69349  0.00000  Biso   1.000  H
  O106     1.0000 0.20248  0.12349  0.00000  Biso   1.000  O
  N214     1.0000 0.26075  0.90529  0.15706  Biso   1.000  N
  H342     1.0000 0.32600  0.94561  0.15490  Biso   1.000  H
  H343     1.0000 0.32108  0.85978  0.12582  Biso   1.000  H
  H344     1.0000 0.32108  0.85978  0.12577  Biso   1.000  H
  C327     1.0000 0.24989  0.08612  0.12526  Biso   1.000  C
  H345     1.0000 0.99721  0.84519  0.00000  Biso   1.000  H
  N215     1.0000 0.04971  0.87558  0.06201  Biso   1.000  N
  H346     1.0000 0.00759  0.93592  0.00000  Biso   1.000  H
  C328     1.0000 0.13017  0.74165  0.09798  Biso   1.000  C
  C329     1.0000 0.05765  0.80227  0.09607  Biso   1.000  C
  C330     1.0000 0.23926  0.96435  0.19893  Biso   1.000  C
  C331     1.0000 0.23794  0.83602  0.16122  Biso   1.000  C
  N216     1.0000 0.22153  0.03149  0.16281  Biso   1.000  N
  H347     1.0000 0.23289  0.13561  0.12202  Biso   1.000  H
  H348     1.0000 0.27890  0.09569  0.15151  Biso   1.000  H
  H349     1.0000 0.23289  0.13561  0.12197  Biso   1.000  H
  C332     1.0000 0.06569  0.93655  0.09911  Biso   1.000  C
  O107     1.0000 0.16249  0.69879  0.08267  Biso   1.000  O
  N217     1.0000 0.12808  0.78624  0.15583  Biso   1.000  N
  C333     1.0000 0.08409  0.82598  0.16266  Biso   1.000  C
  H350     1.0000 0.02759  0.77557  0.10692  Biso   1.000  H
  C334     1.0000 0.19409  0.92398  0.22575  Biso   1.000  C
  H351     1.0000 0.25999  0.97981  0.23782  Biso   1.000  H
  H352     1.0000 0.25999  0.97981  0.23777  Biso   1.000  H
  N218     1.0000 0.19847  0.84599  0.19950  Biso   1.000  N
  O108     1.0000 0.25125  0.77441  0.13712  Biso   1.000  O
  C335     1.0000 0.17388  0.03409  0.16209  Biso   1.000  C
  N219     1.0000 0.08635  0.90933  0.15737  Biso   1.000  N
  O109     1.0000 0.06092  0.00496  0.08338  Biso   1.000  O
  C336     1.0000 0.16399  0.78595  0.20741  Biso   1.000  C
  H353     1.0000 0.06691  0.80931  0.20489  Biso   1.000  H
  N220     1.0000 0.15730  0.97070  0.19631  Biso   1.000  N
  H354     1.0000 0.19269  0.92438  0.27708  Biso   1.000  H
  O110     1.0000 0.15002  0.08560  0.13815  Biso   1.000  O
  C337     1.0000 0.10808  0.95910  0.20746  Biso   1.000  C
  H355     1.0000 0.17991  0.73536  0.20638  Biso   1.000  H
  H356     1.0000 0.14919  0.79149  0.25308  Biso   1.000  H
  H357     1.0000 0.10349  0.93661  0.25380  Biso   1.000  H
  H358     1.0000 0.09231  0.00986  0.20669  Biso   1.000  H
  O111     1.0000 0.25125  0.77441  0.86288  Biso   1.000  O
  C338     1.0000 0.23794  0.83602  0.83878  Biso   1.000  C
  N221     1.0000 0.19847  0.84599  0.80050  Biso   1.000  N
  N222     1.0000 0.26075  0.90529  0.84294  Biso   1.000  N
  C339     1.0000 0.16399  0.78595  0.79259  Biso   1.000  C
  C340     1.0000 0.19409  0.92398  0.77425  Biso   1.000  C
  C341     1.0000 0.23926  0.96435  0.80107  Biso   1.000  C
  C342     1.0000 0.30645  0.91146  0.87397  Biso   1.000  C
  C343     1.0000 0.30645  0.91146  0.87392  Biso   1.000  C
  N223     1.0000 0.12808  0.78624  0.84417  Biso   1.000  N
  H359     1.0000 0.17991  0.73536  0.79362  Biso   1.000  H
  H360     1.0000 0.14919  0.79149  0.74692  Biso   1.000  H
  N224     1.0000 0.15730  0.97070  0.80369  Biso   1.000  N
  H361     1.0000 0.19269  0.92438  0.72292  Biso   1.000  H
  H362     1.0000 0.19269  0.92438  0.72287  Biso   1.000  H
  H363     1.0000 0.25999  0.97981  0.76218  Biso   1.000  H
  N225     1.0000 0.22153  0.03149  0.83719  Biso   1.000  N
  N226     1.0000 0.30611  0.94122  0.94328  Biso   1.000  N
  H364     1.0000 0.32600  0.94561  0.84510  Biso   1.000  H
  H365     1.0000 0.32108  0.85978  0.87418  Biso   1.000  H
  C344     1.0000 0.08409  0.82598  0.83734  Biso   1.000  C
  C345     1.0000 0.13017  0.74165  0.90202  Biso   1.000  C
  C346     1.0000 0.10808  0.95910  0.79254  Biso   1.000  C
  C347     1.0000 0.17388  0.03409  0.83791  Biso   1.000  C
  C348     1.0000 0.24989  0.08612  0.87474  Biso   1.000  C
  C349     1.0000 0.30635  0.89560  0.00000  Biso   1.000  C
  C350     1.0000 0.30520  0.02278  0.96003  Biso   1.000  C
  N227     1.0000 0.08635  0.90933  0.84263  Biso   1.000  N
  H366     1.0000 0.06691  0.80931  0.79511  Biso   1.000  H
  C351     1.0000 0.05765  0.80227  0.90393  Biso   1.000  C
  O112     1.0000 0.16249  0.69879  0.91733  Biso   1.000  O
  N228     1.0000 0.08994  0.75105  0.93783  Biso   1.000  N
  H367     1.0000 0.10349  0.93661  0.74620  Biso   1.000  H
  H368     1.0000 0.09231  0.00986  0.79331  Biso   1.000  H
  O113     1.0000 0.15002  0.08560  0.86185  Biso   1.000  O
  N229     1.0000 0.26211  0.06108  0.94307  Biso   1.000  N
  H369     1.0000 0.23289  0.13561  0.87798  Biso   1.000  H
  H370     1.0000 0.27890  0.09569  0.84849  Biso   1.000  H
  O114     1.0000 0.30837  0.82471  0.00000  Biso   1.000  O
  N230     1.0000 0.30611  0.94122  0.05672  Biso   1.000  N
  H371     1.0000 0.33279  0.05059  0.94092  Biso   1.000  H
  C352     1.0000 0.30520  0.02278  0.03997  Biso   1.000  C
  C353     1.0000 0.06569  0.93655  0.90089  Biso   1.000  C
  N231     1.0000 0.04971  0.87558  0.93799  Biso   1.000  N
  H372     1.0000 0.02759  0.77557  0.89308  Biso   1.000  H
  C354     1.0000 0.07991  0.70831  0.00000  Biso   1.000  C
  C355     1.0000 0.23867  0.08531  0.00000  Biso   1.000  C
  C356     1.0000 0.30645  0.91146  0.12603  Biso   1.000  C
  N232     1.0000 0.26211  0.06108  0.05693  Biso   1.000  N
  H373     1.0000 0.33279  0.05059  0.05908  Biso   1.000  H
  O115     1.0000 0.06092  0.00496  0.91662  Biso   1.000  O
  C357     1.0000 0.02240  0.88418  0.00000  Biso   1.000  C
  N233     1.0000 0.08994  0.75105  0.06217  Biso   1.000  N
  H374     1.0000 0.09851  0.66021  0.00000  Biso   1.000  H
  H375     1.0000 0.04661  0.69349  0.00000  Biso   1.000  H
  O116     1.0000 0.20248  0.12349  0.00000  Biso   1.000  O
  N234     1.0000 0.26075  0.90529  0.15706  Biso   1.000  N
  H376     1.0000 0.32600  0.94561  0.15490  Biso   1.000  H
  H377     1.0000 0.32108  0.85978  0.12582  Biso   1.000  H
  H378     1.0000 0.32108  0.85978  0.12577  Biso   1.000  H
  C358     1.0000 0.24989  0.08612  0.12526  Biso   1.000  C
  H379     1.0000 0.99721  0.84519  0.00000  Biso   1.000  H
  N235     1.0000 0.04971  0.87558  0.06201  Biso   1.000  N
  H380     1.0000 0.00759  0.93592  0.00000  Biso   1.000  H
  C359     1.0000 0.13017  0.74165  0.09798  Biso   1.000  C
  C360     1.0000 0.05765  0.80227  0.09607  Biso   1.000  C
  C361     1.0000 0.23926  0.96435  0.19893  Biso   1.000  C
  C362     1.0000 0.23794  0.83602  0.16122  Biso   1.000  C
  N236     1.0000 0.22153  0.03149  0.16281  Biso   1.000  N
  H381     1.0000 0.23289  0.13561  0.12202  Biso   1.000  H
  H382     1.0000 0.27890  0.09569  0.15151  Biso   1.000  H
  H383     1.0000 0.23289  0.13561  0.12197  Biso   1.000  H
  C363     1.0000 0.06569  0.93655  0.09911  Biso   1.000  C
  O117     1.0000 0.16249  0.69879  0.08267  Biso   1.000  O
  N237     1.0000 0.12808  0.78624  0.15583  Biso   1.000  N
  C364     1.0000 0.08409  0.82598  0.16266  Biso   1.000  C
  H384     1.0000 0.02759  0.77557  0.10692  Biso   1.000  H
  C365     1.0000 0.19409  0.92398  0.22575  Biso   1.000  C
  H385     1.0000 0.25999  0.97981  0.23782  Biso   1.000  H
  H386     1.0000 0.25999  0.97981  0.23777  Biso   1.000  H
  N238     1.0000 0.19847  0.84599  0.19950  Biso   1.000  N
  O118     1.0000 0.25125  0.77441  0.13712  Biso   1.000  O
  C366     1.0000 0.17388  0.03409  0.16209  Biso   1.000  C
  N239     1.0000 0.08635  0.90933  0.15737  Biso   1.000  N
  O119     1.0000 0.06092  0.00496  0.08338  Biso   1.000  O
  C367     1.0000 0.16399  0.78595  0.20741  Biso   1.000  C
  H387     1.0000 0.06691  0.80931  0.20489  Biso   1.000  H
  N240     1.0000 0.15730  0.97070  0.19631  Biso   1.000  N
  H388     1.0000 0.19269  0.92438  0.27708  Biso   1.000  H
  O120     1.0000 0.15002  0.08560  0.13815  Biso   1.000  O
  C368     1.0000 0.10808  0.95910  0.20746  Biso   1.000  C
  H389     1.0000 0.17991  0.73536  0.20638  Biso   1.000  H
  H390     1.0000 0.14919  0.79149  0.25308  Biso   1.000  H
  H391     1.0000 0.10349  0.93661  0.25380  Biso   1.000  H
  H392     1.0000 0.09231  0.00986  0.20669  Biso   1.000  H
  Ne1      1.0000 0.18016  0.21739  0.50000  Biso   1.000  Ne
  He1      1.0000 0.23532  0.37331  0.49997  Biso   1.000  He
  He2      1.0000 0.12459  0.06360  0.50000  Biso   1.000  He
  Ar1      1.0000 0.17832  0.22273  0.50000  Biso   1.000  Ar
  Ne2      1.0000 0.31984  0.71739  0.50000  Biso   1.000  Ne
  He3      1.0000 0.26499  0.87233  0.49998  Biso   1.000  He
  He4      1.0000 0.37581  0.56239  0.50000  Biso   1.000  He
  Ar2      1.0000 0.32168  0.72272  0.50000  Biso   1.000  Ar
  Ne3      1.0000 0.68016  0.28260  0.50000  Biso   1.000  Ne
  He5      1.0000 0.73353  0.13214  0.49997  Biso   1.000  He
  He6      1.0000 0.62420  0.43757  0.50000  Biso   1.000  He
  Ar3      1.0000 0.67832  0.27730  0.49998  Biso   1.000  Ar
  Ne4      1.0000 0.32177  0.40813  0.99846  Biso   1.000  Ne
  He7      1.0000 0.37677  0.55494  1.00000  Biso   1.000  He
  He8      1.0000 0.27364  0.25642  1.00000  Biso   1.000  He
  Ar4      1.0000 0.32370  0.40291  1.00000  Biso   1.000  Ar
  Ne5      1.0000 0.32177  0.40813  0.99846  Biso   1.000  Ne
  He9      1.0000 0.37677  0.55494  1.00000  Biso   1.000  He
  He10     1.0000 0.27364  0.25642  1.00000  Biso   1.000  He
  Ar5      1.0000 0.32370  0.40291  1.00000  Biso   1.000  Ar
  Ne6      1.0000 0.17822  0.90813  0.99846  Biso   1.000  Ne
  He11     1.0000 0.12345  0.05428  1.00000  Biso   1.000  He
  He12     1.0000 0.22897  0.74806  0.00000  Biso   1.000  He
  Ar6      1.0000 0.17630  0.90291  1.00000  Biso   1.000  Ar
  Ne7      1.0000 0.17822  0.90813  0.99846  Biso   1.000  Ne
  He13     1.0000 0.12345  0.05428  1.00000  Biso   1.000  He
  He14     1.0000 0.22897  0.74806  0.00000  Biso   1.000  He
  Ar7      1.0000 0.17630  0.90291  1.00000  Biso   1.000  Ar
  Ne8      1.0000 0.81984  0.78260  0.50000  Biso   1.000  Ne
  He15     1.0000 0.87336  0.92987  0.50000  Biso   1.000  He
  He16     1.0000 0.76652  0.63231  0.49997  Biso   1.000  He
  Ar8      1.0000 0.82169  0.77726  0.49998  Biso   1.000  Ar
  Ne9      1.0000 0.67823  0.59185  0.99846  Biso   1.000  Ne
  He17     1.0000 0.62020  0.43511  1.00000  Biso   1.000  He
  He18     1.0000 0.73054  0.75686  1.00000  Biso   1.000  He
  Ar9      1.0000 0.67630  0.59711  0.00000  Biso   1.000  Ar
  Ne10     1.0000 0.67823  0.59185  0.99846  Biso   1.000  Ne
  He19     1.0000 0.62020  0.43511  1.00000  Biso   1.000  He
  He20     1.0000 0.73054  0.75686  1.00000  Biso   1.000  He
  Ar10     1.0000 0.67630  0.59711  0.00000  Biso   1.000  Ar
  Ne11     1.0000 0.82177  0.09185  0.99846  Biso   1.000  Ne
  He21     1.0000 0.76926  0.25753  1.00000  Biso   1.000  He
  He22     1.0000 0.88018  0.93381  0.00000  Biso   1.000  He
  Ar11     1.0000 0.82370  0.09707  1.00000  Biso   1.000  Ar
  Ne12     1.0000 0.82177  0.09185  0.99846  Biso   1.000  Ne
  He23     1.0000 0.76926  0.25753  1.00000  Biso   1.000  He
  He24     1.0000 0.88018  0.93381  0.00000  Biso   1.000  He
  Ar12     1.0000 0.82370  0.09707  1.00000  Biso   1.000  Ar
