data_image0
_cell_length_a       28.108
_cell_length_b       28.108
_cell_length_c       21.896
_cell_angle_alpha    90
_cell_angle_beta     90
_cell_angle_gamma    90

_symmetry_space_group_name_H-M    "P 1"
_symmetry_int_tables_number       1

loop_
  _symmetry_equiv_pos_as_xyz
  'x, y, z'

loop_
  _atom_site_label
  _atom_site_occupancy
  _atom_site_fract_x
  _atom_site_fract_y
  _atom_site_fract_z
  _atom_site_thermal_displace_type
  _atom_site_B_iso_or_equiv
  _atom_site_type_symbol
  C1       1.0000 0.36844  0.33361  0.62911  Biso   1.000  C
  C2       1.0000 0.33510  0.33852  0.57344  Biso   1.000  C
  N1       1.0000 0.41444  0.32293  0.60198  Biso   1.000  N
  N2       1.0000 0.36545  0.37943  0.65857  Biso   1.000  N
  H1       1.0000 0.35780  0.30749  0.65688  Biso   1.000  H
  N3       1.0000 0.36584  0.32756  0.52238  Biso   1.000  N
  N4       1.0000 0.31920  0.38722  0.57741  Biso   1.000  N
  H2       1.0000 0.30781  0.31582  0.57600  Biso   1.000  H
  C3       1.0000 0.41020  0.31596  0.54037  Biso   1.000  C
  C4       1.0000 0.45183  0.30059  0.63651  Biso   1.000  C
  C5       1.0000 0.33435  0.40939  0.62879  Biso   1.000  C
  C6       1.0000 0.38320  0.38879  0.71894  Biso   1.000  C
  C7       1.0000 0.34734  0.31624  0.46150  Biso   1.000  C
  C8       1.0000 0.28127  0.40604  0.53992  Biso   1.000  C
  O1       1.0000 0.44269  0.30176  0.50735  Biso   1.000  O
  N5       1.0000 0.48111  0.33400  0.67003  Biso   1.000  N
  H3       1.0000 0.43749  0.27779  0.66560  Biso   1.000  H
  H4       1.0000 0.47232  0.28230  0.60819  Biso   1.000  H
  O2       1.0000 0.32165  0.44824  0.64779  Biso   1.000  O
  N6       1.0000 0.43425  0.39416  0.72246  Biso   1.000  N
  H5       1.0000 0.36812  0.41821  0.73447  Biso   1.000  H
  H6       1.0000 0.37349  0.36232  0.74607  Biso   1.000  H
  N7       1.0000 0.33983  0.35837  0.42442  Biso   1.000  N
  H7       1.0000 0.31681  0.29899  0.46579  Biso   1.000  H
  H8       1.0000 0.37000  0.29490  0.44040  Biso   1.000  H
  N8       1.0000 0.29636  0.41952  0.47849  Biso   1.000  N
  H9       1.0000 0.25580  0.38181  0.53667  Biso   1.000  H
  H10      1.0000 0.26761  0.43429  0.56038  Biso   1.000  H
  C9       1.0000 0.46620  0.35463  0.72739  Biso   1.000  C
  C10      1.0000 0.52857  0.33795  0.66026  Biso   1.000  C
  C11      1.0000 0.45507  0.43653  0.73977  Biso   1.000  C
  C12      1.0000 0.36737  0.36915  0.37527  Biso   1.000  C
  C13      1.0000 0.29718  0.38676  0.42725  Biso   1.000  C
  C14      1.0000 0.29885  0.46553  0.46091  Biso   1.000  C
  H11      1.0000 0.45371  0.32991  0.75598  Biso   1.000  H
  C15      1.0000 0.51299  0.37708  0.75155  Biso   1.000  C
  O3       1.0000 0.55056  0.32012  0.61810  Biso   1.000  O
  N9       1.0000 0.54767  0.36477  0.70652  Biso   1.000  N
  N10      1.0000 0.50181  0.42749  0.75402  Biso   1.000  N
  O4       1.0000 0.43539  0.47460  0.74351  Biso   1.000  O
  O5       1.0000 0.40423  0.34883  0.36048  Biso   1.000  O
  N11      1.0000 0.34645  0.40565  0.34404  Biso   1.000  N
  C16      1.0000 0.30226  0.42049  0.37212  Biso   1.000  C
  H12      1.0000 0.26772  0.36701  0.42492  Biso   1.000  H
  N12      1.0000 0.30429  0.46759  0.39902  Biso   1.000  N
  O6       1.0000 0.29529  0.50064  0.49507  Biso   1.000  O
  H13      1.0000 0.52170  0.36442  0.79270  Biso   1.000  H
  C17      1.0000 0.59844  0.36893  0.71648  Biso   1.000  C
  C18      1.0000 0.52932  0.46140  0.78813  Biso   1.000  C
  C19      1.0000 0.35929  0.41807  0.28243  Biso   1.000  C
  H14      1.0000 0.27480  0.41732  0.34330  Biso   1.000  H
  C20      1.0000 0.29540  0.51071  0.36468  Biso   1.000  C
  N13      1.0000 0.61630  0.41664  0.70698  Biso   1.000  N
  H15      1.0000 0.60581  0.35890  0.75881  Biso   1.000  H
  H16      1.0000 0.61509  0.34702  0.68839  Biso   1.000  H
  N14      1.0000 0.56991  0.47919  0.75585  Biso   1.000  N
  H17      1.0000 0.50861  0.48851  0.79928  Biso   1.000  H
  H18      1.0000 0.54020  0.44621  0.82650  Biso   1.000  H
  N15      1.0000 0.37932  0.46574  0.27635  Biso   1.000  N
  H19      1.0000 0.38281  0.39469  0.26722  Biso   1.000  H
  H20      1.0000 0.33062  0.41572  0.25630  Biso   1.000  H
  N16      1.0000 0.33610  0.52768  0.33184  Biso   1.000  N
  H21      1.0000 0.28462  0.53579  0.39318  Biso   1.000  H
  H22      1.0000 0.26932  0.50470  0.33531  Biso   1.000  H
  C21      1.0000 0.61491  0.45382  0.75215  Biso   1.000  C
  C22      1.0000 0.64498  0.42810  0.65834  Biso   1.000  C
  C23      1.0000 0.57510  0.52686  0.74128  Biso   1.000  C
  C24      1.0000 0.42490  0.47314  0.25872  Biso   1.000  C
  C25      1.0000 0.34994  0.50857  0.27265  Biso   1.000  C
  C26      1.0000 0.35502  0.57190  0.34166  Biso   1.000  C
  H23      1.0000 0.62509  0.44180  0.79311  Biso   1.000  H
  C27      1.0000 0.65006  0.49143  0.72735  Biso   1.000  C
  O7       1.0000 0.65302  0.40252  0.61472  Biso   1.000  O
  N17      1.0000 0.66390  0.47232  0.66811  Biso   1.000  N
  O8       1.0000 0.54376  0.55643  0.74484  Biso   1.000  O
  N18      1.0000 0.62068  0.53426  0.72360  Biso   1.000  N
  O9       1.0000 0.45624  0.44357  0.25516  Biso   1.000  O
  N19      1.0000 0.43009  0.52081  0.24415  Biso   1.000  N
  C28      1.0000 0.38509  0.54621  0.24785  Biso   1.000  C
  H24      1.0000 0.32201  0.50409  0.24498  Biso   1.000  H
  N20      1.0000 0.38370  0.58336  0.29302  Biso   1.000  N
  O10      1.0000 0.34698  0.59752  0.38523  Biso   1.000  O
  H25      1.0000 0.67799  0.49591  0.75498  Biso   1.000  H
  C29      1.0000 0.70460  0.48933  0.63532  Biso   1.000  C
  C30      1.0000 0.64071  0.58193  0.71753  Biso   1.000  C
  C31      1.0000 0.47068  0.53860  0.21187  Biso   1.000  C
  H26      1.0000 0.37491  0.55820  0.20689  Biso   1.000  H
  C32      1.0000 0.40156  0.63110  0.28348  Biso   1.000  C
  N21      1.0000 0.69571  0.53241  0.60098  Biso   1.000  N
  H27      1.0000 0.71542  0.46421  0.60678  Biso   1.000  H
  H28      1.0000 0.73072  0.49530  0.66469  Biso   1.000  H
  N22      1.0000 0.65359  0.59439  0.65596  Biso   1.000  N
  H29      1.0000 0.61719  0.60531  0.73278  Biso   1.000  H
  H30      1.0000 0.66942  0.58432  0.74370  Biso   1.000  H
  N23      1.0000 0.49822  0.57251  0.24598  Biso   1.000  N
  H31      1.0000 0.49139  0.51149  0.20068  Biso   1.000  H
  H32      1.0000 0.45980  0.55379  0.17350  Biso   1.000  H
  N24      1.0000 0.45233  0.63523  0.29343  Biso   1.000  N
  H33      1.0000 0.39419  0.64110  0.24119  Biso   1.000  H
  H34      1.0000 0.38491  0.65302  0.31161  Biso   1.000  H
  C33      1.0000 0.70119  0.53447  0.53909  Biso   1.000  C
  C34      1.0000 0.69774  0.57955  0.62788  Biso   1.000  C
  C35      1.0000 0.63263  0.63085  0.62468  Biso   1.000  C
  C36      1.0000 0.54497  0.56347  0.26023  Biso   1.000  C
  C37      1.0000 0.48701  0.62292  0.24845  Biso   1.000  C
  C38      1.0000 0.47147  0.66205  0.33970  Biso   1.000  C
  N25      1.0000 0.70368  0.58051  0.52147  Biso   1.000  N
  O11      1.0000 0.70471  0.49936  0.50493  Biso   1.000  O
  C39      1.0000 0.70286  0.61324  0.57275  Biso   1.000  C
  H35      1.0000 0.72520  0.58272  0.65670  Biso   1.000  H
  N26      1.0000 0.66017  0.64163  0.57558  Biso   1.000  N
  O12      1.0000 0.59577  0.65117  0.63952  Biso   1.000  O
  O13      1.0000 0.56461  0.52540  0.25644  Biso   1.000  O
  N27      1.0000 0.56575  0.60584  0.27754  Biso   1.000  N
  C40      1.0000 0.53380  0.64537  0.27256  Biso   1.000  C
  H36      1.0000 0.47830  0.63562  0.20730  Biso   1.000  H
  N28      1.0000 0.51889  0.66604  0.32997  Biso   1.000  N
  O14      1.0000 0.44948  0.67988  0.38190  Biso   1.000  O
  C41      1.0000 0.71873  0.59396  0.46008  Biso   1.000  C
  H37      1.0000 0.73232  0.63299  0.57508  Biso   1.000  H
  C42      1.0000 0.65266  0.68376  0.53850  Biso   1.000  C
  C43      1.0000 0.61680  0.61125  0.28101  Biso   1.000  C
  H38      1.0000 0.54632  0.67009  0.24402  Biso   1.000  H
  C44      1.0000 0.54817  0.69941  0.36349  Biso   1.000  C
  N29      1.0000 0.68080  0.61278  0.42259  Biso   1.000  N
  H39      1.0000 0.74420  0.61819  0.46328  Biso   1.000  H
  H40      1.0000 0.73239  0.56571  0.43958  Biso   1.000  H
  N30      1.0000 0.63416  0.67244  0.47762  Biso   1.000  N
  H41      1.0000 0.68322  0.70101  0.53421  Biso   1.000  H
  H42      1.0000 0.63000  0.70510  0.55960  Biso   1.000  H
  N31      1.0000 0.63455  0.62061  0.34139  Biso   1.000  N
  H43      1.0000 0.63192  0.58179  0.26548  Biso   1.000  H
  H44      1.0000 0.62651  0.63772  0.25388  Biso   1.000  H
  N32      1.0000 0.58560  0.67710  0.39802  Biso   1.000  N
  H45      1.0000 0.56251  0.72221  0.33440  Biso   1.000  H
  H46      1.0000 0.52771  0.71770  0.39181  Biso   1.000  H
  C45      1.0000 0.66565  0.59061  0.37121  Biso   1.000  C
  C46      1.0000 0.66490  0.66148  0.42656  Biso   1.000  C
  C47      1.0000 0.58980  0.68408  0.45958  Biso   1.000  C
  C48      1.0000 0.63156  0.66639  0.37089  Biso   1.000  C
  O15      1.0000 0.67835  0.55180  0.35216  Biso   1.000  O
  H47      1.0000 0.69219  0.68422  0.42400  Biso   1.000  H
  O16      1.0000 0.55731  0.69824  0.49265  Biso   1.000  O
  H48      1.0000 0.64220  0.69251  0.34308  Biso   1.000  H
  O17      1.0000 0.30643  0.20624  0.49484  Biso   1.000  O
  C49      1.0000 0.27686  0.17490  0.49128  Biso   1.000  C
  N33      1.0000 0.28426  0.12932  0.47365  Biso   1.000  N
  N34      1.0000 0.22919  0.18009  0.50585  Biso   1.000  N
  C50      1.0000 0.33193  0.10929  0.46753  Biso   1.000  C
  C51      1.0000 0.24143  0.09994  0.47735  Biso   1.000  C
  C52      1.0000 0.20379  0.13509  0.50215  Biso   1.000  C
  C53      1.0000 0.21140  0.22068  0.53813  Biso   1.000  C
  N35      1.0000 0.34439  0.09641  0.40596  Biso   1.000  N
  H49      1.0000 0.35531  0.13281  0.48278  Biso   1.000  H
  H50      1.0000 0.33432  0.08062  0.49370  Biso   1.000  H
  N36      1.0000 0.22232  0.08610  0.41816  Biso   1.000  N
  H51      1.0000 0.24591  0.07201  0.50498  Biso   1.000  H
  N37      1.0000 0.16664  0.13370  0.45698  Biso   1.000  N
  H52      1.0000 0.19180  0.12491  0.54311  Biso   1.000  H
  N38      1.0000 0.17749  0.24819  0.50402  Biso   1.000  N
  H53      1.0000 0.23851  0.24139  0.54928  Biso   1.000  H
  H54      1.0000 0.19621  0.20980  0.57650  Biso   1.000  H
  C54      1.0000 0.38085  0.11737  0.37468  Biso   1.000  C
  C55      1.0000 0.32951  0.05226  0.37788  Biso   1.000  C
  C56      1.0000 0.23933  0.04540  0.38532  Biso   1.000  C
  C57      1.0000 0.17810  0.10502  0.40834  Biso   1.000  C
  C58      1.0000 0.11893  0.15156  0.46648  Biso   1.000  C
  C59      1.0000 0.18653  0.29497  0.48977  Biso   1.000  C
  C60      1.0000 0.12708  0.23701  0.50155  Biso   1.000  C
  N39      1.0000 0.39163  0.08983  0.32558  Biso   1.000  N
  O18      1.0000 0.40117  0.15423  0.38952  Biso   1.000  O
  C61      1.0000 0.36324  0.04718  0.32275  Biso   1.000  C
  N40      1.0000 0.28241  0.05429  0.35098  Biso   1.000  N
  H55      1.0000 0.33272  0.02480  0.40670  Biso   1.000  H
  H56      1.0000 0.21421  0.03462  0.35678  Biso   1.000  H
  H57      1.0000 0.24530  0.01928  0.41469  Biso   1.000  H
  O19      1.0000 0.15252  0.09698  0.36472  Biso   1.000  O
  N41      1.0000 0.11477  0.20233  0.45657  Biso   1.000  N
  H58      1.0000 0.10890  0.14419  0.50881  Biso   1.000  H
  H59      1.0000 0.09698  0.13491  0.43839  Biso   1.000  H
  O20      1.0000 0.22460  0.31461  0.49351  Biso   1.000  O
  N42      1.0000 0.14416  0.31575  0.47246  Biso   1.000  N
  C62      1.0000 0.10463  0.28380  0.47739  Biso   1.000  C
  H60      1.0000 0.11442  0.22830  0.54270  Biso   1.000  H
  C63      1.0000 0.43376  0.09734  0.28850  Biso   1.000  C
  N43      1.0000 0.33048  0.04636  0.27147  Biso   1.000  N
  H61      1.0000 0.38299  0.01772  0.32508  Biso   1.000  H
  C64      1.0000 0.28447  0.04885  0.28909  Biso   1.000  C
  C65      1.0000 0.08795  0.22147  0.41026  Biso   1.000  C
  C66      1.0000 0.13879  0.36680  0.46894  Biso   1.000  C
  N44      1.0000 0.08400  0.26889  0.42003  Biso   1.000  N
  H62      1.0000 0.07991  0.29629  0.50598  Biso   1.000  H
  N45      1.0000 0.42244  0.11584  0.22762  Biso   1.000  N
  H63      1.0000 0.45101  0.06681  0.28421  Biso   1.000  H
  H64      1.0000 0.45510  0.12000  0.30960  Biso   1.000  H
  C67      1.0000 0.34396  0.03127  0.21008  Biso   1.000  C
  O21      1.0000 0.24936  0.04529  0.25493  Biso   1.000  O
  O22      1.0000 0.07012  0.19944  0.36810  Biso   1.000  O
  H65      1.0000 0.16821  0.38192  0.48452  Biso   1.000  H
  H66      1.0000 0.11232  0.37651  0.49612  Biso   1.000  H
  N46      1.0000 0.12939  0.38455  0.40857  Biso   1.000  N
  C68      1.0000 0.05059  0.29817  0.38651  Biso   1.000  C
  C69      1.0000 0.43408  0.16020  0.20958  Biso   1.000  C
  C70      1.0000 0.41148  0.08510  0.17656  Biso   1.000  C
  N47      1.0000 0.36278  0.06920  0.17259  Biso   1.000  N
  H67      1.0000 0.36819  0.00580  0.21328  Biso   1.000  H
  H68      1.0000 0.31571  0.01761  0.18958  Biso   1.000  H
  C71      1.0000 0.08361  0.38156  0.37911  Biso   1.000  C
  C72      1.0000 0.15939  0.41565  0.37879  Biso   1.000  C
  H69      1.0000 0.02779  0.31251  0.41560  Biso   1.000  H
  H70      1.0000 0.03230  0.27771  0.35819  Biso   1.000  H
  N48      1.0000 0.07293  0.33560  0.35198  Biso   1.000  N
  O23      1.0000 0.44824  0.19269  0.24265  Biso   1.000  O
  N49      1.0000 0.42707  0.16444  0.14802  Biso   1.000  N
  C73      1.0000 0.41639  0.11844  0.12089  Biso   1.000  C
  H71      1.0000 0.43422  0.05781  0.17400  Biso   1.000  H
  C74      1.0000 0.34061  0.08435  0.12121  Biso   1.000  C
  C75      1.0000 0.08852  0.41490  0.32344  Biso   1.000  C
  H72      1.0000 0.05749  0.39220  0.40688  Biso   1.000  H
  N50      1.0000 0.13722  0.43080  0.32741  Biso   1.000  N
  O24      1.0000 0.19824  0.42835  0.39779  Biso   1.000  O
  C76      1.0000 0.06592  0.33980  0.29042  Biso   1.000  C
  C77      1.0000 0.44941  0.20183  0.11349  Biso   1.000  C
  N51      1.0000 0.37061  0.11545  0.09139  Biso   1.000  N
  H73      1.0000 0.44251  0.10780  0.09308  Biso   1.000  H
  O25      1.0000 0.30176  0.07165  0.10221  Biso   1.000  O
  N52      1.0000 0.07756  0.38416  0.27238  Biso   1.000  N
  H74      1.0000 0.06582  0.44219  0.32600  Biso   1.000  H
  C78      1.0000 0.15604  0.46873  0.28992  Biso   1.000  C
  O26      1.0000 0.05176  0.30731  0.25735  Biso   1.000  O
  N53      1.0000 0.41604  0.23111  0.07997  Biso   1.000  N
  H75      1.0000 0.47221  0.18749  0.08440  Biso   1.000  H
  H76      1.0000 0.46770  0.22229  0.14181  Biso   1.000  H
  C79      1.0000 0.36125  0.13320  0.03101  Biso   1.000  C
  C80      1.0000 0.06624  0.40266  0.21150  Biso   1.000  C
  N54      1.0000 0.16952  0.45368  0.22849  Biso   1.000  N
  H77      1.0000 0.13181  0.49420  0.28672  Biso   1.000  H
  H78      1.0000 0.18429  0.48239  0.31038  Biso   1.000  H
  C81      1.0000 0.39537  0.21620  0.02256  Biso   1.000  C
  C82      1.0000 0.41205  0.27857  0.08970  Biso   1.000  C
  N55      1.0000 0.35584  0.18425  0.02754  Biso   1.000  N
  H79      1.0000 0.33179  0.11812  0.01548  Biso   1.000  H
  H80      1.0000 0.38772  0.12349  0.00388  Biso   1.000  H
  N56      1.0000 0.10837  0.41017  0.17442  Biso   1.000  N
  H81      1.0000 0.04899  0.43319  0.21579  Biso   1.000  H
  H82      1.0000 0.04490  0.38000  0.19040  Biso   1.000  H
  C83      1.0000 0.21553  0.45119  0.21091  Biso   1.000  C
  C84      1.0000 0.13676  0.45286  0.17725  Biso   1.000  C
  H83      1.0000 0.42009  0.20371  0.99402  Biso   1.000  H
  C85      1.0000 0.37292  0.26299  0.99845  Biso   1.000  C
  O27      1.0000 0.42988  0.30056  0.13190  Biso   1.000  O
  N57      1.0000 0.38523  0.29767  0.04343  Biso   1.000  N
  C86      1.0000 0.31347  0.20507  0.01023  Biso   1.000  C
  C87      1.0000 0.11915  0.38263  0.12532  Biso   1.000  C
  N58      1.0000 0.21759  0.44571  0.14902  Biso   1.000  N
  O28      1.0000 0.25064  0.45471  0.24507  Biso   1.000  O
  C88      1.0000 0.17049  0.44774  0.12212  Biso   1.000  C
  H84      1.0000 0.11701  0.48232  0.17492  Biso   1.000  H
  N59      1.0000 0.32251  0.25181  0.99598  Biso   1.000  N
  H85      1.0000 0.38562  0.27170  0.95730  Biso   1.000  H
  C89      1.0000 0.38107  0.34844  0.03352  Biso   1.000  C
  O29      1.0000 0.27540  0.18539  0.00644  Biso   1.000  O
  N60      1.0000 0.15561  0.40359  0.09404  Biso   1.000  N
  O30      1.0000 0.09883  0.34577  0.11048  Biso   1.000  O
  C90      1.0000 0.26071  0.45460  0.11468  Biso   1.000  C
  H86      1.0000 0.16732  0.47520  0.09330  Biso   1.000  H
  C91      1.0000 0.28860  0.27932  0.96187  Biso   1.000  C
  N61      1.0000 0.33336  0.36630  0.04302  Biso   1.000  N
  H87      1.0000 0.40302  0.36509  0.06161  Biso   1.000  H
  H88      1.0000 0.39110  0.35581  0.99119  Biso   1.000  H
  C92      1.0000 0.16807  0.39071  0.03247  Biso   1.000  C
  N62      1.0000 0.27768  0.41390  0.08184  Biso   1.000  N
  H89      1.0000 0.28579  0.46542  0.14318  Biso   1.000  H
  H90      1.0000 0.25470  0.48072  0.08531  Biso   1.000  H
  N63      1.0000 0.27081  0.31991  0.99415  Biso   1.000  N
  H91      1.0000 0.26149  0.25861  0.95072  Biso   1.000  H
  H92      1.0000 0.30379  0.29020  0.92350  Biso   1.000  H
  C93      1.0000 0.32190  0.39498  0.09166  Biso   1.000  C
  C94      1.0000 0.29621  0.36491  0.99785  Biso   1.000  C
  N64      1.0000 0.21574  0.37068  0.02635  Biso   1.000  N
  H93      1.0000 0.14469  0.36719  0.01722  Biso   1.000  H
  H94      1.0000 0.16572  0.41942  0.00630  Biso   1.000  H
  C95      1.0000 0.25857  0.40006  0.02265  Biso   1.000  C
  C96      1.0000 0.22314  0.32510  0.00872  Biso   1.000  C
  O31      1.0000 0.34752  0.40302  0.13523  Biso   1.000  O
  H95      1.0000 0.30820  0.37509  0.95689  Biso   1.000  H
  H96      1.0000 0.25409  0.42799  0.99502  Biso   1.000  H
  O32      1.0000 0.19357  0.29376  0.00516  Biso   1.000  O
  C97      1.0000 0.36324  0.54718  0.67720  Biso   1.000  C
  C98      1.0000 0.32951  0.55226  0.62212  Biso   1.000  C
  N65      1.0000 0.39163  0.58983  0.67442  Biso   1.000  N
  N66      1.0000 0.33048  0.54636  0.72849  Biso   1.000  N
  H97      1.0000 0.38299  0.51772  0.67487  Biso   1.000  H
  N67      1.0000 0.34439  0.59645  0.59404  Biso   1.000  N
  N68      1.0000 0.28241  0.55429  0.64902  Biso   1.000  N
  H98      1.0000 0.33272  0.52480  0.59330  Biso   1.000  H
  C99      1.0000 0.38085  0.61737  0.62527  Biso   1.000  C
  C100     1.0000 0.43376  0.59734  0.71150  Biso   1.000  C
  C101     1.0000 0.28447  0.54885  0.71091  Biso   1.000  C
  C102     1.0000 0.34396  0.53127  0.78992  Biso   1.000  C
  C103     1.0000 0.33193  0.60929  0.53243  Biso   1.000  C
  C104     1.0000 0.23933  0.54540  0.61468  Biso   1.000  C
  O33      1.0000 0.40117  0.65423  0.61048  Biso   1.000  O
  N69      1.0000 0.42244  0.61584  0.77238  Biso   1.000  N
  H99      1.0000 0.45101  0.56681  0.71579  Biso   1.000  H
  H100     1.0000 0.45510  0.62000  0.69040  Biso   1.000  H
  O34      1.0000 0.24936  0.54529  0.74507  Biso   1.000  O
  N70      1.0000 0.36278  0.56920  0.82741  Biso   1.000  N
  H101     1.0000 0.36819  0.50580  0.78667  Biso   1.000  H
  H102     1.0000 0.31571  0.51761  0.81038  Biso   1.000  H
  N71      1.0000 0.28426  0.62932  0.52635  Biso   1.000  N
  H103     1.0000 0.35531  0.63281  0.51722  Biso   1.000  H
  H104     1.0000 0.33432  0.58062  0.50630  Biso   1.000  H
  N72      1.0000 0.22232  0.58610  0.58184  Biso   1.000  N
  H105     1.0000 0.21421  0.53462  0.64318  Biso   1.000  H
  H106     1.0000 0.24530  0.51932  0.58531  Biso   1.000  H
  C105     1.0000 0.43408  0.66020  0.79037  Biso   1.000  C
  C106     1.0000 0.41148  0.58510  0.82344  Biso   1.000  C
  C107     1.0000 0.34061  0.58435  0.87879  Biso   1.000  C
  C108     1.0000 0.24143  0.59997  0.52265  Biso   1.000  C
  C109     1.0000 0.27686  0.67490  0.50872  Biso   1.000  C
  C110     1.0000 0.17810  0.60502  0.59166  Biso   1.000  C
  O35      1.0000 0.44824  0.69269  0.75735  Biso   1.000  O
  N73      1.0000 0.42707  0.66444  0.85198  Biso   1.000  N
  H107     1.0000 0.43422  0.55781  0.82600  Biso   1.000  H
  C111     1.0000 0.41639  0.61847  0.87911  Biso   1.000  C
  O36      1.0000 0.30176  0.57165  0.89779  Biso   1.000  O
  N74      1.0000 0.37061  0.61545  0.90857  Biso   1.000  N
  C112     1.0000 0.20379  0.63509  0.49785  Biso   1.000  C
  H108     1.0000 0.24591  0.57201  0.49498  Biso   1.000  H
  N75      1.0000 0.22919  0.68009  0.49415  Biso   1.000  N
  O37      1.0000 0.30643  0.70624  0.50516  Biso   1.000  O
  N76      1.0000 0.16664  0.63370  0.54302  Biso   1.000  N
  O38      1.0000 0.15252  0.59698  0.63523  Biso   1.000  O
  C113     1.0000 0.44941  0.70183  0.88651  Biso   1.000  C
  H109     1.0000 0.44251  0.60780  0.90688  Biso   1.000  H
  C114     1.0000 0.36125  0.63320  0.96894  Biso   1.000  C
  H110     1.0000 0.19180  0.62491  0.45689  Biso   1.000  H
  C115     1.0000 0.21140  0.72068  0.46187  Biso   1.000  C
  C116     1.0000 0.11893  0.65156  0.53348  Biso   1.000  C
  N77      1.0000 0.41604  0.73111  0.92003  Biso   1.000  N
  H111     1.0000 0.47221  0.68749  0.91560  Biso   1.000  H
  H112     1.0000 0.46770  0.72232  0.85819  Biso   1.000  H
  N78      1.0000 0.35584  0.68425  0.97246  Biso   1.000  N
  H113     1.0000 0.33179  0.61812  0.98447  Biso   1.000  H
  H114     1.0000 0.38772  0.62349  0.99607  Biso   1.000  H
  N79      1.0000 0.17749  0.74822  0.49598  Biso   1.000  N
  H115     1.0000 0.23851  0.74139  0.45068  Biso   1.000  H
  H116     1.0000 0.19621  0.70980  0.42350  Biso   1.000  H
  N80      1.0000 0.11477  0.70233  0.54343  Biso   1.000  N
  H117     1.0000 0.10890  0.64419  0.49119  Biso   1.000  H
  H118     1.0000 0.09698  0.63491  0.56161  Biso   1.000  H
  C117     1.0000 0.39537  0.71620  0.97739  Biso   1.000  C
  C118     1.0000 0.41205  0.77857  0.91026  Biso   1.000  C
  C119     1.0000 0.31347  0.70507  0.98977  Biso   1.000  C
  C120     1.0000 0.18653  0.79497  0.51018  Biso   1.000  C
  C121     1.0000 0.12708  0.73701  0.49845  Biso   1.000  C
  C122     1.0000 0.08795  0.72147  0.58970  Biso   1.000  C
  H119     1.0000 0.42009  0.70371  0.00598  Biso   1.000  H
  C123     1.0000 0.37292  0.76299  0.00155  Biso   1.000  C
  O39      1.0000 0.42988  0.80056  0.86810  Biso   1.000  O
  N81      1.0000 0.38523  0.79767  0.95652  Biso   1.000  N
  O40      1.0000 0.27540  0.68539  0.99351  Biso   1.000  O
  N82      1.0000 0.32251  0.75181  0.00402  Biso   1.000  N
  O41      1.0000 0.22460  0.81461  0.50644  Biso   1.000  O
  N83      1.0000 0.14416  0.81575  0.52749  Biso   1.000  N
  C124     1.0000 0.10463  0.78380  0.52256  Biso   1.000  C
  H120     1.0000 0.11442  0.72830  0.45730  Biso   1.000  H
  O42      1.0000 0.07012  0.69948  0.63190  Biso   1.000  O
  N84      1.0000 0.08400  0.76889  0.57992  Biso   1.000  N
  H121     1.0000 0.38562  0.77170  0.04270  Biso   1.000  H
  C125     1.0000 0.38107  0.84844  0.96648  Biso   1.000  C
  C126     1.0000 0.28860  0.77932  0.03813  Biso   1.000  C
  C127     1.0000 0.13879  0.86680  0.53101  Biso   1.000  C
  H122     1.0000 0.07991  0.79632  0.49402  Biso   1.000  H
  C128     1.0000 0.05059  0.79817  0.61349  Biso   1.000  C
  N85      1.0000 0.33336  0.86630  0.95698  Biso   1.000  N
  H123     1.0000 0.40302  0.86509  0.93839  Biso   1.000  H
  H124     1.0000 0.39110  0.85581  0.00877  Biso   1.000  H
  N86      1.0000 0.27081  0.81991  0.00585  Biso   1.000  N
  H125     1.0000 0.26149  0.75861  0.04928  Biso   1.000  H
  H126     1.0000 0.30379  0.79020  0.07650  Biso   1.000  H
  N87      1.0000 0.12939  0.88455  0.59139  Biso   1.000  N
  H127     1.0000 0.16821  0.88192  0.51548  Biso   1.000  H
  H128     1.0000 0.11232  0.87651  0.50388  Biso   1.000  H
  N88      1.0000 0.07293  0.83560  0.64797  Biso   1.000  N
  H129     1.0000 0.02779  0.81251  0.58440  Biso   1.000  H
  H130     1.0000 0.03230  0.77771  0.64181  Biso   1.000  H
  C129     1.0000 0.32190  0.89498  0.90834  Biso   1.000  C
  C130     1.0000 0.29621  0.86491  0.00215  Biso   1.000  C
  C131     1.0000 0.22314  0.82510  0.99128  Biso   1.000  C
  C132     1.0000 0.08361  0.88156  0.62089  Biso   1.000  C
  C133     1.0000 0.15939  0.91565  0.62116  Biso   1.000  C
  C134     1.0000 0.06592  0.83980  0.70958  Biso   1.000  C
  N89      1.0000 0.27768  0.91390  0.91811  Biso   1.000  N
  O43      1.0000 0.34752  0.90305  0.86472  Biso   1.000  O
  C135     1.0000 0.25857  0.90006  0.97735  Biso   1.000  C
  H131     1.0000 0.30820  0.87509  0.04311  Biso   1.000  H
  N90      1.0000 0.21574  0.87068  0.97360  Biso   1.000  N
  O44      1.0000 0.19357  0.79376  0.99484  Biso   1.000  O
  C136     1.0000 0.08852  0.91490  0.67656  Biso   1.000  C
  H132     1.0000 0.05749  0.89220  0.59308  Biso   1.000  H
  O45      1.0000 0.19824  0.92838  0.60216  Biso   1.000  O
  N91      1.0000 0.13722  0.93080  0.67259  Biso   1.000  N
  O46      1.0000 0.05176  0.80731  0.74265  Biso   1.000  O
  N92      1.0000 0.07756  0.88416  0.72762  Biso   1.000  N
  C137     1.0000 0.26071  0.95460  0.88532  Biso   1.000  C
  H133     1.0000 0.25409  0.92799  0.00498  Biso   1.000  H
  C138     1.0000 0.16807  0.89074  0.96753  Biso   1.000  C
  H134     1.0000 0.06582  0.94222  0.67400  Biso   1.000  H
  C139     1.0000 0.15604  0.96873  0.71008  Biso   1.000  C
  C140     1.0000 0.06624  0.90266  0.78850  Biso   1.000  C
  N93      1.0000 0.21759  0.94571  0.85098  Biso   1.000  N
  H135     1.0000 0.28579  0.96542  0.85678  Biso   1.000  H
  H136     1.0000 0.25470  0.98072  0.91469  Biso   1.000  H
  N94      1.0000 0.15561  0.90359  0.90596  Biso   1.000  N
  H137     1.0000 0.14469  0.86719  0.98278  Biso   1.000  H
  H138     1.0000 0.16572  0.91942  0.99370  Biso   1.000  H
  N95      1.0000 0.16952  0.95368  0.77147  Biso   1.000  N
  H139     1.0000 0.13181  0.99420  0.71328  Biso   1.000  H
  H140     1.0000 0.18429  0.98239  0.68958  Biso   1.000  H
  N96      1.0000 0.10837  0.91020  0.82558  Biso   1.000  N
  H141     1.0000 0.04899  0.93322  0.78421  Biso   1.000  H
  H142     1.0000 0.04490  0.88000  0.80960  Biso   1.000  H
  C141     1.0000 0.21553  0.95119  0.78909  Biso   1.000  C
  C142     1.0000 0.17049  0.94774  0.87788  Biso   1.000  C
  C143     1.0000 0.11915  0.88263  0.87468  Biso   1.000  C
  C144     1.0000 0.13676  0.95286  0.82275  Biso   1.000  C
  O47      1.0000 0.25064  0.95471  0.75493  Biso   1.000  O
  H143     1.0000 0.16732  0.97520  0.90670  Biso   1.000  H
  O48      1.0000 0.09883  0.84577  0.88952  Biso   1.000  O
  H144     1.0000 0.11701  0.98232  0.82508  Biso   1.000  H
  O49      1.0000 0.59883  0.34577  0.38952  Biso   1.000  O
  C145     1.0000 0.61915  0.38263  0.37468  Biso   1.000  C
  N97      1.0000 0.60837  0.41017  0.32558  Biso   1.000  N
  N98      1.0000 0.65565  0.40359  0.40596  Biso   1.000  N
  C146     1.0000 0.56628  0.40266  0.28850  Biso   1.000  C
  C147     1.0000 0.63676  0.45286  0.32275  Biso   1.000  C
  C148     1.0000 0.67049  0.44774  0.37788  Biso   1.000  C
  C149     1.0000 0.66807  0.39071  0.46753  Biso   1.000  C
  N99      1.0000 0.57756  0.38416  0.22762  Biso   1.000  N
  H145     1.0000 0.54899  0.43319  0.28421  Biso   1.000  H
  H146     1.0000 0.54490  0.38000  0.30960  Biso   1.000  H
  N100     1.0000 0.66952  0.45368  0.27147  Biso   1.000  N
  H147     1.0000 0.61701  0.48232  0.32508  Biso   1.000  H
  N101     1.0000 0.71759  0.44571  0.35098  Biso   1.000  N
  H148     1.0000 0.66732  0.47520  0.40670  Biso   1.000  H
  N102     1.0000 0.71574  0.37068  0.47365  Biso   1.000  N
  H149     1.0000 0.64469  0.36719  0.48278  Biso   1.000  H
  H150     1.0000 0.66572  0.41942  0.49370  Biso   1.000  H
  C150     1.0000 0.56596  0.33980  0.20958  Biso   1.000  C
  C151     1.0000 0.58852  0.41490  0.17656  Biso   1.000  C
  C152     1.0000 0.65604  0.46873  0.21008  Biso   1.000  C
  C153     1.0000 0.71553  0.45119  0.28909  Biso   1.000  C
  C154     1.0000 0.76071  0.45460  0.38532  Biso   1.000  C
  C155     1.0000 0.72314  0.32510  0.49128  Biso   1.000  C
  C156     1.0000 0.75857  0.40006  0.47735  Biso   1.000  C
  O50      1.0000 0.55176  0.30731  0.24265  Biso   1.000  O
  N103     1.0000 0.57293  0.33560  0.14802  Biso   1.000  N
  C157     1.0000 0.58361  0.38156  0.12089  Biso   1.000  C
  N104     1.0000 0.63722  0.43080  0.17259  Biso   1.000  N
  H151     1.0000 0.56582  0.44219  0.17400  Biso   1.000  H
  H152     1.0000 0.63181  0.49420  0.21328  Biso   1.000  H
  H153     1.0000 0.68429  0.48239  0.18958  Biso   1.000  H
  O51      1.0000 0.75064  0.45471  0.25493  Biso   1.000  O
  N105     1.0000 0.77768  0.41390  0.41816  Biso   1.000  N
  H154     1.0000 0.78579  0.46542  0.35678  Biso   1.000  H
  H155     1.0000 0.75470  0.48072  0.41469  Biso   1.000  H
  O52      1.0000 0.69357  0.29376  0.49484  Biso   1.000  O
  N106     1.0000 0.77081  0.31991  0.50585  Biso   1.000  N
  C158     1.0000 0.79621  0.36491  0.50215  Biso   1.000  C
  H156     1.0000 0.75409  0.42799  0.50498  Biso   1.000  H
  C159     1.0000 0.55059  0.29817  0.11349  Biso   1.000  C
  N107     1.0000 0.62943  0.38455  0.09139  Biso   1.000  N
  H157     1.0000 0.55749  0.39220  0.09308  Biso   1.000  H
  C160     1.0000 0.65939  0.41565  0.12121  Biso   1.000  C
  C161     1.0000 0.82190  0.39498  0.40834  Biso   1.000  C
  C162     1.0000 0.78860  0.27932  0.53813  Biso   1.000  C
  N108     1.0000 0.83336  0.36630  0.45698  Biso   1.000  N
  H158     1.0000 0.80820  0.37509  0.54311  Biso   1.000  H
  N109     1.0000 0.58400  0.26889  0.07997  Biso   1.000  N
  H159     1.0000 0.52782  0.31251  0.08440  Biso   1.000  H
  H160     1.0000 0.53230  0.27771  0.14181  Biso   1.000  H
  C163     1.0000 0.63879  0.36680  0.03101  Biso   1.000  C
  O53      1.0000 0.69824  0.42835  0.10221  Biso   1.000  O
  O54      1.0000 0.84752  0.40302  0.36472  Biso   1.000  O
  N110     1.0000 0.82251  0.25181  0.50402  Biso   1.000  N
  H161     1.0000 0.76149  0.25861  0.54928  Biso   1.000  H
  H162     1.0000 0.80379  0.29020  0.57650  Biso   1.000  H
  C164     1.0000 0.88110  0.34844  0.46648  Biso   1.000  C
  C165     1.0000 0.60463  0.28380  0.02256  Biso   1.000  C
  C166     1.0000 0.58795  0.22147  0.08970  Biso   1.000  C
  N111     1.0000 0.64416  0.31575  0.02754  Biso   1.000  N
  H163     1.0000 0.66821  0.38192  0.01548  Biso   1.000  H
  H164     1.0000 0.61232  0.37651  0.00388  Biso   1.000  H
  C167     1.0000 0.81347  0.20507  0.48977  Biso   1.000  C
  C168     1.0000 0.87292  0.26299  0.50155  Biso   1.000  C
  N112     1.0000 0.88523  0.29767  0.45657  Biso   1.000  N
  H165     1.0000 0.89110  0.35581  0.50881  Biso   1.000  H
  H166     1.0000 0.90302  0.36509  0.43839  Biso   1.000  H
  H167     1.0000 0.57991  0.29629  0.99402  Biso   1.000  H
  C169     1.0000 0.62708  0.23701  0.99845  Biso   1.000  C
  O55      1.0000 0.57012  0.19944  0.13190  Biso   1.000  O
  N113     1.0000 0.61477  0.20233  0.04343  Biso   1.000  N
  C170     1.0000 0.68653  0.29497  0.01023  Biso   1.000  C
  O56      1.0000 0.77540  0.18539  0.49351  Biso   1.000  O
  N114     1.0000 0.85584  0.18425  0.47246  Biso   1.000  N
  C171     1.0000 0.89537  0.21620  0.47739  Biso   1.000  C
  H168     1.0000 0.88562  0.27170  0.54270  Biso   1.000  H
  C172     1.0000 0.91205  0.27857  0.41026  Biso   1.000  C
  N115     1.0000 0.67749  0.24819  0.99598  Biso   1.000  N
  H169     1.0000 0.61442  0.22830  0.95730  Biso   1.000  H
  C173     1.0000 0.61893  0.15156  0.03352  Biso   1.000  C
  O57      1.0000 0.72460  0.31461  0.00644  Biso   1.000  O
  C174     1.0000 0.86125  0.13320  0.46894  Biso   1.000  C
  N116     1.0000 0.91604  0.23111  0.42003  Biso   1.000  N
  H170     1.0000 0.92009  0.20371  0.50598  Biso   1.000  H
  O58      1.0000 0.92988  0.30056  0.36810  Biso   1.000  O
  C175     1.0000 0.71140  0.22068  0.96187  Biso   1.000  C
  N117     1.0000 0.66664  0.13370  0.04302  Biso   1.000  N
  H171     1.0000 0.59702  0.13491  0.06161  Biso   1.000  H
  H172     1.0000 0.60890  0.14419  0.99119  Biso   1.000  H
  H173     1.0000 0.83179  0.11812  0.48452  Biso   1.000  H
  H174     1.0000 0.88772  0.12349  0.49612  Biso   1.000  H
  N118     1.0000 0.87061  0.11545  0.40857  Biso   1.000  N
  C176     1.0000 0.94941  0.20183  0.38651  Biso   1.000  C
  N119     1.0000 0.72919  0.18009  0.99415  Biso   1.000  N
  H175     1.0000 0.73851  0.24139  0.95072  Biso   1.000  H
  H176     1.0000 0.69621  0.20980  0.92350  Biso   1.000  H
  C177     1.0000 0.67810  0.10502  0.09166  Biso   1.000  C
  C178     1.0000 0.70382  0.13509  0.99785  Biso   1.000  C
  C179     1.0000 0.91639  0.11844  0.37911  Biso   1.000  C
  C180     1.0000 0.84061  0.08435  0.37879  Biso   1.000  C
  H177     1.0000 0.97221  0.18749  0.41560  Biso   1.000  H
  H178     1.0000 0.96770  0.22229  0.35819  Biso   1.000  H
  N120     1.0000 0.92710  0.16444  0.35198  Biso   1.000  N
  C181     1.0000 0.77686  0.17490  0.00872  Biso   1.000  C
  O59      1.0000 0.65252  0.09698  0.13523  Biso   1.000  O
  N121     1.0000 0.72232  0.08610  0.08184  Biso   1.000  N
  C182     1.0000 0.74143  0.09994  0.02265  Biso   1.000  C
  H179     1.0000 0.69180  0.12491  0.95689  Biso   1.000  H
  C183     1.0000 0.91148  0.08510  0.32344  Biso   1.000  C
  H180     1.0000 0.94251  0.10780  0.40688  Biso   1.000  H
  N122     1.0000 0.86278  0.06920  0.32741  Biso   1.000  N
  O60      1.0000 0.80180  0.07165  0.39779  Biso   1.000  O
  C184     1.0000 0.93408  0.16020  0.29042  Biso   1.000  C
  O61      1.0000 0.80643  0.20624  0.00516  Biso   1.000  O
  N123     1.0000 0.78426  0.12932  0.02635  Biso   1.000  N
  C185     1.0000 0.73933  0.04540  0.11468  Biso   1.000  C
  H181     1.0000 0.74591  0.07201  0.99502  Biso   1.000  H
  N124     1.0000 0.92244  0.11584  0.27238  Biso   1.000  N
  H182     1.0000 0.93422  0.05781  0.32600  Biso   1.000  H
  C186     1.0000 0.84396  0.03127  0.28992  Biso   1.000  C
  O62      1.0000 0.94824  0.19269  0.25735  Biso   1.000  O
  C187     1.0000 0.83193  0.10929  0.03247  Biso   1.000  C
  N125     1.0000 0.78241  0.05429  0.14902  Biso   1.000  N
  H183     1.0000 0.71421  0.03462  0.14318  Biso   1.000  H
  H184     1.0000 0.74530  0.01928  0.08531  Biso   1.000  H
  C188     1.0000 0.93376  0.09734  0.21150  Biso   1.000  C
  N126     1.0000 0.83051  0.04636  0.22849  Biso   1.000  N
  H185     1.0000 0.86822  0.00580  0.28672  Biso   1.000  H
  H186     1.0000 0.81571  0.01761  0.31038  Biso   1.000  H
  N127     1.0000 0.84439  0.09641  0.09404  Biso   1.000  N
  H187     1.0000 0.85531  0.13281  0.01722  Biso   1.000  H
  H188     1.0000 0.83432  0.08062  0.00630  Biso   1.000  H
  C189     1.0000 0.82955  0.05226  0.12212  Biso   1.000  C
  C190     1.0000 0.78447  0.04885  0.21091  Biso   1.000  C
  N128     1.0000 0.89163  0.08983  0.17442  Biso   1.000  N
  H189     1.0000 0.95101  0.06681  0.21579  Biso   1.000  H
  H190     1.0000 0.95510  0.12000  0.19040  Biso   1.000  H
  C191     1.0000 0.86324  0.04718  0.17725  Biso   1.000  C
  C192     1.0000 0.88085  0.11737  0.12532  Biso   1.000  C
  H191     1.0000 0.83272  0.02480  0.09330  Biso   1.000  H
  O63      1.0000 0.74936  0.04529  0.24507  Biso   1.000  O
  H192     1.0000 0.88302  0.01772  0.17492  Biso   1.000  H
  O64      1.0000 0.90117  0.15423  0.11048  Biso   1.000  O
  C193     1.0000 0.13156  0.16639  0.87089  Biso   1.000  C
  N129     1.0000 0.13455  0.12061  0.84143  Biso   1.000  N
  N130     1.0000 0.13455  0.12061  0.84139  Biso   1.000  N
  N131     1.0000 0.08556  0.17707  0.89802  Biso   1.000  N
  C194     1.0000 0.16490  0.16148  0.92656  Biso   1.000  C
  H193     1.0000 0.14220  0.19251  0.84312  Biso   1.000  H
  N132     1.0000 0.08556  0.17707  0.89797  Biso   1.000  N
  H194     1.0000 0.14220  0.19251  0.84308  Biso   1.000  H
  N133     1.0000 0.08556  0.17710  0.89802  Biso   1.000  N
  N134     1.0000 0.08556  0.17710  0.89797  Biso   1.000  N
  N135     1.0000 0.08560  0.17707  0.89802  Biso   1.000  N
  N136     1.0000 0.08560  0.17707  0.89797  Biso   1.000  N
  N137     1.0000 0.08560  0.17710  0.89802  Biso   1.000  N
  N138     1.0000 0.08560  0.17710  0.89797  Biso   1.000  N
  C195     1.0000 0.11684  0.11125  0.78101  Biso   1.000  C
  C196     1.0000 0.16565  0.09061  0.87121  Biso   1.000  C
  C197     1.0000 0.11680  0.11121  0.78101  Biso   1.000  C
  C198     1.0000 0.16565  0.09061  0.87116  Biso   1.000  C
  C199     1.0000 0.11680  0.11125  0.78101  Biso   1.000  C
  C200     1.0000 0.11684  0.11121  0.78101  Biso   1.000  C
  C201     1.0000 0.08980  0.18408  0.95958  Biso   1.000  C
  C202     1.0000 0.04817  0.19941  0.86349  Biso   1.000  C
  N139     1.0000 0.18080  0.11278  0.92259  Biso   1.000  N
  N140     1.0000 0.13416  0.17244  0.97762  Biso   1.000  N
  H195     1.0000 0.19219  0.18422  0.92400  Biso   1.000  H
  H196     1.0000 0.19222  0.18422  0.92400  Biso   1.000  H
  N141     1.0000 0.06575  0.10584  0.77754  Biso   1.000  N
  H197     1.0000 0.13188  0.08179  0.76548  Biso   1.000  H
  H198     1.0000 0.12651  0.13768  0.75388  Biso   1.000  H
  N142     1.0000 0.06575  0.10584  0.77749  Biso   1.000  N
  H199     1.0000 0.12651  0.13772  0.75388  Biso   1.000  H
  H200     1.0000 0.13192  0.08179  0.76548  Biso   1.000  H
  O65      1.0000 0.17835  0.05176  0.85221  Biso   1.000  O
  O66      1.0000 0.17835  0.05176  0.85216  Biso   1.000  O
  O67      1.0000 0.17835  0.05180  0.85221  Biso   1.000  O
  O68      1.0000 0.17835  0.05180  0.85216  Biso   1.000  O
  O69      1.0000 0.17838  0.05176  0.85221  Biso   1.000  O
  O70      1.0000 0.17838  0.05176  0.85216  Biso   1.000  O
  O71      1.0000 0.17838  0.05180  0.85221  Biso   1.000  O
  O72      1.0000 0.17838  0.05180  0.85216  Biso   1.000  O
  O73      1.0000 0.05731  0.19824  0.99265  Biso   1.000  O
  N143     1.0000 0.01889  0.16604  0.82997  Biso   1.000  N
  N144     1.0000 0.01889  0.16604  0.82992  Biso   1.000  N
  H201     1.0000 0.06251  0.22221  0.83440  Biso   1.000  H
  H202     1.0000 0.02771  0.21770  0.89181  Biso   1.000  H
  C203     1.0000 0.21873  0.09396  0.96008  Biso   1.000  C
  C204     1.0000 0.15266  0.18376  0.03850  Biso   1.000  C
  C205     1.0000 0.04493  0.06347  0.76023  Biso   1.000  C
  C206     1.0000 0.03380  0.14537  0.77256  Biso   1.000  C
  C207     1.0000 0.04493  0.06347  0.76018  Biso   1.000  C
  C208     1.0000 0.04493  0.06351  0.76023  Biso   1.000  C
  C209     1.0000 0.04493  0.06351  0.76018  Biso   1.000  C
  C210     1.0000 0.04497  0.06347  0.76023  Biso   1.000  C
  C211     1.0000 0.03383  0.14537  0.77256  Biso   1.000  C
  C212     1.0000 0.04497  0.06347  0.76018  Biso   1.000  C
  C213     1.0000 0.04497  0.06351  0.76023  Biso   1.000  C
  C214     1.0000 0.04497  0.06351  0.76018  Biso   1.000  C
  C215     1.0000 0.97147  0.16205  0.83974  Biso   1.000  C
  C216     1.0000 0.97147  0.16205  0.83970  Biso   1.000  C
  H203     1.0000 0.24420  0.11819  0.96328  Biso   1.000  H
  H204     1.0000 0.23239  0.06571  0.93958  Biso   1.000  H
  H205     1.0000 0.24420  0.11822  0.96328  Biso   1.000  H
  H206     1.0000 0.23242  0.06571  0.93958  Biso   1.000  H
  N145     1.0000 0.20368  0.08048  0.02151  Biso   1.000  N
  N146     1.0000 0.20368  0.08048  0.02147  Biso   1.000  N
  N147     1.0000 0.20368  0.08051  0.02151  Biso   1.000  N
  N148     1.0000 0.20368  0.08051  0.02147  Biso   1.000  N
  N149     1.0000 0.16017  0.14163  0.07558  Biso   1.000  N
  H207     1.0000 0.18319  0.20101  0.03421  Biso   1.000  H
  H208     1.0000 0.13000  0.20510  0.05960  Biso   1.000  H
  N150     1.0000 0.16020  0.14163  0.07558  Biso   1.000  N
  H209     1.0000 0.18322  0.20101  0.03421  Biso   1.000  H
  O74      1.0000 0.06461  0.02540  0.75644  Biso   1.000  O
  N151     1.0000 0.99819  0.07251  0.74598  Biso   1.000  N
  N152     1.0000 0.99822  0.07251  0.74598  Biso   1.000  N
  H210     1.0000 0.04629  0.17009  0.74402  Biso   1.000  H
  H211     1.0000 0.04629  0.17009  0.74397  Biso   1.000  H
  H212     1.0000 0.04632  0.17009  0.74402  Biso   1.000  H
  H213     1.0000 0.04632  0.17009  0.74397  Biso   1.000  H
  C217     1.0000 0.98701  0.12292  0.74845  Biso   1.000  C
  C218     1.0000 0.98701  0.12292  0.74840  Biso   1.000  C
  N153     1.0000 0.95233  0.13523  0.79343  Biso   1.000  N
  O75      1.0000 0.94944  0.17988  0.88190  Biso   1.000  O
  O76      1.0000 0.94944  0.17988  0.88185  Biso   1.000  O
  O77      1.0000 0.94948  0.17988  0.88190  Biso   1.000  O
  O78      1.0000 0.94948  0.17988  0.88185  Biso   1.000  O
  C219     1.0000 0.20282  0.11324  0.07275  Biso   1.000  C
  C220     1.0000 0.20119  0.03447  0.03909  Biso   1.000  C
  C221     1.0000 0.20286  0.11324  0.07275  Biso   1.000  C
  C222     1.0000 0.13263  0.13085  0.12468  Biso   1.000  C
  C223     1.0000 0.97068  0.03860  0.71187  Biso   1.000  C
  H214     1.0000 0.97830  0.13558  0.70730  Biso   1.000  H
  H215     1.0000 0.97830  0.13562  0.70730  Biso   1.000  H
  C224     1.0000 0.90156  0.13107  0.78352  Biso   1.000  C
  C225     1.0000 0.90156  0.13107  0.78348  Biso   1.000  C
  C226     1.0000 0.90156  0.13110  0.78352  Biso   1.000  C
  C227     1.0000 0.90156  0.13110  0.78348  Biso   1.000  C
  C228     1.0000 0.90159  0.13107  0.78352  Biso   1.000  C
  C229     1.0000 0.90159  0.13107  0.78348  Biso   1.000  C
  C230     1.0000 0.90159  0.13110  0.78352  Biso   1.000  C
  C231     1.0000 0.90159  0.13110  0.78348  Biso   1.000  C
  C232     1.0000 0.19774  0.07951  0.12788  Biso   1.000  C
  H216     1.0000 0.23232  0.13299  0.07508  Biso   1.000  H
  C233     1.0000 0.19774  0.07955  0.12788  Biso   1.000  C
  H217     1.0000 0.23232  0.13302  0.07508  Biso   1.000  H
  O79      1.0000 0.20471  0.99936  0.00493  Biso   1.000  O
  N154     1.0000 0.19571  0.03241  0.10098  Biso   1.000  N
  O80      1.0000 0.09577  0.15117  0.13952  Biso   1.000  O
  N155     1.0000 0.15359  0.09439  0.15596  Biso   1.000  N
  N156     1.0000 0.93009  0.02081  0.74415  Biso   1.000  N
  H218     1.0000 0.99139  0.01149  0.70072  Biso   1.000  H
  H219     1.0000 0.95980  0.05379  0.67350  Biso   1.000  H
  H220     1.0000 0.99139  0.01149  0.70068  Biso   1.000  H
  N157     1.0000 0.88370  0.08336  0.79302  Biso   1.000  N
  H221     1.0000 0.89419  0.14110  0.74119  Biso   1.000  H
  H222     1.0000 0.88491  0.15302  0.81161  Biso   1.000  H
  H223     1.0000 0.22520  0.08272  0.15670  Biso   1.000  H
  C234     1.0000 0.20460  0.98933  0.13532  Biso   1.000  C
  C235     1.0000 0.14071  0.08193  0.21753  Biso   1.000  C
  C236     1.0000 0.14074  0.08193  0.21753  Biso   1.000  C
  C237     1.0000 0.92490  0.97314  0.75872  Biso   1.000  C
  C238     1.0000 0.88509  0.04621  0.74785  Biso   1.000  C
  C239     1.0000 0.85502  0.07190  0.84166  Biso   1.000  C
  N158     1.0000 0.16390  0.97232  0.16816  Biso   1.000  N
  H224     1.0000 0.21542  0.96421  0.10678  Biso   1.000  H
  H225     1.0000 0.23072  0.99530  0.16469  Biso   1.000  H
  N159     1.0000 0.16390  0.97232  0.16811  Biso   1.000  N
  N160     1.0000 0.12068  0.03426  0.22365  Biso   1.000  N
  H226     1.0000 0.11719  0.10531  0.23278  Biso   1.000  H
  H227     1.0000 0.16942  0.08432  0.24370  Biso   1.000  H
  N161     1.0000 0.12068  0.03426  0.22360  Biso   1.000  N
  O81      1.0000 0.95624  0.94357  0.75516  Biso   1.000  O
  N162     1.0000 0.87932  0.96574  0.77635  Biso   1.000  N
  H228     1.0000 0.87491  0.05820  0.70689  Biso   1.000  H
  C240     1.0000 0.84994  0.00857  0.77265  Biso   1.000  C
  C241     1.0000 0.84997  0.00857  0.77265  Biso   1.000  C
  N163     1.0000 0.83610  0.02768  0.83184  Biso   1.000  N
  N164     1.0000 0.83610  0.02771  0.83184  Biso   1.000  N
  O82      1.0000 0.84698  0.09752  0.88523  Biso   1.000  O
  C242     1.0000 0.15006  0.99143  0.22735  Biso   1.000  C
  C243     1.0000 0.14498  0.92810  0.15834  Biso   1.000  C
  C244     1.0000 0.07510  0.02686  0.24128  Biso   1.000  C
  C245     1.0000 0.85929  0.91807  0.78247  Biso   1.000  C
  C246     1.0000 0.85929  0.91807  0.78243  Biso   1.000  C
  H229     1.0000 0.82201  0.00409  0.74502  Biso   1.000  H
  H230     1.0000 0.82201  0.00409  0.74498  Biso   1.000  H
  C247     1.0000 0.79540  0.01067  0.86468  Biso   1.000  C
  C248     1.0000 0.79540  0.01071  0.86468  Biso   1.000  C
  C249     1.0000 0.79543  0.01067  0.86468  Biso   1.000  C
  C250     1.0000 0.79543  0.01071  0.86468  Biso   1.000  C
  C251     1.0000 0.11491  0.95379  0.25215  Biso   1.000  C
  H231     1.0000 0.17799  0.99591  0.25498  Biso   1.000  H
  C252     1.0000 0.11491  0.95382  0.25215  Biso   1.000  C
  O83      1.0000 0.15302  0.90248  0.11477  Biso   1.000  O
  N165     1.0000 0.11630  0.91664  0.20698  Biso   1.000  N
  O84      1.0000 0.15302  0.90248  0.11472  Biso   1.000  O
  O85      1.0000 0.15302  0.90252  0.11477  Biso   1.000  O
  O86      1.0000 0.15302  0.90252  0.11472  Biso   1.000  O
  O87      1.0000 0.15305  0.90248  0.11477  Biso   1.000  O
  O88      1.0000 0.15305  0.90248  0.11472  Biso   1.000  O
  O89      1.0000 0.15305  0.90252  0.11477  Biso   1.000  O
  O90      1.0000 0.15305  0.90252  0.11472  Biso   1.000  O
  N166     1.0000 0.06991  0.97919  0.25585  Biso   1.000  N
  O91      1.0000 0.04376  0.05643  0.24484  Biso   1.000  O
  N167     1.0000 0.84641  0.90561  0.84404  Biso   1.000  N
  H232     1.0000 0.88281  0.89469  0.76722  Biso   1.000  H
  H233     1.0000 0.83058  0.91568  0.75630  Biso   1.000  H
  N168     1.0000 0.84641  0.90561  0.84399  Biso   1.000  N
  H234     1.0000 0.88281  0.89469  0.76717  Biso   1.000  H
  N169     1.0000 0.84641  0.90565  0.84404  Biso   1.000  N
  H235     1.0000 0.83058  0.91572  0.75630  Biso   1.000  H
  N170     1.0000 0.84641  0.90565  0.84399  Biso   1.000  N
  N171     1.0000 0.84645  0.90561  0.84404  Biso   1.000  N
  H236     1.0000 0.83062  0.91568  0.75630  Biso   1.000  H
  N172     1.0000 0.84645  0.90561  0.84399  Biso   1.000  N
  N173     1.0000 0.84645  0.90565  0.84404  Biso   1.000  N
  H237     1.0000 0.83062  0.91572  0.75630  Biso   1.000  H
  N174     1.0000 0.84645  0.90565  0.84399  Biso   1.000  N
  N175     1.0000 0.80429  0.96759  0.89902  Biso   1.000  N
  H238     1.0000 0.78458  0.03579  0.89322  Biso   1.000  H
  H239     1.0000 0.76928  0.00470  0.83531  Biso   1.000  H
  H240     1.0000 0.78458  0.03579  0.89318  Biso   1.000  H
  H241     1.0000 0.78462  0.03579  0.89322  Biso   1.000  H
  H242     1.0000 0.76932  0.00470  0.83531  Biso   1.000  H
  H243     1.0000 0.78462  0.03579  0.89318  Biso   1.000  H
  H244     1.0000 0.12509  0.94180  0.29311  Biso   1.000  H
  H245     1.0000 0.12509  0.94180  0.29307  Biso   1.000  H
  H246     1.0000 0.12512  0.94180  0.29311  Biso   1.000  H
  H247     1.0000 0.12512  0.94180  0.29307  Biso   1.000  H
  C253     1.0000 0.09844  0.86893  0.21648  Biso   1.000  C
  C254     1.0000 0.02932  0.96140  0.28813  Biso   1.000  C
  C255     1.0000 0.86737  0.86915  0.87532  Biso   1.000  C
  C256     1.0000 0.80226  0.92049  0.87212  Biso   1.000  C
  C257     1.0000 0.86737  0.86915  0.87527  Biso   1.000  C
  C258     1.0000 0.79881  0.96553  0.96091  Biso   1.000  C
  C259     1.0000 0.79885  0.96553  0.96091  Biso   1.000  C
  N176     1.0000 0.04767  0.86477  0.20657  Biso   1.000  N
  H248     1.0000 0.10581  0.85890  0.25881  Biso   1.000  H
  H249     1.0000 0.11509  0.84698  0.18839  Biso   1.000  H
  N177     1.0000 0.04767  0.86477  0.20652  Biso   1.000  N
  H250     1.0000 0.10581  0.85890  0.25877  Biso   1.000  H
  H251     1.0000 0.11509  0.84702  0.18839  Biso   1.000  H
  N178     1.0000 0.00181  0.92749  0.25402  Biso   1.000  N
  H252     1.0000 0.00861  0.98851  0.29928  Biso   1.000  H
  H253     1.0000 0.04020  0.94621  0.32650  Biso   1.000  H
  O92      1.0000 0.90423  0.84883  0.86048  Biso   1.000  O
  N179     1.0000 0.83983  0.85837  0.92442  Biso   1.000  N
  H254     1.0000 0.77480  0.91728  0.84330  Biso   1.000  H
  C260     1.0000 0.79718  0.88676  0.92725  Biso   1.000  C
  C261     1.0000 0.79718  0.88676  0.92720  Biso   1.000  C
  H255     1.0000 0.77480  0.91732  0.84330  Biso   1.000  H
  C262     1.0000 0.79718  0.88679  0.92725  Biso   1.000  C
  C263     1.0000 0.79718  0.88679  0.92720  Biso   1.000  C
  N180     1.0000 0.79632  0.91952  0.97849  Biso   1.000  N
  N181     1.0000 0.79636  0.91952  0.97849  Biso   1.000  N
  O93      1.0000 0.79529  0.00064  0.99507  Biso   1.000  O
  C264     1.0000 0.01299  0.87708  0.25155  Biso   1.000  C
  C265     1.0000 0.02853  0.83795  0.16026  Biso   1.000  C
  C266     1.0000 0.02857  0.83795  0.16026  Biso   1.000  C
  C267     1.0000 0.95507  0.93653  0.23977  Biso   1.000  C
  C268     1.0000 0.84734  0.81624  0.96150  Biso   1.000  C
  C269     1.0000 0.84734  0.81628  0.96150  Biso   1.000  C
  H256     1.0000 0.76768  0.86701  0.92492  Biso   1.000  H
  H257     1.0000 0.76768  0.86701  0.92487  Biso   1.000  H
  H258     1.0000 0.76772  0.86701  0.92492  Biso   1.000  H
  H259     1.0000 0.76772  0.86701  0.92487  Biso   1.000  H
  C270     1.0000 0.78127  0.90604  0.03992  Biso   1.000  C
  C271     1.0000 0.96620  0.85463  0.22744  Biso   1.000  C
  C272     1.0000 0.96620  0.85463  0.22739  Biso   1.000  C
  H260     1.0000 0.02170  0.86442  0.29270  Biso   1.000  H
  N182     1.0000 0.98111  0.83396  0.17003  Biso   1.000  N
  N183     1.0000 0.98111  0.83400  0.17003  Biso   1.000  N
  O94      1.0000 0.05056  0.82012  0.11810  Biso   1.000  O
  O95      1.0000 0.93539  0.97460  0.24356  Biso   1.000  O
  N184     1.0000 0.93425  0.89416  0.22246  Biso   1.000  N
  O96      1.0000 0.93539  0.97460  0.24351  Biso   1.000  O
  N185     1.0000 0.93425  0.89419  0.22246  Biso   1.000  N
  H261     1.0000 0.81681  0.79899  0.96579  Biso   1.000  H
  H262     1.0000 0.87000  0.79490  0.94040  Biso   1.000  H
  N186     1.0000 0.86584  0.82756  0.02238  Biso   1.000  N
  N187     1.0000 0.86584  0.82759  0.02238  Biso   1.000  N
  N188     1.0000 0.81920  0.88722  0.07741  Biso   1.000  N
  H263     1.0000 0.75580  0.88181  0.03672  Biso   1.000  H
  H264     1.0000 0.76761  0.93429  0.06042  Biso   1.000  H
  H265     1.0000 0.75580  0.88181  0.03667  Biso   1.000  H
  H266     1.0000 0.76761  0.93429  0.06038  Biso   1.000  H
  H267     1.0000 0.95371  0.82991  0.25598  Biso   1.000  H
  C273     1.0000 0.95183  0.80059  0.13651  Biso   1.000  C
  C274     1.0000 0.88320  0.88879  0.21899  Biso   1.000  C
  C275     1.0000 0.88320  0.88879  0.21894  Biso   1.000  C
  C276     1.0000 0.91020  0.81592  0.04042  Biso   1.000  C
  C277     1.0000 0.83510  0.83852  0.07344  Biso   1.000  C
  C278     1.0000 0.91020  0.81592  0.04037  Biso   1.000  C
  C279     1.0000 0.91020  0.81596  0.04042  Biso   1.000  C
  C280     1.0000 0.91020  0.81596  0.04037  Biso   1.000  C
  C281     1.0000 0.83435  0.90939  0.12879  Biso   1.000  C
  N189     1.0000 0.91444  0.82293  0.10198  Biso   1.000  N
  H268     1.0000 0.93749  0.77779  0.16560  Biso   1.000  H
  H269     1.0000 0.97229  0.78230  0.10819  Biso   1.000  H
  H270     1.0000 0.93749  0.77782  0.16560  Biso   1.000  H
  H271     1.0000 0.97232  0.78230  0.10819  Biso   1.000  H
  N190     1.0000 0.86545  0.87939  0.15857  Biso   1.000  N
  N191     1.0000 0.86545  0.87943  0.15857  Biso   1.000  N
  N192     1.0000 0.86548  0.87939  0.15857  Biso   1.000  N
  N193     1.0000 0.86548  0.87943  0.15857  Biso   1.000  N
  H272     1.0000 0.86812  0.91821  0.23452  Biso   1.000  H
  H273     1.0000 0.87349  0.86232  0.24612  Biso   1.000  H
  H274     1.0000 0.86812  0.91821  0.23447  Biso   1.000  H
  H275     1.0000 0.87349  0.86232  0.24607  Biso   1.000  H
  H276     1.0000 0.87352  0.86232  0.24612  Biso   1.000  H
  H277     1.0000 0.87352  0.86232  0.24607  Biso   1.000  H
  O97      1.0000 0.94269  0.80176  0.00735  Biso   1.000  O
  H278     1.0000 0.80781  0.81578  0.07600  Biso   1.000  H
  C282     1.0000 0.86844  0.83361  0.12911  Biso   1.000  C
  H279     1.0000 0.80781  0.81582  0.07600  Biso   1.000  H
  C283     1.0000 0.86847  0.83361  0.12911  Biso   1.000  C
  O98      1.0000 0.82165  0.94824  0.14779  Biso   1.000  O
  H280     1.0000 0.85780  0.80749  0.15688  Biso   1.000  H
  C284     1.0000 0.13156  0.16639  0.87089  Biso   1.000  C
  N194     1.0000 0.13455  0.12061  0.84143  Biso   1.000  N
  N195     1.0000 0.13455  0.12061  0.84139  Biso   1.000  N
  C285     1.0000 0.16490  0.16148  0.92656  Biso   1.000  C
  H281     1.0000 0.14220  0.19251  0.84312  Biso   1.000  H
  H282     1.0000 0.14220  0.19251  0.84308  Biso   1.000  H
  N196     1.0000 0.08556  0.17707  0.89802  Biso   1.000  N
  N197     1.0000 0.08556  0.17707  0.89797  Biso   1.000  N
  N198     1.0000 0.08556  0.17710  0.89802  Biso   1.000  N
  N199     1.0000 0.08556  0.17710  0.89797  Biso   1.000  N
  N200     1.0000 0.08560  0.17707  0.89802  Biso   1.000  N
  N201     1.0000 0.08560  0.17707  0.89797  Biso   1.000  N
  N202     1.0000 0.08560  0.17710  0.89802  Biso   1.000  N
  N203     1.0000 0.08560  0.17710  0.89797  Biso   1.000  N
  C286     1.0000 0.11684  0.11125  0.78101  Biso   1.000  C
  C287     1.0000 0.11680  0.11121  0.78101  Biso   1.000  C
  C288     1.0000 0.16565  0.09061  0.87121  Biso   1.000  C
  C289     1.0000 0.16565  0.09061  0.87116  Biso   1.000  C
  C290     1.0000 0.11680  0.11125  0.78101  Biso   1.000  C
  C291     1.0000 0.11684  0.11121  0.78101  Biso   1.000  C
  N204     1.0000 0.18080  0.11278  0.92259  Biso   1.000  N
  N205     1.0000 0.13416  0.17244  0.97762  Biso   1.000  N
  H283     1.0000 0.19219  0.18422  0.92400  Biso   1.000  H
  H284     1.0000 0.19222  0.18422  0.92400  Biso   1.000  H
  C292     1.0000 0.08980  0.18408  0.95958  Biso   1.000  C
  C293     1.0000 0.04817  0.19941  0.86349  Biso   1.000  C
  H285     1.0000 0.13188  0.08179  0.76548  Biso   1.000  H
  H286     1.0000 0.12651  0.13768  0.75388  Biso   1.000  H
  N206     1.0000 0.06575  0.10584  0.77754  Biso   1.000  N
  N207     1.0000 0.06575  0.10584  0.77749  Biso   1.000  N
  H287     1.0000 0.12651  0.13772  0.75388  Biso   1.000  H
  H288     1.0000 0.13192  0.08179  0.76548  Biso   1.000  H
  O99      1.0000 0.17835  0.05176  0.85221  Biso   1.000  O
  O100     1.0000 0.17835  0.05176  0.85216  Biso   1.000  O
  O101     1.0000 0.17835  0.05180  0.85221  Biso   1.000  O
  O102     1.0000 0.17835  0.05180  0.85216  Biso   1.000  O
  O103     1.0000 0.17838  0.05176  0.85221  Biso   1.000  O
  O104     1.0000 0.17838  0.05176  0.85216  Biso   1.000  O
  O105     1.0000 0.17838  0.05180  0.85221  Biso   1.000  O
  O106     1.0000 0.17838  0.05180  0.85216  Biso   1.000  O
  C294     1.0000 0.21873  0.09396  0.96008  Biso   1.000  C
  C295     1.0000 0.15266  0.18376  0.03850  Biso   1.000  C
  O107     1.0000 0.05731  0.19824  0.99265  Biso   1.000  O
  N208     1.0000 0.01889  0.16604  0.82997  Biso   1.000  N
  N209     1.0000 0.01889  0.16604  0.82992  Biso   1.000  N
  H289     1.0000 0.06251  0.22221  0.83440  Biso   1.000  H
  H290     1.0000 0.02771  0.21770  0.89181  Biso   1.000  H
  C296     1.0000 0.03380  0.14537  0.77256  Biso   1.000  C
  C297     1.0000 0.03383  0.14537  0.77256  Biso   1.000  C
  C298     1.0000 0.04493  0.06347  0.76023  Biso   1.000  C
  C299     1.0000 0.04493  0.06347  0.76018  Biso   1.000  C
  C300     1.0000 0.04493  0.06351  0.76023  Biso   1.000  C
  C301     1.0000 0.04493  0.06351  0.76018  Biso   1.000  C
  C302     1.0000 0.04497  0.06347  0.76023  Biso   1.000  C
  C303     1.0000 0.04497  0.06347  0.76018  Biso   1.000  C
  C304     1.0000 0.04497  0.06351  0.76023  Biso   1.000  C
  C305     1.0000 0.04497  0.06351  0.76018  Biso   1.000  C
  H291     1.0000 0.24420  0.11819  0.96328  Biso   1.000  H
  H292     1.0000 0.23239  0.06571  0.93958  Biso   1.000  H
  H293     1.0000 0.24420  0.11822  0.96328  Biso   1.000  H
  H294     1.0000 0.23242  0.06571  0.93958  Biso   1.000  H
  N210     1.0000 0.20368  0.08048  0.02151  Biso   1.000  N
  N211     1.0000 0.20368  0.08048  0.02147  Biso   1.000  N
  N212     1.0000 0.20368  0.08051  0.02151  Biso   1.000  N
  N213     1.0000 0.20368  0.08051  0.02147  Biso   1.000  N
  N214     1.0000 0.16017  0.14163  0.07558  Biso   1.000  N
  H295     1.0000 0.18319  0.20101  0.03421  Biso   1.000  H
  H296     1.0000 0.13000  0.20510  0.05960  Biso   1.000  H
  N215     1.0000 0.16020  0.14163  0.07558  Biso   1.000  N
  H297     1.0000 0.18322  0.20101  0.03421  Biso   1.000  H
  C306     1.0000 0.97147  0.16205  0.83974  Biso   1.000  C
  C307     1.0000 0.97147  0.16205  0.83970  Biso   1.000  C
  H298     1.0000 0.04629  0.17009  0.74402  Biso   1.000  H
  H299     1.0000 0.04629  0.17009  0.74397  Biso   1.000  H
  H300     1.0000 0.04632  0.17009  0.74402  Biso   1.000  H
  H301     1.0000 0.04632  0.17009  0.74397  Biso   1.000  H
  C308     1.0000 0.98701  0.12292  0.74845  Biso   1.000  C
  C309     1.0000 0.98701  0.12292  0.74840  Biso   1.000  C
  O108     1.0000 0.06461  0.02540  0.75644  Biso   1.000  O
  N216     1.0000 0.99819  0.07251  0.74598  Biso   1.000  N
  N217     1.0000 0.99822  0.07251  0.74598  Biso   1.000  N
  C310     1.0000 0.20282  0.11324  0.07275  Biso   1.000  C
  C311     1.0000 0.20119  0.03447  0.03909  Biso   1.000  C
  C312     1.0000 0.20286  0.11324  0.07275  Biso   1.000  C
  C313     1.0000 0.13263  0.13085  0.12468  Biso   1.000  C
  N218     1.0000 0.95233  0.13523  0.79343  Biso   1.000  N
  O109     1.0000 0.94944  0.17988  0.88190  Biso   1.000  O
  O110     1.0000 0.94944  0.17988  0.88185  Biso   1.000  O
  O111     1.0000 0.94948  0.17988  0.88190  Biso   1.000  O
  O112     1.0000 0.94948  0.17988  0.88185  Biso   1.000  O
  H302     1.0000 0.97830  0.13558  0.70730  Biso   1.000  H
  H303     1.0000 0.97830  0.13562  0.70730  Biso   1.000  H
  C314     1.0000 0.97068  0.03860  0.71187  Biso   1.000  C
  C315     1.0000 0.19774  0.07951  0.12788  Biso   1.000  C
  H304     1.0000 0.23232  0.13299  0.07508  Biso   1.000  H
  C316     1.0000 0.19774  0.07955  0.12788  Biso   1.000  C
  H305     1.0000 0.23232  0.13302  0.07508  Biso   1.000  H
  O113     1.0000 0.20471  0.99936  0.00493  Biso   1.000  O
  N219     1.0000 0.19571  0.03241  0.10098  Biso   1.000  N
  O114     1.0000 0.09577  0.15117  0.13952  Biso   1.000  O
  N220     1.0000 0.15359  0.09439  0.15596  Biso   1.000  N
  C317     1.0000 0.90156  0.13107  0.78352  Biso   1.000  C
  C318     1.0000 0.90156  0.13107  0.78348  Biso   1.000  C
  C319     1.0000 0.90156  0.13110  0.78352  Biso   1.000  C
  C320     1.0000 0.90156  0.13110  0.78348  Biso   1.000  C
  C321     1.0000 0.90159  0.13107  0.78352  Biso   1.000  C
  C322     1.0000 0.90159  0.13107  0.78348  Biso   1.000  C
  C323     1.0000 0.90159  0.13110  0.78352  Biso   1.000  C
  C324     1.0000 0.90159  0.13110  0.78348  Biso   1.000  C
  N221     1.0000 0.93009  0.02081  0.74415  Biso   1.000  N
  H306     1.0000 0.99139  0.01149  0.70072  Biso   1.000  H
  H307     1.0000 0.95980  0.05379  0.67350  Biso   1.000  H
  H308     1.0000 0.99139  0.01149  0.70068  Biso   1.000  H
  H309     1.0000 0.22520  0.08272  0.15670  Biso   1.000  H
  C325     1.0000 0.20460  0.98933  0.13532  Biso   1.000  C
  C326     1.0000 0.14071  0.08193  0.21753  Biso   1.000  C
  C327     1.0000 0.14074  0.08193  0.21753  Biso   1.000  C
  N222     1.0000 0.88370  0.08336  0.79302  Biso   1.000  N
  H310     1.0000 0.89419  0.14110  0.74119  Biso   1.000  H
  H311     1.0000 0.88491  0.15302  0.81161  Biso   1.000  H
  C328     1.0000 0.92490  0.97314  0.75872  Biso   1.000  C
  C329     1.0000 0.88509  0.04621  0.74785  Biso   1.000  C
  N223     1.0000 0.16390  0.97232  0.16816  Biso   1.000  N
  H312     1.0000 0.21542  0.96421  0.10678  Biso   1.000  H
  H313     1.0000 0.23072  0.99530  0.16469  Biso   1.000  H
  N224     1.0000 0.16390  0.97232  0.16811  Biso   1.000  N
  N225     1.0000 0.12068  0.03426  0.22365  Biso   1.000  N
  H314     1.0000 0.11719  0.10531  0.23278  Biso   1.000  H
  H315     1.0000 0.16942  0.08432  0.24370  Biso   1.000  H
  N226     1.0000 0.12068  0.03426  0.22360  Biso   1.000  N
  C330     1.0000 0.85502  0.07190  0.84166  Biso   1.000  C
  O115     1.0000 0.95624  0.94357  0.75516  Biso   1.000  O
  N227     1.0000 0.87932  0.96574  0.77635  Biso   1.000  N
  H316     1.0000 0.87491  0.05820  0.70689  Biso   1.000  H
  C331     1.0000 0.84994  0.00857  0.77265  Biso   1.000  C
  C332     1.0000 0.84997  0.00857  0.77265  Biso   1.000  C
  C333     1.0000 0.15006  0.99143  0.22735  Biso   1.000  C
  C334     1.0000 0.14498  0.92810  0.15834  Biso   1.000  C
  C335     1.0000 0.07510  0.02686  0.24128  Biso   1.000  C
  O116     1.0000 0.84698  0.09752  0.88523  Biso   1.000  O
  N228     1.0000 0.83610  0.02768  0.83184  Biso   1.000  N
  N229     1.0000 0.83610  0.02771  0.83184  Biso   1.000  N
  C336     1.0000 0.85929  0.91807  0.78247  Biso   1.000  C
  C337     1.0000 0.85929  0.91807  0.78243  Biso   1.000  C
  H317     1.0000 0.82201  0.00409  0.74502  Biso   1.000  H
  H318     1.0000 0.82201  0.00409  0.74498  Biso   1.000  H
  C338     1.0000 0.11491  0.95379  0.25215  Biso   1.000  C
  H319     1.0000 0.17799  0.99591  0.25498  Biso   1.000  H
  C339     1.0000 0.11491  0.95382  0.25215  Biso   1.000  C
  O117     1.0000 0.15302  0.90248  0.11477  Biso   1.000  O
  N230     1.0000 0.11630  0.91664  0.20698  Biso   1.000  N
  O118     1.0000 0.15302  0.90248  0.11472  Biso   1.000  O
  O119     1.0000 0.15302  0.90252  0.11477  Biso   1.000  O
  O120     1.0000 0.15302  0.90252  0.11472  Biso   1.000  O
  O121     1.0000 0.15305  0.90248  0.11477  Biso   1.000  O
  O122     1.0000 0.15305  0.90248  0.11472  Biso   1.000  O
  O123     1.0000 0.15305  0.90252  0.11477  Biso   1.000  O
  O124     1.0000 0.15305  0.90252  0.11472  Biso   1.000  O
  N231     1.0000 0.06991  0.97919  0.25585  Biso   1.000  N
  O125     1.0000 0.04376  0.05643  0.24484  Biso   1.000  O
  C340     1.0000 0.79540  0.01067  0.86468  Biso   1.000  C
  C341     1.0000 0.79540  0.01071  0.86468  Biso   1.000  C
  C342     1.0000 0.79543  0.01067  0.86468  Biso   1.000  C
  C343     1.0000 0.79543  0.01071  0.86468  Biso   1.000  C
  N232     1.0000 0.84641  0.90561  0.84404  Biso   1.000  N
  H320     1.0000 0.88281  0.89469  0.76722  Biso   1.000  H
  H321     1.0000 0.83058  0.91568  0.75630  Biso   1.000  H
  N233     1.0000 0.84641  0.90561  0.84399  Biso   1.000  N
  H322     1.0000 0.88281  0.89469  0.76717  Biso   1.000  H
  N234     1.0000 0.84641  0.90565  0.84404  Biso   1.000  N
  H323     1.0000 0.83058  0.91572  0.75630  Biso   1.000  H
  N235     1.0000 0.84641  0.90565  0.84399  Biso   1.000  N
  N236     1.0000 0.84645  0.90561  0.84404  Biso   1.000  N
  H324     1.0000 0.83062  0.91568  0.75630  Biso   1.000  H
  N237     1.0000 0.84645  0.90561  0.84399  Biso   1.000  N
  N238     1.0000 0.84645  0.90565  0.84404  Biso   1.000  N
  H325     1.0000 0.83062  0.91572  0.75630  Biso   1.000  H
  N239     1.0000 0.84645  0.90565  0.84399  Biso   1.000  N
  H326     1.0000 0.12509  0.94180  0.29311  Biso   1.000  H
  H327     1.0000 0.12509  0.94180  0.29307  Biso   1.000  H
  H328     1.0000 0.12512  0.94180  0.29311  Biso   1.000  H
  H329     1.0000 0.12512  0.94180  0.29307  Biso   1.000  H
  C344     1.0000 0.09844  0.86893  0.21648  Biso   1.000  C
  C345     1.0000 0.02932  0.96140  0.28813  Biso   1.000  C
  N240     1.0000 0.80429  0.96759  0.89902  Biso   1.000  N
  H330     1.0000 0.78458  0.03579  0.89322  Biso   1.000  H
  H331     1.0000 0.76928  0.00470  0.83531  Biso   1.000  H
  H332     1.0000 0.78458  0.03579  0.89318  Biso   1.000  H
  H333     1.0000 0.78462  0.03579  0.89322  Biso   1.000  H
  H334     1.0000 0.76932  0.00470  0.83531  Biso   1.000  H
  H335     1.0000 0.78462  0.03579  0.89318  Biso   1.000  H
  C346     1.0000 0.86737  0.86915  0.87532  Biso   1.000  C
  C347     1.0000 0.80226  0.92049  0.87212  Biso   1.000  C
  C348     1.0000 0.86737  0.86915  0.87527  Biso   1.000  C
  N241     1.0000 0.04767  0.86477  0.20657  Biso   1.000  N
  H336     1.0000 0.10581  0.85890  0.25881  Biso   1.000  H
  H337     1.0000 0.11509  0.84698  0.18839  Biso   1.000  H
  N242     1.0000 0.04767  0.86477  0.20652  Biso   1.000  N
  H338     1.0000 0.10581  0.85890  0.25877  Biso   1.000  H
  H339     1.0000 0.11509  0.84702  0.18839  Biso   1.000  H
  N243     1.0000 0.00181  0.92749  0.25402  Biso   1.000  N
  H340     1.0000 0.00861  0.98851  0.29928  Biso   1.000  H
  H341     1.0000 0.04020  0.94621  0.32650  Biso   1.000  H
  C349     1.0000 0.79881  0.96553  0.96091  Biso   1.000  C
  C350     1.0000 0.79885  0.96553  0.96091  Biso   1.000  C
  O126     1.0000 0.90423  0.84883  0.86048  Biso   1.000  O
  N244     1.0000 0.83983  0.85837  0.92442  Biso   1.000  N
  H342     1.0000 0.77480  0.91728  0.84330  Biso   1.000  H
  C351     1.0000 0.79718  0.88676  0.92725  Biso   1.000  C
  C352     1.0000 0.79718  0.88676  0.92720  Biso   1.000  C
  H343     1.0000 0.77480  0.91732  0.84330  Biso   1.000  H
  C353     1.0000 0.79718  0.88679  0.92725  Biso   1.000  C
  C354     1.0000 0.79718  0.88679  0.92720  Biso   1.000  C
  C355     1.0000 0.01299  0.87708  0.25155  Biso   1.000  C
  C356     1.0000 0.02853  0.83795  0.16026  Biso   1.000  C
  C357     1.0000 0.02857  0.83795  0.16026  Biso   1.000  C
  C358     1.0000 0.95507  0.93653  0.23977  Biso   1.000  C
  N245     1.0000 0.79632  0.91952  0.97849  Biso   1.000  N
  N246     1.0000 0.79636  0.91952  0.97849  Biso   1.000  N
  O127     1.0000 0.79529  0.00064  0.99507  Biso   1.000  O
  C359     1.0000 0.84734  0.81624  0.96150  Biso   1.000  C
  C360     1.0000 0.84734  0.81628  0.96150  Biso   1.000  C
  H344     1.0000 0.76768  0.86701  0.92492  Biso   1.000  H
  H345     1.0000 0.76768  0.86701  0.92487  Biso   1.000  H
  H346     1.0000 0.76772  0.86701  0.92492  Biso   1.000  H
  H347     1.0000 0.76772  0.86701  0.92487  Biso   1.000  H
  C361     1.0000 0.96620  0.85463  0.22744  Biso   1.000  C
  C362     1.0000 0.96620  0.85463  0.22739  Biso   1.000  C
  H348     1.0000 0.02170  0.86442  0.29270  Biso   1.000  H
  N247     1.0000 0.98111  0.83396  0.17003  Biso   1.000  N
  N248     1.0000 0.98111  0.83400  0.17003  Biso   1.000  N
  O128     1.0000 0.05056  0.82012  0.11810  Biso   1.000  O
  O129     1.0000 0.93539  0.97460  0.24356  Biso   1.000  O
  N249     1.0000 0.93425  0.89416  0.22246  Biso   1.000  N
  O130     1.0000 0.93539  0.97460  0.24351  Biso   1.000  O
  N250     1.0000 0.93425  0.89419  0.22246  Biso   1.000  N
  C363     1.0000 0.78127  0.90604  0.03992  Biso   1.000  C
  H349     1.0000 0.81681  0.79899  0.96579  Biso   1.000  H
  H350     1.0000 0.87000  0.79490  0.94040  Biso   1.000  H
  N251     1.0000 0.86584  0.82756  0.02238  Biso   1.000  N
  N252     1.0000 0.86584  0.82759  0.02238  Biso   1.000  N
  H351     1.0000 0.95371  0.82991  0.25598  Biso   1.000  H
  C364     1.0000 0.95183  0.80059  0.13651  Biso   1.000  C
  C365     1.0000 0.88320  0.88879  0.21899  Biso   1.000  C
  C366     1.0000 0.88320  0.88879  0.21894  Biso   1.000  C
  N253     1.0000 0.81920  0.88722  0.07741  Biso   1.000  N
  H352     1.0000 0.75580  0.88181  0.03672  Biso   1.000  H
  H353     1.0000 0.76761  0.93429  0.06042  Biso   1.000  H
  H354     1.0000 0.75580  0.88181  0.03667  Biso   1.000  H
  H355     1.0000 0.76761  0.93429  0.06038  Biso   1.000  H
  C367     1.0000 0.91020  0.81592  0.04042  Biso   1.000  C
  C368     1.0000 0.83510  0.83852  0.07344  Biso   1.000  C
  C369     1.0000 0.91020  0.81592  0.04037  Biso   1.000  C
  C370     1.0000 0.91020  0.81596  0.04042  Biso   1.000  C
  C371     1.0000 0.91020  0.81596  0.04037  Biso   1.000  C
  N254     1.0000 0.91444  0.82293  0.10198  Biso   1.000  N
  H356     1.0000 0.93749  0.77779  0.16560  Biso   1.000  H
  H357     1.0000 0.97229  0.78230  0.10819  Biso   1.000  H
  H358     1.0000 0.93749  0.77782  0.16560  Biso   1.000  H
  H359     1.0000 0.97232  0.78230  0.10819  Biso   1.000  H
  N255     1.0000 0.86545  0.87939  0.15857  Biso   1.000  N
  N256     1.0000 0.86545  0.87943  0.15857  Biso   1.000  N
  N257     1.0000 0.86548  0.87939  0.15857  Biso   1.000  N
  N258     1.0000 0.86548  0.87943  0.15857  Biso   1.000  N
  H360     1.0000 0.86812  0.91821  0.23452  Biso   1.000  H
  H361     1.0000 0.87349  0.86232  0.24612  Biso   1.000  H
  H362     1.0000 0.86812  0.91821  0.23447  Biso   1.000  H
  H363     1.0000 0.87349  0.86232  0.24607  Biso   1.000  H
  H364     1.0000 0.87352  0.86232  0.24612  Biso   1.000  H
  H365     1.0000 0.87352  0.86232  0.24607  Biso   1.000  H
  C372     1.0000 0.83435  0.90939  0.12879  Biso   1.000  C
  O131     1.0000 0.94269  0.80176  0.00735  Biso   1.000  O
  H366     1.0000 0.80781  0.81578  0.07600  Biso   1.000  H
  C373     1.0000 0.86844  0.83361  0.12911  Biso   1.000  C
  H367     1.0000 0.80781  0.81582  0.07600  Biso   1.000  H
  C374     1.0000 0.86847  0.83361  0.12911  Biso   1.000  C
  O132     1.0000 0.82165  0.94824  0.14779  Biso   1.000  O
  H368     1.0000 0.85780  0.80749  0.15688  Biso   1.000  H
  C375     1.0000 0.13156  0.16639  0.87089  Biso   1.000  C
  N259     1.0000 0.13455  0.12061  0.84143  Biso   1.000  N
  N260     1.0000 0.13455  0.12061  0.84139  Biso   1.000  N
  N261     1.0000 0.08556  0.17707  0.89802  Biso   1.000  N
  N262     1.0000 0.08556  0.17707  0.89797  Biso   1.000  N
  N263     1.0000 0.08556  0.17710  0.89802  Biso   1.000  N
  N264     1.0000 0.08556  0.17710  0.89797  Biso   1.000  N
  N265     1.0000 0.08560  0.17707  0.89802  Biso   1.000  N
  N266     1.0000 0.08560  0.17707  0.89797  Biso   1.000  N
  N267     1.0000 0.08560  0.17710  0.89802  Biso   1.000  N
  N268     1.0000 0.08560  0.17710  0.89797  Biso   1.000  N
  C376     1.0000 0.16490  0.16148  0.92656  Biso   1.000  C
  H369     1.0000 0.14220  0.19251  0.84312  Biso   1.000  H
  H370     1.0000 0.14220  0.19251  0.84308  Biso   1.000  H
  C377     1.0000 0.11680  0.11121  0.78101  Biso   1.000  C
  C378     1.0000 0.11680  0.11125  0.78101  Biso   1.000  C
  C379     1.0000 0.11684  0.11121  0.78101  Biso   1.000  C
  C380     1.0000 0.11684  0.11125  0.78101  Biso   1.000  C
  C381     1.0000 0.16565  0.09061  0.87121  Biso   1.000  C
  C382     1.0000 0.16565  0.09061  0.87116  Biso   1.000  C
  C383     1.0000 0.04817  0.19941  0.86349  Biso   1.000  C
  C384     1.0000 0.08980  0.18408  0.95958  Biso   1.000  C
  N269     1.0000 0.18080  0.11278  0.92259  Biso   1.000  N
  N270     1.0000 0.13416  0.17244  0.97762  Biso   1.000  N
  H371     1.0000 0.19219  0.18422  0.92400  Biso   1.000  H
  H372     1.0000 0.19222  0.18422  0.92400  Biso   1.000  H
  N271     1.0000 0.06575  0.10584  0.77749  Biso   1.000  N
  N272     1.0000 0.06575  0.10584  0.77754  Biso   1.000  N
  H373     1.0000 0.13188  0.08179  0.76548  Biso   1.000  H
  H374     1.0000 0.12651  0.13768  0.75388  Biso   1.000  H
  H375     1.0000 0.13192  0.08179  0.76548  Biso   1.000  H
  H376     1.0000 0.12651  0.13772  0.75388  Biso   1.000  H
  O133     1.0000 0.17835  0.05176  0.85221  Biso   1.000  O
  O134     1.0000 0.17835  0.05176  0.85216  Biso   1.000  O
  O135     1.0000 0.17835  0.05180  0.85221  Biso   1.000  O
  O136     1.0000 0.17835  0.05180  0.85216  Biso   1.000  O
  O137     1.0000 0.17838  0.05176  0.85221  Biso   1.000  O
  O138     1.0000 0.17838  0.05176  0.85216  Biso   1.000  O
  O139     1.0000 0.17838  0.05180  0.85221  Biso   1.000  O
  O140     1.0000 0.17838  0.05180  0.85216  Biso   1.000  O
  N273     1.0000 0.01889  0.16604  0.82997  Biso   1.000  N
  N274     1.0000 0.01889  0.16604  0.82992  Biso   1.000  N
  H377     1.0000 0.06251  0.22221  0.83440  Biso   1.000  H
  H378     1.0000 0.02771  0.21770  0.89181  Biso   1.000  H
  O141     1.0000 0.05731  0.19824  0.99265  Biso   1.000  O
  C385     1.0000 0.21873  0.09396  0.96008  Biso   1.000  C
  C386     1.0000 0.15266  0.18376  0.03850  Biso   1.000  C
  C387     1.0000 0.03380  0.14537  0.77256  Biso   1.000  C
  C388     1.0000 0.03383  0.14537  0.77256  Biso   1.000  C
  C389     1.0000 0.04493  0.06347  0.76023  Biso   1.000  C
  C390     1.0000 0.04493  0.06347  0.76018  Biso   1.000  C
  C391     1.0000 0.04493  0.06351  0.76023  Biso   1.000  C
  C392     1.0000 0.04493  0.06351  0.76018  Biso   1.000  C
  C393     1.0000 0.04497  0.06347  0.76023  Biso   1.000  C
  C394     1.0000 0.04497  0.06347  0.76018  Biso   1.000  C
  C395     1.0000 0.04497  0.06351  0.76023  Biso   1.000  C
  C396     1.0000 0.04497  0.06351  0.76018  Biso   1.000  C
  C397     1.0000 0.97147  0.16205  0.83974  Biso   1.000  C
  C398     1.0000 0.97147  0.16205  0.83970  Biso   1.000  C
  H379     1.0000 0.23239  0.06571  0.93958  Biso   1.000  H
  H380     1.0000 0.24420  0.11819  0.96328  Biso   1.000  H
  H381     1.0000 0.24420  0.11822  0.96328  Biso   1.000  H
  H382     1.0000 0.23242  0.06571  0.93958  Biso   1.000  H
  N275     1.0000 0.20368  0.08048  0.02151  Biso   1.000  N
  N276     1.0000 0.20368  0.08048  0.02147  Biso   1.000  N
  N277     1.0000 0.20368  0.08051  0.02151  Biso   1.000  N
  N278     1.0000 0.20368  0.08051  0.02147  Biso   1.000  N
  N279     1.0000 0.16017  0.14163  0.07558  Biso   1.000  N
  H383     1.0000 0.18319  0.20101  0.03421  Biso   1.000  H
  H384     1.0000 0.13000  0.20510  0.05960  Biso   1.000  H
  N280     1.0000 0.16020  0.14163  0.07558  Biso   1.000  N
  H385     1.0000 0.18322  0.20101  0.03421  Biso   1.000  H
  C399     1.0000 0.98701  0.12292  0.74845  Biso   1.000  C
  C400     1.0000 0.98701  0.12292  0.74840  Biso   1.000  C
  H386     1.0000 0.04629  0.17009  0.74402  Biso   1.000  H
  H387     1.0000 0.04629  0.17009  0.74397  Biso   1.000  H
  H388     1.0000 0.04632  0.17009  0.74402  Biso   1.000  H
  H389     1.0000 0.04632  0.17009  0.74397  Biso   1.000  H
  O142     1.0000 0.06461  0.02540  0.75644  Biso   1.000  O
  N281     1.0000 0.99819  0.07251  0.74598  Biso   1.000  N
  N282     1.0000 0.99822  0.07251  0.74598  Biso   1.000  N
  N283     1.0000 0.95233  0.13523  0.79343  Biso   1.000  N
  O143     1.0000 0.94944  0.17988  0.88190  Biso   1.000  O
  O144     1.0000 0.94944  0.17988  0.88185  Biso   1.000  O
  O145     1.0000 0.94948  0.17988  0.88190  Biso   1.000  O
  O146     1.0000 0.94948  0.17988  0.88185  Biso   1.000  O
  C401     1.0000 0.20282  0.11324  0.07275  Biso   1.000  C
  C402     1.0000 0.20119  0.03447  0.03909  Biso   1.000  C
  C403     1.0000 0.20286  0.11324  0.07275  Biso   1.000  C
  C404     1.0000 0.13263  0.13085  0.12468  Biso   1.000  C
  H390     1.0000 0.97830  0.13558  0.70730  Biso   1.000  H
  H391     1.0000 0.97830  0.13562  0.70730  Biso   1.000  H
  C405     1.0000 0.97068  0.03860  0.71187  Biso   1.000  C
  C406     1.0000 0.90156  0.13107  0.78352  Biso   1.000  C
  C407     1.0000 0.90156  0.13107  0.78348  Biso   1.000  C
  C408     1.0000 0.90156  0.13110  0.78352  Biso   1.000  C
  C409     1.0000 0.90156  0.13110  0.78348  Biso   1.000  C
  C410     1.0000 0.90159  0.13107  0.78352  Biso   1.000  C
  C411     1.0000 0.90159  0.13107  0.78348  Biso   1.000  C
  C412     1.0000 0.90159  0.13110  0.78352  Biso   1.000  C
  C413     1.0000 0.90159  0.13110  0.78348  Biso   1.000  C
  C414     1.0000 0.19774  0.07951  0.12788  Biso   1.000  C
  H392     1.0000 0.23232  0.13299  0.07508  Biso   1.000  H
  C415     1.0000 0.19774  0.07955  0.12788  Biso   1.000  C
  H393     1.0000 0.23232  0.13302  0.07508  Biso   1.000  H
  O147     1.0000 0.20471  0.99936  0.00493  Biso   1.000  O
  N284     1.0000 0.19571  0.03241  0.10098  Biso   1.000  N
  O148     1.0000 0.09577  0.15117  0.13952  Biso   1.000  O
  N285     1.0000 0.15359  0.09439  0.15596  Biso   1.000  N
  N286     1.0000 0.93009  0.02081  0.74415  Biso   1.000  N
  H394     1.0000 0.99139  0.01149  0.70072  Biso   1.000  H
  H395     1.0000 0.95980  0.05379  0.67350  Biso   1.000  H
  H396     1.0000 0.99139  0.01149  0.70068  Biso   1.000  H
  N287     1.0000 0.88370  0.08336  0.79302  Biso   1.000  N
  H397     1.0000 0.89419  0.14110  0.74119  Biso   1.000  H
  H398     1.0000 0.88491  0.15302  0.81161  Biso   1.000  H
  H399     1.0000 0.22520  0.08272  0.15670  Biso   1.000  H
  C416     1.0000 0.20460  0.98933  0.13532  Biso   1.000  C
  C417     1.0000 0.14071  0.08193  0.21753  Biso   1.000  C
  C418     1.0000 0.14074  0.08193  0.21753  Biso   1.000  C
  C419     1.0000 0.92490  0.97314  0.75872  Biso   1.000  C
  C420     1.0000 0.88509  0.04621  0.74785  Biso   1.000  C
  C421     1.0000 0.85502  0.07190  0.84166  Biso   1.000  C
  N288     1.0000 0.16390  0.97232  0.16816  Biso   1.000  N
  H400     1.0000 0.21542  0.96421  0.10678  Biso   1.000  H
  H401     1.0000 0.23072  0.99530  0.16469  Biso   1.000  H
  N289     1.0000 0.16390  0.97232  0.16811  Biso   1.000  N
  N290     1.0000 0.12068  0.03426  0.22365  Biso   1.000  N
  H402     1.0000 0.11719  0.10531  0.23278  Biso   1.000  H
  H403     1.0000 0.16942  0.08432  0.24370  Biso   1.000  H
  N291     1.0000 0.12068  0.03426  0.22360  Biso   1.000  N
  O149     1.0000 0.95624  0.94357  0.75516  Biso   1.000  O
  N292     1.0000 0.87932  0.96574  0.77635  Biso   1.000  N
  H404     1.0000 0.87491  0.05820  0.70689  Biso   1.000  H
  C422     1.0000 0.84994  0.00857  0.77265  Biso   1.000  C
  C423     1.0000 0.84997  0.00857  0.77265  Biso   1.000  C
  O150     1.0000 0.84698  0.09752  0.88523  Biso   1.000  O
  N293     1.0000 0.83610  0.02768  0.83184  Biso   1.000  N
  N294     1.0000 0.83610  0.02771  0.83184  Biso   1.000  N
  C424     1.0000 0.15006  0.99143  0.22735  Biso   1.000  C
  C425     1.0000 0.14498  0.92810  0.15834  Biso   1.000  C
  C426     1.0000 0.07510  0.02686  0.24128  Biso   1.000  C
  C427     1.0000 0.85929  0.91807  0.78247  Biso   1.000  C
  C428     1.0000 0.85929  0.91807  0.78243  Biso   1.000  C
  H405     1.0000 0.82201  0.00409  0.74502  Biso   1.000  H
  H406     1.0000 0.82201  0.00409  0.74498  Biso   1.000  H
  C429     1.0000 0.79540  0.01067  0.86468  Biso   1.000  C
  C430     1.0000 0.79540  0.01071  0.86468  Biso   1.000  C
  C431     1.0000 0.79543  0.01067  0.86468  Biso   1.000  C
  C432     1.0000 0.79543  0.01071  0.86468  Biso   1.000  C
  C433     1.0000 0.11491  0.95379  0.25215  Biso   1.000  C
  H407     1.0000 0.17799  0.99591  0.25498  Biso   1.000  H
  C434     1.0000 0.11491  0.95382  0.25215  Biso   1.000  C
  O151     1.0000 0.15302  0.90248  0.11477  Biso   1.000  O
  N295     1.0000 0.11630  0.91664  0.20698  Biso   1.000  N
  O152     1.0000 0.15302  0.90248  0.11472  Biso   1.000  O
  O153     1.0000 0.15302  0.90252  0.11477  Biso   1.000  O
  O154     1.0000 0.15302  0.90252  0.11472  Biso   1.000  O
  O155     1.0000 0.15305  0.90248  0.11477  Biso   1.000  O
  O156     1.0000 0.15305  0.90248  0.11472  Biso   1.000  O
  O157     1.0000 0.15305  0.90252  0.11477  Biso   1.000  O
  O158     1.0000 0.15305  0.90252  0.11472  Biso   1.000  O
  N296     1.0000 0.06991  0.97919  0.25585  Biso   1.000  N
  O159     1.0000 0.04376  0.05643  0.24484  Biso   1.000  O
  N297     1.0000 0.84641  0.90561  0.84404  Biso   1.000  N
  H408     1.0000 0.88281  0.89469  0.76722  Biso   1.000  H
  H409     1.0000 0.83058  0.91568  0.75630  Biso   1.000  H
  N298     1.0000 0.84641  0.90561  0.84399  Biso   1.000  N
  H410     1.0000 0.88281  0.89469  0.76717  Biso   1.000  H
  N299     1.0000 0.84641  0.90565  0.84404  Biso   1.000  N
  H411     1.0000 0.83058  0.91572  0.75630  Biso   1.000  H
  N300     1.0000 0.84641  0.90565  0.84399  Biso   1.000  N
  N301     1.0000 0.84645  0.90561  0.84404  Biso   1.000  N
  H412     1.0000 0.83062  0.91568  0.75630  Biso   1.000  H
  N302     1.0000 0.84645  0.90561  0.84399  Biso   1.000  N
  N303     1.0000 0.84645  0.90565  0.84404  Biso   1.000  N
  H413     1.0000 0.83062  0.91572  0.75630  Biso   1.000  H
  N304     1.0000 0.84645  0.90565  0.84399  Biso   1.000  N
  N305     1.0000 0.80429  0.96759  0.89902  Biso   1.000  N
  H414     1.0000 0.78458  0.03579  0.89322  Biso   1.000  H
  H415     1.0000 0.76928  0.00470  0.83531  Biso   1.000  H
  H416     1.0000 0.78458  0.03579  0.89318  Biso   1.000  H
  H417     1.0000 0.78462  0.03579  0.89322  Biso   1.000  H
  H418     1.0000 0.76932  0.00470  0.83531  Biso   1.000  H
  H419     1.0000 0.78462  0.03579  0.89318  Biso   1.000  H
  H420     1.0000 0.12509  0.94180  0.29311  Biso   1.000  H
  H421     1.0000 0.12509  0.94180  0.29307  Biso   1.000  H
  H422     1.0000 0.12512  0.94180  0.29311  Biso   1.000  H
  H423     1.0000 0.12512  0.94180  0.29307  Biso   1.000  H
  C435     1.0000 0.09844  0.86893  0.21648  Biso   1.000  C
  C436     1.0000 0.02932  0.96140  0.28813  Biso   1.000  C
  C437     1.0000 0.86737  0.86915  0.87532  Biso   1.000  C
  C438     1.0000 0.80226  0.92049  0.87212  Biso   1.000  C
  C439     1.0000 0.86737  0.86915  0.87527  Biso   1.000  C
  C440     1.0000 0.79881  0.96553  0.96091  Biso   1.000  C
  C441     1.0000 0.79885  0.96553  0.96091  Biso   1.000  C
  N306     1.0000 0.04767  0.86477  0.20657  Biso   1.000  N
  H424     1.0000 0.10581  0.85890  0.25881  Biso   1.000  H
  H425     1.0000 0.11509  0.84698  0.18839  Biso   1.000  H
  N307     1.0000 0.04767  0.86477  0.20652  Biso   1.000  N
  H426     1.0000 0.10581  0.85890  0.25877  Biso   1.000  H
  H427     1.0000 0.11509  0.84702  0.18839  Biso   1.000  H
  N308     1.0000 0.00181  0.92749  0.25402  Biso   1.000  N
  H428     1.0000 0.00861  0.98851  0.29928  Biso   1.000  H
  H429     1.0000 0.04020  0.94621  0.32650  Biso   1.000  H
  O160     1.0000 0.90423  0.84883  0.86048  Biso   1.000  O
  N309     1.0000 0.83983  0.85837  0.92442  Biso   1.000  N
  H430     1.0000 0.77480  0.91728  0.84330  Biso   1.000  H
  C442     1.0000 0.79718  0.88676  0.92725  Biso   1.000  C
  C443     1.0000 0.79718  0.88676  0.92720  Biso   1.000  C
  H431     1.0000 0.77480  0.91732  0.84330  Biso   1.000  H
  C444     1.0000 0.79718  0.88679  0.92725  Biso   1.000  C
  C445     1.0000 0.79718  0.88679  0.92720  Biso   1.000  C
  N310     1.0000 0.79632  0.91952  0.97849  Biso   1.000  N
  N311     1.0000 0.79636  0.91952  0.97849  Biso   1.000  N
  O161     1.0000 0.79529  0.00064  0.99507  Biso   1.000  O
  C446     1.0000 0.01299  0.87708  0.25155  Biso   1.000  C
  C447     1.0000 0.02853  0.83795  0.16026  Biso   1.000  C
  C448     1.0000 0.02857  0.83795  0.16026  Biso   1.000  C
  C449     1.0000 0.95507  0.93653  0.23977  Biso   1.000  C
  C450     1.0000 0.84734  0.81624  0.96150  Biso   1.000  C
  C451     1.0000 0.84734  0.81628  0.96150  Biso   1.000  C
  H432     1.0000 0.76768  0.86701  0.92492  Biso   1.000  H
  H433     1.0000 0.76768  0.86701  0.92487  Biso   1.000  H
  H434     1.0000 0.76772  0.86701  0.92492  Biso   1.000  H
  H435     1.0000 0.76772  0.86701  0.92487  Biso   1.000  H
  C452     1.0000 0.78127  0.90604  0.03992  Biso   1.000  C
  C453     1.0000 0.96620  0.85463  0.22744  Biso   1.000  C
  C454     1.0000 0.96620  0.85463  0.22739  Biso   1.000  C
  H436     1.0000 0.02170  0.86442  0.29270  Biso   1.000  H
  N312     1.0000 0.98111  0.83396  0.17003  Biso   1.000  N
  N313     1.0000 0.98111  0.83400  0.17003  Biso   1.000  N
  O162     1.0000 0.05056  0.82012  0.11810  Biso   1.000  O
  N314     1.0000 0.93425  0.89416  0.22246  Biso   1.000  N
  N315     1.0000 0.93425  0.89419  0.22246  Biso   1.000  N
  O163     1.0000 0.93539  0.97460  0.24356  Biso   1.000  O
  O164     1.0000 0.93539  0.97460  0.24351  Biso   1.000  O
  H437     1.0000 0.81681  0.79899  0.96579  Biso   1.000  H
  H438     1.0000 0.87000  0.79490  0.94040  Biso   1.000  H
  N316     1.0000 0.86584  0.82756  0.02238  Biso   1.000  N
  N317     1.0000 0.86584  0.82759  0.02238  Biso   1.000  N
  N318     1.0000 0.81920  0.88722  0.07741  Biso   1.000  N
  H439     1.0000 0.75580  0.88181  0.03672  Biso   1.000  H
  H440     1.0000 0.76761  0.93429  0.06042  Biso   1.000  H
  H441     1.0000 0.75580  0.88181  0.03667  Biso   1.000  H
  H442     1.0000 0.76761  0.93429  0.06038  Biso   1.000  H
  H443     1.0000 0.95371  0.82991  0.25598  Biso   1.000  H
  C455     1.0000 0.95183  0.80059  0.13651  Biso   1.000  C
  C456     1.0000 0.88320  0.88879  0.21899  Biso   1.000  C
  C457     1.0000 0.88320  0.88879  0.21894  Biso   1.000  C
  C458     1.0000 0.91020  0.81592  0.04042  Biso   1.000  C
  C459     1.0000 0.83510  0.83852  0.07344  Biso   1.000  C
  C460     1.0000 0.91020  0.81592  0.04037  Biso   1.000  C
  C461     1.0000 0.91020  0.81596  0.04042  Biso   1.000  C
  C462     1.0000 0.91020  0.81596  0.04037  Biso   1.000  C
  C463     1.0000 0.83435  0.90939  0.12879  Biso   1.000  C
  N319     1.0000 0.91444  0.82293  0.10198  Biso   1.000  N
  H444     1.0000 0.93749  0.77779  0.16560  Biso   1.000  H
  H445     1.0000 0.97229  0.78230  0.10819  Biso   1.000  H
  H446     1.0000 0.93749  0.77782  0.16560  Biso   1.000  H
  H447     1.0000 0.97232  0.78230  0.10819  Biso   1.000  H
  N320     1.0000 0.86545  0.87939  0.15857  Biso   1.000  N
  N321     1.0000 0.86545  0.87943  0.15857  Biso   1.000  N
  N322     1.0000 0.86548  0.87939  0.15857  Biso   1.000  N
  N323     1.0000 0.86548  0.87943  0.15857  Biso   1.000  N
  H448     1.0000 0.86812  0.91821  0.23452  Biso   1.000  H
  H449     1.0000 0.87349  0.86232  0.24612  Biso   1.000  H
  H450     1.0000 0.86812  0.91821  0.23447  Biso   1.000  H
  H451     1.0000 0.87349  0.86232  0.24607  Biso   1.000  H
  H452     1.0000 0.87352  0.86232  0.24612  Biso   1.000  H
  H453     1.0000 0.87352  0.86232  0.24607  Biso   1.000  H
  O165     1.0000 0.94269  0.80176  0.00735  Biso   1.000  O
  H454     1.0000 0.80781  0.81578  0.07600  Biso   1.000  H
  C464     1.0000 0.86844  0.83361  0.12911  Biso   1.000  C
  H455     1.0000 0.80781  0.81582  0.07600  Biso   1.000  H
  C465     1.0000 0.86847  0.83361  0.12911  Biso   1.000  C
  O166     1.0000 0.82165  0.94824  0.14779  Biso   1.000  O
  H456     1.0000 0.85780  0.80749  0.15688  Biso   1.000  H
  C466     1.0000 0.13156  0.16639  0.87089  Biso   1.000  C
  N324     1.0000 0.13455  0.12061  0.84143  Biso   1.000  N
  N325     1.0000 0.13455  0.12061  0.84139  Biso   1.000  N
  N326     1.0000 0.08556  0.17707  0.89802  Biso   1.000  N
  N327     1.0000 0.08556  0.17707  0.89797  Biso   1.000  N
  N328     1.0000 0.08556  0.17710  0.89802  Biso   1.000  N
  N329     1.0000 0.08556  0.17710  0.89797  Biso   1.000  N
  N330     1.0000 0.08560  0.17707  0.89802  Biso   1.000  N
  N331     1.0000 0.08560  0.17707  0.89797  Biso   1.000  N
  N332     1.0000 0.08560  0.17710  0.89802  Biso   1.000  N
  N333     1.0000 0.08560  0.17710  0.89797  Biso   1.000  N
  C467     1.0000 0.16490  0.16148  0.92656  Biso   1.000  C
  H457     1.0000 0.14220  0.19251  0.84312  Biso   1.000  H
  H458     1.0000 0.14220  0.19251  0.84308  Biso   1.000  H
  C468     1.0000 0.11680  0.11121  0.78101  Biso   1.000  C
  C469     1.0000 0.11680  0.11125  0.78101  Biso   1.000  C
  C470     1.0000 0.11684  0.11121  0.78101  Biso   1.000  C
  C471     1.0000 0.11684  0.11125  0.78101  Biso   1.000  C
  C472     1.0000 0.16565  0.09061  0.87121  Biso   1.000  C
  C473     1.0000 0.16565  0.09061  0.87116  Biso   1.000  C
  C474     1.0000 0.04817  0.19941  0.86349  Biso   1.000  C
  C475     1.0000 0.08980  0.18408  0.95958  Biso   1.000  C
  N334     1.0000 0.18080  0.11278  0.92259  Biso   1.000  N
  N335     1.0000 0.13416  0.17244  0.97762  Biso   1.000  N
  H459     1.0000 0.19219  0.18422  0.92400  Biso   1.000  H
  H460     1.0000 0.19222  0.18422  0.92400  Biso   1.000  H
  N336     1.0000 0.06575  0.10584  0.77749  Biso   1.000  N
  N337     1.0000 0.06575  0.10584  0.77754  Biso   1.000  N
  H461     1.0000 0.13188  0.08179  0.76548  Biso   1.000  H
  H462     1.0000 0.12651  0.13768  0.75388  Biso   1.000  H
  H463     1.0000 0.13192  0.08179  0.76548  Biso   1.000  H
  H464     1.0000 0.12651  0.13772  0.75388  Biso   1.000  H
  O167     1.0000 0.17835  0.05176  0.85221  Biso   1.000  O
  O168     1.0000 0.17835  0.05176  0.85216  Biso   1.000  O
  O169     1.0000 0.17835  0.05180  0.85221  Biso   1.000  O
  O170     1.0000 0.17835  0.05180  0.85216  Biso   1.000  O
  O171     1.0000 0.17838  0.05176  0.85221  Biso   1.000  O
  O172     1.0000 0.17838  0.05176  0.85216  Biso   1.000  O
  O173     1.0000 0.17838  0.05180  0.85221  Biso   1.000  O
  O174     1.0000 0.17838  0.05180  0.85216  Biso   1.000  O
  N338     1.0000 0.01889  0.16604  0.82997  Biso   1.000  N
  N339     1.0000 0.01889  0.16604  0.82992  Biso   1.000  N
  H465     1.0000 0.06251  0.22221  0.83440  Biso   1.000  H
  H466     1.0000 0.02771  0.21770  0.89181  Biso   1.000  H
  O175     1.0000 0.05731  0.19824  0.99265  Biso   1.000  O
  C476     1.0000 0.21873  0.09396  0.96008  Biso   1.000  C
  C477     1.0000 0.15266  0.18376  0.03850  Biso   1.000  C
  C478     1.0000 0.03380  0.14537  0.77256  Biso   1.000  C
  C479     1.0000 0.03383  0.14537  0.77256  Biso   1.000  C
  C480     1.0000 0.04493  0.06347  0.76023  Biso   1.000  C
  C481     1.0000 0.04493  0.06347  0.76018  Biso   1.000  C
  C482     1.0000 0.04493  0.06351  0.76023  Biso   1.000  C
  C483     1.0000 0.04493  0.06351  0.76018  Biso   1.000  C
  C484     1.0000 0.04497  0.06347  0.76023  Biso   1.000  C
  C485     1.0000 0.04497  0.06347  0.76018  Biso   1.000  C
  C486     1.0000 0.04497  0.06351  0.76023  Biso   1.000  C
  C487     1.0000 0.04497  0.06351  0.76018  Biso   1.000  C
  C488     1.0000 0.97147  0.16205  0.83974  Biso   1.000  C
  C489     1.0000 0.97147  0.16205  0.83970  Biso   1.000  C
  H467     1.0000 0.23239  0.06571  0.93958  Biso   1.000  H
  H468     1.0000 0.24420  0.11819  0.96328  Biso   1.000  H
  H469     1.0000 0.24420  0.11822  0.96328  Biso   1.000  H
  H470     1.0000 0.23242  0.06571  0.93958  Biso   1.000  H
  N340     1.0000 0.20368  0.08048  0.02151  Biso   1.000  N
  N341     1.0000 0.20368  0.08048  0.02147  Biso   1.000  N
  N342     1.0000 0.20368  0.08051  0.02151  Biso   1.000  N
  N343     1.0000 0.20368  0.08051  0.02147  Biso   1.000  N
  N344     1.0000 0.16017  0.14163  0.07558  Biso   1.000  N
  H471     1.0000 0.18319  0.20101  0.03421  Biso   1.000  H
  H472     1.0000 0.13000  0.20510  0.05960  Biso   1.000  H
  N345     1.0000 0.16020  0.14163  0.07558  Biso   1.000  N
  H473     1.0000 0.18322  0.20101  0.03421  Biso   1.000  H
  C490     1.0000 0.98701  0.12292  0.74845  Biso   1.000  C
  C491     1.0000 0.98701  0.12292  0.74840  Biso   1.000  C
  H474     1.0000 0.04629  0.17009  0.74402  Biso   1.000  H
  H475     1.0000 0.04629  0.17009  0.74397  Biso   1.000  H
  H476     1.0000 0.04632  0.17009  0.74402  Biso   1.000  H
  H477     1.0000 0.04632  0.17009  0.74397  Biso   1.000  H
  O176     1.0000 0.06461  0.02540  0.75644  Biso   1.000  O
  N346     1.0000 0.99819  0.07251  0.74598  Biso   1.000  N
  N347     1.0000 0.99822  0.07251  0.74598  Biso   1.000  N
  N348     1.0000 0.95233  0.13523  0.79343  Biso   1.000  N
  O177     1.0000 0.94944  0.17988  0.88190  Biso   1.000  O
  O178     1.0000 0.94944  0.17988  0.88185  Biso   1.000  O
  O179     1.0000 0.94948  0.17988  0.88190  Biso   1.000  O
  O180     1.0000 0.94948  0.17988  0.88185  Biso   1.000  O
  C492     1.0000 0.20282  0.11324  0.07275  Biso   1.000  C
  C493     1.0000 0.20119  0.03447  0.03909  Biso   1.000  C
  C494     1.0000 0.20286  0.11324  0.07275  Biso   1.000  C
  C495     1.0000 0.13263  0.13085  0.12468  Biso   1.000  C
  H478     1.0000 0.97830  0.13558  0.70730  Biso   1.000  H
  H479     1.0000 0.97830  0.13562  0.70730  Biso   1.000  H
  C496     1.0000 0.97068  0.03860  0.71187  Biso   1.000  C
  C497     1.0000 0.90156  0.13107  0.78352  Biso   1.000  C
  C498     1.0000 0.90156  0.13107  0.78348  Biso   1.000  C
  C499     1.0000 0.90156  0.13110  0.78352  Biso   1.000  C
  C500     1.0000 0.90156  0.13110  0.78348  Biso   1.000  C
  C501     1.0000 0.90159  0.13107  0.78352  Biso   1.000  C
  C502     1.0000 0.90159  0.13107  0.78348  Biso   1.000  C
  C503     1.0000 0.90159  0.13110  0.78352  Biso   1.000  C
  C504     1.0000 0.90159  0.13110  0.78348  Biso   1.000  C
  C505     1.0000 0.19774  0.07951  0.12788  Biso   1.000  C
  H480     1.0000 0.23232  0.13299  0.07508  Biso   1.000  H
  C506     1.0000 0.19774  0.07955  0.12788  Biso   1.000  C
  H481     1.0000 0.23232  0.13302  0.07508  Biso   1.000  H
  O181     1.0000 0.20471  0.99936  0.00493  Biso   1.000  O
  N349     1.0000 0.19571  0.03241  0.10098  Biso   1.000  N
  O182     1.0000 0.09577  0.15117  0.13952  Biso   1.000  O
  N350     1.0000 0.15359  0.09439  0.15596  Biso   1.000  N
  N351     1.0000 0.93009  0.02081  0.74415  Biso   1.000  N
  H482     1.0000 0.99139  0.01149  0.70072  Biso   1.000  H
  H483     1.0000 0.95980  0.05379  0.67350  Biso   1.000  H
  H484     1.0000 0.99139  0.01149  0.70068  Biso   1.000  H
  N352     1.0000 0.88370  0.08336  0.79302  Biso   1.000  N
  H485     1.0000 0.89419  0.14110  0.74119  Biso   1.000  H
  H486     1.0000 0.88491  0.15302  0.81161  Biso   1.000  H
  H487     1.0000 0.22520  0.08272  0.15670  Biso   1.000  H
  C507     1.0000 0.20460  0.98933  0.13532  Biso   1.000  C
  C508     1.0000 0.14071  0.08193  0.21753  Biso   1.000  C
  C509     1.0000 0.14074  0.08193  0.21753  Biso   1.000  C
  C510     1.0000 0.92490  0.97314  0.75872  Biso   1.000  C
  C511     1.0000 0.88509  0.04621  0.74785  Biso   1.000  C
  C512     1.0000 0.85502  0.07190  0.84166  Biso   1.000  C
  N353     1.0000 0.16390  0.97232  0.16816  Biso   1.000  N
  H488     1.0000 0.21542  0.96421  0.10678  Biso   1.000  H
  H489     1.0000 0.23072  0.99530  0.16469  Biso   1.000  H
  N354     1.0000 0.16390  0.97232  0.16811  Biso   1.000  N
  N355     1.0000 0.12068  0.03426  0.22365  Biso   1.000  N
  H490     1.0000 0.11719  0.10531  0.23278  Biso   1.000  H
  H491     1.0000 0.16942  0.08432  0.24370  Biso   1.000  H
  N356     1.0000 0.12068  0.03426  0.22360  Biso   1.000  N
  O183     1.0000 0.95624  0.94357  0.75516  Biso   1.000  O
  N357     1.0000 0.87932  0.96574  0.77635  Biso   1.000  N
  H492     1.0000 0.87491  0.05820  0.70689  Biso   1.000  H
  C513     1.0000 0.84994  0.00857  0.77265  Biso   1.000  C
  C514     1.0000 0.84997  0.00857  0.77265  Biso   1.000  C
  O184     1.0000 0.84698  0.09752  0.88523  Biso   1.000  O
  N358     1.0000 0.83610  0.02768  0.83184  Biso   1.000  N
  N359     1.0000 0.83610  0.02771  0.83184  Biso   1.000  N
  C515     1.0000 0.15006  0.99143  0.22735  Biso   1.000  C
  C516     1.0000 0.14498  0.92810  0.15834  Biso   1.000  C
  C517     1.0000 0.07510  0.02686  0.24128  Biso   1.000  C
  C518     1.0000 0.85929  0.91807  0.78247  Biso   1.000  C
  C519     1.0000 0.85929  0.91807  0.78243  Biso   1.000  C
  H493     1.0000 0.82201  0.00409  0.74502  Biso   1.000  H
  H494     1.0000 0.82201  0.00409  0.74498  Biso   1.000  H
  C520     1.0000 0.79540  0.01067  0.86468  Biso   1.000  C
  C521     1.0000 0.79540  0.01071  0.86468  Biso   1.000  C
  C522     1.0000 0.79543  0.01067  0.86468  Biso   1.000  C
  C523     1.0000 0.79543  0.01071  0.86468  Biso   1.000  C
  C524     1.0000 0.11491  0.95379  0.25215  Biso   1.000  C
  H495     1.0000 0.17799  0.99591  0.25498  Biso   1.000  H
  C525     1.0000 0.11491  0.95382  0.25215  Biso   1.000  C
  O185     1.0000 0.15302  0.90248  0.11477  Biso   1.000  O
  N360     1.0000 0.11630  0.91664  0.20698  Biso   1.000  N
  O186     1.0000 0.15302  0.90248  0.11472  Biso   1.000  O
  O187     1.0000 0.15302  0.90252  0.11477  Biso   1.000  O
  O188     1.0000 0.15302  0.90252  0.11472  Biso   1.000  O
  O189     1.0000 0.15305  0.90248  0.11477  Biso   1.000  O
  O190     1.0000 0.15305  0.90248  0.11472  Biso   1.000  O
  O191     1.0000 0.15305  0.90252  0.11477  Biso   1.000  O
  O192     1.0000 0.15305  0.90252  0.11472  Biso   1.000  O
  N361     1.0000 0.06991  0.97919  0.25585  Biso   1.000  N
  O193     1.0000 0.04376  0.05643  0.24484  Biso   1.000  O
  N362     1.0000 0.84641  0.90561  0.84404  Biso   1.000  N
  H496     1.0000 0.88281  0.89469  0.76722  Biso   1.000  H
  H497     1.0000 0.83058  0.91568  0.75630  Biso   1.000  H
  N363     1.0000 0.84641  0.90561  0.84399  Biso   1.000  N
  H498     1.0000 0.88281  0.89469  0.76717  Biso   1.000  H
  N364     1.0000 0.84641  0.90565  0.84404  Biso   1.000  N
  H499     1.0000 0.83058  0.91572  0.75630  Biso   1.000  H
  N365     1.0000 0.84641  0.90565  0.84399  Biso   1.000  N
  N366     1.0000 0.84645  0.90561  0.84404  Biso   1.000  N
  H500     1.0000 0.83062  0.91568  0.75630  Biso   1.000  H
  N367     1.0000 0.84645  0.90561  0.84399  Biso   1.000  N
  N368     1.0000 0.84645  0.90565  0.84404  Biso   1.000  N
  H501     1.0000 0.83062  0.91572  0.75630  Biso   1.000  H
  N369     1.0000 0.84645  0.90565  0.84399  Biso   1.000  N
  N370     1.0000 0.80429  0.96759  0.89902  Biso   1.000  N
  H502     1.0000 0.78458  0.03579  0.89322  Biso   1.000  H
  H503     1.0000 0.76928  0.00470  0.83531  Biso   1.000  H
  H504     1.0000 0.78458  0.03579  0.89318  Biso   1.000  H
  H505     1.0000 0.78462  0.03579  0.89322  Biso   1.000  H
  H506     1.0000 0.76932  0.00470  0.83531  Biso   1.000  H
  H507     1.0000 0.78462  0.03579  0.89318  Biso   1.000  H
  H508     1.0000 0.12509  0.94180  0.29311  Biso   1.000  H
  H509     1.0000 0.12509  0.94180  0.29307  Biso   1.000  H
  H510     1.0000 0.12512  0.94180  0.29311  Biso   1.000  H
  H511     1.0000 0.12512  0.94180  0.29307  Biso   1.000  H
  C526     1.0000 0.09844  0.86893  0.21648  Biso   1.000  C
  C527     1.0000 0.02932  0.96140  0.28813  Biso   1.000  C
  C528     1.0000 0.86737  0.86915  0.87532  Biso   1.000  C
  C529     1.0000 0.80226  0.92049  0.87212  Biso   1.000  C
  C530     1.0000 0.86737  0.86915  0.87527  Biso   1.000  C
  C531     1.0000 0.79881  0.96553  0.96091  Biso   1.000  C
  C532     1.0000 0.79885  0.96553  0.96091  Biso   1.000  C
  N371     1.0000 0.04767  0.86477  0.20657  Biso   1.000  N
  H512     1.0000 0.10581  0.85890  0.25881  Biso   1.000  H
  H513     1.0000 0.11509  0.84698  0.18839  Biso   1.000  H
  N372     1.0000 0.04767  0.86477  0.20652  Biso   1.000  N
  H514     1.0000 0.10581  0.85890  0.25877  Biso   1.000  H
  H515     1.0000 0.11509  0.84702  0.18839  Biso   1.000  H
  N373     1.0000 0.00181  0.92749  0.25402  Biso   1.000  N
  H516     1.0000 0.00861  0.98851  0.29928  Biso   1.000  H
  H517     1.0000 0.04020  0.94621  0.32650  Biso   1.000  H
  O194     1.0000 0.90423  0.84883  0.86048  Biso   1.000  O
  N374     1.0000 0.83983  0.85837  0.92442  Biso   1.000  N
  H518     1.0000 0.77480  0.91728  0.84330  Biso   1.000  H
  C533     1.0000 0.79718  0.88676  0.92725  Biso   1.000  C
  C534     1.0000 0.79718  0.88676  0.92720  Biso   1.000  C
  H519     1.0000 0.77480  0.91732  0.84330  Biso   1.000  H
  C535     1.0000 0.79718  0.88679  0.92725  Biso   1.000  C
  C536     1.0000 0.79718  0.88679  0.92720  Biso   1.000  C
  N375     1.0000 0.79632  0.91952  0.97849  Biso   1.000  N
  N376     1.0000 0.79636  0.91952  0.97849  Biso   1.000  N
  O195     1.0000 0.79529  0.00064  0.99507  Biso   1.000  O
  C537     1.0000 0.01299  0.87708  0.25155  Biso   1.000  C
  C538     1.0000 0.02853  0.83795  0.16026  Biso   1.000  C
  C539     1.0000 0.02857  0.83795  0.16026  Biso   1.000  C
  C540     1.0000 0.95507  0.93653  0.23977  Biso   1.000  C
  C541     1.0000 0.84734  0.81624  0.96150  Biso   1.000  C
  C542     1.0000 0.84734  0.81628  0.96150  Biso   1.000  C
  H520     1.0000 0.76768  0.86701  0.92492  Biso   1.000  H
  H521     1.0000 0.76768  0.86701  0.92487  Biso   1.000  H
  H522     1.0000 0.76772  0.86701  0.92492  Biso   1.000  H
  H523     1.0000 0.76772  0.86701  0.92487  Biso   1.000  H
  C543     1.0000 0.78127  0.90604  0.03992  Biso   1.000  C
  C544     1.0000 0.96620  0.85463  0.22744  Biso   1.000  C
  C545     1.0000 0.96620  0.85463  0.22739  Biso   1.000  C
  H524     1.0000 0.02170  0.86442  0.29270  Biso   1.000  H
  N377     1.0000 0.98111  0.83396  0.17003  Biso   1.000  N
  N378     1.0000 0.98111  0.83400  0.17003  Biso   1.000  N
  O196     1.0000 0.05056  0.82012  0.11810  Biso   1.000  O
  N379     1.0000 0.93425  0.89416  0.22246  Biso   1.000  N
  N380     1.0000 0.93425  0.89419  0.22246  Biso   1.000  N
  O197     1.0000 0.93539  0.97460  0.24356  Biso   1.000  O
  O198     1.0000 0.93539  0.97460  0.24351  Biso   1.000  O
  H525     1.0000 0.81681  0.79899  0.96579  Biso   1.000  H
  H526     1.0000 0.87000  0.79490  0.94040  Biso   1.000  H
  N381     1.0000 0.86584  0.82756  0.02238  Biso   1.000  N
  N382     1.0000 0.86584  0.82759  0.02238  Biso   1.000  N
  N383     1.0000 0.81920  0.88722  0.07741  Biso   1.000  N
  H527     1.0000 0.75580  0.88181  0.03672  Biso   1.000  H
  H528     1.0000 0.76761  0.93429  0.06042  Biso   1.000  H
  H529     1.0000 0.75580  0.88181  0.03667  Biso   1.000  H
  H530     1.0000 0.76761  0.93429  0.06038  Biso   1.000  H
  H531     1.0000 0.95371  0.82991  0.25598  Biso   1.000  H
  C546     1.0000 0.95183  0.80059  0.13651  Biso   1.000  C
  C547     1.0000 0.88320  0.88879  0.21899  Biso   1.000  C
  C548     1.0000 0.88320  0.88879  0.21894  Biso   1.000  C
  C549     1.0000 0.91020  0.81592  0.04042  Biso   1.000  C
  C550     1.0000 0.83510  0.83852  0.07344  Biso   1.000  C
  C551     1.0000 0.91020  0.81592  0.04037  Biso   1.000  C
  C552     1.0000 0.91020  0.81596  0.04042  Biso   1.000  C
  C553     1.0000 0.91020  0.81596  0.04037  Biso   1.000  C
  C554     1.0000 0.83435  0.90939  0.12879  Biso   1.000  C
  N384     1.0000 0.91444  0.82293  0.10198  Biso   1.000  N
  H532     1.0000 0.93749  0.77779  0.16560  Biso   1.000  H
  H533     1.0000 0.97229  0.78230  0.10819  Biso   1.000  H
  H534     1.0000 0.93749  0.77782  0.16560  Biso   1.000  H
  H535     1.0000 0.97232  0.78230  0.10819  Biso   1.000  H
  N385     1.0000 0.86545  0.87939  0.15857  Biso   1.000  N
  N386     1.0000 0.86545  0.87943  0.15857  Biso   1.000  N
  N387     1.0000 0.86548  0.87939  0.15857  Biso   1.000  N
  N388     1.0000 0.86548  0.87943  0.15857  Biso   1.000  N
  H536     1.0000 0.86812  0.91821  0.23452  Biso   1.000  H
  H537     1.0000 0.87349  0.86232  0.24612  Biso   1.000  H
  H538     1.0000 0.86812  0.91821  0.23447  Biso   1.000  H
  H539     1.0000 0.87349  0.86232  0.24607  Biso   1.000  H
  H540     1.0000 0.87352  0.86232  0.24612  Biso   1.000  H
  H541     1.0000 0.87352  0.86232  0.24607  Biso   1.000  H
  O199     1.0000 0.94269  0.80176  0.00735  Biso   1.000  O
  H542     1.0000 0.80781  0.81578  0.07600  Biso   1.000  H
  C555     1.0000 0.86844  0.83361  0.12911  Biso   1.000  C
  H543     1.0000 0.80781  0.81582  0.07600  Biso   1.000  H
  C556     1.0000 0.86847  0.83361  0.12911  Biso   1.000  C
  O200     1.0000 0.82165  0.94824  0.14779  Biso   1.000  O
  H544     1.0000 0.85780  0.80749  0.15688  Biso   1.000  H
  C557     1.0000 0.13156  0.16639  0.87089  Biso   1.000  C
  N389     1.0000 0.13455  0.12061  0.84143  Biso   1.000  N
  N390     1.0000 0.13455  0.12061  0.84139  Biso   1.000  N
  N391     1.0000 0.08556  0.17707  0.89802  Biso   1.000  N
  N392     1.0000 0.08556  0.17707  0.89797  Biso   1.000  N
  N393     1.0000 0.08556  0.17710  0.89802  Biso   1.000  N
  N394     1.0000 0.08556  0.17710  0.89797  Biso   1.000  N
  N395     1.0000 0.08560  0.17707  0.89802  Biso   1.000  N
  N396     1.0000 0.08560  0.17707  0.89797  Biso   1.000  N
  N397     1.0000 0.08560  0.17710  0.89802  Biso   1.000  N
  N398     1.0000 0.08560  0.17710  0.89797  Biso   1.000  N
  C558     1.0000 0.16490  0.16148  0.92656  Biso   1.000  C
  H545     1.0000 0.14220  0.19251  0.84312  Biso   1.000  H
  H546     1.0000 0.14220  0.19251  0.84308  Biso   1.000  H
  C559     1.0000 0.11680  0.11121  0.78101  Biso   1.000  C
  C560     1.0000 0.11680  0.11125  0.78101  Biso   1.000  C
  C561     1.0000 0.11684  0.11121  0.78101  Biso   1.000  C
  C562     1.0000 0.11684  0.11125  0.78101  Biso   1.000  C
  C563     1.0000 0.16565  0.09061  0.87121  Biso   1.000  C
  C564     1.0000 0.16565  0.09061  0.87116  Biso   1.000  C
  C565     1.0000 0.04817  0.19941  0.86349  Biso   1.000  C
  C566     1.0000 0.08980  0.18408  0.95958  Biso   1.000  C
  N399     1.0000 0.18080  0.11278  0.92259  Biso   1.000  N
  N400     1.0000 0.13416  0.17244  0.97762  Biso   1.000  N
  H547     1.0000 0.19219  0.18422  0.92400  Biso   1.000  H
  H548     1.0000 0.19222  0.18422  0.92400  Biso   1.000  H
  N401     1.0000 0.06575  0.10584  0.77754  Biso   1.000  N
  N402     1.0000 0.06575  0.10584  0.77749  Biso   1.000  N
  H549     1.0000 0.13188  0.08179  0.76548  Biso   1.000  H
  H550     1.0000 0.12651  0.13768  0.75388  Biso   1.000  H
  H551     1.0000 0.12651  0.13772  0.75388  Biso   1.000  H
  H552     1.0000 0.13192  0.08179  0.76548  Biso   1.000  H
  O201     1.0000 0.17835  0.05176  0.85221  Biso   1.000  O
  O202     1.0000 0.17835  0.05176  0.85216  Biso   1.000  O
  O203     1.0000 0.17835  0.05180  0.85221  Biso   1.000  O
  O204     1.0000 0.17835  0.05180  0.85216  Biso   1.000  O
  O205     1.0000 0.17838  0.05176  0.85221  Biso   1.000  O
  O206     1.0000 0.17838  0.05176  0.85216  Biso   1.000  O
  O207     1.0000 0.17838  0.05180  0.85221  Biso   1.000  O
  O208     1.0000 0.17838  0.05180  0.85216  Biso   1.000  O
  N403     1.0000 0.01889  0.16604  0.82997  Biso   1.000  N
  N404     1.0000 0.01889  0.16604  0.82992  Biso   1.000  N
  H553     1.0000 0.06251  0.22221  0.83440  Biso   1.000  H
  H554     1.0000 0.02771  0.21770  0.89181  Biso   1.000  H
  O209     1.0000 0.05731  0.19824  0.99265  Biso   1.000  O
  C567     1.0000 0.21873  0.09396  0.96008  Biso   1.000  C
  C568     1.0000 0.15266  0.18376  0.03850  Biso   1.000  C
  C569     1.0000 0.04493  0.06347  0.76023  Biso   1.000  C
  C570     1.0000 0.04493  0.06347  0.76018  Biso   1.000  C
  C571     1.0000 0.04493  0.06351  0.76023  Biso   1.000  C
  C572     1.0000 0.04493  0.06351  0.76018  Biso   1.000  C
  C573     1.0000 0.04497  0.06347  0.76023  Biso   1.000  C
  C574     1.0000 0.04497  0.06347  0.76018  Biso   1.000  C
  C575     1.0000 0.04497  0.06351  0.76023  Biso   1.000  C
  C576     1.0000 0.04497  0.06351  0.76018  Biso   1.000  C
  C577     1.0000 0.03380  0.14537  0.77256  Biso   1.000  C
  C578     1.0000 0.03383  0.14537  0.77256  Biso   1.000  C
  C579     1.0000 0.97147  0.16205  0.83974  Biso   1.000  C
  C580     1.0000 0.97147  0.16205  0.83970  Biso   1.000  C
  H555     1.0000 0.24420  0.11819  0.96328  Biso   1.000  H
  H556     1.0000 0.23239  0.06571  0.93958  Biso   1.000  H
  H557     1.0000 0.24420  0.11822  0.96328  Biso   1.000  H
  H558     1.0000 0.23242  0.06571  0.93958  Biso   1.000  H
  N405     1.0000 0.20368  0.08048  0.02151  Biso   1.000  N
  N406     1.0000 0.20368  0.08048  0.02147  Biso   1.000  N
  N407     1.0000 0.20368  0.08051  0.02151  Biso   1.000  N
  N408     1.0000 0.20368  0.08051  0.02147  Biso   1.000  N
  N409     1.0000 0.16017  0.14163  0.07558  Biso   1.000  N
  H559     1.0000 0.18319  0.20101  0.03421  Biso   1.000  H
  H560     1.0000 0.13000  0.20510  0.05960  Biso   1.000  H
  N410     1.0000 0.16020  0.14163  0.07558  Biso   1.000  N
  H561     1.0000 0.18322  0.20101  0.03421  Biso   1.000  H
  O210     1.0000 0.06461  0.02540  0.75644  Biso   1.000  O
  N411     1.0000 0.99819  0.07251  0.74598  Biso   1.000  N
  N412     1.0000 0.99822  0.07251  0.74598  Biso   1.000  N
  C581     1.0000 0.98701  0.12292  0.74845  Biso   1.000  C
  C582     1.0000 0.98701  0.12292  0.74840  Biso   1.000  C
  H562     1.0000 0.04629  0.17009  0.74402  Biso   1.000  H
  H563     1.0000 0.04629  0.17009  0.74397  Biso   1.000  H
  H564     1.0000 0.04632  0.17009  0.74402  Biso   1.000  H
  H565     1.0000 0.04632  0.17009  0.74397  Biso   1.000  H
  N413     1.0000 0.95233  0.13523  0.79343  Biso   1.000  N
  O211     1.0000 0.94944  0.17988  0.88190  Biso   1.000  O
  O212     1.0000 0.94944  0.17988  0.88185  Biso   1.000  O
  O213     1.0000 0.94948  0.17988  0.88190  Biso   1.000  O
  O214     1.0000 0.94948  0.17988  0.88185  Biso   1.000  O
  C583     1.0000 0.20282  0.11324  0.07275  Biso   1.000  C
  C584     1.0000 0.20119  0.03447  0.03909  Biso   1.000  C
  C585     1.0000 0.20286  0.11324  0.07275  Biso   1.000  C
  C586     1.0000 0.13263  0.13085  0.12468  Biso   1.000  C
  C587     1.0000 0.97068  0.03860  0.71187  Biso   1.000  C
  H566     1.0000 0.97830  0.13558  0.70730  Biso   1.000  H
  H567     1.0000 0.97830  0.13562  0.70730  Biso   1.000  H
  C588     1.0000 0.90156  0.13107  0.78352  Biso   1.000  C
  C589     1.0000 0.90156  0.13107  0.78348  Biso   1.000  C
  C590     1.0000 0.90156  0.13110  0.78352  Biso   1.000  C
  C591     1.0000 0.90156  0.13110  0.78348  Biso   1.000  C
  C592     1.0000 0.90159  0.13107  0.78352  Biso   1.000  C
  C593     1.0000 0.90159  0.13107  0.78348  Biso   1.000  C
  C594     1.0000 0.90159  0.13110  0.78352  Biso   1.000  C
  C595     1.0000 0.90159  0.13110  0.78348  Biso   1.000  C
  C596     1.0000 0.19774  0.07951  0.12788  Biso   1.000  C
  H568     1.0000 0.23232  0.13299  0.07508  Biso   1.000  H
  C597     1.0000 0.19774  0.07955  0.12788  Biso   1.000  C
  H569     1.0000 0.23232  0.13302  0.07508  Biso   1.000  H
  O215     1.0000 0.20471  0.99936  0.00493  Biso   1.000  O
  N414     1.0000 0.19571  0.03241  0.10098  Biso   1.000  N
  O216     1.0000 0.09577  0.15117  0.13952  Biso   1.000  O
  N415     1.0000 0.15359  0.09439  0.15596  Biso   1.000  N
  N416     1.0000 0.93009  0.02081  0.74415  Biso   1.000  N
  H570     1.0000 0.99139  0.01149  0.70072  Biso   1.000  H
  H571     1.0000 0.95980  0.05379  0.67350  Biso   1.000  H
  H572     1.0000 0.99139  0.01149  0.70068  Biso   1.000  H
  N417     1.0000 0.88370  0.08336  0.79302  Biso   1.000  N
  H573     1.0000 0.89419  0.14110  0.74119  Biso   1.000  H
  H574     1.0000 0.88491  0.15302  0.81161  Biso   1.000  H
  H575     1.0000 0.22520  0.08272  0.15670  Biso   1.000  H
  C598     1.0000 0.20460  0.98933  0.13532  Biso   1.000  C
  C599     1.0000 0.14071  0.08193  0.21753  Biso   1.000  C
  C600     1.0000 0.14074  0.08193  0.21753  Biso   1.000  C
  C601     1.0000 0.92490  0.97314  0.75872  Biso   1.000  C
  C602     1.0000 0.88509  0.04621  0.74785  Biso   1.000  C
  C603     1.0000 0.85502  0.07190  0.84166  Biso   1.000  C
  N418     1.0000 0.16390  0.97232  0.16816  Biso   1.000  N
  H576     1.0000 0.21542  0.96421  0.10678  Biso   1.000  H
  H577     1.0000 0.23072  0.99530  0.16469  Biso   1.000  H
  N419     1.0000 0.16390  0.97232  0.16811  Biso   1.000  N
  N420     1.0000 0.12068  0.03426  0.22365  Biso   1.000  N
  H578     1.0000 0.11719  0.10531  0.23278  Biso   1.000  H
  H579     1.0000 0.16942  0.08432  0.24370  Biso   1.000  H
  N421     1.0000 0.12068  0.03426  0.22360  Biso   1.000  N
  O217     1.0000 0.95624  0.94357  0.75516  Biso   1.000  O
  N422     1.0000 0.87932  0.96574  0.77635  Biso   1.000  N
  H580     1.0000 0.87491  0.05820  0.70689  Biso   1.000  H
  C604     1.0000 0.84994  0.00857  0.77265  Biso   1.000  C
  C605     1.0000 0.84997  0.00857  0.77265  Biso   1.000  C
  N423     1.0000 0.83610  0.02768  0.83184  Biso   1.000  N
  N424     1.0000 0.83610  0.02771  0.83184  Biso   1.000  N
  O218     1.0000 0.84698  0.09752  0.88523  Biso   1.000  O
  C606     1.0000 0.15006  0.99143  0.22735  Biso   1.000  C
  C607     1.0000 0.14498  0.92810  0.15834  Biso   1.000  C
  C608     1.0000 0.07510  0.02686  0.24128  Biso   1.000  C
  C609     1.0000 0.85929  0.91807  0.78247  Biso   1.000  C
  C610     1.0000 0.85929  0.91807  0.78243  Biso   1.000  C
  H581     1.0000 0.82201  0.00409  0.74502  Biso   1.000  H
  H582     1.0000 0.82201  0.00409  0.74498  Biso   1.000  H
  C611     1.0000 0.79540  0.01067  0.86468  Biso   1.000  C
  C612     1.0000 0.79540  0.01071  0.86468  Biso   1.000  C
  C613     1.0000 0.79543  0.01067  0.86468  Biso   1.000  C
  C614     1.0000 0.79543  0.01071  0.86468  Biso   1.000  C
  C615     1.0000 0.11491  0.95379  0.25215  Biso   1.000  C
  H583     1.0000 0.17799  0.99591  0.25498  Biso   1.000  H
  C616     1.0000 0.11491  0.95382  0.25215  Biso   1.000  C
  O219     1.0000 0.15302  0.90248  0.11477  Biso   1.000  O
  N425     1.0000 0.11630  0.91664  0.20698  Biso   1.000  N
  O220     1.0000 0.15302  0.90248  0.11472  Biso   1.000  O
  O221     1.0000 0.15302  0.90252  0.11477  Biso   1.000  O
  O222     1.0000 0.15302  0.90252  0.11472  Biso   1.000  O
  O223     1.0000 0.15305  0.90248  0.11477  Biso   1.000  O
  O224     1.0000 0.15305  0.90248  0.11472  Biso   1.000  O
  O225     1.0000 0.15305  0.90252  0.11477  Biso   1.000  O
  O226     1.0000 0.15305  0.90252  0.11472  Biso   1.000  O
  N426     1.0000 0.06991  0.97919  0.25585  Biso   1.000  N
  O227     1.0000 0.04376  0.05643  0.24484  Biso   1.000  O
  N427     1.0000 0.84641  0.90561  0.84404  Biso   1.000  N
  H584     1.0000 0.88281  0.89469  0.76722  Biso   1.000  H
  H585     1.0000 0.83058  0.91568  0.75630  Biso   1.000  H
  N428     1.0000 0.84641  0.90561  0.84399  Biso   1.000  N
  H586     1.0000 0.88281  0.89469  0.76717  Biso   1.000  H
  N429     1.0000 0.84641  0.90565  0.84404  Biso   1.000  N
  H587     1.0000 0.83058  0.91572  0.75630  Biso   1.000  H
  N430     1.0000 0.84641  0.90565  0.84399  Biso   1.000  N
  N431     1.0000 0.84645  0.90561  0.84404  Biso   1.000  N
  H588     1.0000 0.83062  0.91568  0.75630  Biso   1.000  H
  N432     1.0000 0.84645  0.90561  0.84399  Biso   1.000  N
  N433     1.0000 0.84645  0.90565  0.84404  Biso   1.000  N
  H589     1.0000 0.83062  0.91572  0.75630  Biso   1.000  H
  N434     1.0000 0.84645  0.90565  0.84399  Biso   1.000  N
  N435     1.0000 0.80429  0.96759  0.89902  Biso   1.000  N
  H590     1.0000 0.78458  0.03579  0.89322  Biso   1.000  H
  H591     1.0000 0.76928  0.00470  0.83531  Biso   1.000  H
  H592     1.0000 0.78458  0.03579  0.89318  Biso   1.000  H
  H593     1.0000 0.78462  0.03579  0.89322  Biso   1.000  H
  H594     1.0000 0.76932  0.00470  0.83531  Biso   1.000  H
  H595     1.0000 0.78462  0.03579  0.89318  Biso   1.000  H
  H596     1.0000 0.12509  0.94180  0.29311  Biso   1.000  H
  H597     1.0000 0.12509  0.94180  0.29307  Biso   1.000  H
  H598     1.0000 0.12512  0.94180  0.29311  Biso   1.000  H
  H599     1.0000 0.12512  0.94180  0.29307  Biso   1.000  H
  C617     1.0000 0.09844  0.86893  0.21648  Biso   1.000  C
  C618     1.0000 0.02932  0.96140  0.28813  Biso   1.000  C
  C619     1.0000 0.86737  0.86915  0.87532  Biso   1.000  C
  C620     1.0000 0.80226  0.92049  0.87212  Biso   1.000  C
  C621     1.0000 0.86737  0.86915  0.87527  Biso   1.000  C
  C622     1.0000 0.79881  0.96553  0.96091  Biso   1.000  C
  C623     1.0000 0.79885  0.96553  0.96091  Biso   1.000  C
  N436     1.0000 0.04767  0.86477  0.20657  Biso   1.000  N
  H600     1.0000 0.10581  0.85890  0.25881  Biso   1.000  H
  H601     1.0000 0.11509  0.84698  0.18839  Biso   1.000  H
  N437     1.0000 0.04767  0.86477  0.20652  Biso   1.000  N
  H602     1.0000 0.10581  0.85890  0.25877  Biso   1.000  H
  H603     1.0000 0.11509  0.84702  0.18839  Biso   1.000  H
  N438     1.0000 0.00181  0.92749  0.25402  Biso   1.000  N
  H604     1.0000 0.00861  0.98851  0.29928  Biso   1.000  H
  H605     1.0000 0.04020  0.94621  0.32650  Biso   1.000  H
  O228     1.0000 0.90423  0.84883  0.86048  Biso   1.000  O
  N439     1.0000 0.83983  0.85837  0.92442  Biso   1.000  N
  H606     1.0000 0.77480  0.91728  0.84330  Biso   1.000  H
  C624     1.0000 0.79718  0.88676  0.92725  Biso   1.000  C
  C625     1.0000 0.79718  0.88676  0.92720  Biso   1.000  C
  H607     1.0000 0.77480  0.91732  0.84330  Biso   1.000  H
  C626     1.0000 0.79718  0.88679  0.92725  Biso   1.000  C
  C627     1.0000 0.79718  0.88679  0.92720  Biso   1.000  C
  N440     1.0000 0.79632  0.91952  0.97849  Biso   1.000  N
  N441     1.0000 0.79636  0.91952  0.97849  Biso   1.000  N
  O229     1.0000 0.79529  0.00064  0.99507  Biso   1.000  O
  C628     1.0000 0.02853  0.83795  0.16026  Biso   1.000  C
  C629     1.0000 0.02857  0.83795  0.16026  Biso   1.000  C
  C630     1.0000 0.01299  0.87708  0.25155  Biso   1.000  C
  C631     1.0000 0.95507  0.93653  0.23977  Biso   1.000  C
  C632     1.0000 0.84734  0.81624  0.96150  Biso   1.000  C
  C633     1.0000 0.84734  0.81628  0.96150  Biso   1.000  C
  H608     1.0000 0.76768  0.86701  0.92492  Biso   1.000  H
  H609     1.0000 0.76768  0.86701  0.92487  Biso   1.000  H
  H610     1.0000 0.76772  0.86701  0.92492  Biso   1.000  H
  H611     1.0000 0.76772  0.86701  0.92487  Biso   1.000  H
  C634     1.0000 0.78127  0.90604  0.03992  Biso   1.000  C
  N442     1.0000 0.98111  0.83396  0.17003  Biso   1.000  N
  N443     1.0000 0.98111  0.83400  0.17003  Biso   1.000  N
  O230     1.0000 0.05056  0.82012  0.11810  Biso   1.000  O
  C635     1.0000 0.96620  0.85463  0.22744  Biso   1.000  C
  C636     1.0000 0.96620  0.85463  0.22739  Biso   1.000  C
  H612     1.0000 0.02170  0.86442  0.29270  Biso   1.000  H
  N444     1.0000 0.93425  0.89416  0.22246  Biso   1.000  N
  N445     1.0000 0.93425  0.89419  0.22246  Biso   1.000  N
  O231     1.0000 0.93539  0.97460  0.24356  Biso   1.000  O
  O232     1.0000 0.93539  0.97460  0.24351  Biso   1.000  O
  H613     1.0000 0.81681  0.79899  0.96579  Biso   1.000  H
  H614     1.0000 0.87000  0.79490  0.94040  Biso   1.000  H
  N446     1.0000 0.86584  0.82756  0.02238  Biso   1.000  N
  N447     1.0000 0.86584  0.82759  0.02238  Biso   1.000  N
  N448     1.0000 0.81920  0.88722  0.07741  Biso   1.000  N
  H615     1.0000 0.75580  0.88181  0.03672  Biso   1.000  H
  H616     1.0000 0.76761  0.93429  0.06042  Biso   1.000  H
  H617     1.0000 0.75580  0.88181  0.03667  Biso   1.000  H
  H618     1.0000 0.76761  0.93429  0.06038  Biso   1.000  H
  C637     1.0000 0.95183  0.80059  0.13651  Biso   1.000  C
  H619     1.0000 0.95371  0.82991  0.25598  Biso   1.000  H
  C638     1.0000 0.88320  0.88879  0.21899  Biso   1.000  C
  C639     1.0000 0.88320  0.88879  0.21894  Biso   1.000  C
  C640     1.0000 0.91020  0.81592  0.04042  Biso   1.000  C
  C641     1.0000 0.83510  0.83852  0.07344  Biso   1.000  C
  C642     1.0000 0.91020  0.81592  0.04037  Biso   1.000  C
  C643     1.0000 0.91020  0.81596  0.04042  Biso   1.000  C
  C644     1.0000 0.91020  0.81596  0.04037  Biso   1.000  C
  C645     1.0000 0.83435  0.90939  0.12879  Biso   1.000  C
  N449     1.0000 0.91444  0.82293  0.10198  Biso   1.000  N
  H620     1.0000 0.93749  0.77779  0.16560  Biso   1.000  H
  H621     1.0000 0.97229  0.78230  0.10819  Biso   1.000  H
  H622     1.0000 0.93749  0.77782  0.16560  Biso   1.000  H
  H623     1.0000 0.97232  0.78230  0.10819  Biso   1.000  H
  N450     1.0000 0.86545  0.87939  0.15857  Biso   1.000  N
  N451     1.0000 0.86545  0.87943  0.15857  Biso   1.000  N
  N452     1.0000 0.86548  0.87939  0.15857  Biso   1.000  N
  N453     1.0000 0.86548  0.87943  0.15857  Biso   1.000  N
  H624     1.0000 0.86812  0.91821  0.23452  Biso   1.000  H
  H625     1.0000 0.87349  0.86232  0.24612  Biso   1.000  H
  H626     1.0000 0.86812  0.91821  0.23447  Biso   1.000  H
  H627     1.0000 0.87349  0.86232  0.24607  Biso   1.000  H
  H628     1.0000 0.87352  0.86232  0.24612  Biso   1.000  H
  H629     1.0000 0.87352  0.86232  0.24607  Biso   1.000  H
  O233     1.0000 0.94269  0.80176  0.00735  Biso   1.000  O
  H630     1.0000 0.80781  0.81578  0.07600  Biso   1.000  H
  C646     1.0000 0.86844  0.83361  0.12911  Biso   1.000  C
  H631     1.0000 0.80781  0.81582  0.07600  Biso   1.000  H
  C647     1.0000 0.86847  0.83361  0.12911  Biso   1.000  C
  O234     1.0000 0.82165  0.94824  0.14779  Biso   1.000  O
  H632     1.0000 0.85780  0.80749  0.15688  Biso   1.000  H
  C648     1.0000 0.13156  0.16639  0.87089  Biso   1.000  C
  N454     1.0000 0.13455  0.12061  0.84143  Biso   1.000  N
  N455     1.0000 0.13455  0.12061  0.84139  Biso   1.000  N
  N456     1.0000 0.08556  0.17707  0.89802  Biso   1.000  N
  N457     1.0000 0.08556  0.17707  0.89797  Biso   1.000  N
  N458     1.0000 0.08556  0.17710  0.89802  Biso   1.000  N
  N459     1.0000 0.08556  0.17710  0.89797  Biso   1.000  N
  N460     1.0000 0.08560  0.17707  0.89802  Biso   1.000  N
  N461     1.0000 0.08560  0.17707  0.89797  Biso   1.000  N
  N462     1.0000 0.08560  0.17710  0.89802  Biso   1.000  N
  N463     1.0000 0.08560  0.17710  0.89797  Biso   1.000  N
  C649     1.0000 0.16490  0.16148  0.92656  Biso   1.000  C
  H633     1.0000 0.14220  0.19251  0.84312  Biso   1.000  H
  H634     1.0000 0.14220  0.19251  0.84308  Biso   1.000  H
  C650     1.0000 0.11680  0.11121  0.78101  Biso   1.000  C
  C651     1.0000 0.11680  0.11125  0.78101  Biso   1.000  C
  C652     1.0000 0.11684  0.11121  0.78101  Biso   1.000  C
  C653     1.0000 0.11684  0.11125  0.78101  Biso   1.000  C
  C654     1.0000 0.16565  0.09061  0.87121  Biso   1.000  C
  C655     1.0000 0.16565  0.09061  0.87116  Biso   1.000  C
  C656     1.0000 0.04817  0.19941  0.86349  Biso   1.000  C
  C657     1.0000 0.08980  0.18408  0.95958  Biso   1.000  C
  N464     1.0000 0.18080  0.11278  0.92259  Biso   1.000  N
  N465     1.0000 0.13416  0.17244  0.97762  Biso   1.000  N
  H635     1.0000 0.19219  0.18422  0.92400  Biso   1.000  H
  H636     1.0000 0.19222  0.18422  0.92400  Biso   1.000  H
  N466     1.0000 0.06575  0.10584  0.77754  Biso   1.000  N
  N467     1.0000 0.06575  0.10584  0.77749  Biso   1.000  N
  H637     1.0000 0.13188  0.08179  0.76548  Biso   1.000  H
  H638     1.0000 0.12651  0.13768  0.75388  Biso   1.000  H
  H639     1.0000 0.12651  0.13772  0.75388  Biso   1.000  H
  H640     1.0000 0.13192  0.08179  0.76548  Biso   1.000  H
  O235     1.0000 0.17835  0.05176  0.85221  Biso   1.000  O
  O236     1.0000 0.17835  0.05176  0.85216  Biso   1.000  O
  O237     1.0000 0.17835  0.05180  0.85221  Biso   1.000  O
  O238     1.0000 0.17835  0.05180  0.85216  Biso   1.000  O
  O239     1.0000 0.17838  0.05176  0.85221  Biso   1.000  O
  O240     1.0000 0.17838  0.05176  0.85216  Biso   1.000  O
  O241     1.0000 0.17838  0.05180  0.85221  Biso   1.000  O
  O242     1.0000 0.17838  0.05180  0.85216  Biso   1.000  O
  N468     1.0000 0.01889  0.16604  0.82997  Biso   1.000  N
  N469     1.0000 0.01889  0.16604  0.82992  Biso   1.000  N
  H641     1.0000 0.06251  0.22221  0.83440  Biso   1.000  H
  H642     1.0000 0.02771  0.21770  0.89181  Biso   1.000  H
  O243     1.0000 0.05731  0.19824  0.99265  Biso   1.000  O
  C658     1.0000 0.21873  0.09396  0.96008  Biso   1.000  C
  C659     1.0000 0.15266  0.18376  0.03850  Biso   1.000  C
  C660     1.0000 0.04493  0.06347  0.76023  Biso   1.000  C
  C661     1.0000 0.04493  0.06347  0.76018  Biso   1.000  C
  C662     1.0000 0.04493  0.06351  0.76023  Biso   1.000  C
  C663     1.0000 0.04493  0.06351  0.76018  Biso   1.000  C
  C664     1.0000 0.04497  0.06347  0.76023  Biso   1.000  C
  C665     1.0000 0.04497  0.06347  0.76018  Biso   1.000  C
  C666     1.0000 0.04497  0.06351  0.76023  Biso   1.000  C
  C667     1.0000 0.04497  0.06351  0.76018  Biso   1.000  C
  C668     1.0000 0.03380  0.14537  0.77256  Biso   1.000  C
  C669     1.0000 0.03383  0.14537  0.77256  Biso   1.000  C
  C670     1.0000 0.97147  0.16205  0.83974  Biso   1.000  C
  C671     1.0000 0.97147  0.16205  0.83970  Biso   1.000  C
  H643     1.0000 0.24420  0.11819  0.96328  Biso   1.000  H
  H644     1.0000 0.23239  0.06571  0.93958  Biso   1.000  H
  H645     1.0000 0.24420  0.11822  0.96328  Biso   1.000  H
  H646     1.0000 0.23242  0.06571  0.93958  Biso   1.000  H
  N470     1.0000 0.20368  0.08048  0.02151  Biso   1.000  N
  N471     1.0000 0.20368  0.08048  0.02147  Biso   1.000  N
  N472     1.0000 0.20368  0.08051  0.02151  Biso   1.000  N
  N473     1.0000 0.20368  0.08051  0.02147  Biso   1.000  N
  N474     1.0000 0.16017  0.14163  0.07558  Biso   1.000  N
  H647     1.0000 0.18319  0.20101  0.03421  Biso   1.000  H
  H648     1.0000 0.13000  0.20510  0.05960  Biso   1.000  H
  N475     1.0000 0.16020  0.14163  0.07558  Biso   1.000  N
  H649     1.0000 0.18322  0.20101  0.03421  Biso   1.000  H
  O244     1.0000 0.06461  0.02540  0.75644  Biso   1.000  O
  N476     1.0000 0.99819  0.07251  0.74598  Biso   1.000  N
  N477     1.0000 0.99822  0.07251  0.74598  Biso   1.000  N
  C672     1.0000 0.98701  0.12292  0.74845  Biso   1.000  C
  C673     1.0000 0.98701  0.12292  0.74840  Biso   1.000  C
  H650     1.0000 0.04629  0.17009  0.74402  Biso   1.000  H
  H651     1.0000 0.04629  0.17009  0.74397  Biso   1.000  H
  H652     1.0000 0.04632  0.17009  0.74402  Biso   1.000  H
  H653     1.0000 0.04632  0.17009  0.74397  Biso   1.000  H
  N478     1.0000 0.95233  0.13523  0.79343  Biso   1.000  N
  O245     1.0000 0.94944  0.17988  0.88190  Biso   1.000  O
  O246     1.0000 0.94944  0.17988  0.88185  Biso   1.000  O
  O247     1.0000 0.94948  0.17988  0.88190  Biso   1.000  O
  O248     1.0000 0.94948  0.17988  0.88185  Biso   1.000  O
  C674     1.0000 0.20282  0.11324  0.07275  Biso   1.000  C
  C675     1.0000 0.20119  0.03447  0.03909  Biso   1.000  C
  C676     1.0000 0.20286  0.11324  0.07275  Biso   1.000  C
  C677     1.0000 0.13263  0.13085  0.12468  Biso   1.000  C
  C678     1.0000 0.97068  0.03860  0.71187  Biso   1.000  C
  H654     1.0000 0.97830  0.13558  0.70730  Biso   1.000  H
  H655     1.0000 0.97830  0.13562  0.70730  Biso   1.000  H
  C679     1.0000 0.90156  0.13107  0.78352  Biso   1.000  C
  C680     1.0000 0.90156  0.13107  0.78348  Biso   1.000  C
  C681     1.0000 0.90156  0.13110  0.78352  Biso   1.000  C
  C682     1.0000 0.90156  0.13110  0.78348  Biso   1.000  C
  C683     1.0000 0.90159  0.13107  0.78352  Biso   1.000  C
  C684     1.0000 0.90159  0.13107  0.78348  Biso   1.000  C
  C685     1.0000 0.90159  0.13110  0.78352  Biso   1.000  C
  C686     1.0000 0.90159  0.13110  0.78348  Biso   1.000  C
  C687     1.0000 0.19774  0.07951  0.12788  Biso   1.000  C
  H656     1.0000 0.23232  0.13299  0.07508  Biso   1.000  H
  C688     1.0000 0.19774  0.07955  0.12788  Biso   1.000  C
  H657     1.0000 0.23232  0.13302  0.07508  Biso   1.000  H
  O249     1.0000 0.20471  0.99936  0.00493  Biso   1.000  O
  N479     1.0000 0.19571  0.03241  0.10098  Biso   1.000  N
  O250     1.0000 0.09577  0.15117  0.13952  Biso   1.000  O
  N480     1.0000 0.15359  0.09439  0.15596  Biso   1.000  N
  N481     1.0000 0.93009  0.02081  0.74415  Biso   1.000  N
  H658     1.0000 0.99139  0.01149  0.70072  Biso   1.000  H
  H659     1.0000 0.95980  0.05379  0.67350  Biso   1.000  H
  H660     1.0000 0.99139  0.01149  0.70068  Biso   1.000  H
  N482     1.0000 0.88370  0.08336  0.79302  Biso   1.000  N
  H661     1.0000 0.89419  0.14110  0.74119  Biso   1.000  H
  H662     1.0000 0.88491  0.15302  0.81161  Biso   1.000  H
  H663     1.0000 0.22520  0.08272  0.15670  Biso   1.000  H
  C689     1.0000 0.20460  0.98933  0.13532  Biso   1.000  C
  C690     1.0000 0.14071  0.08193  0.21753  Biso   1.000  C
  C691     1.0000 0.14074  0.08193  0.21753  Biso   1.000  C
  C692     1.0000 0.92490  0.97314  0.75872  Biso   1.000  C
  C693     1.0000 0.88509  0.04621  0.74785  Biso   1.000  C
  C694     1.0000 0.85502  0.07190  0.84166  Biso   1.000  C
  N483     1.0000 0.16390  0.97232  0.16816  Biso   1.000  N
  H664     1.0000 0.21542  0.96421  0.10678  Biso   1.000  H
  H665     1.0000 0.23072  0.99530  0.16469  Biso   1.000  H
  N484     1.0000 0.16390  0.97232  0.16811  Biso   1.000  N
  N485     1.0000 0.12068  0.03426  0.22365  Biso   1.000  N
  H666     1.0000 0.11719  0.10531  0.23278  Biso   1.000  H
  H667     1.0000 0.16942  0.08432  0.24370  Biso   1.000  H
  N486     1.0000 0.12068  0.03426  0.22360  Biso   1.000  N
  O251     1.0000 0.95624  0.94357  0.75516  Biso   1.000  O
  N487     1.0000 0.87932  0.96574  0.77635  Biso   1.000  N
  H668     1.0000 0.87491  0.05820  0.70689  Biso   1.000  H
  C695     1.0000 0.84994  0.00857  0.77265  Biso   1.000  C
  C696     1.0000 0.84997  0.00857  0.77265  Biso   1.000  C
  N488     1.0000 0.83610  0.02768  0.83184  Biso   1.000  N
  N489     1.0000 0.83610  0.02771  0.83184  Biso   1.000  N
  O252     1.0000 0.84698  0.09752  0.88523  Biso   1.000  O
  C697     1.0000 0.15006  0.99143  0.22735  Biso   1.000  C
  C698     1.0000 0.14498  0.92810  0.15834  Biso   1.000  C
  C699     1.0000 0.07510  0.02686  0.24128  Biso   1.000  C
  C700     1.0000 0.85929  0.91807  0.78247  Biso   1.000  C
  C701     1.0000 0.85929  0.91807  0.78243  Biso   1.000  C
  H669     1.0000 0.82201  0.00409  0.74502  Biso   1.000  H
  H670     1.0000 0.82201  0.00409  0.74498  Biso   1.000  H
  C702     1.0000 0.79540  0.01067  0.86468  Biso   1.000  C
  C703     1.0000 0.79540  0.01071  0.86468  Biso   1.000  C
  C704     1.0000 0.79543  0.01067  0.86468  Biso   1.000  C
  C705     1.0000 0.79543  0.01071  0.86468  Biso   1.000  C
  C706     1.0000 0.11491  0.95379  0.25215  Biso   1.000  C
  H671     1.0000 0.17799  0.99591  0.25498  Biso   1.000  H
  C707     1.0000 0.11491  0.95382  0.25215  Biso   1.000  C
  O253     1.0000 0.15302  0.90248  0.11477  Biso   1.000  O
  N490     1.0000 0.11630  0.91664  0.20698  Biso   1.000  N
  O254     1.0000 0.15302  0.90248  0.11472  Biso   1.000  O
  O255     1.0000 0.15302  0.90252  0.11477  Biso   1.000  O
  O256     1.0000 0.15302  0.90252  0.11472  Biso   1.000  O
  O257     1.0000 0.15305  0.90248  0.11477  Biso   1.000  O
  O258     1.0000 0.15305  0.90248  0.11472  Biso   1.000  O
  O259     1.0000 0.15305  0.90252  0.11477  Biso   1.000  O
  O260     1.0000 0.15305  0.90252  0.11472  Biso   1.000  O
  N491     1.0000 0.06991  0.97919  0.25585  Biso   1.000  N
  O261     1.0000 0.04376  0.05643  0.24484  Biso   1.000  O
  N492     1.0000 0.84641  0.90561  0.84404  Biso   1.000  N
  H672     1.0000 0.88281  0.89469  0.76722  Biso   1.000  H
  H673     1.0000 0.83058  0.91568  0.75630  Biso   1.000  H
  N493     1.0000 0.84641  0.90561  0.84399  Biso   1.000  N
  H674     1.0000 0.88281  0.89469  0.76717  Biso   1.000  H
  N494     1.0000 0.84641  0.90565  0.84404  Biso   1.000  N
  H675     1.0000 0.83058  0.91572  0.75630  Biso   1.000  H
  N495     1.0000 0.84641  0.90565  0.84399  Biso   1.000  N
  N496     1.0000 0.84645  0.90561  0.84404  Biso   1.000  N
  H676     1.0000 0.83062  0.91568  0.75630  Biso   1.000  H
  N497     1.0000 0.84645  0.90561  0.84399  Biso   1.000  N
  N498     1.0000 0.84645  0.90565  0.84404  Biso   1.000  N
  H677     1.0000 0.83062  0.91572  0.75630  Biso   1.000  H
  N499     1.0000 0.84645  0.90565  0.84399  Biso   1.000  N
  N500     1.0000 0.80429  0.96759  0.89902  Biso   1.000  N
  H678     1.0000 0.78458  0.03579  0.89322  Biso   1.000  H
  H679     1.0000 0.76928  0.00470  0.83531  Biso   1.000  H
  H680     1.0000 0.78458  0.03579  0.89318  Biso   1.000  H
  H681     1.0000 0.78462  0.03579  0.89322  Biso   1.000  H
  H682     1.0000 0.76932  0.00470  0.83531  Biso   1.000  H
  H683     1.0000 0.78462  0.03579  0.89318  Biso   1.000  H
  H684     1.0000 0.12509  0.94180  0.29311  Biso   1.000  H
  H685     1.0000 0.12509  0.94180  0.29307  Biso   1.000  H
  H686     1.0000 0.12512  0.94180  0.29311  Biso   1.000  H
  H687     1.0000 0.12512  0.94180  0.29307  Biso   1.000  H
  C708     1.0000 0.09844  0.86893  0.21648  Biso   1.000  C
  C709     1.0000 0.02932  0.96140  0.28813  Biso   1.000  C
  C710     1.0000 0.86737  0.86915  0.87532  Biso   1.000  C
  C711     1.0000 0.80226  0.92049  0.87212  Biso   1.000  C
  C712     1.0000 0.86737  0.86915  0.87527  Biso   1.000  C
  C713     1.0000 0.79881  0.96553  0.96091  Biso   1.000  C
  C714     1.0000 0.79885  0.96553  0.96091  Biso   1.000  C
  N501     1.0000 0.04767  0.86477  0.20657  Biso   1.000  N
  H688     1.0000 0.10581  0.85890  0.25881  Biso   1.000  H
  H689     1.0000 0.11509  0.84698  0.18839  Biso   1.000  H
  N502     1.0000 0.04767  0.86477  0.20652  Biso   1.000  N
  H690     1.0000 0.10581  0.85890  0.25877  Biso   1.000  H
  H691     1.0000 0.11509  0.84702  0.18839  Biso   1.000  H
  N503     1.0000 0.00181  0.92749  0.25402  Biso   1.000  N
  H692     1.0000 0.00861  0.98851  0.29928  Biso   1.000  H
  H693     1.0000 0.04020  0.94621  0.32650  Biso   1.000  H
  O262     1.0000 0.90423  0.84883  0.86048  Biso   1.000  O
  N504     1.0000 0.83983  0.85837  0.92442  Biso   1.000  N
  H694     1.0000 0.77480  0.91728  0.84330  Biso   1.000  H
  C715     1.0000 0.79718  0.88676  0.92725  Biso   1.000  C
  C716     1.0000 0.79718  0.88676  0.92720  Biso   1.000  C
  H695     1.0000 0.77480  0.91732  0.84330  Biso   1.000  H
  C717     1.0000 0.79718  0.88679  0.92725  Biso   1.000  C
  C718     1.0000 0.79718  0.88679  0.92720  Biso   1.000  C
  N505     1.0000 0.79632  0.91952  0.97849  Biso   1.000  N
  N506     1.0000 0.79636  0.91952  0.97849  Biso   1.000  N
  O263     1.0000 0.79529  0.00064  0.99507  Biso   1.000  O
  C719     1.0000 0.02853  0.83795  0.16026  Biso   1.000  C
  C720     1.0000 0.02857  0.83795  0.16026  Biso   1.000  C
  C721     1.0000 0.01299  0.87708  0.25155  Biso   1.000  C
  C722     1.0000 0.95507  0.93653  0.23977  Biso   1.000  C
  C723     1.0000 0.84734  0.81624  0.96150  Biso   1.000  C
  C724     1.0000 0.84734  0.81628  0.96150  Biso   1.000  C
  H696     1.0000 0.76768  0.86701  0.92492  Biso   1.000  H
  H697     1.0000 0.76768  0.86701  0.92487  Biso   1.000  H
  H698     1.0000 0.76772  0.86701  0.92492  Biso   1.000  H
  H699     1.0000 0.76772  0.86701  0.92487  Biso   1.000  H
  C725     1.0000 0.78127  0.90604  0.03992  Biso   1.000  C
  N507     1.0000 0.98111  0.83396  0.17003  Biso   1.000  N
  N508     1.0000 0.98111  0.83400  0.17003  Biso   1.000  N
  O264     1.0000 0.05056  0.82012  0.11810  Biso   1.000  O
  C726     1.0000 0.96620  0.85463  0.22744  Biso   1.000  C
  C727     1.0000 0.96620  0.85463  0.22739  Biso   1.000  C
  H700     1.0000 0.02170  0.86442  0.29270  Biso   1.000  H
  N509     1.0000 0.93425  0.89416  0.22246  Biso   1.000  N
  N510     1.0000 0.93425  0.89419  0.22246  Biso   1.000  N
  O265     1.0000 0.93539  0.97460  0.24356  Biso   1.000  O
  O266     1.0000 0.93539  0.97460  0.24351  Biso   1.000  O
  H701     1.0000 0.81681  0.79899  0.96579  Biso   1.000  H
  H702     1.0000 0.87000  0.79490  0.94040  Biso   1.000  H
  N511     1.0000 0.86584  0.82756  0.02238  Biso   1.000  N
  N512     1.0000 0.86584  0.82759  0.02238  Biso   1.000  N
  N513     1.0000 0.81920  0.88722  0.07741  Biso   1.000  N
  H703     1.0000 0.75580  0.88181  0.03672  Biso   1.000  H
  H704     1.0000 0.76761  0.93429  0.06042  Biso   1.000  H
  H705     1.0000 0.75580  0.88181  0.03667  Biso   1.000  H
  H706     1.0000 0.76761  0.93429  0.06038  Biso   1.000  H
  C728     1.0000 0.95183  0.80059  0.13651  Biso   1.000  C
  H707     1.0000 0.95371  0.82991  0.25598  Biso   1.000  H
  C729     1.0000 0.88320  0.88879  0.21899  Biso   1.000  C
  C730     1.0000 0.88320  0.88879  0.21894  Biso   1.000  C
  C731     1.0000 0.91020  0.81592  0.04042  Biso   1.000  C
  C732     1.0000 0.83510  0.83852  0.07344  Biso   1.000  C
  C733     1.0000 0.91020  0.81592  0.04037  Biso   1.000  C
  C734     1.0000 0.91020  0.81596  0.04042  Biso   1.000  C
  C735     1.0000 0.91020  0.81596  0.04037  Biso   1.000  C
  C736     1.0000 0.83435  0.90939  0.12879  Biso   1.000  C
  N514     1.0000 0.91444  0.82293  0.10198  Biso   1.000  N
  H708     1.0000 0.93749  0.77779  0.16560  Biso   1.000  H
  H709     1.0000 0.97229  0.78230  0.10819  Biso   1.000  H
  H710     1.0000 0.93749  0.77782  0.16560  Biso   1.000  H
  H711     1.0000 0.97232  0.78230  0.10819  Biso   1.000  H
  N515     1.0000 0.86545  0.87939  0.15857  Biso   1.000  N
  N516     1.0000 0.86545  0.87943  0.15857  Biso   1.000  N
  N517     1.0000 0.86548  0.87939  0.15857  Biso   1.000  N
  N518     1.0000 0.86548  0.87943  0.15857  Biso   1.000  N
  H712     1.0000 0.86812  0.91821  0.23452  Biso   1.000  H
  H713     1.0000 0.87349  0.86232  0.24612  Biso   1.000  H
  H714     1.0000 0.86812  0.91821  0.23447  Biso   1.000  H
  H715     1.0000 0.87349  0.86232  0.24607  Biso   1.000  H
  H716     1.0000 0.87352  0.86232  0.24612  Biso   1.000  H
  H717     1.0000 0.87352  0.86232  0.24607  Biso   1.000  H
  O267     1.0000 0.94269  0.80176  0.00735  Biso   1.000  O
  H718     1.0000 0.80781  0.81578  0.07600  Biso   1.000  H
  C737     1.0000 0.86844  0.83361  0.12911  Biso   1.000  C
  H719     1.0000 0.80781  0.81582  0.07600  Biso   1.000  H
  C738     1.0000 0.86847  0.83361  0.12911  Biso   1.000  C
  O268     1.0000 0.82165  0.94824  0.14779  Biso   1.000  O
  H720     1.0000 0.85780  0.80749  0.15688  Biso   1.000  H
  C739     1.0000 0.13156  0.16639  0.87089  Biso   1.000  C
  N519     1.0000 0.13455  0.12061  0.84143  Biso   1.000  N
  N520     1.0000 0.13455  0.12061  0.84139  Biso   1.000  N
  N521     1.0000 0.08556  0.17707  0.89802  Biso   1.000  N
  N522     1.0000 0.08556  0.17707  0.89797  Biso   1.000  N
  N523     1.0000 0.08556  0.17710  0.89802  Biso   1.000  N
  N524     1.0000 0.08556  0.17710  0.89797  Biso   1.000  N
  N525     1.0000 0.08560  0.17707  0.89802  Biso   1.000  N
  N526     1.0000 0.08560  0.17707  0.89797  Biso   1.000  N
  N527     1.0000 0.08560  0.17710  0.89802  Biso   1.000  N
  N528     1.0000 0.08560  0.17710  0.89797  Biso   1.000  N
  C740     1.0000 0.16490  0.16148  0.92656  Biso   1.000  C
  H721     1.0000 0.14220  0.19251  0.84312  Biso   1.000  H
  H722     1.0000 0.14220  0.19251  0.84308  Biso   1.000  H
  C741     1.0000 0.11680  0.11121  0.78101  Biso   1.000  C
  C742     1.0000 0.11680  0.11125  0.78101  Biso   1.000  C
  C743     1.0000 0.11684  0.11121  0.78101  Biso   1.000  C
  C744     1.0000 0.11684  0.11125  0.78101  Biso   1.000  C
  C745     1.0000 0.16565  0.09061  0.87121  Biso   1.000  C
  C746     1.0000 0.16565  0.09061  0.87116  Biso   1.000  C
  C747     1.0000 0.04817  0.19941  0.86349  Biso   1.000  C
  C748     1.0000 0.08980  0.18408  0.95958  Biso   1.000  C
  N529     1.0000 0.18080  0.11278  0.92259  Biso   1.000  N
  N530     1.0000 0.13416  0.17244  0.97762  Biso   1.000  N
  H723     1.0000 0.19219  0.18422  0.92400  Biso   1.000  H
  H724     1.0000 0.19222  0.18422  0.92400  Biso   1.000  H
  N531     1.0000 0.06575  0.10584  0.77754  Biso   1.000  N
  N532     1.0000 0.06575  0.10584  0.77749  Biso   1.000  N
  H725     1.0000 0.13188  0.08179  0.76548  Biso   1.000  H
  H726     1.0000 0.12651  0.13768  0.75388  Biso   1.000  H
  H727     1.0000 0.12651  0.13772  0.75388  Biso   1.000  H
  H728     1.0000 0.13192  0.08179  0.76548  Biso   1.000  H
  O269     1.0000 0.17835  0.05176  0.85221  Biso   1.000  O
  O270     1.0000 0.17835  0.05176  0.85216  Biso   1.000  O
  O271     1.0000 0.17835  0.05180  0.85221  Biso   1.000  O
  O272     1.0000 0.17835  0.05180  0.85216  Biso   1.000  O
  O273     1.0000 0.17838  0.05176  0.85221  Biso   1.000  O
  O274     1.0000 0.17838  0.05176  0.85216  Biso   1.000  O
  O275     1.0000 0.17838  0.05180  0.85221  Biso   1.000  O
  O276     1.0000 0.17838  0.05180  0.85216  Biso   1.000  O
  N533     1.0000 0.01889  0.16604  0.82997  Biso   1.000  N
  N534     1.0000 0.01889  0.16604  0.82992  Biso   1.000  N
  H729     1.0000 0.06251  0.22221  0.83440  Biso   1.000  H
  H730     1.0000 0.02771  0.21770  0.89181  Biso   1.000  H
  O277     1.0000 0.05731  0.19824  0.99265  Biso   1.000  O
  C749     1.0000 0.21873  0.09396  0.96008  Biso   1.000  C
  C750     1.0000 0.15266  0.18376  0.03850  Biso   1.000  C
  C751     1.0000 0.04493  0.06347  0.76023  Biso   1.000  C
  C752     1.0000 0.04493  0.06347  0.76018  Biso   1.000  C
  C753     1.0000 0.04493  0.06351  0.76023  Biso   1.000  C
  C754     1.0000 0.04493  0.06351  0.76018  Biso   1.000  C
  C755     1.0000 0.04497  0.06347  0.76023  Biso   1.000  C
  C756     1.0000 0.04497  0.06347  0.76018  Biso   1.000  C
  C757     1.0000 0.04497  0.06351  0.76023  Biso   1.000  C
  C758     1.0000 0.04497  0.06351  0.76018  Biso   1.000  C
  C759     1.0000 0.03380  0.14537  0.77256  Biso   1.000  C
  C760     1.0000 0.03383  0.14537  0.77256  Biso   1.000  C
  C761     1.0000 0.97147  0.16205  0.83974  Biso   1.000  C
  C762     1.0000 0.97147  0.16205  0.83970  Biso   1.000  C
  H731     1.0000 0.24420  0.11819  0.96328  Biso   1.000  H
  H732     1.0000 0.23239  0.06571  0.93958  Biso   1.000  H
  H733     1.0000 0.24420  0.11822  0.96328  Biso   1.000  H
  H734     1.0000 0.23242  0.06571  0.93958  Biso   1.000  H
  N535     1.0000 0.20368  0.08048  0.02151  Biso   1.000  N
  N536     1.0000 0.20368  0.08048  0.02147  Biso   1.000  N
  N537     1.0000 0.20368  0.08051  0.02151  Biso   1.000  N
  N538     1.0000 0.20368  0.08051  0.02147  Biso   1.000  N
  N539     1.0000 0.16017  0.14163  0.07558  Biso   1.000  N
  H735     1.0000 0.18319  0.20101  0.03421  Biso   1.000  H
  H736     1.0000 0.13000  0.20510  0.05960  Biso   1.000  H
  N540     1.0000 0.16020  0.14163  0.07558  Biso   1.000  N
  H737     1.0000 0.18322  0.20101  0.03421  Biso   1.000  H
  O278     1.0000 0.06461  0.02540  0.75644  Biso   1.000  O
  N541     1.0000 0.99819  0.07251  0.74598  Biso   1.000  N
  N542     1.0000 0.99822  0.07251  0.74598  Biso   1.000  N
  C763     1.0000 0.98701  0.12292  0.74845  Biso   1.000  C
  C764     1.0000 0.98701  0.12292  0.74840  Biso   1.000  C
  H738     1.0000 0.04629  0.17009  0.74402  Biso   1.000  H
  H739     1.0000 0.04629  0.17009  0.74397  Biso   1.000  H
  H740     1.0000 0.04632  0.17009  0.74402  Biso   1.000  H
  H741     1.0000 0.04632  0.17009  0.74397  Biso   1.000  H
  N543     1.0000 0.95233  0.13523  0.79343  Biso   1.000  N
  O279     1.0000 0.94944  0.17988  0.88190  Biso   1.000  O
  O280     1.0000 0.94944  0.17988  0.88185  Biso   1.000  O
  O281     1.0000 0.94948  0.17988  0.88190  Biso   1.000  O
  O282     1.0000 0.94948  0.17988  0.88185  Biso   1.000  O
  C765     1.0000 0.20282  0.11324  0.07275  Biso   1.000  C
  C766     1.0000 0.20119  0.03447  0.03909  Biso   1.000  C
  C767     1.0000 0.20286  0.11324  0.07275  Biso   1.000  C
  C768     1.0000 0.13263  0.13085  0.12468  Biso   1.000  C
  C769     1.0000 0.97068  0.03860  0.71187  Biso   1.000  C
  H742     1.0000 0.97830  0.13558  0.70730  Biso   1.000  H
  H743     1.0000 0.97830  0.13562  0.70730  Biso   1.000  H
  C770     1.0000 0.90156  0.13107  0.78352  Biso   1.000  C
  C771     1.0000 0.90156  0.13107  0.78348  Biso   1.000  C
  C772     1.0000 0.90156  0.13110  0.78352  Biso   1.000  C
  C773     1.0000 0.90156  0.13110  0.78348  Biso   1.000  C
  C774     1.0000 0.90159  0.13107  0.78352  Biso   1.000  C
  C775     1.0000 0.90159  0.13107  0.78348  Biso   1.000  C
  C776     1.0000 0.90159  0.13110  0.78352  Biso   1.000  C
  C777     1.0000 0.90159  0.13110  0.78348  Biso   1.000  C
  C778     1.0000 0.19774  0.07951  0.12788  Biso   1.000  C
  H744     1.0000 0.23232  0.13299  0.07508  Biso   1.000  H
  C779     1.0000 0.19774  0.07955  0.12788  Biso   1.000  C
  H745     1.0000 0.23232  0.13302  0.07508  Biso   1.000  H
  O283     1.0000 0.20471  0.99936  0.00493  Biso   1.000  O
  N544     1.0000 0.19571  0.03241  0.10098  Biso   1.000  N
  O284     1.0000 0.09577  0.15117  0.13952  Biso   1.000  O
  N545     1.0000 0.15359  0.09439  0.15596  Biso   1.000  N
  N546     1.0000 0.93009  0.02081  0.74415  Biso   1.000  N
  H746     1.0000 0.99139  0.01149  0.70072  Biso   1.000  H
  H747     1.0000 0.95980  0.05379  0.67350  Biso   1.000  H
  H748     1.0000 0.99139  0.01149  0.70068  Biso   1.000  H
  N547     1.0000 0.88370  0.08336  0.79302  Biso   1.000  N
  H749     1.0000 0.89419  0.14110  0.74119  Biso   1.000  H
  H750     1.0000 0.88491  0.15302  0.81161  Biso   1.000  H
  H751     1.0000 0.22520  0.08272  0.15670  Biso   1.000  H
  C780     1.0000 0.20460  0.98933  0.13532  Biso   1.000  C
  C781     1.0000 0.14071  0.08193  0.21753  Biso   1.000  C
  C782     1.0000 0.14074  0.08193  0.21753  Biso   1.000  C
  C783     1.0000 0.92490  0.97314  0.75872  Biso   1.000  C
  C784     1.0000 0.88509  0.04621  0.74785  Biso   1.000  C
  C785     1.0000 0.85502  0.07190  0.84166  Biso   1.000  C
  N548     1.0000 0.16390  0.97232  0.16816  Biso   1.000  N
  H752     1.0000 0.21542  0.96421  0.10678  Biso   1.000  H
  H753     1.0000 0.23072  0.99530  0.16469  Biso   1.000  H
  N549     1.0000 0.16390  0.97232  0.16811  Biso   1.000  N
  N550     1.0000 0.12068  0.03426  0.22365  Biso   1.000  N
  H754     1.0000 0.11719  0.10531  0.23278  Biso   1.000  H
  H755     1.0000 0.16942  0.08432  0.24370  Biso   1.000  H
  N551     1.0000 0.12068  0.03426  0.22360  Biso   1.000  N
  O285     1.0000 0.95624  0.94357  0.75516  Biso   1.000  O
  N552     1.0000 0.87932  0.96574  0.77635  Biso   1.000  N
  H756     1.0000 0.87491  0.05820  0.70689  Biso   1.000  H
  C786     1.0000 0.84994  0.00857  0.77265  Biso   1.000  C
  C787     1.0000 0.84997  0.00857  0.77265  Biso   1.000  C
  N553     1.0000 0.83610  0.02768  0.83184  Biso   1.000  N
  N554     1.0000 0.83610  0.02771  0.83184  Biso   1.000  N
  O286     1.0000 0.84698  0.09752  0.88523  Biso   1.000  O
  C788     1.0000 0.15006  0.99143  0.22735  Biso   1.000  C
  C789     1.0000 0.14498  0.92810  0.15834  Biso   1.000  C
  C790     1.0000 0.07510  0.02686  0.24128  Biso   1.000  C
  C791     1.0000 0.85929  0.91807  0.78247  Biso   1.000  C
  C792     1.0000 0.85929  0.91807  0.78243  Biso   1.000  C
  H757     1.0000 0.82201  0.00409  0.74502  Biso   1.000  H
  H758     1.0000 0.82201  0.00409  0.74498  Biso   1.000  H
  C793     1.0000 0.79540  0.01067  0.86468  Biso   1.000  C
  C794     1.0000 0.79540  0.01071  0.86468  Biso   1.000  C
  C795     1.0000 0.79543  0.01067  0.86468  Biso   1.000  C
  C796     1.0000 0.79543  0.01071  0.86468  Biso   1.000  C
  C797     1.0000 0.11491  0.95379  0.25215  Biso   1.000  C
  H759     1.0000 0.17799  0.99591  0.25498  Biso   1.000  H
  C798     1.0000 0.11491  0.95382  0.25215  Biso   1.000  C
  O287     1.0000 0.15302  0.90248  0.11477  Biso   1.000  O
  N555     1.0000 0.11630  0.91664  0.20698  Biso   1.000  N
  O288     1.0000 0.15302  0.90248  0.11472  Biso   1.000  O
  O289     1.0000 0.15302  0.90252  0.11477  Biso   1.000  O
  O290     1.0000 0.15302  0.90252  0.11472  Biso   1.000  O
  O291     1.0000 0.15305  0.90248  0.11477  Biso   1.000  O
  O292     1.0000 0.15305  0.90248  0.11472  Biso   1.000  O
  O293     1.0000 0.15305  0.90252  0.11477  Biso   1.000  O
  O294     1.0000 0.15305  0.90252  0.11472  Biso   1.000  O
  N556     1.0000 0.06991  0.97919  0.25585  Biso   1.000  N
  O295     1.0000 0.04376  0.05643  0.24484  Biso   1.000  O
  N557     1.0000 0.84641  0.90561  0.84404  Biso   1.000  N
  H760     1.0000 0.88281  0.89469  0.76722  Biso   1.000  H
  H761     1.0000 0.83058  0.91568  0.75630  Biso   1.000  H
  N558     1.0000 0.84641  0.90561  0.84399  Biso   1.000  N
  H762     1.0000 0.88281  0.89469  0.76717  Biso   1.000  H
  N559     1.0000 0.84641  0.90565  0.84404  Biso   1.000  N
  H763     1.0000 0.83058  0.91572  0.75630  Biso   1.000  H
  N560     1.0000 0.84641  0.90565  0.84399  Biso   1.000  N
  N561     1.0000 0.84645  0.90561  0.84404  Biso   1.000  N
  H764     1.0000 0.83062  0.91568  0.75630  Biso   1.000  H
  N562     1.0000 0.84645  0.90561  0.84399  Biso   1.000  N
  N563     1.0000 0.84645  0.90565  0.84404  Biso   1.000  N
  H765     1.0000 0.83062  0.91572  0.75630  Biso   1.000  H
  N564     1.0000 0.84645  0.90565  0.84399  Biso   1.000  N
  N565     1.0000 0.80429  0.96759  0.89902  Biso   1.000  N
  H766     1.0000 0.78458  0.03579  0.89322  Biso   1.000  H
  H767     1.0000 0.76928  0.00470  0.83531  Biso   1.000  H
  H768     1.0000 0.78458  0.03579  0.89318  Biso   1.000  H
  H769     1.0000 0.78462  0.03579  0.89322  Biso   1.000  H
  H770     1.0000 0.76932  0.00470  0.83531  Biso   1.000  H
  H771     1.0000 0.78462  0.03579  0.89318  Biso   1.000  H
  H772     1.0000 0.12509  0.94180  0.29311  Biso   1.000  H
  H773     1.0000 0.12509  0.94180  0.29307  Biso   1.000  H
  H774     1.0000 0.12512  0.94180  0.29311  Biso   1.000  H
  H775     1.0000 0.12512  0.94180  0.29307  Biso   1.000  H
  C799     1.0000 0.09844  0.86893  0.21648  Biso   1.000  C
  C800     1.0000 0.02932  0.96140  0.28813  Biso   1.000  C
  C801     1.0000 0.86737  0.86915  0.87532  Biso   1.000  C
  C802     1.0000 0.80226  0.92049  0.87212  Biso   1.000  C
  C803     1.0000 0.86737  0.86915  0.87527  Biso   1.000  C
  C804     1.0000 0.79881  0.96553  0.96091  Biso   1.000  C
  C805     1.0000 0.79885  0.96553  0.96091  Biso   1.000  C
  N566     1.0000 0.04767  0.86477  0.20657  Biso   1.000  N
  H776     1.0000 0.10581  0.85890  0.25881  Biso   1.000  H
  H777     1.0000 0.11509  0.84698  0.18839  Biso   1.000  H
  N567     1.0000 0.04767  0.86477  0.20652  Biso   1.000  N
  H778     1.0000 0.10581  0.85890  0.25877  Biso   1.000  H
  H779     1.0000 0.11509  0.84702  0.18839  Biso   1.000  H
  N568     1.0000 0.00181  0.92749  0.25402  Biso   1.000  N
  H780     1.0000 0.00861  0.98851  0.29928  Biso   1.000  H
  H781     1.0000 0.04020  0.94621  0.32650  Biso   1.000  H
  O296     1.0000 0.90423  0.84883  0.86048  Biso   1.000  O
  N569     1.0000 0.83983  0.85837  0.92442  Biso   1.000  N
  H782     1.0000 0.77480  0.91728  0.84330  Biso   1.000  H
  C806     1.0000 0.79718  0.88676  0.92725  Biso   1.000  C
  C807     1.0000 0.79718  0.88676  0.92720  Biso   1.000  C
  H783     1.0000 0.77480  0.91732  0.84330  Biso   1.000  H
  C808     1.0000 0.79718  0.88679  0.92725  Biso   1.000  C
  C809     1.0000 0.79718  0.88679  0.92720  Biso   1.000  C
  N570     1.0000 0.79632  0.91952  0.97849  Biso   1.000  N
  N571     1.0000 0.79636  0.91952  0.97849  Biso   1.000  N
  O297     1.0000 0.79529  0.00064  0.99507  Biso   1.000  O
  C810     1.0000 0.02853  0.83795  0.16026  Biso   1.000  C
  C811     1.0000 0.02857  0.83795  0.16026  Biso   1.000  C
  C812     1.0000 0.01299  0.87708  0.25155  Biso   1.000  C
  C813     1.0000 0.95507  0.93653  0.23977  Biso   1.000  C
  C814     1.0000 0.84734  0.81624  0.96150  Biso   1.000  C
  C815     1.0000 0.84734  0.81628  0.96150  Biso   1.000  C
  H784     1.0000 0.76768  0.86701  0.92492  Biso   1.000  H
  H785     1.0000 0.76768  0.86701  0.92487  Biso   1.000  H
  H786     1.0000 0.76772  0.86701  0.92492  Biso   1.000  H
  H787     1.0000 0.76772  0.86701  0.92487  Biso   1.000  H
  C816     1.0000 0.78127  0.90604  0.03992  Biso   1.000  C
  N572     1.0000 0.98111  0.83396  0.17003  Biso   1.000  N
  N573     1.0000 0.98111  0.83400  0.17003  Biso   1.000  N
  O298     1.0000 0.05056  0.82012  0.11810  Biso   1.000  O
  C817     1.0000 0.96620  0.85463  0.22744  Biso   1.000  C
  C818     1.0000 0.96620  0.85463  0.22739  Biso   1.000  C
  H788     1.0000 0.02170  0.86442  0.29270  Biso   1.000  H
  N574     1.0000 0.93425  0.89416  0.22246  Biso   1.000  N
  N575     1.0000 0.93425  0.89419  0.22246  Biso   1.000  N
  O299     1.0000 0.93539  0.97460  0.24356  Biso   1.000  O
  O300     1.0000 0.93539  0.97460  0.24351  Biso   1.000  O
  H789     1.0000 0.81681  0.79899  0.96579  Biso   1.000  H
  H790     1.0000 0.87000  0.79490  0.94040  Biso   1.000  H
  N576     1.0000 0.86584  0.82756  0.02238  Biso   1.000  N
  N577     1.0000 0.86584  0.82759  0.02238  Biso   1.000  N
  N578     1.0000 0.81920  0.88722  0.07741  Biso   1.000  N
  H791     1.0000 0.75580  0.88181  0.03672  Biso   1.000  H
  H792     1.0000 0.76761  0.93429  0.06042  Biso   1.000  H
  H793     1.0000 0.75580  0.88181  0.03667  Biso   1.000  H
  H794     1.0000 0.76761  0.93429  0.06038  Biso   1.000  H
  C819     1.0000 0.95183  0.80059  0.13651  Biso   1.000  C
  H795     1.0000 0.95371  0.82991  0.25598  Biso   1.000  H
  C820     1.0000 0.88320  0.88879  0.21899  Biso   1.000  C
  C821     1.0000 0.88320  0.88879  0.21894  Biso   1.000  C
  C822     1.0000 0.91020  0.81592  0.04042  Biso   1.000  C
  C823     1.0000 0.83510  0.83852  0.07344  Biso   1.000  C
  C824     1.0000 0.91020  0.81592  0.04037  Biso   1.000  C
  C825     1.0000 0.91020  0.81596  0.04042  Biso   1.000  C
  C826     1.0000 0.91020  0.81596  0.04037  Biso   1.000  C
  C827     1.0000 0.83435  0.90939  0.12879  Biso   1.000  C
  N579     1.0000 0.91444  0.82293  0.10198  Biso   1.000  N
  H796     1.0000 0.93749  0.77779  0.16560  Biso   1.000  H
  H797     1.0000 0.97229  0.78230  0.10819  Biso   1.000  H
  H798     1.0000 0.93749  0.77782  0.16560  Biso   1.000  H
  H799     1.0000 0.97232  0.78230  0.10819  Biso   1.000  H
  N580     1.0000 0.86545  0.87939  0.15857  Biso   1.000  N
  N581     1.0000 0.86545  0.87943  0.15857  Biso   1.000  N
  N582     1.0000 0.86548  0.87939  0.15857  Biso   1.000  N
  N583     1.0000 0.86548  0.87943  0.15857  Biso   1.000  N
  H800     1.0000 0.86812  0.91821  0.23452  Biso   1.000  H
  H801     1.0000 0.87349  0.86232  0.24612  Biso   1.000  H
  H802     1.0000 0.86812  0.91821  0.23447  Biso   1.000  H
  H803     1.0000 0.87349  0.86232  0.24607  Biso   1.000  H
  H804     1.0000 0.87352  0.86232  0.24612  Biso   1.000  H
  H805     1.0000 0.87352  0.86232  0.24607  Biso   1.000  H
  O301     1.0000 0.94269  0.80176  0.00735  Biso   1.000  O
  H806     1.0000 0.80781  0.81578  0.07600  Biso   1.000  H
  C828     1.0000 0.86844  0.83361  0.12911  Biso   1.000  C
  H807     1.0000 0.80781  0.81582  0.07600  Biso   1.000  H
  C829     1.0000 0.86847  0.83361  0.12911  Biso   1.000  C
  O302     1.0000 0.82165  0.94824  0.14779  Biso   1.000  O
  H808     1.0000 0.85780  0.80749  0.15688  Biso   1.000  H
  C830     1.0000 0.13156  0.16639  0.87089  Biso   1.000  C
  N584     1.0000 0.13455  0.12061  0.84143  Biso   1.000  N
  N585     1.0000 0.13455  0.12061  0.84139  Biso   1.000  N
  N586     1.0000 0.08556  0.17707  0.89802  Biso   1.000  N
  N587     1.0000 0.08556  0.17707  0.89797  Biso   1.000  N
  N588     1.0000 0.08556  0.17710  0.89802  Biso   1.000  N
  N589     1.0000 0.08556  0.17710  0.89797  Biso   1.000  N
  N590     1.0000 0.08560  0.17707  0.89802  Biso   1.000  N
  N591     1.0000 0.08560  0.17707  0.89797  Biso   1.000  N
  N592     1.0000 0.08560  0.17710  0.89802  Biso   1.000  N
  N593     1.0000 0.08560  0.17710  0.89797  Biso   1.000  N
  C831     1.0000 0.16490  0.16148  0.92656  Biso   1.000  C
  H809     1.0000 0.14220  0.19251  0.84312  Biso   1.000  H
  H810     1.0000 0.14220  0.19251  0.84308  Biso   1.000  H
  C832     1.0000 0.11680  0.11121  0.78101  Biso   1.000  C
  C833     1.0000 0.11680  0.11125  0.78101  Biso   1.000  C
  C834     1.0000 0.11684  0.11121  0.78101  Biso   1.000  C
  C835     1.0000 0.11684  0.11125  0.78101  Biso   1.000  C
  C836     1.0000 0.16565  0.09061  0.87121  Biso   1.000  C
  C837     1.0000 0.16565  0.09061  0.87116  Biso   1.000  C
  C838     1.0000 0.04817  0.19941  0.86349  Biso   1.000  C
  C839     1.0000 0.08980  0.18408  0.95958  Biso   1.000  C
  N594     1.0000 0.18080  0.11278  0.92259  Biso   1.000  N
  N595     1.0000 0.13416  0.17244  0.97762  Biso   1.000  N
  H811     1.0000 0.19219  0.18422  0.92400  Biso   1.000  H
  H812     1.0000 0.19222  0.18422  0.92400  Biso   1.000  H
  N596     1.0000 0.06575  0.10584  0.77754  Biso   1.000  N
  N597     1.0000 0.06575  0.10584  0.77749  Biso   1.000  N
  H813     1.0000 0.13188  0.08179  0.76548  Biso   1.000  H
  H814     1.0000 0.12651  0.13768  0.75388  Biso   1.000  H
  H815     1.0000 0.12651  0.13772  0.75388  Biso   1.000  H
  H816     1.0000 0.13192  0.08179  0.76548  Biso   1.000  H
  O303     1.0000 0.17835  0.05176  0.85221  Biso   1.000  O
  O304     1.0000 0.17835  0.05176  0.85216  Biso   1.000  O
  O305     1.0000 0.17835  0.05180  0.85221  Biso   1.000  O
  O306     1.0000 0.17835  0.05180  0.85216  Biso   1.000  O
  O307     1.0000 0.17838  0.05176  0.85221  Biso   1.000  O
  O308     1.0000 0.17838  0.05176  0.85216  Biso   1.000  O
  O309     1.0000 0.17838  0.05180  0.85221  Biso   1.000  O
  O310     1.0000 0.17838  0.05180  0.85216  Biso   1.000  O
  N598     1.0000 0.01889  0.16604  0.82997  Biso   1.000  N
  N599     1.0000 0.01889  0.16604  0.82992  Biso   1.000  N
  H817     1.0000 0.06251  0.22221  0.83440  Biso   1.000  H
  H818     1.0000 0.02771  0.21770  0.89181  Biso   1.000  H
  O311     1.0000 0.05731  0.19824  0.99265  Biso   1.000  O
  C840     1.0000 0.21873  0.09396  0.96008  Biso   1.000  C
  C841     1.0000 0.15266  0.18376  0.03850  Biso   1.000  C
  C842     1.0000 0.04493  0.06347  0.76023  Biso   1.000  C
  C843     1.0000 0.04493  0.06347  0.76018  Biso   1.000  C
  C844     1.0000 0.04493  0.06351  0.76023  Biso   1.000  C
  C845     1.0000 0.04493  0.06351  0.76018  Biso   1.000  C
  C846     1.0000 0.04497  0.06347  0.76023  Biso   1.000  C
  C847     1.0000 0.04497  0.06347  0.76018  Biso   1.000  C
  C848     1.0000 0.04497  0.06351  0.76023  Biso   1.000  C
  C849     1.0000 0.04497  0.06351  0.76018  Biso   1.000  C
  C850     1.0000 0.03380  0.14537  0.77256  Biso   1.000  C
  C851     1.0000 0.03383  0.14537  0.77256  Biso   1.000  C
  C852     1.0000 0.97147  0.16205  0.83974  Biso   1.000  C
  C853     1.0000 0.97147  0.16205  0.83970  Biso   1.000  C
  H819     1.0000 0.24420  0.11819  0.96328  Biso   1.000  H
  H820     1.0000 0.23239  0.06571  0.93958  Biso   1.000  H
  H821     1.0000 0.24420  0.11822  0.96328  Biso   1.000  H
  H822     1.0000 0.23242  0.06571  0.93958  Biso   1.000  H
  N600     1.0000 0.20368  0.08048  0.02151  Biso   1.000  N
  N601     1.0000 0.20368  0.08048  0.02147  Biso   1.000  N
  N602     1.0000 0.20368  0.08051  0.02151  Biso   1.000  N
  N603     1.0000 0.20368  0.08051  0.02147  Biso   1.000  N
  N604     1.0000 0.16017  0.14163  0.07558  Biso   1.000  N
  H823     1.0000 0.18319  0.20101  0.03421  Biso   1.000  H
  H824     1.0000 0.13000  0.20510  0.05960  Biso   1.000  H
  N605     1.0000 0.16020  0.14163  0.07558  Biso   1.000  N
  H825     1.0000 0.18322  0.20101  0.03421  Biso   1.000  H
  O312     1.0000 0.06461  0.02540  0.75644  Biso   1.000  O
  N606     1.0000 0.99819  0.07251  0.74598  Biso   1.000  N
  N607     1.0000 0.99822  0.07251  0.74598  Biso   1.000  N
  C854     1.0000 0.98701  0.12292  0.74845  Biso   1.000  C
  C855     1.0000 0.98701  0.12292  0.74840  Biso   1.000  C
  H826     1.0000 0.04629  0.17009  0.74402  Biso   1.000  H
  H827     1.0000 0.04629  0.17009  0.74397  Biso   1.000  H
  H828     1.0000 0.04632  0.17009  0.74402  Biso   1.000  H
  H829     1.0000 0.04632  0.17009  0.74397  Biso   1.000  H
  N608     1.0000 0.95233  0.13523  0.79343  Biso   1.000  N
  O313     1.0000 0.94944  0.17988  0.88190  Biso   1.000  O
  O314     1.0000 0.94944  0.17988  0.88185  Biso   1.000  O
  O315     1.0000 0.94948  0.17988  0.88190  Biso   1.000  O
  O316     1.0000 0.94948  0.17988  0.88185  Biso   1.000  O
  C856     1.0000 0.20282  0.11324  0.07275  Biso   1.000  C
  C857     1.0000 0.20119  0.03447  0.03909  Biso   1.000  C
  C858     1.0000 0.20286  0.11324  0.07275  Biso   1.000  C
  C859     1.0000 0.13263  0.13085  0.12468  Biso   1.000  C
  C860     1.0000 0.97068  0.03860  0.71187  Biso   1.000  C
  H830     1.0000 0.97830  0.13558  0.70730  Biso   1.000  H
  H831     1.0000 0.97830  0.13562  0.70730  Biso   1.000  H
  C861     1.0000 0.90156  0.13107  0.78352  Biso   1.000  C
  C862     1.0000 0.90156  0.13107  0.78348  Biso   1.000  C
  C863     1.0000 0.90156  0.13110  0.78352  Biso   1.000  C
  C864     1.0000 0.90156  0.13110  0.78348  Biso   1.000  C
  C865     1.0000 0.90159  0.13107  0.78352  Biso   1.000  C
  C866     1.0000 0.90159  0.13107  0.78348  Biso   1.000  C
  C867     1.0000 0.90159  0.13110  0.78352  Biso   1.000  C
  C868     1.0000 0.90159  0.13110  0.78348  Biso   1.000  C
  C869     1.0000 0.19774  0.07951  0.12788  Biso   1.000  C
  H832     1.0000 0.23232  0.13299  0.07508  Biso   1.000  H
  C870     1.0000 0.19774  0.07955  0.12788  Biso   1.000  C
  H833     1.0000 0.23232  0.13302  0.07508  Biso   1.000  H
  O317     1.0000 0.20471  0.99936  0.00493  Biso   1.000  O
  N609     1.0000 0.19571  0.03241  0.10098  Biso   1.000  N
  O318     1.0000 0.09577  0.15117  0.13952  Biso   1.000  O
  N610     1.0000 0.15359  0.09439  0.15596  Biso   1.000  N
  N611     1.0000 0.93009  0.02081  0.74415  Biso   1.000  N
  H834     1.0000 0.99139  0.01149  0.70072  Biso   1.000  H
  H835     1.0000 0.95980  0.05379  0.67350  Biso   1.000  H
  H836     1.0000 0.99139  0.01149  0.70068  Biso   1.000  H
  N612     1.0000 0.88370  0.08336  0.79302  Biso   1.000  N
  H837     1.0000 0.89419  0.14110  0.74119  Biso   1.000  H
  H838     1.0000 0.88491  0.15302  0.81161  Biso   1.000  H
  H839     1.0000 0.22520  0.08272  0.15670  Biso   1.000  H
  C871     1.0000 0.20460  0.98933  0.13532  Biso   1.000  C
  C872     1.0000 0.14071  0.08193  0.21753  Biso   1.000  C
  C873     1.0000 0.14074  0.08193  0.21753  Biso   1.000  C
  C874     1.0000 0.92490  0.97314  0.75872  Biso   1.000  C
  C875     1.0000 0.88509  0.04621  0.74785  Biso   1.000  C
  C876     1.0000 0.85502  0.07190  0.84166  Biso   1.000  C
  N613     1.0000 0.16390  0.97232  0.16816  Biso   1.000  N
  H840     1.0000 0.21542  0.96421  0.10678  Biso   1.000  H
  H841     1.0000 0.23072  0.99530  0.16469  Biso   1.000  H
  N614     1.0000 0.16390  0.97232  0.16811  Biso   1.000  N
  N615     1.0000 0.12068  0.03426  0.22365  Biso   1.000  N
  H842     1.0000 0.11719  0.10531  0.23278  Biso   1.000  H
  H843     1.0000 0.16942  0.08432  0.24370  Biso   1.000  H
  N616     1.0000 0.12068  0.03426  0.22360  Biso   1.000  N
  O319     1.0000 0.95624  0.94357  0.75516  Biso   1.000  O
  N617     1.0000 0.87932  0.96574  0.77635  Biso   1.000  N
  H844     1.0000 0.87491  0.05820  0.70689  Biso   1.000  H
  C877     1.0000 0.84994  0.00857  0.77265  Biso   1.000  C
  C878     1.0000 0.84997  0.00857  0.77265  Biso   1.000  C
  N618     1.0000 0.83610  0.02768  0.83184  Biso   1.000  N
  N619     1.0000 0.83610  0.02771  0.83184  Biso   1.000  N
  O320     1.0000 0.84698  0.09752  0.88523  Biso   1.000  O
  C879     1.0000 0.15006  0.99143  0.22735  Biso   1.000  C
  C880     1.0000 0.14498  0.92810  0.15834  Biso   1.000  C
  C881     1.0000 0.07510  0.02686  0.24128  Biso   1.000  C
  C882     1.0000 0.85929  0.91807  0.78247  Biso   1.000  C
  C883     1.0000 0.85929  0.91807  0.78243  Biso   1.000  C
  H845     1.0000 0.82201  0.00409  0.74502  Biso   1.000  H
  H846     1.0000 0.82201  0.00409  0.74498  Biso   1.000  H
  C884     1.0000 0.79540  0.01067  0.86468  Biso   1.000  C
  C885     1.0000 0.79540  0.01071  0.86468  Biso   1.000  C
  C886     1.0000 0.79543  0.01067  0.86468  Biso   1.000  C
  C887     1.0000 0.79543  0.01071  0.86468  Biso   1.000  C
  C888     1.0000 0.11491  0.95379  0.25215  Biso   1.000  C
  H847     1.0000 0.17799  0.99591  0.25498  Biso   1.000  H
  C889     1.0000 0.11491  0.95382  0.25215  Biso   1.000  C
  O321     1.0000 0.15302  0.90248  0.11477  Biso   1.000  O
  N620     1.0000 0.11630  0.91664  0.20698  Biso   1.000  N
  O322     1.0000 0.15302  0.90248  0.11472  Biso   1.000  O
  O323     1.0000 0.15302  0.90252  0.11477  Biso   1.000  O
  O324     1.0000 0.15302  0.90252  0.11472  Biso   1.000  O
  O325     1.0000 0.15305  0.90248  0.11477  Biso   1.000  O
  O326     1.0000 0.15305  0.90248  0.11472  Biso   1.000  O
  O327     1.0000 0.15305  0.90252  0.11477  Biso   1.000  O
  O328     1.0000 0.15305  0.90252  0.11472  Biso   1.000  O
  N621     1.0000 0.06991  0.97919  0.25585  Biso   1.000  N
  O329     1.0000 0.04376  0.05643  0.24484  Biso   1.000  O
  N622     1.0000 0.84641  0.90561  0.84404  Biso   1.000  N
  H848     1.0000 0.88281  0.89469  0.76722  Biso   1.000  H
  H849     1.0000 0.83058  0.91568  0.75630  Biso   1.000  H
  N623     1.0000 0.84641  0.90561  0.84399  Biso   1.000  N
  H850     1.0000 0.88281  0.89469  0.76717  Biso   1.000  H
  N624     1.0000 0.84641  0.90565  0.84404  Biso   1.000  N
  H851     1.0000 0.83058  0.91572  0.75630  Biso   1.000  H
  N625     1.0000 0.84641  0.90565  0.84399  Biso   1.000  N
  N626     1.0000 0.84645  0.90561  0.84404  Biso   1.000  N
  H852     1.0000 0.83062  0.91568  0.75630  Biso   1.000  H
  N627     1.0000 0.84645  0.90561  0.84399  Biso   1.000  N
  N628     1.0000 0.84645  0.90565  0.84404  Biso   1.000  N
  H853     1.0000 0.83062  0.91572  0.75630  Biso   1.000  H
  N629     1.0000 0.84645  0.90565  0.84399  Biso   1.000  N
  N630     1.0000 0.80429  0.96759  0.89902  Biso   1.000  N
  H854     1.0000 0.78458  0.03579  0.89322  Biso   1.000  H
  H855     1.0000 0.76928  0.00470  0.83531  Biso   1.000  H
  H856     1.0000 0.78458  0.03579  0.89318  Biso   1.000  H
  H857     1.0000 0.78462  0.03579  0.89322  Biso   1.000  H
  H858     1.0000 0.76932  0.00470  0.83531  Biso   1.000  H
  H859     1.0000 0.78462  0.03579  0.89318  Biso   1.000  H
  H860     1.0000 0.12509  0.94180  0.29311  Biso   1.000  H
  H861     1.0000 0.12509  0.94180  0.29307  Biso   1.000  H
  H862     1.0000 0.12512  0.94180  0.29311  Biso   1.000  H
  H863     1.0000 0.12512  0.94180  0.29307  Biso   1.000  H
  C890     1.0000 0.09844  0.86893  0.21648  Biso   1.000  C
  C891     1.0000 0.02932  0.96140  0.28813  Biso   1.000  C
  C892     1.0000 0.86737  0.86915  0.87532  Biso   1.000  C
  C893     1.0000 0.80226  0.92049  0.87212  Biso   1.000  C
  C894     1.0000 0.86737  0.86915  0.87527  Biso   1.000  C
  C895     1.0000 0.79881  0.96553  0.96091  Biso   1.000  C
  C896     1.0000 0.79885  0.96553  0.96091  Biso   1.000  C
  N631     1.0000 0.04767  0.86477  0.20657  Biso   1.000  N
  H864     1.0000 0.10581  0.85890  0.25881  Biso   1.000  H
  H865     1.0000 0.11509  0.84698  0.18839  Biso   1.000  H
  N632     1.0000 0.04767  0.86477  0.20652  Biso   1.000  N
  H866     1.0000 0.10581  0.85890  0.25877  Biso   1.000  H
  H867     1.0000 0.11509  0.84702  0.18839  Biso   1.000  H
  N633     1.0000 0.00181  0.92749  0.25402  Biso   1.000  N
  H868     1.0000 0.00861  0.98851  0.29928  Biso   1.000  H
  H869     1.0000 0.04020  0.94621  0.32650  Biso   1.000  H
  O330     1.0000 0.90423  0.84883  0.86048  Biso   1.000  O
  N634     1.0000 0.83983  0.85837  0.92442  Biso   1.000  N
  H870     1.0000 0.77480  0.91728  0.84330  Biso   1.000  H
  C897     1.0000 0.79718  0.88676  0.92725  Biso   1.000  C
  C898     1.0000 0.79718  0.88676  0.92720  Biso   1.000  C
  H871     1.0000 0.77480  0.91732  0.84330  Biso   1.000  H
  C899     1.0000 0.79718  0.88679  0.92725  Biso   1.000  C
  C900     1.0000 0.79718  0.88679  0.92720  Biso   1.000  C
  N635     1.0000 0.79632  0.91952  0.97849  Biso   1.000  N
  N636     1.0000 0.79636  0.91952  0.97849  Biso   1.000  N
  O331     1.0000 0.79529  0.00064  0.99507  Biso   1.000  O
  C901     1.0000 0.02853  0.83795  0.16026  Biso   1.000  C
  C902     1.0000 0.02857  0.83795  0.16026  Biso   1.000  C
  C903     1.0000 0.01299  0.87708  0.25155  Biso   1.000  C
  C904     1.0000 0.95507  0.93653  0.23977  Biso   1.000  C
  C905     1.0000 0.84734  0.81624  0.96150  Biso   1.000  C
  C906     1.0000 0.84734  0.81628  0.96150  Biso   1.000  C
  H872     1.0000 0.76768  0.86701  0.92492  Biso   1.000  H
  H873     1.0000 0.76768  0.86701  0.92487  Biso   1.000  H
  H874     1.0000 0.76772  0.86701  0.92492  Biso   1.000  H
  H875     1.0000 0.76772  0.86701  0.92487  Biso   1.000  H
  C907     1.0000 0.78127  0.90604  0.03992  Biso   1.000  C
  N637     1.0000 0.98111  0.83396  0.17003  Biso   1.000  N
  N638     1.0000 0.98111  0.83400  0.17003  Biso   1.000  N
  O332     1.0000 0.05056  0.82012  0.11810  Biso   1.000  O
  C908     1.0000 0.96620  0.85463  0.22744  Biso   1.000  C
  C909     1.0000 0.96620  0.85463  0.22739  Biso   1.000  C
  H876     1.0000 0.02170  0.86442  0.29270  Biso   1.000  H
  N639     1.0000 0.93425  0.89416  0.22246  Biso   1.000  N
  N640     1.0000 0.93425  0.89419  0.22246  Biso   1.000  N
  O333     1.0000 0.93539  0.97460  0.24356  Biso   1.000  O
  O334     1.0000 0.93539  0.97460  0.24351  Biso   1.000  O
  H877     1.0000 0.81681  0.79899  0.96579  Biso   1.000  H
  H878     1.0000 0.87000  0.79490  0.94040  Biso   1.000  H
  N641     1.0000 0.86584  0.82756  0.02238  Biso   1.000  N
  N642     1.0000 0.86584  0.82759  0.02238  Biso   1.000  N
  N643     1.0000 0.81920  0.88722  0.07741  Biso   1.000  N
  H879     1.0000 0.75580  0.88181  0.03672  Biso   1.000  H
  H880     1.0000 0.76761  0.93429  0.06042  Biso   1.000  H
  H881     1.0000 0.75580  0.88181  0.03667  Biso   1.000  H
  H882     1.0000 0.76761  0.93429  0.06038  Biso   1.000  H
  C910     1.0000 0.95183  0.80059  0.13651  Biso   1.000  C
  H883     1.0000 0.95371  0.82991  0.25598  Biso   1.000  H
  C911     1.0000 0.88320  0.88879  0.21899  Biso   1.000  C
  C912     1.0000 0.88320  0.88879  0.21894  Biso   1.000  C
  C913     1.0000 0.91020  0.81592  0.04042  Biso   1.000  C
  C914     1.0000 0.83510  0.83852  0.07344  Biso   1.000  C
  C915     1.0000 0.91020  0.81592  0.04037  Biso   1.000  C
  C916     1.0000 0.91020  0.81596  0.04042  Biso   1.000  C
  C917     1.0000 0.91020  0.81596  0.04037  Biso   1.000  C
  C918     1.0000 0.83435  0.90939  0.12879  Biso   1.000  C
  N644     1.0000 0.91444  0.82293  0.10198  Biso   1.000  N
  H884     1.0000 0.93749  0.77779  0.16560  Biso   1.000  H
  H885     1.0000 0.97229  0.78230  0.10819  Biso   1.000  H
  H886     1.0000 0.93749  0.77782  0.16560  Biso   1.000  H
  H887     1.0000 0.97232  0.78230  0.10819  Biso   1.000  H
  N645     1.0000 0.86545  0.87939  0.15857  Biso   1.000  N
  N646     1.0000 0.86545  0.87943  0.15857  Biso   1.000  N
  N647     1.0000 0.86548  0.87939  0.15857  Biso   1.000  N
  N648     1.0000 0.86548  0.87943  0.15857  Biso   1.000  N
  H888     1.0000 0.86812  0.91821  0.23452  Biso   1.000  H
  H889     1.0000 0.87349  0.86232  0.24612  Biso   1.000  H
  H890     1.0000 0.86812  0.91821  0.23447  Biso   1.000  H
  H891     1.0000 0.87349  0.86232  0.24607  Biso   1.000  H
  H892     1.0000 0.87352  0.86232  0.24612  Biso   1.000  H
  H893     1.0000 0.87352  0.86232  0.24607  Biso   1.000  H
  O335     1.0000 0.94269  0.80176  0.00735  Biso   1.000  O
  H894     1.0000 0.80781  0.81578  0.07600  Biso   1.000  H
  C919     1.0000 0.86844  0.83361  0.12911  Biso   1.000  C
  H895     1.0000 0.80781  0.81582  0.07600  Biso   1.000  H
  C920     1.0000 0.86847  0.83361  0.12911  Biso   1.000  C
  O336     1.0000 0.82165  0.94824  0.14779  Biso   1.000  O
  H896     1.0000 0.85780  0.80749  0.15688  Biso   1.000  H
  O337     1.0000 0.65252  0.59698  0.86472  Biso   1.000  O
  C921     1.0000 0.67810  0.60502  0.90834  Biso   1.000  C
  N649     1.0000 0.72232  0.58610  0.91811  Biso   1.000  N
  N650     1.0000 0.66664  0.63370  0.95698  Biso   1.000  N
  C922     1.0000 0.73933  0.54540  0.88532  Biso   1.000  C
  C923     1.0000 0.74143  0.59997  0.97735  Biso   1.000  C
  C924     1.0000 0.70382  0.63509  0.00215  Biso   1.000  C
  C925     1.0000 0.61893  0.65156  0.96648  Biso   1.000  C
  N651     1.0000 0.78241  0.55429  0.85098  Biso   1.000  N
  H897     1.0000 0.71421  0.53462  0.85678  Biso   1.000  H
  H898     1.0000 0.74530  0.51932  0.91469  Biso   1.000  H
  N652     1.0000 0.78426  0.62932  0.97360  Biso   1.000  N
  H899     1.0000 0.74591  0.57201  0.00498  Biso   1.000  H
  N653     1.0000 0.72919  0.68009  0.00585  Biso   1.000  N
  H900     1.0000 0.69180  0.62491  0.04311  Biso   1.000  H
  N654     1.0000 0.61477  0.70233  0.95652  Biso   1.000  N
  H901     1.0000 0.59702  0.63491  0.93839  Biso   1.000  H
  H902     1.0000 0.60890  0.64419  0.00877  Biso   1.000  H
  C926     1.0000 0.78447  0.54885  0.78909  Biso   1.000  C
  C927     1.0000 0.82955  0.55226  0.87788  Biso   1.000  C
  C928     1.0000 0.83193  0.60929  0.96753  Biso   1.000  C
  C929     1.0000 0.77686  0.67490  0.99128  Biso   1.000  C
  C930     1.0000 0.71140  0.72068  0.03813  Biso   1.000  C
  C931     1.0000 0.58795  0.72147  0.91026  Biso   1.000  C
  C932     1.0000 0.62708  0.73701  0.00155  Biso   1.000  C
  N655     1.0000 0.83051  0.54636  0.77147  Biso   1.000  N
  O338     1.0000 0.74936  0.54529  0.75493  Biso   1.000  O
  C933     1.0000 0.86324  0.54718  0.82275  Biso   1.000  C
  N656     1.0000 0.84439  0.59645  0.90596  Biso   1.000  N
  H903     1.0000 0.83272  0.52480  0.90670  Biso   1.000  H
  H904     1.0000 0.85531  0.63281  0.98278  Biso   1.000  H
  H905     1.0000 0.83432  0.58062  0.99370  Biso   1.000  H
  O339     1.0000 0.80643  0.70624  0.99484  Biso   1.000  O
  N657     1.0000 0.67749  0.74822  0.00402  Biso   1.000  N
  H906     1.0000 0.73851  0.74139  0.04928  Biso   1.000  H
  H907     1.0000 0.69621  0.70980  0.07650  Biso   1.000  H
  O340     1.0000 0.57012  0.69948  0.86810  Biso   1.000  O
  N658     1.0000 0.58400  0.76889  0.92003  Biso   1.000  N
  C934     1.0000 0.60463  0.78380  0.97739  Biso   1.000  C
  H908     1.0000 0.61442  0.72830  0.04270  Biso   1.000  H
  C935     1.0000 0.84396  0.53127  0.71008  Biso   1.000  C
  N659     1.0000 0.89163  0.58983  0.82558  Biso   1.000  N
  H909     1.0000 0.88302  0.51772  0.82508  Biso   1.000  H
  C936     1.0000 0.88085  0.61737  0.87468  Biso   1.000  C
  C937     1.0000 0.68653  0.79497  0.98977  Biso   1.000  C
  C938     1.0000 0.55059  0.79817  0.88651  Biso   1.000  C
  N660     1.0000 0.64416  0.81575  0.97246  Biso   1.000  N
  H910     1.0000 0.57991  0.79632  0.00598  Biso   1.000  H
  N661     1.0000 0.86278  0.56920  0.67259  Biso   1.000  N
  H911     1.0000 0.86822  0.50580  0.71328  Biso   1.000  H
  H912     1.0000 0.81571  0.51761  0.68958  Biso   1.000  H
  C939     1.0000 0.93376  0.59734  0.78850  Biso   1.000  C
  O341     1.0000 0.90117  0.65423  0.88952  Biso   1.000  O
  O342     1.0000 0.72460  0.81461  0.99351  Biso   1.000  O
  H913     1.0000 0.52782  0.81251  0.91560  Biso   1.000  H
  H914     1.0000 0.53230  0.77771  0.85819  Biso   1.000  H
  N662     1.0000 0.57293  0.83560  0.85198  Biso   1.000  N
  C940     1.0000 0.63879  0.86680  0.96894  Biso   1.000  C
  C941     1.0000 0.84061  0.58435  0.62116  Biso   1.000  C
  C942     1.0000 0.91148  0.58510  0.67656  Biso   1.000  C
  N663     1.0000 0.92244  0.61584  0.72762  Biso   1.000  N
  H915     1.0000 0.95101  0.56681  0.78421  Biso   1.000  H
  H916     1.0000 0.95510  0.62000  0.80960  Biso   1.000  H
  C943     1.0000 0.56596  0.83980  0.79037  Biso   1.000  C
  C944     1.0000 0.58361  0.88156  0.87911  Biso   1.000  C
  H917     1.0000 0.66821  0.88192  0.98447  Biso   1.000  H
  H918     1.0000 0.61232  0.87651  0.99607  Biso   1.000  H
  N664     1.0000 0.62943  0.88455  0.90857  Biso   1.000  N
  O343     1.0000 0.80180  0.57165  0.60216  Biso   1.000  O
  N665     1.0000 0.87061  0.61545  0.59139  Biso   1.000  N
  C945     1.0000 0.91639  0.61847  0.62089  Biso   1.000  C
  H919     1.0000 0.93422  0.55781  0.67400  Biso   1.000  H
  C946     1.0000 0.93408  0.66020  0.70958  Biso   1.000  C
  N666     1.0000 0.57756  0.88416  0.77238  Biso   1.000  N
  O344     1.0000 0.55176  0.80731  0.75735  Biso   1.000  O
  C947     1.0000 0.58852  0.91490  0.82344  Biso   1.000  C
  H920     1.0000 0.55749  0.89220  0.90688  Biso   1.000  H
  C948     1.0000 0.65939  0.91565  0.87879  Biso   1.000  C
  C949     1.0000 0.86125  0.63320  0.53101  Biso   1.000  C
  N667     1.0000 0.92710  0.66444  0.64797  Biso   1.000  N
  H921     1.0000 0.94251  0.60780  0.59308  Biso   1.000  H
  O345     1.0000 0.94824  0.69269  0.74265  Biso   1.000  O
  C950     1.0000 0.56628  0.90266  0.71150  Biso   1.000  C
  N668     1.0000 0.63722  0.93080  0.82741  Biso   1.000  N
  H922     1.0000 0.56582  0.94222  0.82600  Biso   1.000  H
  O346     1.0000 0.69824  0.92838  0.89779  Biso   1.000  O
  N669     1.0000 0.85584  0.68425  0.52749  Biso   1.000  N
  H923     1.0000 0.83179  0.61812  0.51548  Biso   1.000  H
  H924     1.0000 0.88772  0.62349  0.50388  Biso   1.000  H
  C951     1.0000 0.94941  0.70183  0.61349  Biso   1.000  C
  N670     1.0000 0.60837  0.91020  0.67442  Biso   1.000  N
  H925     1.0000 0.54899  0.93322  0.71579  Biso   1.000  H
  H926     1.0000 0.54490  0.88000  0.69040  Biso   1.000  H
  C952     1.0000 0.65604  0.96873  0.78992  Biso   1.000  C
  C953     1.0000 0.81347  0.70507  0.51018  Biso   1.000  C
  C954     1.0000 0.89537  0.71620  0.52256  Biso   1.000  C
  N671     1.0000 0.91604  0.73111  0.57992  Biso   1.000  N
  H927     1.0000 0.97221  0.68749  0.58440  Biso   1.000  H
  H928     1.0000 0.96770  0.72232  0.64181  Biso   1.000  H
  C955     1.0000 0.61915  0.88263  0.62527  Biso   1.000  C
  C956     1.0000 0.63676  0.95286  0.67720  Biso   1.000  C
  N672     1.0000 0.66952  0.95368  0.72849  Biso   1.000  N
  H929     1.0000 0.63181  0.99420  0.78667  Biso   1.000  H
  H930     1.0000 0.68429  0.98239  0.81038  Biso   1.000  H
  O347     1.0000 0.77540  0.68539  0.50644  Biso   1.000  O
  N673     1.0000 0.82251  0.75181  0.49598  Biso   1.000  N
  H931     1.0000 0.92009  0.70371  0.49402  Biso   1.000  H
  C957     1.0000 0.87292  0.76299  0.49845  Biso   1.000  C
  C958     1.0000 0.91205  0.77857  0.58970  Biso   1.000  C
  N674     1.0000 0.65565  0.90359  0.59404  Biso   1.000  N
  O348     1.0000 0.59883  0.84577  0.61048  Biso   1.000  O
  C959     1.0000 0.67049  0.94774  0.62212  Biso   1.000  C
  H932     1.0000 0.61701  0.98232  0.67487  Biso   1.000  H
  C960     1.0000 0.71553  0.95119  0.71091  Biso   1.000  C
  C961     1.0000 0.78860  0.77932  0.46187  Biso   1.000  C
  N675     1.0000 0.88523  0.79767  0.54343  Biso   1.000  N
  H933     1.0000 0.88562  0.77170  0.45730  Biso   1.000  H
  O349     1.0000 0.92988  0.80056  0.63190  Biso   1.000  O
  C962     1.0000 0.66807  0.89074  0.53243  Biso   1.000  C
  N676     1.0000 0.71759  0.94571  0.64902  Biso   1.000  N
  H934     1.0000 0.66732  0.97520  0.59330  Biso   1.000  H
  O350     1.0000 0.75064  0.95471  0.74507  Biso   1.000  O
  N677     1.0000 0.77081  0.81991  0.49415  Biso   1.000  N
  H935     1.0000 0.76149  0.75861  0.45068  Biso   1.000  H
  H936     1.0000 0.80379  0.79020  0.42350  Biso   1.000  H
  C963     1.0000 0.88110  0.84844  0.53348  Biso   1.000  C
  N678     1.0000 0.71574  0.87068  0.52635  Biso   1.000  N
  H937     1.0000 0.64469  0.86719  0.51722  Biso   1.000  H
  H938     1.0000 0.66572  0.91942  0.50630  Biso   1.000  H
  C964     1.0000 0.76071  0.95460  0.61468  Biso   1.000  C
  C965     1.0000 0.72314  0.82510  0.50872  Biso   1.000  C
  C966     1.0000 0.79621  0.86491  0.49785  Biso   1.000  C
  N679     1.0000 0.83336  0.86630  0.54302  Biso   1.000  N
  H939     1.0000 0.89110  0.85581  0.49119  Biso   1.000  H
  H940     1.0000 0.90302  0.86509  0.56161  Biso   1.000  H
  C967     1.0000 0.75857  0.90006  0.52265  Biso   1.000  C
  N680     1.0000 0.77768  0.91390  0.58184  Biso   1.000  N
  H941     1.0000 0.78579  0.96542  0.64318  Biso   1.000  H
  H942     1.0000 0.75470  0.98072  0.58531  Biso   1.000  H
  O351     1.0000 0.69357  0.79376  0.50516  Biso   1.000  O
  H943     1.0000 0.80820  0.87509  0.45689  Biso   1.000  H
  C968     1.0000 0.82190  0.89498  0.59166  Biso   1.000  C
  H944     1.0000 0.75409  0.92799  0.49498  Biso   1.000  H
  O352     1.0000 0.84752  0.90305  0.63523  Biso   1.000  O
  O353     1.0000 0.44269  0.80176  0.49265  Biso   1.000  O
  C969     1.0000 0.41020  0.81592  0.45958  Biso   1.000  C
  C970     1.0000 0.41020  0.81596  0.45958  Biso   1.000  C
  N681     1.0000 0.41444  0.82293  0.39802  Biso   1.000  N
  N682     1.0000 0.36584  0.82756  0.47762  Biso   1.000  N
  N683     1.0000 0.36584  0.82759  0.47762  Biso   1.000  N
  C971     1.0000 0.45183  0.80059  0.36349  Biso   1.000  C
  C972     1.0000 0.36844  0.83361  0.37089  Biso   1.000  C
  C973     1.0000 0.33510  0.83852  0.42656  Biso   1.000  C
  C974     1.0000 0.34734  0.81624  0.53850  Biso   1.000  C
  C975     1.0000 0.34734  0.81628  0.53850  Biso   1.000  C
  N684     1.0000 0.48111  0.83396  0.32997  Biso   1.000  N
  H945     1.0000 0.43749  0.77779  0.33440  Biso   1.000  H
  H946     1.0000 0.47232  0.78230  0.39181  Biso   1.000  H
  N685     1.0000 0.48111  0.83400  0.32997  Biso   1.000  N
  H947     1.0000 0.43749  0.77782  0.33440  Biso   1.000  H
  N686     1.0000 0.36545  0.87939  0.34139  Biso   1.000  N
  H948     1.0000 0.35780  0.80749  0.34308  Biso   1.000  H
  N687     1.0000 0.36545  0.87943  0.34139  Biso   1.000  N
  N688     1.0000 0.31920  0.88722  0.42259  Biso   1.000  N
  H949     1.0000 0.30781  0.81578  0.42400  Biso   1.000  H
  H950     1.0000 0.30781  0.81582  0.42400  Biso   1.000  H
  N689     1.0000 0.33983  0.85837  0.57558  Biso   1.000  N
  H951     1.0000 0.31681  0.79899  0.53421  Biso   1.000  H
  H952     1.0000 0.37000  0.79490  0.55960  Biso   1.000  H
  C976     1.0000 0.46620  0.85463  0.27256  Biso   1.000  C
  C977     1.0000 0.52857  0.83795  0.33970  Biso   1.000  C
  C978     1.0000 0.33435  0.90939  0.37121  Biso   1.000  C
  C979     1.0000 0.38320  0.88879  0.28101  Biso   1.000  C
  C980     1.0000 0.28127  0.90604  0.46008  Biso   1.000  C
  C981     1.0000 0.36737  0.86915  0.62468  Biso   1.000  C
  C982     1.0000 0.29718  0.88676  0.57275  Biso   1.000  C
  C983     1.0000 0.29718  0.88679  0.57275  Biso   1.000  C
  N690     1.0000 0.43425  0.89416  0.27754  Biso   1.000  N
  H953     1.0000 0.45371  0.82991  0.24402  Biso   1.000  H
  C984     1.0000 0.51299  0.87708  0.24845  Biso   1.000  C
  N691     1.0000 0.43425  0.89419  0.27754  Biso   1.000  N
  O354     1.0000 0.55056  0.82012  0.38190  Biso   1.000  O
  N692     1.0000 0.54767  0.86477  0.29343  Biso   1.000  N
  O355     1.0000 0.32165  0.94824  0.35216  Biso   1.000  O
  H954     1.0000 0.36812  0.91821  0.26548  Biso   1.000  H
  H955     1.0000 0.37349  0.86232  0.25388  Biso   1.000  H
  N693     1.0000 0.29636  0.91952  0.52147  Biso   1.000  N
  H956     1.0000 0.25580  0.88181  0.46328  Biso   1.000  H
  H957     1.0000 0.26761  0.93429  0.43958  Biso   1.000  H
  O356     1.0000 0.40423  0.84883  0.63952  Biso   1.000  O
  N694     1.0000 0.34645  0.90561  0.65596  Biso   1.000  N
  N695     1.0000 0.34645  0.90565  0.65596  Biso   1.000  N
  C985     1.0000 0.30226  0.92049  0.62788  Biso   1.000  C
  H958     1.0000 0.26772  0.86701  0.57508  Biso   1.000  H
  C986     1.0000 0.45507  0.93653  0.26023  Biso   1.000  C
  N696     1.0000 0.50181  0.92749  0.24598  Biso   1.000  N
  H959     1.0000 0.52170  0.86442  0.20730  Biso   1.000  H
  C987     1.0000 0.59844  0.86893  0.28348  Biso   1.000  C
  C988     1.0000 0.29885  0.96553  0.53909  Biso   1.000  C
  C989     1.0000 0.35929  0.91807  0.71753  Biso   1.000  C
  N697     1.0000 0.30429  0.96759  0.60098  Biso   1.000  N
  H960     1.0000 0.27480  0.91728  0.65670  Biso   1.000  H
  H961     1.0000 0.27480  0.91732  0.65670  Biso   1.000  H
  O357     1.0000 0.43539  0.97460  0.25644  Biso   1.000  O
  C990     1.0000 0.52932  0.96140  0.21187  Biso   1.000  C
  N698     1.0000 0.61630  0.91664  0.29302  Biso   1.000  N
  H962     1.0000 0.60581  0.85890  0.24119  Biso   1.000  H
  H963     1.0000 0.61509  0.84698  0.31161  Biso   1.000  H
  H964     1.0000 0.61509  0.84702  0.31161  Biso   1.000  H
  O358     1.0000 0.29529  0.00064  0.50493  Biso   1.000  O
  N699     1.0000 0.37932  0.96574  0.72360  Biso   1.000  N
  H965     1.0000 0.38281  0.89469  0.73278  Biso   1.000  H
  H966     1.0000 0.33062  0.91568  0.74370  Biso   1.000  H
  H967     1.0000 0.33062  0.91572  0.74370  Biso   1.000  H
  C991     1.0000 0.29540  0.01067  0.63532  Biso   1.000  C
  C992     1.0000 0.29540  0.01071  0.63532  Biso   1.000  C
  N700     1.0000 0.56991  0.97919  0.24415  Biso   1.000  N
  H968     1.0000 0.50861  0.98851  0.20068  Biso   1.000  H
  H969     1.0000 0.54020  0.94621  0.17350  Biso   1.000  H
  C993     1.0000 0.61491  0.95379  0.24785  Biso   1.000  C
  C994     1.0000 0.64498  0.92810  0.34166  Biso   1.000  C
  C995     1.0000 0.61491  0.95382  0.24785  Biso   1.000  C
  C996     1.0000 0.42490  0.97314  0.74128  Biso   1.000  C
  C997     1.0000 0.34994  0.00857  0.72735  Biso   1.000  C
  N701     1.0000 0.33610  0.02768  0.66811  Biso   1.000  N
  H970     1.0000 0.28462  0.03579  0.60678  Biso   1.000  H
  H971     1.0000 0.26932  0.00470  0.66469  Biso   1.000  H
  N702     1.0000 0.33610  0.02771  0.66811  Biso   1.000  N
  C998     1.0000 0.57510  0.02686  0.25872  Biso   1.000  C
  H972     1.0000 0.62509  0.94180  0.20689  Biso   1.000  H
  C999     1.0000 0.65006  0.99143  0.27265  Biso   1.000  C
  O359     1.0000 0.65302  0.90248  0.38523  Biso   1.000  O
  N703     1.0000 0.66390  0.97232  0.33184  Biso   1.000  N
  O360     1.0000 0.65302  0.90252  0.38523  Biso   1.000  O
  O361     1.0000 0.45624  0.94357  0.74484  Biso   1.000  O
  N704     1.0000 0.43009  0.02081  0.75585  Biso   1.000  N
  C1000    1.0000 0.38509  0.04621  0.75215  Biso   1.000  C
  H973     1.0000 0.32201  0.00409  0.75498  Biso   1.000  H
  C1001    1.0000 0.35502  0.07190  0.65834  Biso   1.000  C
  O362     1.0000 0.54376  0.05643  0.25516  Biso   1.000  O
  N705     1.0000 0.62068  0.03426  0.27635  Biso   1.000  N
  H974     1.0000 0.67799  0.99591  0.24498  Biso   1.000  H
  C1002    1.0000 0.70460  0.98933  0.36468  Biso   1.000  C
  C1003    1.0000 0.47068  0.03860  0.78813  Biso   1.000  C
  N706     1.0000 0.38370  0.08336  0.70698  Biso   1.000  N
  H975     1.0000 0.37491  0.05820  0.79311  Biso   1.000  H
  O363     1.0000 0.34698  0.09752  0.61472  Biso   1.000  O
  C1004    1.0000 0.64071  0.08193  0.28243  Biso   1.000  C
  H976     1.0000 0.71542  0.96421  0.39318  Biso   1.000  H
  H977     1.0000 0.73072  0.99530  0.33531  Biso   1.000  H
  N707     1.0000 0.69571  0.03241  0.39902  Biso   1.000  N
  N708     1.0000 0.49822  0.07251  0.75402  Biso   1.000  N
  H978     1.0000 0.49139  0.01149  0.79928  Biso   1.000  H
  H979     1.0000 0.45980  0.05379  0.82650  Biso   1.000  H
  C1005    1.0000 0.40156  0.13107  0.71648  Biso   1.000  C
  C1006    1.0000 0.40156  0.13110  0.71648  Biso   1.000  C
  N709     1.0000 0.65359  0.09439  0.34404  Biso   1.000  N
  H980     1.0000 0.61719  0.10531  0.26722  Biso   1.000  H
  H981     1.0000 0.66942  0.08432  0.25630  Biso   1.000  H
  C1007    1.0000 0.69774  0.07951  0.37212  Biso   1.000  C
  C1008    1.0000 0.70119  0.03447  0.46091  Biso   1.000  C
  C1009    1.0000 0.69774  0.07955  0.37212  Biso   1.000  C
  C1010    1.0000 0.54497  0.06347  0.73977  Biso   1.000  C
  C1011    1.0000 0.48701  0.12292  0.75155  Biso   1.000  C
  C1012    1.0000 0.54497  0.06351  0.73977  Biso   1.000  C
  N710     1.0000 0.45233  0.13523  0.70652  Biso   1.000  N
  H982     1.0000 0.39419  0.14110  0.75881  Biso   1.000  H
  H983     1.0000 0.38491  0.15302  0.68839  Biso   1.000  H
  C1013    1.0000 0.63263  0.13085  0.37527  Biso   1.000  C
  H984     1.0000 0.72520  0.08272  0.34330  Biso   1.000  H
  C1014    1.0000 0.70286  0.11324  0.42725  Biso   1.000  C
  O364     1.0000 0.70471  0.99936  0.49507  Biso   1.000  O
  N711     1.0000 0.70368  0.08048  0.47849  Biso   1.000  N
  N712     1.0000 0.70368  0.08051  0.47849  Biso   1.000  N
  O365     1.0000 0.56461  0.02540  0.74351  Biso   1.000  O
  N713     1.0000 0.56575  0.10584  0.72246  Biso   1.000  N
  C1015    1.0000 0.53380  0.14537  0.72739  Biso   1.000  C
  H985     1.0000 0.47830  0.13558  0.79270  Biso   1.000  H
  H986     1.0000 0.47830  0.13562  0.79270  Biso   1.000  H
  C1016    1.0000 0.47147  0.16205  0.66026  Biso   1.000  C
  O366     1.0000 0.59577  0.15117  0.36048  Biso   1.000  O
  N714     1.0000 0.66017  0.14163  0.42442  Biso   1.000  N
  H987     1.0000 0.73232  0.13299  0.42492  Biso   1.000  H
  H988     1.0000 0.73232  0.13302  0.42492  Biso   1.000  H
  C1017    1.0000 0.71873  0.09396  0.53992  Biso   1.000  C
  C1018    1.0000 0.61680  0.11121  0.71894  Biso   1.000  C
  C1019    1.0000 0.61680  0.11125  0.71894  Biso   1.000  C
  N715     1.0000 0.51889  0.16604  0.67003  Biso   1.000  N
  H989     1.0000 0.54632  0.17009  0.75598  Biso   1.000  H
  O367     1.0000 0.44948  0.17988  0.61810  Biso   1.000  O
  C1020    1.0000 0.65266  0.18376  0.46150  Biso   1.000  C
  N716     1.0000 0.68080  0.11278  0.57741  Biso   1.000  N
  H990     1.0000 0.74420  0.11819  0.53667  Biso   1.000  H
  H991     1.0000 0.73239  0.06571  0.56038  Biso   1.000  H
  H992     1.0000 0.74420  0.11822  0.53667  Biso   1.000  H
  N717     1.0000 0.63455  0.12061  0.65857  Biso   1.000  N
  H993     1.0000 0.63192  0.08179  0.73447  Biso   1.000  H
  H994     1.0000 0.62651  0.13768  0.74607  Biso   1.000  H
  H995     1.0000 0.62651  0.13772  0.74607  Biso   1.000  H
  C1021    1.0000 0.54817  0.19941  0.63651  Biso   1.000  C
  N718     1.0000 0.63416  0.17244  0.52238  Biso   1.000  N
  H996     1.0000 0.68322  0.20101  0.46579  Biso   1.000  H
  H997     1.0000 0.63000  0.20510  0.44040  Biso   1.000  H
  C1022    1.0000 0.66490  0.16148  0.57344  Biso   1.000  C
  C1023    1.0000 0.66565  0.09061  0.62879  Biso   1.000  C
  C1024    1.0000 0.63156  0.16639  0.62911  Biso   1.000  C
  N719     1.0000 0.58560  0.17707  0.60198  Biso   1.000  N
  N720     1.0000 0.58560  0.17710  0.60198  Biso   1.000  N
  H998     1.0000 0.56251  0.22221  0.66560  Biso   1.000  H
  H999     1.0000 0.52771  0.21770  0.60819  Biso   1.000  H
  C1025    1.0000 0.58980  0.18408  0.54037  Biso   1.000  C
  H1000    1.0000 0.69219  0.18422  0.57600  Biso   1.000  H
  O368     1.0000 0.67835  0.05176  0.64779  Biso   1.000  O
  O369     1.0000 0.67835  0.05180  0.64779  Biso   1.000  O
  H1001    1.0000 0.64220  0.19251  0.65688  Biso   1.000  H
  O370     1.0000 0.55731  0.19824  0.50735  Biso   1.000  O
  O371     1.0000 0.44269  0.80176  0.49265  Biso   1.000  O
  C1026    1.0000 0.41020  0.81592  0.45958  Biso   1.000  C
  C1027    1.0000 0.41020  0.81596  0.45958  Biso   1.000  C
  N721     1.0000 0.41444  0.82293  0.39802  Biso   1.000  N
  N722     1.0000 0.36584  0.82756  0.47762  Biso   1.000  N
  N723     1.0000 0.36584  0.82759  0.47762  Biso   1.000  N
  C1028    1.0000 0.45183  0.80059  0.36349  Biso   1.000  C
  C1029    1.0000 0.36844  0.83361  0.37089  Biso   1.000  C
  C1030    1.0000 0.33510  0.83852  0.42656  Biso   1.000  C
  C1031    1.0000 0.34734  0.81624  0.53850  Biso   1.000  C
  C1032    1.0000 0.34734  0.81628  0.53850  Biso   1.000  C
  H1002    1.0000 0.47232  0.78230  0.39181  Biso   1.000  H
  N724     1.0000 0.48111  0.83396  0.32997  Biso   1.000  N
  H1003    1.0000 0.43749  0.77779  0.33440  Biso   1.000  H
  N725     1.0000 0.48111  0.83400  0.32997  Biso   1.000  N
  H1004    1.0000 0.43749  0.77782  0.33440  Biso   1.000  H
  H1005    1.0000 0.35780  0.80749  0.34308  Biso   1.000  H
  N726     1.0000 0.36545  0.87939  0.34139  Biso   1.000  N
  N727     1.0000 0.36545  0.87943  0.34139  Biso   1.000  N
  N728     1.0000 0.31920  0.88722  0.42259  Biso   1.000  N
  H1006    1.0000 0.30781  0.81578  0.42400  Biso   1.000  H
  H1007    1.0000 0.30781  0.81582  0.42400  Biso   1.000  H
  N729     1.0000 0.33983  0.85837  0.57558  Biso   1.000  N
  H1008    1.0000 0.31681  0.79899  0.53421  Biso   1.000  H
  H1009    1.0000 0.37000  0.79490  0.55960  Biso   1.000  H
  C1033    1.0000 0.46620  0.85463  0.27256  Biso   1.000  C
  C1034    1.0000 0.52857  0.83795  0.33970  Biso   1.000  C
  C1035    1.0000 0.33435  0.90939  0.37121  Biso   1.000  C
  C1036    1.0000 0.38320  0.88879  0.28101  Biso   1.000  C
  C1037    1.0000 0.28127  0.90604  0.46008  Biso   1.000  C
  C1038    1.0000 0.36737  0.86915  0.62468  Biso   1.000  C
  C1039    1.0000 0.29718  0.88676  0.57275  Biso   1.000  C
  C1040    1.0000 0.29718  0.88679  0.57275  Biso   1.000  C
  H1010    1.0000 0.45371  0.82991  0.24402  Biso   1.000  H
  C1041    1.0000 0.51299  0.87708  0.24845  Biso   1.000  C
  N730     1.0000 0.43425  0.89416  0.27754  Biso   1.000  N
  N731     1.0000 0.43425  0.89419  0.27754  Biso   1.000  N
  O372     1.0000 0.55056  0.82012  0.38190  Biso   1.000  O
  N732     1.0000 0.54767  0.86477  0.29343  Biso   1.000  N
  O373     1.0000 0.32165  0.94824  0.35216  Biso   1.000  O
  H1011    1.0000 0.36812  0.91821  0.26548  Biso   1.000  H
  H1012    1.0000 0.37349  0.86232  0.25388  Biso   1.000  H
  N733     1.0000 0.29636  0.91952  0.52147  Biso   1.000  N
  H1013    1.0000 0.25580  0.88181  0.46328  Biso   1.000  H
  H1014    1.0000 0.26761  0.93429  0.43958  Biso   1.000  H
  O374     1.0000 0.40423  0.84883  0.63952  Biso   1.000  O
  N734     1.0000 0.34645  0.90561  0.65596  Biso   1.000  N
  N735     1.0000 0.34645  0.90565  0.65596  Biso   1.000  N
  C1042    1.0000 0.30226  0.92049  0.62788  Biso   1.000  C
  H1015    1.0000 0.26772  0.86701  0.57508  Biso   1.000  H
  N736     1.0000 0.50181  0.92749  0.24598  Biso   1.000  N
  H1016    1.0000 0.52170  0.86442  0.20730  Biso   1.000  H
  C1043    1.0000 0.45507  0.93653  0.26023  Biso   1.000  C
  C1044    1.0000 0.59844  0.86893  0.28348  Biso   1.000  C
  C1045    1.0000 0.29885  0.96553  0.53909  Biso   1.000  C
  C1046    1.0000 0.35929  0.91807  0.71753  Biso   1.000  C
  N737     1.0000 0.30429  0.96759  0.60098  Biso   1.000  N
  H1017    1.0000 0.27480  0.91728  0.65670  Biso   1.000  H
  H1018    1.0000 0.27480  0.91732  0.65670  Biso   1.000  H
  C1047    1.0000 0.52932  0.96140  0.21187  Biso   1.000  C
  O375     1.0000 0.43539  0.97460  0.25644  Biso   1.000  O
  N738     1.0000 0.61630  0.91664  0.29302  Biso   1.000  N
  H1019    1.0000 0.60581  0.85890  0.24119  Biso   1.000  H
  H1020    1.0000 0.61509  0.84698  0.31161  Biso   1.000  H
  H1021    1.0000 0.61509  0.84702  0.31161  Biso   1.000  H
  O376     1.0000 0.29529  0.00064  0.50493  Biso   1.000  O
  N739     1.0000 0.37932  0.96574  0.72360  Biso   1.000  N
  H1022    1.0000 0.38281  0.89469  0.73278  Biso   1.000  H
  H1023    1.0000 0.33062  0.91568  0.74370  Biso   1.000  H
  H1024    1.0000 0.33062  0.91572  0.74370  Biso   1.000  H
  C1048    1.0000 0.29540  0.01067  0.63532  Biso   1.000  C
  C1049    1.0000 0.29540  0.01071  0.63532  Biso   1.000  C
  N740     1.0000 0.56991  0.97919  0.24415  Biso   1.000  N
  H1025    1.0000 0.50861  0.98851  0.20068  Biso   1.000  H
  H1026    1.0000 0.54020  0.94621  0.17350  Biso   1.000  H
  C1050    1.0000 0.64498  0.92810  0.34166  Biso   1.000  C
  C1051    1.0000 0.61491  0.95379  0.24785  Biso   1.000  C
  C1052    1.0000 0.61491  0.95382  0.24785  Biso   1.000  C
  C1053    1.0000 0.42490  0.97314  0.74128  Biso   1.000  C
  C1054    1.0000 0.34994  0.00857  0.72735  Biso   1.000  C
  N741     1.0000 0.33610  0.02768  0.66811  Biso   1.000  N
  H1027    1.0000 0.28462  0.03579  0.60678  Biso   1.000  H
  H1028    1.0000 0.26932  0.00470  0.66469  Biso   1.000  H
  N742     1.0000 0.33610  0.02771  0.66811  Biso   1.000  N
  C1055    1.0000 0.57510  0.02686  0.25872  Biso   1.000  C
  N743     1.0000 0.66390  0.97232  0.33184  Biso   1.000  N
  O377     1.0000 0.65302  0.90248  0.38523  Biso   1.000  O
  O378     1.0000 0.65302  0.90252  0.38523  Biso   1.000  O
  H1029    1.0000 0.62509  0.94180  0.20689  Biso   1.000  H
  C1056    1.0000 0.65006  0.99143  0.27265  Biso   1.000  C
  O379     1.0000 0.45624  0.94357  0.74484  Biso   1.000  O
  N744     1.0000 0.43009  0.02081  0.75585  Biso   1.000  N
  C1057    1.0000 0.38509  0.04621  0.75215  Biso   1.000  C
  H1030    1.0000 0.32201  0.00409  0.75498  Biso   1.000  H
  C1058    1.0000 0.35502  0.07190  0.65834  Biso   1.000  C
  O380     1.0000 0.54376  0.05643  0.25516  Biso   1.000  O
  N745     1.0000 0.62068  0.03426  0.27635  Biso   1.000  N
  C1059    1.0000 0.70460  0.98933  0.36468  Biso   1.000  C
  H1031    1.0000 0.67799  0.99591  0.24498  Biso   1.000  H
  C1060    1.0000 0.47068  0.03860  0.78813  Biso   1.000  C
  N746     1.0000 0.38370  0.08336  0.70698  Biso   1.000  N
  H1032    1.0000 0.37491  0.05820  0.79311  Biso   1.000  H
  O381     1.0000 0.34698  0.09752  0.61472  Biso   1.000  O
  C1061    1.0000 0.64071  0.08193  0.28243  Biso   1.000  C
  H1033    1.0000 0.71542  0.96421  0.39318  Biso   1.000  H
  H1034    1.0000 0.73072  0.99530  0.33531  Biso   1.000  H
  N747     1.0000 0.69571  0.03241  0.39902  Biso   1.000  N
  N748     1.0000 0.49822  0.07251  0.75402  Biso   1.000  N
  H1035    1.0000 0.49139  0.01149  0.79928  Biso   1.000  H
  H1036    1.0000 0.45980  0.05379  0.82650  Biso   1.000  H
  C1062    1.0000 0.40156  0.13107  0.71648  Biso   1.000  C
  C1063    1.0000 0.40156  0.13110  0.71648  Biso   1.000  C
  N749     1.0000 0.65359  0.09439  0.34404  Biso   1.000  N
  H1037    1.0000 0.61719  0.10531  0.26722  Biso   1.000  H
  H1038    1.0000 0.66942  0.08432  0.25630  Biso   1.000  H
  C1064    1.0000 0.69774  0.07951  0.37212  Biso   1.000  C
  C1065    1.0000 0.70119  0.03447  0.46091  Biso   1.000  C
  C1066    1.0000 0.69774  0.07955  0.37212  Biso   1.000  C
  C1067    1.0000 0.54497  0.06347  0.73977  Biso   1.000  C
  C1068    1.0000 0.48701  0.12292  0.75155  Biso   1.000  C
  C1069    1.0000 0.54497  0.06351  0.73977  Biso   1.000  C
  N750     1.0000 0.45233  0.13523  0.70652  Biso   1.000  N
  H1039    1.0000 0.39419  0.14110  0.75881  Biso   1.000  H
  H1040    1.0000 0.38491  0.15302  0.68839  Biso   1.000  H
  C1070    1.0000 0.63263  0.13085  0.37527  Biso   1.000  C
  H1041    1.0000 0.72520  0.08272  0.34330  Biso   1.000  H
  C1071    1.0000 0.70286  0.11324  0.42725  Biso   1.000  C
  O382     1.0000 0.70471  0.99936  0.49507  Biso   1.000  O
  N751     1.0000 0.70368  0.08048  0.47849  Biso   1.000  N
  N752     1.0000 0.70368  0.08051  0.47849  Biso   1.000  N
  O383     1.0000 0.56461  0.02540  0.74351  Biso   1.000  O
  N753     1.0000 0.56575  0.10584  0.72246  Biso   1.000  N
  C1072    1.0000 0.53380  0.14537  0.72739  Biso   1.000  C
  H1042    1.0000 0.47830  0.13558  0.79270  Biso   1.000  H
  H1043    1.0000 0.47830  0.13562  0.79270  Biso   1.000  H
  C1073    1.0000 0.47147  0.16205  0.66026  Biso   1.000  C
  O384     1.0000 0.59577  0.15117  0.36048  Biso   1.000  O
  N754     1.0000 0.66017  0.14163  0.42442  Biso   1.000  N
  H1044    1.0000 0.73232  0.13299  0.42492  Biso   1.000  H
  H1045    1.0000 0.73232  0.13302  0.42492  Biso   1.000  H
  C1074    1.0000 0.71873  0.09396  0.53992  Biso   1.000  C
  C1075    1.0000 0.61680  0.11121  0.71894  Biso   1.000  C
  C1076    1.0000 0.61680  0.11125  0.71894  Biso   1.000  C
  N755     1.0000 0.51889  0.16604  0.67003  Biso   1.000  N
  H1046    1.0000 0.54632  0.17009  0.75598  Biso   1.000  H
  O385     1.0000 0.44948  0.17988  0.61810  Biso   1.000  O
  C1077    1.0000 0.65266  0.18376  0.46150  Biso   1.000  C
  N756     1.0000 0.68080  0.11278  0.57741  Biso   1.000  N
  H1047    1.0000 0.74420  0.11819  0.53667  Biso   1.000  H
  H1048    1.0000 0.73239  0.06571  0.56038  Biso   1.000  H
  H1049    1.0000 0.74420  0.11822  0.53667  Biso   1.000  H
  N757     1.0000 0.63455  0.12061  0.65857  Biso   1.000  N
  H1050    1.0000 0.63192  0.08179  0.73447  Biso   1.000  H
  H1051    1.0000 0.62651  0.13768  0.74607  Biso   1.000  H
  H1052    1.0000 0.62651  0.13772  0.74607  Biso   1.000  H
  C1078    1.0000 0.54817  0.19941  0.63651  Biso   1.000  C
  N758     1.0000 0.63416  0.17244  0.52238  Biso   1.000  N
  H1053    1.0000 0.68322  0.20101  0.46579  Biso   1.000  H
  H1054    1.0000 0.63000  0.20510  0.44040  Biso   1.000  H
  C1079    1.0000 0.66490  0.16148  0.57344  Biso   1.000  C
  C1080    1.0000 0.66565  0.09061  0.62879  Biso   1.000  C
  C1081    1.0000 0.63156  0.16639  0.62911  Biso   1.000  C
  N759     1.0000 0.58560  0.17707  0.60198  Biso   1.000  N
  N760     1.0000 0.58560  0.17710  0.60198  Biso   1.000  N
  H1055    1.0000 0.56251  0.22221  0.66560  Biso   1.000  H
  H1056    1.0000 0.52771  0.21770  0.60819  Biso   1.000  H
  C1082    1.0000 0.58980  0.18408  0.54037  Biso   1.000  C
  H1057    1.0000 0.69219  0.18422  0.57600  Biso   1.000  H
  O386     1.0000 0.67835  0.05176  0.64779  Biso   1.000  O
  O387     1.0000 0.67835  0.05180  0.64779  Biso   1.000  O
  H1058    1.0000 0.64220  0.19251  0.65688  Biso   1.000  H
  O388     1.0000 0.55731  0.19824  0.50735  Biso   1.000  O
  C1083    1.0000 0.80226  0.42049  0.12788  Biso   1.000  C
  C1084    1.0000 0.79718  0.38676  0.07275  Biso   1.000  C
  N761     1.0000 0.84641  0.40565  0.15596  Biso   1.000  N
  N762     1.0000 0.80429  0.46759  0.10098  Biso   1.000  N
  H1059    1.0000 0.77480  0.41732  0.15670  Biso   1.000  H
  N763     1.0000 0.84645  0.40565  0.15596  Biso   1.000  N
  N764     1.0000 0.83983  0.35837  0.07558  Biso   1.000  N
  N765     1.0000 0.79632  0.41952  0.02151  Biso   1.000  N
  H1060    1.0000 0.76768  0.36701  0.07508  Biso   1.000  H
  N766     1.0000 0.79632  0.41952  0.02147  Biso   1.000  N
  N767     1.0000 0.79636  0.41952  0.02151  Biso   1.000  N
  H1061    1.0000 0.76772  0.36701  0.07508  Biso   1.000  H
  N768     1.0000 0.79636  0.41952  0.02147  Biso   1.000  N
  C1085    1.0000 0.86737  0.36915  0.12468  Biso   1.000  C
  C1086    1.0000 0.85929  0.41807  0.21753  Biso   1.000  C
  C1087    1.0000 0.79881  0.46553  0.03909  Biso   1.000  C
  C1088    1.0000 0.79885  0.46553  0.03909  Biso   1.000  C
  C1089    1.0000 0.79540  0.51071  0.13532  Biso   1.000  C
  C1090    1.0000 0.79543  0.51071  0.13532  Biso   1.000  C
  C1091    1.0000 0.84734  0.31624  0.03850  Biso   1.000  C
  C1092    1.0000 0.78127  0.40604  0.96008  Biso   1.000  C
  O389     1.0000 0.90423  0.34883  0.13952  Biso   1.000  O
  N769     1.0000 0.87932  0.46574  0.22365  Biso   1.000  N
  H1062    1.0000 0.88281  0.39469  0.23278  Biso   1.000  H
  H1063    1.0000 0.83058  0.41572  0.24370  Biso   1.000  H
  N770     1.0000 0.87932  0.46574  0.22360  Biso   1.000  N
  H1064    1.0000 0.83062  0.41572  0.24370  Biso   1.000  H
  O390     1.0000 0.79529  0.50064  0.00493  Biso   1.000  O
  N771     1.0000 0.83610  0.52768  0.16816  Biso   1.000  N
  H1065    1.0000 0.78458  0.53579  0.10678  Biso   1.000  H
  H1066    1.0000 0.76928  0.50470  0.16469  Biso   1.000  H
  N772     1.0000 0.83610  0.52768  0.16811  Biso   1.000  N
  H1067    1.0000 0.78462  0.53579  0.10678  Biso   1.000  H
  H1068    1.0000 0.76932  0.50470  0.16469  Biso   1.000  H
  H1069    1.0000 0.81681  0.29899  0.03421  Biso   1.000  H
  H1070    1.0000 0.87000  0.29490  0.05960  Biso   1.000  H
  N773     1.0000 0.86584  0.32756  0.97762  Biso   1.000  N
  N774     1.0000 0.81920  0.38722  0.92259  Biso   1.000  N
  H1071    1.0000 0.75580  0.38181  0.96328  Biso   1.000  H
  H1072    1.0000 0.76761  0.43429  0.93958  Biso   1.000  H
  C1093    1.0000 0.92490  0.47314  0.24128  Biso   1.000  C
  C1094    1.0000 0.84994  0.50857  0.22735  Biso   1.000  C
  C1095    1.0000 0.84997  0.50857  0.22735  Biso   1.000  C
  C1096    1.0000 0.85502  0.57190  0.15834  Biso   1.000  C
  C1097    1.0000 0.91020  0.31596  0.95958  Biso   1.000  C
  C1098    1.0000 0.83510  0.33852  0.92656  Biso   1.000  C
  C1099    1.0000 0.83435  0.40939  0.87121  Biso   1.000  C
  C1100    1.0000 0.83435  0.40939  0.87116  Biso   1.000  C
  O391     1.0000 0.95624  0.44357  0.24484  Biso   1.000  O
  N775     1.0000 0.93009  0.52081  0.25585  Biso   1.000  N
  C1101    1.0000 0.88509  0.54621  0.25215  Biso   1.000  C
  H1073    1.0000 0.82201  0.50409  0.25498  Biso   1.000  H
  O392     1.0000 0.84698  0.59752  0.11477  Biso   1.000  O
  N776     1.0000 0.88370  0.58336  0.20698  Biso   1.000  N
  O393     1.0000 0.84698  0.59752  0.11472  Biso   1.000  O
  O394     1.0000 0.94269  0.30176  0.99265  Biso   1.000  O
  N777     1.0000 0.91444  0.32293  0.89802  Biso   1.000  N
  N778     1.0000 0.91444  0.32293  0.89797  Biso   1.000  N
  H1074    1.0000 0.80781  0.31582  0.92400  Biso   1.000  H
  C1102    1.0000 0.86844  0.33361  0.87089  Biso   1.000  C
  C1103    1.0000 0.86847  0.33361  0.87089  Biso   1.000  C
  O395     1.0000 0.82165  0.44824  0.85221  Biso   1.000  O
  N779     1.0000 0.86545  0.37943  0.84143  Biso   1.000  N
  O396     1.0000 0.82165  0.44824  0.85216  Biso   1.000  O
  N780     1.0000 0.86545  0.37943  0.84139  Biso   1.000  N
  N781     1.0000 0.86548  0.37943  0.84143  Biso   1.000  N
  N782     1.0000 0.86548  0.37943  0.84139  Biso   1.000  N
  C1104    1.0000 0.97068  0.53860  0.28813  Biso   1.000  C
  H1075    1.0000 0.87491  0.55820  0.29311  Biso   1.000  H
  H1076    1.0000 0.87491  0.55820  0.29307  Biso   1.000  H
  C1105    1.0000 0.90156  0.63110  0.21648  Biso   1.000  C
  C1106    1.0000 0.90159  0.63110  0.21648  Biso   1.000  C
  C1107    1.0000 0.95183  0.30059  0.86349  Biso   1.000  C
  H1077    1.0000 0.85780  0.30749  0.84312  Biso   1.000  H
  H1078    1.0000 0.85780  0.30749  0.84308  Biso   1.000  H
  C1108    1.0000 0.88320  0.38879  0.78101  Biso   1.000  C
  N783     1.0000 0.99819  0.57251  0.25402  Biso   1.000  N
  H1079    1.0000 0.99139  0.51149  0.29928  Biso   1.000  H
  H1080    1.0000 0.95980  0.55379  0.32650  Biso   1.000  H
  N784     1.0000 0.99822  0.57251  0.25402  Biso   1.000  N
  N785     1.0000 0.95233  0.63523  0.20657  Biso   1.000  N
  H1081    1.0000 0.89419  0.64110  0.25881  Biso   1.000  H
  H1082    1.0000 0.88491  0.65302  0.18839  Biso   1.000  H
  N786     1.0000 0.95233  0.63523  0.20652  Biso   1.000  N
  H1083    1.0000 0.89419  0.64110  0.25877  Biso   1.000  H
  N787     1.0000 0.98111  0.33400  0.82997  Biso   1.000  N
  H1084    1.0000 0.93749  0.27779  0.83440  Biso   1.000  H
  H1085    1.0000 0.97229  0.28230  0.89181  Biso   1.000  H
  N788     1.0000 0.98111  0.33400  0.82992  Biso   1.000  N
  H1086    1.0000 0.97232  0.28230  0.89181  Biso   1.000  H
  N789     1.0000 0.93425  0.39416  0.77754  Biso   1.000  N
  H1087    1.0000 0.86812  0.41821  0.76548  Biso   1.000  H
  H1088    1.0000 0.87349  0.36232  0.75388  Biso   1.000  H
  N790     1.0000 0.93425  0.39416  0.77749  Biso   1.000  N
  H1089    1.0000 0.87352  0.36232  0.75388  Biso   1.000  H
  C1109    1.0000 0.98701  0.62292  0.25155  Biso   1.000  C
  C1110    1.0000 0.04493  0.56347  0.23977  Biso   1.000  C
  C1111    1.0000 0.04497  0.56347  0.23977  Biso   1.000  C
  C1112    1.0000 0.97147  0.66205  0.16026  Biso   1.000  C
  C1113    1.0000 0.96620  0.35463  0.77256  Biso   1.000  C
  C1114    1.0000 0.02853  0.33795  0.83974  Biso   1.000  C
  C1115    1.0000 0.02853  0.33795  0.83970  Biso   1.000  C
  C1116    1.0000 0.02857  0.33795  0.83974  Biso   1.000  C
  C1117    1.0000 0.02857  0.33795  0.83970  Biso   1.000  C
  C1118    1.0000 0.95507  0.43653  0.76023  Biso   1.000  C
  C1119    1.0000 0.95507  0.43653  0.76018  Biso   1.000  C
  H1090    1.0000 0.97830  0.63562  0.29270  Biso   1.000  H
  C1120    1.0000 0.03380  0.64537  0.22744  Biso   1.000  C
  C1121    1.0000 0.03380  0.64537  0.22739  Biso   1.000  C
  C1122    1.0000 0.03383  0.64537  0.22744  Biso   1.000  C
  C1123    1.0000 0.03383  0.64537  0.22739  Biso   1.000  C
  O397     1.0000 0.06461  0.52540  0.24356  Biso   1.000  O
  N791     1.0000 0.06575  0.60584  0.22246  Biso   1.000  N
  O398     1.0000 0.06461  0.52540  0.24351  Biso   1.000  O
  O399     1.0000 0.94944  0.67988  0.11810  Biso   1.000  O
  O400     1.0000 0.94948  0.67988  0.11810  Biso   1.000  O
  N792     1.0000 0.01889  0.66604  0.17003  Biso   1.000  N
  H1091    1.0000 0.95371  0.32991  0.74402  Biso   1.000  H
  H1092    1.0000 0.95371  0.32991  0.74397  Biso   1.000  H
  C1124    1.0000 0.01299  0.37708  0.74845  Biso   1.000  C
  C1125    1.0000 0.01299  0.37708  0.74840  Biso   1.000  C
  O401     1.0000 0.05056  0.32012  0.88190  Biso   1.000  O
  N793     1.0000 0.04767  0.36477  0.79343  Biso   1.000  N
  O402     1.0000 0.05056  0.32012  0.88185  Biso   1.000  O
  O403     1.0000 0.93539  0.47460  0.75644  Biso   1.000  O
  N794     1.0000 0.00181  0.42749  0.74598  Biso   1.000  N
  H1093    1.0000 0.04629  0.67009  0.25598  Biso   1.000  H
  H1094    1.0000 0.04632  0.67009  0.25598  Biso   1.000  H
  C1126    1.0000 0.11680  0.61125  0.21899  Biso   1.000  C
  C1127    1.0000 0.11680  0.61125  0.21894  Biso   1.000  C
  C1128    1.0000 0.11684  0.61125  0.21899  Biso   1.000  C
  C1129    1.0000 0.11684  0.61125  0.21894  Biso   1.000  C
  C1130    1.0000 0.04817  0.69941  0.13651  Biso   1.000  C
  H1095    1.0000 0.02170  0.36442  0.70730  Biso   1.000  H
  C1131    1.0000 0.09844  0.36893  0.78352  Biso   1.000  C
  C1132    1.0000 0.09844  0.36893  0.78348  Biso   1.000  C
  C1133    1.0000 0.02932  0.46140  0.71187  Biso   1.000  C
  H1096    1.0000 0.13188  0.58179  0.23452  Biso   1.000  H
  H1097    1.0000 0.12651  0.63772  0.24612  Biso   1.000  H
  N795     1.0000 0.13455  0.62061  0.15857  Biso   1.000  N
  H1098    1.0000 0.13188  0.58179  0.23447  Biso   1.000  H
  H1099    1.0000 0.12651  0.63772  0.24607  Biso   1.000  H
  H1100    1.0000 0.13192  0.58179  0.23452  Biso   1.000  H
  H1101    1.0000 0.13192  0.58179  0.23447  Biso   1.000  H
  H1102    1.0000 0.06251  0.72221  0.16560  Biso   1.000  H
  H1103    1.0000 0.02771  0.71770  0.10819  Biso   1.000  H
  N796     1.0000 0.08556  0.67710  0.10198  Biso   1.000  N
  N797     1.0000 0.08560  0.67710  0.10198  Biso   1.000  N
  N798     1.0000 0.11630  0.41664  0.79302  Biso   1.000  N
  H1104    1.0000 0.10581  0.35890  0.74119  Biso   1.000  H
  H1105    1.0000 0.11509  0.34702  0.81161  Biso   1.000  H
  N799     1.0000 0.06991  0.47919  0.74415  Biso   1.000  N
  H1106    1.0000 0.00861  0.48851  0.70072  Biso   1.000  H
  H1107    1.0000 0.04020  0.44621  0.67350  Biso   1.000  H
  H1108    1.0000 0.00861  0.48851  0.70068  Biso   1.000  H
  C1134    1.0000 0.13156  0.66639  0.12911  Biso   1.000  C
  C1135    1.0000 0.16565  0.59061  0.12879  Biso   1.000  C
  C1136    1.0000 0.08980  0.68408  0.04042  Biso   1.000  C
  C1137    1.0000 0.08980  0.68408  0.04037  Biso   1.000  C
  C1138    1.0000 0.11491  0.45382  0.74785  Biso   1.000  C
  C1139    1.0000 0.14498  0.42810  0.84166  Biso   1.000  C
  C1140    1.0000 0.07510  0.52686  0.75872  Biso   1.000  C
  C1141    1.0000 0.16490  0.66148  0.07344  Biso   1.000  C
  H1109    1.0000 0.14220  0.69251  0.15688  Biso   1.000  H
  O404     1.0000 0.17835  0.55180  0.14779  Biso   1.000  O
  N800     1.0000 0.18080  0.61278  0.07741  Biso   1.000  N
  O405     1.0000 0.17838  0.55180  0.14779  Biso   1.000  O
  O406     1.0000 0.05731  0.69824  0.00735  Biso   1.000  O
  N801     1.0000 0.13416  0.67244  0.02238  Biso   1.000  N
  H1110    1.0000 0.12509  0.44180  0.70689  Biso   1.000  H
  C1142    1.0000 0.15006  0.49143  0.77265  Biso   1.000  C
  H1111    1.0000 0.12512  0.44180  0.70689  Biso   1.000  H
  O407     1.0000 0.15302  0.40252  0.88523  Biso   1.000  O
  N802     1.0000 0.16390  0.47232  0.83184  Biso   1.000  N
  O408     1.0000 0.15305  0.40252  0.88523  Biso   1.000  O
  O409     1.0000 0.04376  0.55643  0.75516  Biso   1.000  O
  N803     1.0000 0.12068  0.53426  0.77635  Biso   1.000  N
  H1112    1.0000 0.19219  0.68422  0.07600  Biso   1.000  H
  H1113    1.0000 0.19222  0.68422  0.07600  Biso   1.000  H
  C1143    1.0000 0.21873  0.59396  0.03992  Biso   1.000  C
  C1144    1.0000 0.15266  0.68376  0.96150  Biso   1.000  C
  H1114    1.0000 0.17799  0.49591  0.74502  Biso   1.000  H
  H1115    1.0000 0.17799  0.49591  0.74498  Biso   1.000  H
  C1145    1.0000 0.20460  0.48933  0.86468  Biso   1.000  C
  C1146    1.0000 0.14071  0.58193  0.78247  Biso   1.000  C
  C1147    1.0000 0.14071  0.58193  0.78243  Biso   1.000  C
  C1148    1.0000 0.14074  0.58193  0.78247  Biso   1.000  C
  C1149    1.0000 0.14074  0.58193  0.78243  Biso   1.000  C
  N804     1.0000 0.20368  0.58051  0.97849  Biso   1.000  N
  H1116    1.0000 0.24420  0.61819  0.03672  Biso   1.000  H
  H1117    1.0000 0.23239  0.56571  0.06042  Biso   1.000  H
  H1118    1.0000 0.24420  0.61819  0.03667  Biso   1.000  H
  H1119    1.0000 0.23239  0.56571  0.06038  Biso   1.000  H
  H1120    1.0000 0.23242  0.56571  0.06042  Biso   1.000  H
  H1121    1.0000 0.23242  0.56571  0.06038  Biso   1.000  H
  N805     1.0000 0.16017  0.64163  0.92442  Biso   1.000  N
  H1122    1.0000 0.18319  0.70101  0.96579  Biso   1.000  H
  H1123    1.0000 0.13000  0.70510  0.94040  Biso   1.000  H
  N806     1.0000 0.16020  0.64163  0.92442  Biso   1.000  N
  H1124    1.0000 0.18322  0.70101  0.96579  Biso   1.000  H
  N807     1.0000 0.19571  0.53241  0.89902  Biso   1.000  N
  H1125    1.0000 0.21542  0.46421  0.89322  Biso   1.000  H
  H1126    1.0000 0.23072  0.49530  0.83531  Biso   1.000  H
  H1127    1.0000 0.21542  0.46421  0.89318  Biso   1.000  H
  N808     1.0000 0.15359  0.59439  0.84404  Biso   1.000  N
  H1128    1.0000 0.11719  0.60531  0.76722  Biso   1.000  H
  H1129    1.0000 0.16942  0.58432  0.75630  Biso   1.000  H
  N809     1.0000 0.15359  0.59439  0.84399  Biso   1.000  N
  H1130    1.0000 0.11719  0.60531  0.76717  Biso   1.000  H
  C1150    1.0000 0.20119  0.53447  0.96091  Biso   1.000  C
  C1151    1.0000 0.20282  0.61324  0.92725  Biso   1.000  C
  C1152    1.0000 0.20282  0.61324  0.92720  Biso   1.000  C
  C1153    1.0000 0.20286  0.61324  0.92725  Biso   1.000  C
  C1154    1.0000 0.20286  0.61324  0.92720  Biso   1.000  C
  C1155    1.0000 0.13263  0.63085  0.87532  Biso   1.000  C
  C1156    1.0000 0.13263  0.63085  0.87527  Biso   1.000  C
  C1157    1.0000 0.19774  0.57955  0.87212  Biso   1.000  C
  O410     1.0000 0.20471  0.49936  0.99507  Biso   1.000  O
  H1131    1.0000 0.23232  0.63299  0.92492  Biso   1.000  H
  H1132    1.0000 0.23232  0.63299  0.92487  Biso   1.000  H
  O411     1.0000 0.09577  0.65117  0.86048  Biso   1.000  O
  H1133    1.0000 0.22520  0.58272  0.84330  Biso   1.000  H
  C1158    1.0000 0.80226  0.42049  0.12788  Biso   1.000  C
  C1159    1.0000 0.79718  0.38676  0.07275  Biso   1.000  C
  N810     1.0000 0.84641  0.40565  0.15596  Biso   1.000  N
  N811     1.0000 0.80429  0.46759  0.10098  Biso   1.000  N
  H1134    1.0000 0.77480  0.41732  0.15670  Biso   1.000  H
  N812     1.0000 0.84645  0.40565  0.15596  Biso   1.000  N
  N813     1.0000 0.83983  0.35837  0.07558  Biso   1.000  N
  H1135    1.0000 0.76768  0.36701  0.07508  Biso   1.000  H
  H1136    1.0000 0.76772  0.36701  0.07508  Biso   1.000  H
  N814     1.0000 0.79632  0.41952  0.02151  Biso   1.000  N
  N815     1.0000 0.79632  0.41952  0.02147  Biso   1.000  N
  N816     1.0000 0.79636  0.41952  0.02151  Biso   1.000  N
  N817     1.0000 0.79636  0.41952  0.02147  Biso   1.000  N
  C1160    1.0000 0.86737  0.36915  0.12468  Biso   1.000  C
  C1161    1.0000 0.85929  0.41807  0.21753  Biso   1.000  C
  C1162    1.0000 0.79881  0.46553  0.03909  Biso   1.000  C
  C1163    1.0000 0.79885  0.46553  0.03909  Biso   1.000  C
  C1164    1.0000 0.79540  0.51071  0.13532  Biso   1.000  C
  C1165    1.0000 0.79543  0.51071  0.13532  Biso   1.000  C
  C1166    1.0000 0.84734  0.31624  0.03850  Biso   1.000  C
  C1167    1.0000 0.78127  0.40604  0.96008  Biso   1.000  C
  O412     1.0000 0.90423  0.34883  0.13952  Biso   1.000  O
  H1137    1.0000 0.88281  0.39469  0.23278  Biso   1.000  H
  H1138    1.0000 0.83058  0.41572  0.24370  Biso   1.000  H
  N818     1.0000 0.87932  0.46574  0.22365  Biso   1.000  N
  N819     1.0000 0.87932  0.46574  0.22360  Biso   1.000  N
  H1139    1.0000 0.83062  0.41572  0.24370  Biso   1.000  H
  O413     1.0000 0.79529  0.50064  0.00493  Biso   1.000  O
  H1140    1.0000 0.78458  0.53579  0.10678  Biso   1.000  H
  H1141    1.0000 0.76928  0.50470  0.16469  Biso   1.000  H
  N820     1.0000 0.83610  0.52768  0.16816  Biso   1.000  N
  N821     1.0000 0.83610  0.52768  0.16811  Biso   1.000  N
  H1142    1.0000 0.78462  0.53579  0.10678  Biso   1.000  H
  H1143    1.0000 0.76932  0.50470  0.16469  Biso   1.000  H
  H1144    1.0000 0.81681  0.29899  0.03421  Biso   1.000  H
  H1145    1.0000 0.87000  0.29490  0.05960  Biso   1.000  H
  N822     1.0000 0.86584  0.32756  0.97762  Biso   1.000  N
  N823     1.0000 0.81920  0.38722  0.92259  Biso   1.000  N
  H1146    1.0000 0.75580  0.38181  0.96328  Biso   1.000  H
  H1147    1.0000 0.76761  0.43429  0.93958  Biso   1.000  H
  C1168    1.0000 0.92490  0.47314  0.24128  Biso   1.000  C
  C1169    1.0000 0.84994  0.50857  0.22735  Biso   1.000  C
  C1170    1.0000 0.84997  0.50857  0.22735  Biso   1.000  C
  C1171    1.0000 0.85502  0.57190  0.15834  Biso   1.000  C
  C1172    1.0000 0.91020  0.31596  0.95958  Biso   1.000  C
  C1173    1.0000 0.83510  0.33852  0.92656  Biso   1.000  C
  C1174    1.0000 0.83435  0.40939  0.87121  Biso   1.000  C
  C1175    1.0000 0.83435  0.40939  0.87116  Biso   1.000  C
  O414     1.0000 0.95624  0.44357  0.24484  Biso   1.000  O
  N824     1.0000 0.93009  0.52081  0.25585  Biso   1.000  N
  C1176    1.0000 0.88509  0.54621  0.25215  Biso   1.000  C
  H1148    1.0000 0.82201  0.50409  0.25498  Biso   1.000  H
  N825     1.0000 0.88370  0.58336  0.20698  Biso   1.000  N
  O415     1.0000 0.84698  0.59752  0.11477  Biso   1.000  O
  O416     1.0000 0.84698  0.59752  0.11472  Biso   1.000  O
  O417     1.0000 0.94269  0.30176  0.99265  Biso   1.000  O
  N826     1.0000 0.91444  0.32293  0.89802  Biso   1.000  N
  N827     1.0000 0.91444  0.32293  0.89797  Biso   1.000  N
  H1149    1.0000 0.80781  0.31582  0.92400  Biso   1.000  H
  C1177    1.0000 0.86844  0.33361  0.87089  Biso   1.000  C
  C1178    1.0000 0.86847  0.33361  0.87089  Biso   1.000  C
  O418     1.0000 0.82165  0.44824  0.85221  Biso   1.000  O
  N828     1.0000 0.86545  0.37943  0.84143  Biso   1.000  N
  O419     1.0000 0.82165  0.44824  0.85216  Biso   1.000  O
  N829     1.0000 0.86545  0.37943  0.84139  Biso   1.000  N
  N830     1.0000 0.86548  0.37943  0.84143  Biso   1.000  N
  N831     1.0000 0.86548  0.37943  0.84139  Biso   1.000  N
  C1179    1.0000 0.97068  0.53860  0.28813  Biso   1.000  C
  H1150    1.0000 0.87491  0.55820  0.29311  Biso   1.000  H
  H1151    1.0000 0.87491  0.55820  0.29307  Biso   1.000  H
  C1180    1.0000 0.90156  0.63110  0.21648  Biso   1.000  C
  C1181    1.0000 0.90159  0.63110  0.21648  Biso   1.000  C
  C1182    1.0000 0.95183  0.30059  0.86349  Biso   1.000  C
  H1152    1.0000 0.85780  0.30749  0.84312  Biso   1.000  H
  H1153    1.0000 0.85780  0.30749  0.84308  Biso   1.000  H
  C1183    1.0000 0.88320  0.38879  0.78101  Biso   1.000  C
  N832     1.0000 0.99819  0.57251  0.25402  Biso   1.000  N
  H1154    1.0000 0.99139  0.51149  0.29928  Biso   1.000  H
  H1155    1.0000 0.95980  0.55379  0.32650  Biso   1.000  H
  N833     1.0000 0.99822  0.57251  0.25402  Biso   1.000  N
  H1156    1.0000 0.88491  0.65302  0.18839  Biso   1.000  H
  N834     1.0000 0.95233  0.63523  0.20657  Biso   1.000  N
  H1157    1.0000 0.89419  0.64110  0.25881  Biso   1.000  H
  N835     1.0000 0.95233  0.63523  0.20652  Biso   1.000  N
  H1158    1.0000 0.89419  0.64110  0.25877  Biso   1.000  H
  N836     1.0000 0.98111  0.33400  0.82997  Biso   1.000  N
  H1159    1.0000 0.93749  0.27779  0.83440  Biso   1.000  H
  H1160    1.0000 0.97229  0.28230  0.89181  Biso   1.000  H
  N837     1.0000 0.98111  0.33400  0.82992  Biso   1.000  N
  H1161    1.0000 0.97232  0.28230  0.89181  Biso   1.000  H
  N838     1.0000 0.93425  0.39416  0.77754  Biso   1.000  N
  H1162    1.0000 0.86812  0.41821  0.76548  Biso   1.000  H
  H1163    1.0000 0.87349  0.36232  0.75388  Biso   1.000  H
  N839     1.0000 0.93425  0.39416  0.77749  Biso   1.000  N
  H1164    1.0000 0.87352  0.36232  0.75388  Biso   1.000  H
  C1184    1.0000 0.98701  0.62292  0.25155  Biso   1.000  C
  C1185    1.0000 0.04493  0.56347  0.23977  Biso   1.000  C
  C1186    1.0000 0.04497  0.56347  0.23977  Biso   1.000  C
  C1187    1.0000 0.97147  0.66205  0.16026  Biso   1.000  C
  C1188    1.0000 0.96620  0.35463  0.77256  Biso   1.000  C
  C1189    1.0000 0.02853  0.33795  0.83974  Biso   1.000  C
  C1190    1.0000 0.02853  0.33795  0.83970  Biso   1.000  C
  C1191    1.0000 0.02857  0.33795  0.83974  Biso   1.000  C
  C1192    1.0000 0.02857  0.33795  0.83970  Biso   1.000  C
  C1193    1.0000 0.95507  0.43653  0.76023  Biso   1.000  C
  C1194    1.0000 0.95507  0.43653  0.76018  Biso   1.000  C
  H1165    1.0000 0.97830  0.63562  0.29270  Biso   1.000  H
  C1195    1.0000 0.03380  0.64537  0.22744  Biso   1.000  C
  C1196    1.0000 0.03380  0.64537  0.22739  Biso   1.000  C
  C1197    1.0000 0.03383  0.64537  0.22744  Biso   1.000  C
  C1198    1.0000 0.03383  0.64537  0.22739  Biso   1.000  C
  O420     1.0000 0.06461  0.52540  0.24356  Biso   1.000  O
  N840     1.0000 0.06575  0.60584  0.22246  Biso   1.000  N
  O421     1.0000 0.06461  0.52540  0.24351  Biso   1.000  O
  O422     1.0000 0.94944  0.67988  0.11810  Biso   1.000  O
  O423     1.0000 0.94948  0.67988  0.11810  Biso   1.000  O
  N841     1.0000 0.01889  0.66604  0.17003  Biso   1.000  N
  H1166    1.0000 0.95371  0.32991  0.74402  Biso   1.000  H
  H1167    1.0000 0.95371  0.32991  0.74397  Biso   1.000  H
  C1199    1.0000 0.01299  0.37708  0.74845  Biso   1.000  C
  C1200    1.0000 0.01299  0.37708  0.74840  Biso   1.000  C
  O424     1.0000 0.05056  0.32012  0.88190  Biso   1.000  O
  N842     1.0000 0.04767  0.36477  0.79343  Biso   1.000  N
  O425     1.0000 0.05056  0.32012  0.88185  Biso   1.000  O
  O426     1.0000 0.93539  0.47460  0.75644  Biso   1.000  O
  N843     1.0000 0.00181  0.42749  0.74598  Biso   1.000  N
  H1168    1.0000 0.04629  0.67009  0.25598  Biso   1.000  H
  H1169    1.0000 0.04632  0.67009  0.25598  Biso   1.000  H
  C1201    1.0000 0.11680  0.61125  0.21899  Biso   1.000  C
  C1202    1.0000 0.11680  0.61125  0.21894  Biso   1.000  C
  C1203    1.0000 0.11684  0.61125  0.21899  Biso   1.000  C
  C1204    1.0000 0.11684  0.61125  0.21894  Biso   1.000  C
  C1205    1.0000 0.04817  0.69941  0.13651  Biso   1.000  C
  H1170    1.0000 0.02170  0.36442  0.70730  Biso   1.000  H
  C1206    1.0000 0.09844  0.36893  0.78352  Biso   1.000  C
  C1207    1.0000 0.09844  0.36893  0.78348  Biso   1.000  C
  C1208    1.0000 0.02932  0.46140  0.71187  Biso   1.000  C
  H1171    1.0000 0.13188  0.58179  0.23452  Biso   1.000  H
  H1172    1.0000 0.12651  0.63772  0.24612  Biso   1.000  H
  N844     1.0000 0.13455  0.62061  0.15857  Biso   1.000  N
  H1173    1.0000 0.13188  0.58179  0.23447  Biso   1.000  H
  H1174    1.0000 0.12651  0.63772  0.24607  Biso   1.000  H
  H1175    1.0000 0.13192  0.58179  0.23452  Biso   1.000  H
  H1176    1.0000 0.13192  0.58179  0.23447  Biso   1.000  H
  H1177    1.0000 0.06251  0.72221  0.16560  Biso   1.000  H
  H1178    1.0000 0.02771  0.71770  0.10819  Biso   1.000  H
  N845     1.0000 0.08556  0.67710  0.10198  Biso   1.000  N
  N846     1.0000 0.08560  0.67710  0.10198  Biso   1.000  N
  N847     1.0000 0.11630  0.41664  0.79302  Biso   1.000  N
  H1179    1.0000 0.10581  0.35890  0.74119  Biso   1.000  H
  H1180    1.0000 0.11509  0.34702  0.81161  Biso   1.000  H
  N848     1.0000 0.06991  0.47919  0.74415  Biso   1.000  N
  H1181    1.0000 0.00861  0.48851  0.70072  Biso   1.000  H
  H1182    1.0000 0.04020  0.44621  0.67350  Biso   1.000  H
  H1183    1.0000 0.00861  0.48851  0.70068  Biso   1.000  H
  C1209    1.0000 0.13156  0.66639  0.12911  Biso   1.000  C
  C1210    1.0000 0.16565  0.59061  0.12879  Biso   1.000  C
  C1211    1.0000 0.08980  0.68408  0.04042  Biso   1.000  C
  C1212    1.0000 0.08980  0.68408  0.04037  Biso   1.000  C
  C1213    1.0000 0.11491  0.45382  0.74785  Biso   1.000  C
  C1214    1.0000 0.14498  0.42810  0.84166  Biso   1.000  C
  C1215    1.0000 0.07510  0.52686  0.75872  Biso   1.000  C
  C1216    1.0000 0.16490  0.66148  0.07344  Biso   1.000  C
  H1184    1.0000 0.14220  0.69251  0.15688  Biso   1.000  H
  O427     1.0000 0.17835  0.55180  0.14779  Biso   1.000  O
  N849     1.0000 0.18080  0.61278  0.07741  Biso   1.000  N
  O428     1.0000 0.17838  0.55180  0.14779  Biso   1.000  O
  O429     1.0000 0.05731  0.69824  0.00735  Biso   1.000  O
  N850     1.0000 0.13416  0.67244  0.02238  Biso   1.000  N
  H1185    1.0000 0.12509  0.44180  0.70689  Biso   1.000  H
  C1217    1.0000 0.15006  0.49143  0.77265  Biso   1.000  C
  H1186    1.0000 0.12512  0.44180  0.70689  Biso   1.000  H
  O430     1.0000 0.15302  0.40252  0.88523  Biso   1.000  O
  N851     1.0000 0.16390  0.47232  0.83184  Biso   1.000  N
  O431     1.0000 0.15305  0.40252  0.88523  Biso   1.000  O
  O432     1.0000 0.04376  0.55643  0.75516  Biso   1.000  O
  N852     1.0000 0.12068  0.53426  0.77635  Biso   1.000  N
  H1187    1.0000 0.19219  0.68422  0.07600  Biso   1.000  H
  H1188    1.0000 0.19222  0.68422  0.07600  Biso   1.000  H
  C1218    1.0000 0.21873  0.59396  0.03992  Biso   1.000  C
  C1219    1.0000 0.15266  0.68376  0.96150  Biso   1.000  C
  H1189    1.0000 0.17799  0.49591  0.74502  Biso   1.000  H
  H1190    1.0000 0.17799  0.49591  0.74498  Biso   1.000  H
  C1220    1.0000 0.20460  0.48933  0.86468  Biso   1.000  C
  C1221    1.0000 0.14071  0.58193  0.78247  Biso   1.000  C
  C1222    1.0000 0.14071  0.58193  0.78243  Biso   1.000  C
  C1223    1.0000 0.14074  0.58193  0.78247  Biso   1.000  C
  C1224    1.0000 0.14074  0.58193  0.78243  Biso   1.000  C
  N853     1.0000 0.20368  0.58051  0.97849  Biso   1.000  N
  H1191    1.0000 0.24420  0.61819  0.03672  Biso   1.000  H
  H1192    1.0000 0.23239  0.56571  0.06042  Biso   1.000  H
  H1193    1.0000 0.24420  0.61819  0.03667  Biso   1.000  H
  H1194    1.0000 0.23239  0.56571  0.06038  Biso   1.000  H
  H1195    1.0000 0.23242  0.56571  0.06042  Biso   1.000  H
  H1196    1.0000 0.23242  0.56571  0.06038  Biso   1.000  H
  N854     1.0000 0.16017  0.64163  0.92442  Biso   1.000  N
  H1197    1.0000 0.18319  0.70101  0.96579  Biso   1.000  H
  H1198    1.0000 0.13000  0.70510  0.94040  Biso   1.000  H
  N855     1.0000 0.16020  0.64163  0.92442  Biso   1.000  N
  H1199    1.0000 0.18322  0.70101  0.96579  Biso   1.000  H
  N856     1.0000 0.19571  0.53241  0.89902  Biso   1.000  N
  H1200    1.0000 0.21542  0.46421  0.89322  Biso   1.000  H
  H1201    1.0000 0.23072  0.49530  0.83531  Biso   1.000  H
  H1202    1.0000 0.21542  0.46421  0.89318  Biso   1.000  H
  N857     1.0000 0.15359  0.59439  0.84404  Biso   1.000  N
  H1203    1.0000 0.11719  0.60531  0.76722  Biso   1.000  H
  H1204    1.0000 0.16942  0.58432  0.75630  Biso   1.000  H
  N858     1.0000 0.15359  0.59439  0.84399  Biso   1.000  N
  H1205    1.0000 0.11719  0.60531  0.76717  Biso   1.000  H
  C1225    1.0000 0.20119  0.53447  0.96091  Biso   1.000  C
  C1226    1.0000 0.20282  0.61324  0.92725  Biso   1.000  C
  C1227    1.0000 0.20282  0.61324  0.92720  Biso   1.000  C
  C1228    1.0000 0.20286  0.61324  0.92725  Biso   1.000  C
  C1229    1.0000 0.20286  0.61324  0.92720  Biso   1.000  C
  C1230    1.0000 0.13263  0.63085  0.87532  Biso   1.000  C
  C1231    1.0000 0.13263  0.63085  0.87527  Biso   1.000  C
  C1232    1.0000 0.19774  0.57955  0.87212  Biso   1.000  C
  O433     1.0000 0.20471  0.49936  0.99507  Biso   1.000  O
  H1206    1.0000 0.23232  0.63299  0.92492  Biso   1.000  H
  H1207    1.0000 0.23232  0.63299  0.92487  Biso   1.000  H
  O434     1.0000 0.09577  0.65117  0.86048  Biso   1.000  O
  H1208    1.0000 0.22520  0.58272  0.84330  Biso   1.000  H
  C1233    1.0000 0.80226  0.42049  0.12788  Biso   1.000  C
  C1234    1.0000 0.79718  0.38676  0.07275  Biso   1.000  C
  N859     1.0000 0.80429  0.46759  0.10098  Biso   1.000  N
  H1209    1.0000 0.77480  0.41732  0.15670  Biso   1.000  H
  N860     1.0000 0.84641  0.40565  0.15596  Biso   1.000  N
  N861     1.0000 0.84645  0.40565  0.15596  Biso   1.000  N
  N862     1.0000 0.83983  0.35837  0.07558  Biso   1.000  N
  N863     1.0000 0.79632  0.41952  0.02151  Biso   1.000  N
  H1210    1.0000 0.76768  0.36701  0.07508  Biso   1.000  H
  N864     1.0000 0.79632  0.41952  0.02147  Biso   1.000  N
  N865     1.0000 0.79636  0.41952  0.02151  Biso   1.000  N
  H1211    1.0000 0.76772  0.36701  0.07508  Biso   1.000  H
  N866     1.0000 0.79636  0.41952  0.02147  Biso   1.000  N
  C1235    1.0000 0.79881  0.46553  0.03909  Biso   1.000  C
  C1236    1.0000 0.79885  0.46553  0.03909  Biso   1.000  C
  C1237    1.0000 0.79540  0.51071  0.13532  Biso   1.000  C
  C1238    1.0000 0.79543  0.51071  0.13532  Biso   1.000  C
  C1239    1.0000 0.86737  0.36915  0.12468  Biso   1.000  C
  C1240    1.0000 0.85929  0.41807  0.21753  Biso   1.000  C
  C1241    1.0000 0.84734  0.31624  0.03850  Biso   1.000  C
  C1242    1.0000 0.78127  0.40604  0.96008  Biso   1.000  C
  O435     1.0000 0.79529  0.50064  0.00493  Biso   1.000  O
  N867     1.0000 0.83610  0.52768  0.16816  Biso   1.000  N
  H1212    1.0000 0.78458  0.53579  0.10678  Biso   1.000  H
  H1213    1.0000 0.76928  0.50470  0.16469  Biso   1.000  H
  N868     1.0000 0.83610  0.52768  0.16811  Biso   1.000  N
  H1214    1.0000 0.78462  0.53579  0.10678  Biso   1.000  H
  H1215    1.0000 0.76932  0.50470  0.16469  Biso   1.000  H
  O436     1.0000 0.90423  0.34883  0.13952  Biso   1.000  O
  H1216    1.0000 0.88281  0.39469  0.23278  Biso   1.000  H
  N869     1.0000 0.87932  0.46574  0.22365  Biso   1.000  N
  H1217    1.0000 0.83058  0.41572  0.24370  Biso   1.000  H
  N870     1.0000 0.87932  0.46574  0.22360  Biso   1.000  N
  H1218    1.0000 0.83062  0.41572  0.24370  Biso   1.000  H
  H1219    1.0000 0.81681  0.29899  0.03421  Biso   1.000  H
  H1220    1.0000 0.87000  0.29490  0.05960  Biso   1.000  H
  N871     1.0000 0.86584  0.32756  0.97762  Biso   1.000  N
  N872     1.0000 0.81920  0.38722  0.92259  Biso   1.000  N
  H1221    1.0000 0.75580  0.38181  0.96328  Biso   1.000  H
  H1222    1.0000 0.76761  0.43429  0.93958  Biso   1.000  H
  C1243    1.0000 0.85502  0.57190  0.15834  Biso   1.000  C
  C1244    1.0000 0.84994  0.50857  0.22735  Biso   1.000  C
  C1245    1.0000 0.84997  0.50857  0.22735  Biso   1.000  C
  C1246    1.0000 0.92490  0.47314  0.24128  Biso   1.000  C
  C1247    1.0000 0.91020  0.31596  0.95958  Biso   1.000  C
  C1248    1.0000 0.83510  0.33852  0.92656  Biso   1.000  C
  C1249    1.0000 0.83435  0.40939  0.87121  Biso   1.000  C
  C1250    1.0000 0.83435  0.40939  0.87116  Biso   1.000  C
  N873     1.0000 0.88370  0.58336  0.20698  Biso   1.000  N
  O437     1.0000 0.84698  0.59752  0.11477  Biso   1.000  O
  O438     1.0000 0.84698  0.59752  0.11472  Biso   1.000  O
  C1251    1.0000 0.88509  0.54621  0.25215  Biso   1.000  C
  H1223    1.0000 0.82201  0.50409  0.25498  Biso   1.000  H
  O439     1.0000 0.95624  0.44357  0.24484  Biso   1.000  O
  N874     1.0000 0.93009  0.52081  0.25585  Biso   1.000  N
  O440     1.0000 0.94269  0.30176  0.99265  Biso   1.000  O
  N875     1.0000 0.91444  0.32293  0.89802  Biso   1.000  N
  N876     1.0000 0.91444  0.32293  0.89797  Biso   1.000  N
  H1224    1.0000 0.80781  0.31582  0.92400  Biso   1.000  H
  C1252    1.0000 0.86844  0.33361  0.87089  Biso   1.000  C
  C1253    1.0000 0.86847  0.33361  0.87089  Biso   1.000  C
  O441     1.0000 0.82165  0.44824  0.85221  Biso   1.000  O
  N877     1.0000 0.86545  0.37943  0.84143  Biso   1.000  N
  O442     1.0000 0.82165  0.44824  0.85216  Biso   1.000  O
  N878     1.0000 0.86545  0.37943  0.84139  Biso   1.000  N
  N879     1.0000 0.86548  0.37943  0.84143  Biso   1.000  N
  N880     1.0000 0.86548  0.37943  0.84139  Biso   1.000  N
  C1254    1.0000 0.90156  0.63110  0.21648  Biso   1.000  C
  C1255    1.0000 0.90159  0.63110  0.21648  Biso   1.000  C
  H1225    1.0000 0.87491  0.55820  0.29311  Biso   1.000  H
  H1226    1.0000 0.87491  0.55820  0.29307  Biso   1.000  H
  C1256    1.0000 0.97068  0.53860  0.28813  Biso   1.000  C
  C1257    1.0000 0.95183  0.30059  0.86349  Biso   1.000  C
  H1227    1.0000 0.85780  0.30749  0.84312  Biso   1.000  H
  H1228    1.0000 0.85780  0.30749  0.84308  Biso   1.000  H
  C1258    1.0000 0.88320  0.38879  0.78101  Biso   1.000  C
  H1229    1.0000 0.88491  0.65302  0.18839  Biso   1.000  H
  N881     1.0000 0.95233  0.63523  0.20657  Biso   1.000  N
  H1230    1.0000 0.89419  0.64110  0.25881  Biso   1.000  H
  N882     1.0000 0.95233  0.63523  0.20652  Biso   1.000  N
  H1231    1.0000 0.89419  0.64110  0.25877  Biso   1.000  H
  H1232    1.0000 0.99139  0.51149  0.29928  Biso   1.000  H
  H1233    1.0000 0.95980  0.55379  0.32650  Biso   1.000  H
  N883     1.0000 0.99819  0.57251  0.25402  Biso   1.000  N
  N884     1.0000 0.99822  0.57251  0.25402  Biso   1.000  N
  N885     1.0000 0.98111  0.33400  0.82997  Biso   1.000  N
  H1234    1.0000 0.93749  0.27779  0.83440  Biso   1.000  H
  H1235    1.0000 0.97229  0.28230  0.89181  Biso   1.000  H
  N886     1.0000 0.98111  0.33400  0.82992  Biso   1.000  N
  H1236    1.0000 0.97232  0.28230  0.89181  Biso   1.000  H
  N887     1.0000 0.93425  0.39416  0.77754  Biso   1.000  N
  H1237    1.0000 0.86812  0.41821  0.76548  Biso   1.000  H
  H1238    1.0000 0.87349  0.36232  0.75388  Biso   1.000  H
  N888     1.0000 0.93425  0.39416  0.77749  Biso   1.000  N
  H1239    1.0000 0.87352  0.36232  0.75388  Biso   1.000  H
  C1259    1.0000 0.98701  0.62292  0.25155  Biso   1.000  C
  C1260    1.0000 0.97147  0.66205  0.16026  Biso   1.000  C
  C1261    1.0000 0.04493  0.56347  0.23977  Biso   1.000  C
  C1262    1.0000 0.04497  0.56347  0.23977  Biso   1.000  C
  C1263    1.0000 0.96620  0.35463  0.77256  Biso   1.000  C
  C1264    1.0000 0.02853  0.33795  0.83974  Biso   1.000  C
  C1265    1.0000 0.02853  0.33795  0.83970  Biso   1.000  C
  C1266    1.0000 0.02857  0.33795  0.83974  Biso   1.000  C
  C1267    1.0000 0.02857  0.33795  0.83970  Biso   1.000  C
  C1268    1.0000 0.95507  0.43653  0.76023  Biso   1.000  C
  C1269    1.0000 0.95507  0.43653  0.76018  Biso   1.000  C
  H1240    1.0000 0.97830  0.63562  0.29270  Biso   1.000  H
  C1270    1.0000 0.03380  0.64537  0.22744  Biso   1.000  C
  C1271    1.0000 0.03380  0.64537  0.22739  Biso   1.000  C
  C1272    1.0000 0.03383  0.64537  0.22744  Biso   1.000  C
  C1273    1.0000 0.03383  0.64537  0.22739  Biso   1.000  C
  O443     1.0000 0.94944  0.67988  0.11810  Biso   1.000  O
  O444     1.0000 0.94948  0.67988  0.11810  Biso   1.000  O
  N889     1.0000 0.01889  0.66604  0.17003  Biso   1.000  N
  O445     1.0000 0.06461  0.52540  0.24356  Biso   1.000  O
  N890     1.0000 0.06575  0.60584  0.22246  Biso   1.000  N
  O446     1.0000 0.06461  0.52540  0.24351  Biso   1.000  O
  H1241    1.0000 0.95371  0.32991  0.74402  Biso   1.000  H
  H1242    1.0000 0.95371  0.32991  0.74397  Biso   1.000  H
  C1274    1.0000 0.01299  0.37708  0.74845  Biso   1.000  C
  C1275    1.0000 0.01299  0.37708  0.74840  Biso   1.000  C
  O447     1.0000 0.05056  0.32012  0.88190  Biso   1.000  O
  N891     1.0000 0.04767  0.36477  0.79343  Biso   1.000  N
  O448     1.0000 0.05056  0.32012  0.88185  Biso   1.000  O
  O449     1.0000 0.93539  0.47460  0.75644  Biso   1.000  O
  N892     1.0000 0.00181  0.42749  0.74598  Biso   1.000  N
  H1243    1.0000 0.04629  0.67009  0.25598  Biso   1.000  H
  H1244    1.0000 0.04632  0.67009  0.25598  Biso   1.000  H
  C1276    1.0000 0.04817  0.69941  0.13651  Biso   1.000  C
  C1277    1.0000 0.11680  0.61125  0.21899  Biso   1.000  C
  C1278    1.0000 0.11680  0.61125  0.21894  Biso   1.000  C
  C1279    1.0000 0.11684  0.61125  0.21899  Biso   1.000  C
  C1280    1.0000 0.11684  0.61125  0.21894  Biso   1.000  C
  H1245    1.0000 0.02170  0.36442  0.70730  Biso   1.000  H
  C1281    1.0000 0.09844  0.36893  0.78352  Biso   1.000  C
  C1282    1.0000 0.09844  0.36893  0.78348  Biso   1.000  C
  C1283    1.0000 0.02932  0.46140  0.71187  Biso   1.000  C
  H1246    1.0000 0.06251  0.72221  0.16560  Biso   1.000  H
  H1247    1.0000 0.02771  0.71770  0.10819  Biso   1.000  H
  N893     1.0000 0.08556  0.67710  0.10198  Biso   1.000  N
  N894     1.0000 0.08560  0.67710  0.10198  Biso   1.000  N
  H1248    1.0000 0.13188  0.58179  0.23452  Biso   1.000  H
  H1249    1.0000 0.12651  0.63772  0.24612  Biso   1.000  H
  N895     1.0000 0.13455  0.62061  0.15857  Biso   1.000  N
  H1250    1.0000 0.13188  0.58179  0.23447  Biso   1.000  H
  H1251    1.0000 0.12651  0.63772  0.24607  Biso   1.000  H
  H1252    1.0000 0.13192  0.58179  0.23452  Biso   1.000  H
  H1253    1.0000 0.13192  0.58179  0.23447  Biso   1.000  H
  N896     1.0000 0.11630  0.41664  0.79302  Biso   1.000  N
  H1254    1.0000 0.10581  0.35890  0.74119  Biso   1.000  H
  H1255    1.0000 0.11509  0.34702  0.81161  Biso   1.000  H
  N897     1.0000 0.06991  0.47919  0.74415  Biso   1.000  N
  H1256    1.0000 0.00861  0.48851  0.70072  Biso   1.000  H
  H1257    1.0000 0.04020  0.44621  0.67350  Biso   1.000  H
  H1258    1.0000 0.00861  0.48851  0.70068  Biso   1.000  H
  C1284    1.0000 0.08980  0.68408  0.04042  Biso   1.000  C
  C1285    1.0000 0.13156  0.66639  0.12911  Biso   1.000  C
  C1286    1.0000 0.08980  0.68408  0.04037  Biso   1.000  C
  C1287    1.0000 0.16565  0.59061  0.12879  Biso   1.000  C
  C1288    1.0000 0.11491  0.45382  0.74785  Biso   1.000  C
  C1289    1.0000 0.14498  0.42810  0.84166  Biso   1.000  C
  C1290    1.0000 0.07510  0.52686  0.75872  Biso   1.000  C
  O450     1.0000 0.05731  0.69824  0.00735  Biso   1.000  O
  N898     1.0000 0.13416  0.67244  0.02238  Biso   1.000  N
  C1291    1.0000 0.16490  0.66148  0.07344  Biso   1.000  C
  H1259    1.0000 0.14220  0.69251  0.15688  Biso   1.000  H
  O451     1.0000 0.17835  0.55180  0.14779  Biso   1.000  O
  N899     1.0000 0.18080  0.61278  0.07741  Biso   1.000  N
  O452     1.0000 0.17838  0.55180  0.14779  Biso   1.000  O
  H1260    1.0000 0.12509  0.44180  0.70689  Biso   1.000  H
  C1292    1.0000 0.15006  0.49143  0.77265  Biso   1.000  C
  H1261    1.0000 0.12512  0.44180  0.70689  Biso   1.000  H
  O453     1.0000 0.15302  0.40252  0.88523  Biso   1.000  O
  N900     1.0000 0.16390  0.47232  0.83184  Biso   1.000  N
  O454     1.0000 0.15305  0.40252  0.88523  Biso   1.000  O
  O455     1.0000 0.04376  0.55643  0.75516  Biso   1.000  O
  N901     1.0000 0.12068  0.53426  0.77635  Biso   1.000  N
  C1293    1.0000 0.15266  0.68376  0.96150  Biso   1.000  C
  H1262    1.0000 0.19219  0.68422  0.07600  Biso   1.000  H
  H1263    1.0000 0.19222  0.68422  0.07600  Biso   1.000  H
  C1294    1.0000 0.21873  0.59396  0.03992  Biso   1.000  C
  H1264    1.0000 0.17799  0.49591  0.74502  Biso   1.000  H
  H1265    1.0000 0.17799  0.49591  0.74498  Biso   1.000  H
  C1295    1.0000 0.20460  0.48933  0.86468  Biso   1.000  C
  C1296    1.0000 0.14071  0.58193  0.78247  Biso   1.000  C
  C1297    1.0000 0.14071  0.58193  0.78243  Biso   1.000  C
  C1298    1.0000 0.14074  0.58193  0.78247  Biso   1.000  C
  C1299    1.0000 0.14074  0.58193  0.78243  Biso   1.000  C
  N902     1.0000 0.16017  0.64163  0.92442  Biso   1.000  N
  H1266    1.0000 0.18319  0.70101  0.96579  Biso   1.000  H
  H1267    1.0000 0.13000  0.70510  0.94040  Biso   1.000  H
  N903     1.0000 0.16020  0.64163  0.92442  Biso   1.000  N
  H1268    1.0000 0.18322  0.70101  0.96579  Biso   1.000  H
  N904     1.0000 0.20368  0.58051  0.97849  Biso   1.000  N
  H1269    1.0000 0.24420  0.61819  0.03672  Biso   1.000  H
  H1270    1.0000 0.23239  0.56571  0.06042  Biso   1.000  H
  H1271    1.0000 0.24420  0.61819  0.03667  Biso   1.000  H
  H1272    1.0000 0.23239  0.56571  0.06038  Biso   1.000  H
  H1273    1.0000 0.23242  0.56571  0.06042  Biso   1.000  H
  H1274    1.0000 0.23242  0.56571  0.06038  Biso   1.000  H
  N905     1.0000 0.19571  0.53241  0.89902  Biso   1.000  N
  H1275    1.0000 0.21542  0.46421  0.89322  Biso   1.000  H
  H1276    1.0000 0.23072  0.49530  0.83531  Biso   1.000  H
  H1277    1.0000 0.21542  0.46421  0.89318  Biso   1.000  H
  N906     1.0000 0.15359  0.59439  0.84404  Biso   1.000  N
  H1278    1.0000 0.11719  0.60531  0.76722  Biso   1.000  H
  H1279    1.0000 0.16942  0.58432  0.75630  Biso   1.000  H
  N907     1.0000 0.15359  0.59439  0.84399  Biso   1.000  N
  H1280    1.0000 0.11719  0.60531  0.76717  Biso   1.000  H
  C1300    1.0000 0.13263  0.63085  0.87532  Biso   1.000  C
  C1301    1.0000 0.13263  0.63085  0.87527  Biso   1.000  C
  C1302    1.0000 0.20282  0.61324  0.92725  Biso   1.000  C
  C1303    1.0000 0.20282  0.61324  0.92720  Biso   1.000  C
  C1304    1.0000 0.20286  0.61324  0.92725  Biso   1.000  C
  C1305    1.0000 0.20286  0.61324  0.92720  Biso   1.000  C
  C1306    1.0000 0.20119  0.53447  0.96091  Biso   1.000  C
  C1307    1.0000 0.19774  0.57955  0.87212  Biso   1.000  C
  O456     1.0000 0.09577  0.65117  0.86048  Biso   1.000  O
  H1281    1.0000 0.23232  0.63299  0.92492  Biso   1.000  H
  H1282    1.0000 0.23232  0.63299  0.92487  Biso   1.000  H
  O457     1.0000 0.20471  0.49936  0.99507  Biso   1.000  O
  H1283    1.0000 0.22520  0.58272  0.84330  Biso   1.000  H
  C1308    1.0000 0.80226  0.42049  0.12788  Biso   1.000  C
  C1309    1.0000 0.79718  0.38676  0.07275  Biso   1.000  C
  N908     1.0000 0.80429  0.46759  0.10098  Biso   1.000  N
  H1284    1.0000 0.77480  0.41732  0.15670  Biso   1.000  H
  N909     1.0000 0.84641  0.40565  0.15596  Biso   1.000  N
  N910     1.0000 0.84645  0.40565  0.15596  Biso   1.000  N
  N911     1.0000 0.83983  0.35837  0.07558  Biso   1.000  N
  N912     1.0000 0.79632  0.41952  0.02151  Biso   1.000  N
  H1285    1.0000 0.76768  0.36701  0.07508  Biso   1.000  H
  N913     1.0000 0.79632  0.41952  0.02147  Biso   1.000  N
  N914     1.0000 0.79636  0.41952  0.02151  Biso   1.000  N
  H1286    1.0000 0.76772  0.36701  0.07508  Biso   1.000  H
  N915     1.0000 0.79636  0.41952  0.02147  Biso   1.000  N
  C1310    1.0000 0.79881  0.46553  0.03909  Biso   1.000  C
  C1311    1.0000 0.79885  0.46553  0.03909  Biso   1.000  C
  C1312    1.0000 0.79540  0.51071  0.13532  Biso   1.000  C
  C1313    1.0000 0.79543  0.51071  0.13532  Biso   1.000  C
  C1314    1.0000 0.86737  0.36915  0.12468  Biso   1.000  C
  C1315    1.0000 0.85929  0.41807  0.21753  Biso   1.000  C
  C1316    1.0000 0.84734  0.31624  0.03850  Biso   1.000  C
  C1317    1.0000 0.78127  0.40604  0.96008  Biso   1.000  C
  O458     1.0000 0.79529  0.50064  0.00493  Biso   1.000  O
  N916     1.0000 0.83610  0.52768  0.16816  Biso   1.000  N
  H1287    1.0000 0.78458  0.53579  0.10678  Biso   1.000  H
  H1288    1.0000 0.76928  0.50470  0.16469  Biso   1.000  H
  N917     1.0000 0.83610  0.52768  0.16811  Biso   1.000  N
  H1289    1.0000 0.78462  0.53579  0.10678  Biso   1.000  H
  H1290    1.0000 0.76932  0.50470  0.16469  Biso   1.000  H
  O459     1.0000 0.90423  0.34883  0.13952  Biso   1.000  O
  H1291    1.0000 0.88281  0.39469  0.23278  Biso   1.000  H
  N918     1.0000 0.87932  0.46574  0.22365  Biso   1.000  N
  H1292    1.0000 0.83058  0.41572  0.24370  Biso   1.000  H
  N919     1.0000 0.87932  0.46574  0.22360  Biso   1.000  N
  H1293    1.0000 0.83062  0.41572  0.24370  Biso   1.000  H
  H1294    1.0000 0.81681  0.29899  0.03421  Biso   1.000  H
  H1295    1.0000 0.87000  0.29490  0.05960  Biso   1.000  H
  N920     1.0000 0.86584  0.32756  0.97762  Biso   1.000  N
  N921     1.0000 0.81920  0.38722  0.92259  Biso   1.000  N
  H1296    1.0000 0.75580  0.38181  0.96328  Biso   1.000  H
  H1297    1.0000 0.76761  0.43429  0.93958  Biso   1.000  H
  C1318    1.0000 0.85502  0.57190  0.15834  Biso   1.000  C
  C1319    1.0000 0.84994  0.50857  0.22735  Biso   1.000  C
  C1320    1.0000 0.84997  0.50857  0.22735  Biso   1.000  C
  C1321    1.0000 0.92490  0.47314  0.24128  Biso   1.000  C
  C1322    1.0000 0.91020  0.31596  0.95958  Biso   1.000  C
  C1323    1.0000 0.83510  0.33852  0.92656  Biso   1.000  C
  C1324    1.0000 0.83435  0.40939  0.87121  Biso   1.000  C
  C1325    1.0000 0.83435  0.40939  0.87116  Biso   1.000  C
  N922     1.0000 0.88370  0.58336  0.20698  Biso   1.000  N
  O460     1.0000 0.84698  0.59752  0.11477  Biso   1.000  O
  O461     1.0000 0.84698  0.59752  0.11472  Biso   1.000  O
  C1326    1.0000 0.88509  0.54621  0.25215  Biso   1.000  C
  H1298    1.0000 0.82201  0.50409  0.25498  Biso   1.000  H
  O462     1.0000 0.95624  0.44357  0.24484  Biso   1.000  O
  N923     1.0000 0.93009  0.52081  0.25585  Biso   1.000  N
  O463     1.0000 0.94269  0.30176  0.99265  Biso   1.000  O
  N924     1.0000 0.91444  0.32293  0.89802  Biso   1.000  N
  N925     1.0000 0.91444  0.32293  0.89797  Biso   1.000  N
  H1299    1.0000 0.80781  0.31582  0.92400  Biso   1.000  H
  C1327    1.0000 0.86844  0.33361  0.87089  Biso   1.000  C
  C1328    1.0000 0.86847  0.33361  0.87089  Biso   1.000  C
  O464     1.0000 0.82165  0.44824  0.85221  Biso   1.000  O
  N926     1.0000 0.86545  0.37943  0.84143  Biso   1.000  N
  O465     1.0000 0.82165  0.44824  0.85216  Biso   1.000  O
  N927     1.0000 0.86545  0.37943  0.84139  Biso   1.000  N
  N928     1.0000 0.86548  0.37943  0.84143  Biso   1.000  N
  N929     1.0000 0.86548  0.37943  0.84139  Biso   1.000  N
  C1329    1.0000 0.90156  0.63110  0.21648  Biso   1.000  C
  C1330    1.0000 0.90159  0.63110  0.21648  Biso   1.000  C
  H1300    1.0000 0.87491  0.55820  0.29311  Biso   1.000  H
  H1301    1.0000 0.87491  0.55820  0.29307  Biso   1.000  H
  C1331    1.0000 0.97068  0.53860  0.28813  Biso   1.000  C
  C1332    1.0000 0.95183  0.30059  0.86349  Biso   1.000  C
  H1302    1.0000 0.85780  0.30749  0.84312  Biso   1.000  H
  H1303    1.0000 0.85780  0.30749  0.84308  Biso   1.000  H
  C1333    1.0000 0.88320  0.38879  0.78101  Biso   1.000  C
  H1304    1.0000 0.88491  0.65302  0.18839  Biso   1.000  H
  N930     1.0000 0.95233  0.63523  0.20657  Biso   1.000  N
  H1305    1.0000 0.89419  0.64110  0.25881  Biso   1.000  H
  N931     1.0000 0.95233  0.63523  0.20652  Biso   1.000  N
  H1306    1.0000 0.89419  0.64110  0.25877  Biso   1.000  H
  H1307    1.0000 0.99139  0.51149  0.29928  Biso   1.000  H
  H1308    1.0000 0.95980  0.55379  0.32650  Biso   1.000  H
  N932     1.0000 0.99819  0.57251  0.25402  Biso   1.000  N
  N933     1.0000 0.99822  0.57251  0.25402  Biso   1.000  N
  N934     1.0000 0.98111  0.33400  0.82997  Biso   1.000  N
  H1309    1.0000 0.93749  0.27779  0.83440  Biso   1.000  H
  H1310    1.0000 0.97229  0.28230  0.89181  Biso   1.000  H
  N935     1.0000 0.98111  0.33400  0.82992  Biso   1.000  N
  H1311    1.0000 0.97232  0.28230  0.89181  Biso   1.000  H
  N936     1.0000 0.93425  0.39416  0.77754  Biso   1.000  N
  H1312    1.0000 0.86812  0.41821  0.76548  Biso   1.000  H
  H1313    1.0000 0.87349  0.36232  0.75388  Biso   1.000  H
  N937     1.0000 0.93425  0.39416  0.77749  Biso   1.000  N
  H1314    1.0000 0.87352  0.36232  0.75388  Biso   1.000  H
  C1334    1.0000 0.98701  0.62292  0.25155  Biso   1.000  C
  C1335    1.0000 0.97147  0.66205  0.16026  Biso   1.000  C
  C1336    1.0000 0.04493  0.56347  0.23977  Biso   1.000  C
  C1337    1.0000 0.04497  0.56347  0.23977  Biso   1.000  C
  C1338    1.0000 0.96620  0.35463  0.77256  Biso   1.000  C
  C1339    1.0000 0.02853  0.33795  0.83974  Biso   1.000  C
  C1340    1.0000 0.02853  0.33795  0.83970  Biso   1.000  C
  C1341    1.0000 0.02857  0.33795  0.83974  Biso   1.000  C
  C1342    1.0000 0.02857  0.33795  0.83970  Biso   1.000  C
  C1343    1.0000 0.95507  0.43653  0.76023  Biso   1.000  C
  C1344    1.0000 0.95507  0.43653  0.76018  Biso   1.000  C
  H1315    1.0000 0.97830  0.63562  0.29270  Biso   1.000  H
  C1345    1.0000 0.03380  0.64537  0.22744  Biso   1.000  C
  C1346    1.0000 0.03380  0.64537  0.22739  Biso   1.000  C
  C1347    1.0000 0.03383  0.64537  0.22744  Biso   1.000  C
  C1348    1.0000 0.03383  0.64537  0.22739  Biso   1.000  C
  O466     1.0000 0.94944  0.67988  0.11810  Biso   1.000  O
  O467     1.0000 0.94948  0.67988  0.11810  Biso   1.000  O
  N938     1.0000 0.01889  0.66604  0.17003  Biso   1.000  N
  O468     1.0000 0.06461  0.52540  0.24356  Biso   1.000  O
  N939     1.0000 0.06575  0.60584  0.22246  Biso   1.000  N
  O469     1.0000 0.06461  0.52540  0.24351  Biso   1.000  O
  H1316    1.0000 0.95371  0.32991  0.74402  Biso   1.000  H
  H1317    1.0000 0.95371  0.32991  0.74397  Biso   1.000  H
  C1349    1.0000 0.01299  0.37708  0.74845  Biso   1.000  C
  C1350    1.0000 0.01299  0.37708  0.74840  Biso   1.000  C
  O470     1.0000 0.05056  0.32012  0.88190  Biso   1.000  O
  N940     1.0000 0.04767  0.36477  0.79343  Biso   1.000  N
  O471     1.0000 0.05056  0.32012  0.88185  Biso   1.000  O
  O472     1.0000 0.93539  0.47460  0.75644  Biso   1.000  O
  N941     1.0000 0.00181  0.42749  0.74598  Biso   1.000  N
  H1318    1.0000 0.04629  0.67009  0.25598  Biso   1.000  H
  H1319    1.0000 0.04632  0.67009  0.25598  Biso   1.000  H
  C1351    1.0000 0.04817  0.69941  0.13651  Biso   1.000  C
  C1352    1.0000 0.11680  0.61125  0.21899  Biso   1.000  C
  C1353    1.0000 0.11680  0.61125  0.21894  Biso   1.000  C
  C1354    1.0000 0.11684  0.61125  0.21899  Biso   1.000  C
  C1355    1.0000 0.11684  0.61125  0.21894  Biso   1.000  C
  H1320    1.0000 0.02170  0.36442  0.70730  Biso   1.000  H
  C1356    1.0000 0.09844  0.36893  0.78352  Biso   1.000  C
  C1357    1.0000 0.09844  0.36893  0.78348  Biso   1.000  C
  C1358    1.0000 0.02932  0.46140  0.71187  Biso   1.000  C
  H1321    1.0000 0.06251  0.72221  0.16560  Biso   1.000  H
  H1322    1.0000 0.02771  0.71770  0.10819  Biso   1.000  H
  N942     1.0000 0.08556  0.67710  0.10198  Biso   1.000  N
  N943     1.0000 0.08560  0.67710  0.10198  Biso   1.000  N
  H1323    1.0000 0.13188  0.58179  0.23452  Biso   1.000  H
  H1324    1.0000 0.12651  0.63772  0.24612  Biso   1.000  H
  N944     1.0000 0.13455  0.62061  0.15857  Biso   1.000  N
  H1325    1.0000 0.13188  0.58179  0.23447  Biso   1.000  H
  H1326    1.0000 0.12651  0.63772  0.24607  Biso   1.000  H
  H1327    1.0000 0.13192  0.58179  0.23452  Biso   1.000  H
  H1328    1.0000 0.13192  0.58179  0.23447  Biso   1.000  H
  N945     1.0000 0.11630  0.41664  0.79302  Biso   1.000  N
  H1329    1.0000 0.10581  0.35890  0.74119  Biso   1.000  H
  H1330    1.0000 0.11509  0.34702  0.81161  Biso   1.000  H
  N946     1.0000 0.06991  0.47919  0.74415  Biso   1.000  N
  H1331    1.0000 0.00861  0.48851  0.70072  Biso   1.000  H
  H1332    1.0000 0.04020  0.44621  0.67350  Biso   1.000  H
  H1333    1.0000 0.00861  0.48851  0.70068  Biso   1.000  H
  C1359    1.0000 0.08980  0.68408  0.04042  Biso   1.000  C
  C1360    1.0000 0.13156  0.66639  0.12911  Biso   1.000  C
  C1361    1.0000 0.08980  0.68408  0.04037  Biso   1.000  C
  C1362    1.0000 0.16565  0.59061  0.12879  Biso   1.000  C
  C1363    1.0000 0.11491  0.45382  0.74785  Biso   1.000  C
  C1364    1.0000 0.14498  0.42810  0.84166  Biso   1.000  C
  C1365    1.0000 0.07510  0.52686  0.75872  Biso   1.000  C
  O473     1.0000 0.05731  0.69824  0.00735  Biso   1.000  O
  N947     1.0000 0.13416  0.67244  0.02238  Biso   1.000  N
  C1366    1.0000 0.16490  0.66148  0.07344  Biso   1.000  C
  H1334    1.0000 0.14220  0.69251  0.15688  Biso   1.000  H
  O474     1.0000 0.17835  0.55180  0.14779  Biso   1.000  O
  N948     1.0000 0.18080  0.61278  0.07741  Biso   1.000  N
  O475     1.0000 0.17838  0.55180  0.14779  Biso   1.000  O
  H1335    1.0000 0.12509  0.44180  0.70689  Biso   1.000  H
  C1367    1.0000 0.15006  0.49143  0.77265  Biso   1.000  C
  H1336    1.0000 0.12512  0.44180  0.70689  Biso   1.000  H
  O476     1.0000 0.15302  0.40252  0.88523  Biso   1.000  O
  N949     1.0000 0.16390  0.47232  0.83184  Biso   1.000  N
  O477     1.0000 0.15305  0.40252  0.88523  Biso   1.000  O
  O478     1.0000 0.04376  0.55643  0.75516  Biso   1.000  O
  N950     1.0000 0.12068  0.53426  0.77635  Biso   1.000  N
  C1368    1.0000 0.15266  0.68376  0.96150  Biso   1.000  C
  H1337    1.0000 0.19219  0.68422  0.07600  Biso   1.000  H
  H1338    1.0000 0.19222  0.68422  0.07600  Biso   1.000  H
  C1369    1.0000 0.21873  0.59396  0.03992  Biso   1.000  C
  H1339    1.0000 0.17799  0.49591  0.74502  Biso   1.000  H
  H1340    1.0000 0.17799  0.49591  0.74498  Biso   1.000  H
  C1370    1.0000 0.20460  0.48933  0.86468  Biso   1.000  C
  C1371    1.0000 0.14071  0.58193  0.78247  Biso   1.000  C
  C1372    1.0000 0.14071  0.58193  0.78243  Biso   1.000  C
  C1373    1.0000 0.14074  0.58193  0.78247  Biso   1.000  C
  C1374    1.0000 0.14074  0.58193  0.78243  Biso   1.000  C
  N951     1.0000 0.16017  0.64163  0.92442  Biso   1.000  N
  H1341    1.0000 0.18319  0.70101  0.96579  Biso   1.000  H
  H1342    1.0000 0.13000  0.70510  0.94040  Biso   1.000  H
  N952     1.0000 0.16020  0.64163  0.92442  Biso   1.000  N
  H1343    1.0000 0.18322  0.70101  0.96579  Biso   1.000  H
  N953     1.0000 0.20368  0.58051  0.97849  Biso   1.000  N
  H1344    1.0000 0.24420  0.61819  0.03672  Biso   1.000  H
  H1345    1.0000 0.23239  0.56571  0.06042  Biso   1.000  H
  H1346    1.0000 0.24420  0.61819  0.03667  Biso   1.000  H
  H1347    1.0000 0.23239  0.56571  0.06038  Biso   1.000  H
  H1348    1.0000 0.23242  0.56571  0.06042  Biso   1.000  H
  H1349    1.0000 0.23242  0.56571  0.06038  Biso   1.000  H
  N954     1.0000 0.19571  0.53241  0.89902  Biso   1.000  N
  H1350    1.0000 0.21542  0.46421  0.89322  Biso   1.000  H
  H1351    1.0000 0.23072  0.49530  0.83531  Biso   1.000  H
  H1352    1.0000 0.21542  0.46421  0.89318  Biso   1.000  H
  N955     1.0000 0.15359  0.59439  0.84404  Biso   1.000  N
  H1353    1.0000 0.11719  0.60531  0.76722  Biso   1.000  H
  H1354    1.0000 0.16942  0.58432  0.75630  Biso   1.000  H
  N956     1.0000 0.15359  0.59439  0.84399  Biso   1.000  N
  H1355    1.0000 0.11719  0.60531  0.76717  Biso   1.000  H
  C1375    1.0000 0.13263  0.63085  0.87532  Biso   1.000  C
  C1376    1.0000 0.13263  0.63085  0.87527  Biso   1.000  C
  C1377    1.0000 0.20282  0.61324  0.92725  Biso   1.000  C
  C1378    1.0000 0.20282  0.61324  0.92720  Biso   1.000  C
  C1379    1.0000 0.20286  0.61324  0.92725  Biso   1.000  C
  C1380    1.0000 0.20286  0.61324  0.92720  Biso   1.000  C
  C1381    1.0000 0.20119  0.53447  0.96091  Biso   1.000  C
  C1382    1.0000 0.19774  0.57955  0.87212  Biso   1.000  C
  O479     1.0000 0.09577  0.65117  0.86048  Biso   1.000  O
  H1356    1.0000 0.23232  0.63299  0.92492  Biso   1.000  H
  H1357    1.0000 0.23232  0.63299  0.92487  Biso   1.000  H
  O480     1.0000 0.20471  0.49936  0.99507  Biso   1.000  O
  H1358    1.0000 0.22520  0.58272  0.84330  Biso   1.000  H
  Ne1      1.0000 0.50000  0.50000  0.49999  Biso   1.000  Ne
  He1      1.0000 0.44087  0.58173  0.56999  Biso   1.000  He
  He2      1.0000 0.55724  0.42082  0.43217  Biso   1.000  He
  Ar1      1.0000 0.50000  0.50000  0.50000  Biso   1.000  Ar
  Ne2      1.0000 0.25000  0.25000  0.25000  Biso   1.000  Ne
  He3      1.0000 0.32800  0.30311  0.31386  Biso   1.000  He
  He4      1.0000 0.16876  0.19450  0.18335  Biso   1.000  He
  Ar2      1.0000 0.25000  0.25000  0.25000  Biso   1.000  Ar
  Ne3      1.0000 0.75001  0.25000  0.25000  Biso   1.000  Ne
  He5      1.0000 0.67042  0.19251  0.31811  Biso   1.000  He
  He6      1.0000 0.83429  0.30947  0.17920  Biso   1.000  He
  Ar3      1.0000 0.75000  0.25000  0.24999  Biso   1.000  Ar
  Ne4      1.0000 0.25000  0.75001  0.74999  Biso   1.000  Ne
  He7      1.0000 0.17043  0.69251  0.81811  Biso   1.000  He
  He8      1.0000 0.33439  0.80939  0.67927  Biso   1.000  He
  Ar4      1.0000 0.25000  0.75001  0.74998  Biso   1.000  Ar
  Ne5      1.0000 0.00346  0.00587  0.97128  Biso   1.000  Ne
  He9      1.0000 0.94087  0.08173  0.06999  Biso   1.000  He
  He10     1.0000 0.05724  0.92081  0.93217  Biso   1.000  He
  Ar5      1.0000 0.99841  0.99795  0.99862  Biso   1.000  Ar
  Ne6      1.0000 0.00346  0.00587  0.97128  Biso   1.000  Ne
  He11     1.0000 0.94087  0.08173  0.06999  Biso   1.000  He
  He12     1.0000 0.05724  0.92082  0.93217  Biso   1.000  He
  Ar6      1.0000 0.99842  0.99795  0.99862  Biso   1.000  Ar
  Ne7      1.0000 0.00346  0.00587  0.97128  Biso   1.000  Ne
  He13     1.0000 0.94087  0.08173  0.06999  Biso   1.000  He
  He14     1.0000 0.05724  0.92082  0.93217  Biso   1.000  He
  Ar7      1.0000 0.99842  0.99795  0.99862  Biso   1.000  Ar
  Ne8      1.0000 0.00346  0.00587  0.97128  Biso   1.000  Ne
  He15     1.0000 0.94087  0.08173  0.06999  Biso   1.000  He
  He16     1.0000 0.05724  0.92082  0.93217  Biso   1.000  He
  Ar8      1.0000 0.99842  0.99795  0.99862  Biso   1.000  Ar
  Ne9      1.0000 0.00346  0.00587  0.97128  Biso   1.000  Ne
  He17     1.0000 0.94087  0.08173  0.06999  Biso   1.000  He
  He18     1.0000 0.05724  0.92081  0.93217  Biso   1.000  He
  Ar9      1.0000 0.99841  0.99795  0.99862  Biso   1.000  Ar
  Ne10     1.0000 0.00346  0.00587  0.97128  Biso   1.000  Ne
  He19     1.0000 0.94087  0.08173  0.06999  Biso   1.000  He
  He20     1.0000 0.05724  0.92081  0.93217  Biso   1.000  He
  Ar10     1.0000 0.99841  0.99795  0.99862  Biso   1.000  Ar
  Ne11     1.0000 0.00346  0.00587  0.97128  Biso   1.000  Ne
  He21     1.0000 0.94087  0.08173  0.06999  Biso   1.000  He
  He22     1.0000 0.05724  0.92081  0.93217  Biso   1.000  He
  Ar11     1.0000 0.99841  0.99795  0.99862  Biso   1.000  Ar
  Ne12     1.0000 0.00346  0.00587  0.97128  Biso   1.000  Ne
  He23     1.0000 0.94087  0.08173  0.06999  Biso   1.000  He
  He24     1.0000 0.05724  0.92081  0.93217  Biso   1.000  He
  Ar12     1.0000 0.99841  0.99795  0.99862  Biso   1.000  Ar
  Ne13     1.0000 0.99802  0.50154  0.00080  Biso   1.000  Ne
  He25     1.0000 0.05953  0.41340  0.07127  Biso   1.000  He
  He26     1.0000 0.94313  0.58308  0.93177  Biso   1.000  He
  Ar13     1.0000 0.99975  0.50092  0.99968  Biso   1.000  Ar
  Ne14     1.0000 0.99802  0.50154  0.00080  Biso   1.000  Ne
  He27     1.0000 0.05953  0.41340  0.07127  Biso   1.000  He
  He28     1.0000 0.94313  0.58308  0.93177  Biso   1.000  He
  Ar14     1.0000 0.99975  0.50092  0.99968  Biso   1.000  Ar
  Ne15     1.0000 0.99802  0.50154  0.00080  Biso   1.000  Ne
  He29     1.0000 0.05952  0.41339  0.07126  Biso   1.000  He
  He30     1.0000 0.94313  0.58308  0.93177  Biso   1.000  He
  Ar15     1.0000 0.99975  0.50092  0.99968  Biso   1.000  Ar
  Ne16     1.0000 0.99802  0.50154  0.00080  Biso   1.000  Ne
  He31     1.0000 0.05952  0.41339  0.07126  Biso   1.000  He
  He32     1.0000 0.94313  0.58308  0.93177  Biso   1.000  He
  Ar16     1.0000 0.99975  0.50092  0.99968  Biso   1.000  Ar
  Ne17     1.0000 0.49794  0.99513  0.50292  Biso   1.000  Ne
  He33     1.0000 0.55593  0.91821  0.56712  Biso   1.000  He
  He34     1.0000 0.44313  0.08308  0.43177  Biso   1.000  He
  Ar17     1.0000 0.49977  0.99625  0.50171  Biso   1.000  Ar
  Ne18     1.0000 0.49794  0.99513  0.50292  Biso   1.000  Ne
  He35     1.0000 0.55593  0.91821  0.56712  Biso   1.000  He
  He36     1.0000 0.44313  0.08308  0.43177  Biso   1.000  He
  Ar18     1.0000 0.49977  0.99625  0.50171  Biso   1.000  Ar
  Ne19     1.0000 0.75001  0.75001  0.74999  Biso   1.000  Ne
  He37     1.0000 0.82800  0.80312  0.81385  Biso   1.000  He
  He38     1.0000 0.66875  0.69450  0.68335  Biso   1.000  He
  Ar19     1.0000 0.75001  0.75000  0.74998  Biso   1.000  Ar
