data_image0
_cell_length_a       22.074
_cell_length_b       22.074
_cell_length_c       28.61
_cell_angle_alpha    90
_cell_angle_beta     90
_cell_angle_gamma    90

_symmetry_space_group_name_H-M    "P 1"
_symmetry_int_tables_number       1

loop_
  _symmetry_equiv_pos_as_xyz
  'x, y, z'

loop_
  _atom_site_label
  _atom_site_occupancy
  _atom_site_fract_x
  _atom_site_fract_y
  _atom_site_fract_z
  _atom_site_thermal_displace_type
  _atom_site_B_iso_or_equiv
  _atom_site_type_symbol
  C1       1.0000 0.52179  0.37800  0.50468  Biso   1.000  C
  C2       1.0000 0.47681  0.32192  0.49731  Biso   1.000  C
  C3       1.0000 0.58091  0.36559  0.47819  Biso   1.000  C
  O1       1.0000 0.52972  0.39041  0.55358  Biso   1.000  O
  H1       1.0000 0.50281  0.41370  0.49060  Biso   1.000  H
  C4       1.0000 0.46670  0.30751  0.44551  Biso   1.000  C
  O2       1.0000 0.42099  0.33329  0.51919  Biso   1.000  O
  H2       1.0000 0.49502  0.28631  0.51209  Biso   1.000  H
  O3       1.0000 0.56809  0.35331  0.42919  Biso   1.000  O
  O4       1.0000 0.60931  0.31648  0.49979  Biso   1.000  O
  H3       1.0000 0.60718  0.40120  0.48039  Biso   1.000  H
  H4       1.0000 0.56270  0.37741  0.56211  Biso   1.000  H
  O5       1.0000 0.43341  0.25328  0.44219  Biso   1.000  O
  C5       1.0000 0.52850  0.29890  0.42251  Biso   1.000  C
  H5       1.0000 0.44460  0.34058  0.43030  Biso   1.000  H
  H6       1.0000 0.40260  0.35938  0.50461  Biso   1.000  H
  C6       1.0000 0.67392  0.32178  0.50860  Biso   1.000  C
  C7       1.0000 0.37610  0.25510  0.41961  Biso   1.000  C
  H7       1.0000 0.54829  0.26461  0.43778  Biso   1.000  H
  C8       1.0000 0.53502  0.28799  0.36368  Biso   1.000  C
  C9       1.0000 0.71002  0.27960  0.47641  Biso   1.000  C
  H8       1.0000 0.68710  0.36391  0.50451  Biso   1.000  H
  C10      1.0000 0.68452  0.30149  0.55862  Biso   1.000  C
  O6       1.0000 0.37750  0.23290  0.37420  Biso   1.000  O
  H9       1.0000 0.36269  0.29741  0.41839  Biso   1.000  H
  C11      1.0000 0.33120  0.22008  0.44851  Biso   1.000  C
  O7       1.0000 0.50131  0.34199  0.35239  Biso   1.000  O
  H10      1.0000 0.57638  0.28998  0.35281  Biso   1.000  H
  H11      1.0000 0.51531  0.25161  0.35299  Biso   1.000  H
  O8       1.0000 0.77340  0.28572  0.48749  Biso   1.000  O
  H12      1.0000 0.69729  0.23761  0.48189  Biso   1.000  H
  C12      1.0000 0.70622  0.29288  0.42580  Biso   1.000  C
  O9       1.0000 0.65330  0.34312  0.59119  Biso   1.000  O
  H13      1.0000 0.66771  0.26071  0.56260  Biso   1.000  H
  C13      1.0000 0.75292  0.29972  0.56970  Biso   1.000  C
  C14      1.0000 0.39481  0.16988  0.37060  Biso   1.000  C
  C15      1.0000 0.34869  0.15280  0.44939  Biso   1.000  C
  O10      1.0000 0.33062  0.24382  0.49640  Biso   1.000  O
  H14      1.0000 0.29079  0.22438  0.43481  Biso   1.000  H
  H15      1.0000 0.47681  0.33410  0.33170  Biso   1.000  H
  C16      1.0000 0.78799  0.26538  0.53300  Biso   1.000  C
  O11      1.0000 0.71509  0.35598  0.41548  Biso   1.000  O
  H16      1.0000 0.73670  0.26932  0.40940  Biso   1.000  H
  H17      1.0000 0.66680  0.28051  0.41419  Biso   1.000  H
  H18      1.0000 0.62309  0.32640  0.60189  Biso   1.000  H
  O12      1.0000 0.76370  0.27281  0.61489  Biso   1.000  O
  H19      1.0000 0.76801  0.34149  0.57039  Biso   1.000  H
  C17      1.0000 0.39159  0.15280  0.32069  Biso   1.000  C
  H20      1.0000 0.43621  0.16440  0.38221  Biso   1.000  H
  C18      1.0000 0.35259  0.13210  0.39748  Biso   1.000  C
  O13      1.0000 0.30321  0.12100  0.47501  Biso   1.000  O
  H21      1.0000 0.38810  0.14769  0.46470  Biso   1.000  H
  H22      1.0000 0.30429  0.26991  0.49871  Biso   1.000  H
  O14      1.0000 0.77222  0.20101  0.53771  Biso   1.000  O
  H23      1.0000 0.83152  0.27059  0.53848  Biso   1.000  H
  H24      1.0000 0.68252  0.37370  0.41671  Biso   1.000  H
  H25      1.0000 0.78142  0.29718  0.63170  Biso   1.000  H
  O15      1.0000 0.43911  0.18941  0.29269  Biso   1.000  O
  H26      1.0000 0.35132  0.16109  0.30870  Biso   1.000  H
  H27      1.0000 0.39952  0.10981  0.31730  Biso   1.000  H
  O16      1.0000 0.37519  0.06940  0.40101  Biso   1.000  O
  H28      1.0000 0.31231  0.13269  0.38308  Biso   1.000  H
  H29      1.0000 0.30149  0.08589  0.46582  Biso   1.000  H
  C19      1.0000 0.82300  0.15820  0.54491  Biso   1.000  C
  H30      1.0000 0.43621  0.18098  0.26480  Biso   1.000  H
  C20      1.0000 0.34212  0.02410  0.37539  Biso   1.000  C
  C21      1.0000 0.83410  0.12241  0.49829  Biso   1.000  C
  H31      1.0000 0.85970  0.18080  0.55320  Biso   1.000  H
  C22      1.0000 0.80529  0.11801  0.58452  Biso   1.000  C
  O17      1.0000 0.38371  0.00100  0.33992  Biso   1.000  O
  H32      1.0000 0.30502  0.04068  0.36141  Biso   1.000  H
  C23      1.0000 0.32840  0.97332  0.40989  Biso   1.000  C
  O18      1.0000 0.87492  0.07502  0.50612  Biso   1.000  O
  H33      1.0000 0.79542  0.10478  0.48829  Biso   1.000  H
  C24      1.0000 0.85852  0.16250  0.45820  Biso   1.000  C
  O19      1.0000 0.80289  0.15172  0.62628  Biso   1.000  O
  H34      1.0000 0.76511  0.10111  0.57808  Biso   1.000  H
  C25      1.0000 0.85041  0.06709  0.58700  Biso   1.000  C
  C26      1.0000 0.44161  0.97300  0.35690  Biso   1.000  C
  O20      1.0000 0.28980  0.99520  0.44498  Biso   1.000  O
  C27      1.0000 0.38421  0.94509  0.42929  Biso   1.000  C
  H35      1.0000 0.30629  0.94170  0.39290  Biso   1.000  H
  C28      1.0000 0.85540  0.03339  0.54159  Biso   1.000  C
  O21      1.0000 0.91352  0.18692  0.47130  Biso   1.000  O
  H36      1.0000 0.86341  0.13849  0.43009  Biso   1.000  H
  H37      1.0000 0.82989  0.19480  0.45159  Biso   1.000  H
  H38      1.0000 0.79129  0.18619  0.62059  Biso   1.000  H
  O22      1.0000 0.83379  0.02351  0.62359  Biso   1.000  O
  H39      1.0000 0.89019  0.08422  0.59462  Biso   1.000  H
  H40      1.0000 0.46480  0.00399  0.37372  Biso   1.000  H
  C29      1.0000 0.47690  0.95461  0.31479  Biso   1.000  C
  C30      1.0000 0.42589  0.92299  0.39081  Biso   1.000  C
  H41      1.0000 0.29732  0.03099  0.44998  Biso   1.000  H
  O23      1.0000 0.36808  0.89431  0.45830  Biso   1.000  O
  H42      1.0000 0.40582  0.97508  0.44830  Biso   1.000  H
  O24      1.0000 0.79981  0.00802  0.53069  Biso   1.000  O
  H43      1.0000 0.88561  0.00109  0.54491  Biso   1.000  H
  H44      1.0000 0.91379  0.22320  0.46540  Biso   1.000  H
  H45      1.0000 0.81539  0.99502  0.61188  Biso   1.000  H
  O25      1.0000 0.48949  0.00140  0.28039  Biso   1.000  O
  H46      1.0000 0.51531  0.93798  0.32531  Biso   1.000  H
  H47      1.0000 0.45501  0.92222  0.29941  Biso   1.000  H
  O26      1.0000 0.48120  0.90242  0.41311  Biso   1.000  O
  H48      1.0000 0.40690  0.88928  0.37400  Biso   1.000  H
  H49      1.0000 0.35182  0.90668  0.48231  Biso   1.000  H
  C31      1.0000 0.79492  0.94242  0.51901  Biso   1.000  C
  H50      1.0000 0.50430  0.03099  0.29350  Biso   1.000  H
  C32      1.0000 0.50548  0.84489  0.39909  Biso   1.000  C
  C33      1.0000 0.77852  0.93431  0.46749  Biso   1.000  C
  C34      1.0000 0.74862  0.91660  0.55121  Biso   1.000  C
  H51      1.0000 0.83401  0.92281  0.52499  Biso   1.000  H
  O27      1.0000 0.56111  0.85068  0.37539  Biso   1.000  O
  H52      1.0000 0.47631  0.82500  0.37819  Biso   1.000  H
  C35      1.0000 0.51291  0.80638  0.44289  Biso   1.000  C
  O28      1.0000 0.77000  0.87261  0.45851  Biso   1.000  O
  H53      1.0000 0.74042  0.95569  0.46131  Biso   1.000  H
  C36      1.0000 0.82781  0.95868  0.43390  Biso   1.000  C
  C37      1.0000 0.73231  0.85109  0.53719  Biso   1.000  C
  O29      1.0000 0.76878  0.91710  0.59860  Biso   1.000  O
  H54      1.0000 0.71188  0.94138  0.54900  Biso   1.000  H
  C38      1.0000 0.60981  0.88022  0.40129  Biso   1.000  C
  O30      1.0000 0.45760  0.80081  0.46830  Biso   1.000  O
  C39      1.0000 0.56428  0.83669  0.47480  Biso   1.000  C
  H55      1.0000 0.52641  0.76588  0.43359  Biso   1.000  H
  C40      1.0000 0.72049  0.84470  0.48480  Biso   1.000  C
  H56      1.0000 0.83551  0.00091  0.44121  Biso   1.000  H
  O31      1.0000 0.81132  0.95379  0.38651  Biso   1.000  O
  H57      1.0000 0.86509  0.93649  0.43911  Biso   1.000  H
  O32      1.0000 0.68171  0.82849  0.56292  Biso   1.000  O
  H58      1.0000 0.76719  0.82550  0.54481  Biso   1.000  H
  H59      1.0000 0.78722  0.94858  0.60370  Biso   1.000  H
  H60      1.0000 0.59740  0.92131  0.40989  Biso   1.000  H
  C41      1.0000 0.66440  0.88330  0.36861  Biso   1.000  C
  C42      1.0000 0.62191  0.84330  0.44519  Biso   1.000  C
  H61      1.0000 0.43572  0.82980  0.46239  Biso   1.000  H
  O33      1.0000 0.57511  0.79578  0.51419  Biso   1.000  O
  H62      1.0000 0.55092  0.87642  0.48619  Biso   1.000  H
  O34      1.0000 0.66490  0.87519  0.47441  Biso   1.000  O
  H63      1.0000 0.71709  0.80180  0.47641  Biso   1.000  H
  H64      1.0000 0.82219  0.92072  0.37641  Biso   1.000  H
  H65      1.0000 0.69380  0.81032  0.58598  Biso   1.000  H
  Se1      1.0000 0.66798  0.95116  0.32604  Biso   1.000  Se
  H66      1.0000 0.66522  0.84638  0.35019  Biso   1.000  H
  H67      1.0000 0.70069  0.88380  0.38759  Biso   1.000  H
  H68      1.0000 0.63772  0.80330  0.43691  Biso   1.000  H
  H69      1.0000 0.60610  0.80620  0.52789  Biso   1.000  H
  C43      1.0000 0.63120  0.92561  0.27351  Biso   1.000  C
  C44      1.0000 0.60320  0.86899  0.26470  Biso   1.000  C
  C45      1.0000 0.62531  0.96630  0.23621  Biso   1.000  C
  H70      1.0000 0.60179  0.84040  0.28861  Biso   1.000  H
  C46      1.0000 0.57842  0.85490  0.22261  Biso   1.000  C
  H71      1.0000 0.64098  0.00512  0.24009  Biso   1.000  H
  C47      1.0000 0.59799  0.95302  0.19441  Biso   1.000  C
  H72      1.0000 0.56469  0.81580  0.21681  Biso   1.000  H
  C48      1.0000 0.57398  0.89798  0.18941  Biso   1.000  C
  H73      1.0000 0.59672  0.98129  0.17039  Biso   1.000  H
  H74      1.0000 0.55300  0.88901  0.16201  Biso   1.000  H
  C49      1.0000 0.37800  0.52179  0.49532  Biso   1.000  C
  C50      1.0000 0.32192  0.47681  0.50269  Biso   1.000  C
  C51      1.0000 0.36559  0.58091  0.52181  Biso   1.000  C
  O35      1.0000 0.39041  0.52972  0.44642  Biso   1.000  O
  H75      1.0000 0.41370  0.50281  0.50940  Biso   1.000  H
  C52      1.0000 0.30751  0.46670  0.55449  Biso   1.000  C
  O36      1.0000 0.33329  0.42099  0.48081  Biso   1.000  O
  H76      1.0000 0.28631  0.49502  0.48791  Biso   1.000  H
  O37      1.0000 0.35331  0.56809  0.57081  Biso   1.000  O
  O38      1.0000 0.31648  0.60931  0.50021  Biso   1.000  O
  H77      1.0000 0.40120  0.60718  0.51961  Biso   1.000  H
  H78      1.0000 0.37741  0.56270  0.43789  Biso   1.000  H
  O39      1.0000 0.25328  0.43341  0.55781  Biso   1.000  O
  C53      1.0000 0.29890  0.52850  0.57749  Biso   1.000  C
  H79      1.0000 0.34058  0.44460  0.56970  Biso   1.000  H
  H80      1.0000 0.35938  0.40260  0.49539  Biso   1.000  H
  C54      1.0000 0.32178  0.67392  0.49140  Biso   1.000  C
  C55      1.0000 0.25510  0.37610  0.58039  Biso   1.000  C
  H81      1.0000 0.26461  0.54829  0.56222  Biso   1.000  H
  C56      1.0000 0.28799  0.53502  0.63632  Biso   1.000  C
  C57      1.0000 0.27960  0.71002  0.52359  Biso   1.000  C
  H82      1.0000 0.36391  0.68710  0.49549  Biso   1.000  H
  C58      1.0000 0.30149  0.68452  0.44138  Biso   1.000  C
  C59      1.0000 0.22008  0.33120  0.55149  Biso   1.000  C
  O40      1.0000 0.23290  0.37750  0.62580  Biso   1.000  O
  H83      1.0000 0.29741  0.36269  0.58161  Biso   1.000  H
  O41      1.0000 0.34199  0.50131  0.64761  Biso   1.000  O
  H84      1.0000 0.28998  0.57638  0.64719  Biso   1.000  H
  H85      1.0000 0.25161  0.51531  0.64701  Biso   1.000  H
  O42      1.0000 0.28572  0.77340  0.51251  Biso   1.000  O
  H86      1.0000 0.23761  0.69729  0.51811  Biso   1.000  H
  C60      1.0000 0.29288  0.70622  0.57420  Biso   1.000  C
  O43      1.0000 0.34312  0.65330  0.40881  Biso   1.000  O
  H87      1.0000 0.26071  0.66771  0.43740  Biso   1.000  H
  C61      1.0000 0.29972  0.75292  0.43030  Biso   1.000  C
  O44      1.0000 0.24382  0.33062  0.50360  Biso   1.000  O
  C62      1.0000 0.15280  0.34869  0.55061  Biso   1.000  C
  H88      1.0000 0.22438  0.29079  0.56519  Biso   1.000  H
  C63      1.0000 0.16988  0.39481  0.62940  Biso   1.000  C
  H89      1.0000 0.33410  0.47681  0.66830  Biso   1.000  H
  C64      1.0000 0.26538  0.78799  0.46700  Biso   1.000  C
  O45      1.0000 0.35598  0.71509  0.58452  Biso   1.000  O
  H90      1.0000 0.26932  0.73670  0.59060  Biso   1.000  H
  H91      1.0000 0.28051  0.66680  0.58581  Biso   1.000  H
  H92      1.0000 0.32640  0.62309  0.39811  Biso   1.000  H
  O46      1.0000 0.27281  0.76370  0.38511  Biso   1.000  O
  H93      1.0000 0.34149  0.76801  0.42961  Biso   1.000  H
  H94      1.0000 0.26991  0.30429  0.50129  Biso   1.000  H
  O47      1.0000 0.12100  0.30321  0.52499  Biso   1.000  O
  C65      1.0000 0.13210  0.35259  0.60252  Biso   1.000  C
  H95      1.0000 0.14769  0.38810  0.53530  Biso   1.000  H
  H96      1.0000 0.16440  0.43621  0.61779  Biso   1.000  H
  C66      1.0000 0.15280  0.39159  0.67931  Biso   1.000  C
  O48      1.0000 0.20101  0.77222  0.46229  Biso   1.000  O
  H97      1.0000 0.27059  0.83152  0.46152  Biso   1.000  H
  H98      1.0000 0.37370  0.68252  0.58329  Biso   1.000  H
  H99      1.0000 0.29718  0.78142  0.36830  Biso   1.000  H
  H100     1.0000 0.08589  0.30149  0.53418  Biso   1.000  H
  O49      1.0000 0.06940  0.37519  0.59899  Biso   1.000  O
  H101     1.0000 0.13269  0.31231  0.61692  Biso   1.000  H
  O50      1.0000 0.18941  0.43911  0.70731  Biso   1.000  O
  H102     1.0000 0.16109  0.35132  0.69130  Biso   1.000  H
  H103     1.0000 0.10981  0.39952  0.68270  Biso   1.000  H
  C67      1.0000 0.15820  0.82300  0.45509  Biso   1.000  C
  C68      1.0000 0.02410  0.34212  0.62461  Biso   1.000  C
  H104     1.0000 0.18098  0.43621  0.73520  Biso   1.000  H
  C69      1.0000 0.12241  0.83410  0.50171  Biso   1.000  C
  H105     1.0000 0.18080  0.85970  0.44680  Biso   1.000  H
  C70      1.0000 0.11801  0.80529  0.41548  Biso   1.000  C
  O51      1.0000 0.00100  0.38371  0.66008  Biso   1.000  O
  H106     1.0000 0.04068  0.30502  0.63859  Biso   1.000  H
  C71      1.0000 0.97332  0.32840  0.59011  Biso   1.000  C
  O52      1.0000 0.07502  0.87492  0.49388  Biso   1.000  O
  H107     1.0000 0.10478  0.79542  0.51171  Biso   1.000  H
  C72      1.0000 0.16250  0.85852  0.54180  Biso   1.000  C
  O53      1.0000 0.15172  0.80289  0.37372  Biso   1.000  O
  H108     1.0000 0.10111  0.76511  0.42192  Biso   1.000  H
  C73      1.0000 0.06709  0.85041  0.41300  Biso   1.000  C
  C74      1.0000 0.97300  0.44161  0.64310  Biso   1.000  C
  O54      1.0000 0.99520  0.28980  0.55502  Biso   1.000  O
  C75      1.0000 0.94509  0.38421  0.57071  Biso   1.000  C
  H109     1.0000 0.94170  0.30629  0.60710  Biso   1.000  H
  C76      1.0000 0.03339  0.85540  0.45841  Biso   1.000  C
  O55      1.0000 0.18692  0.91352  0.52870  Biso   1.000  O
  H110     1.0000 0.13849  0.86341  0.56991  Biso   1.000  H
  H111     1.0000 0.19480  0.82989  0.54841  Biso   1.000  H
  H112     1.0000 0.18619  0.79129  0.37941  Biso   1.000  H
  O56      1.0000 0.02351  0.83379  0.37641  Biso   1.000  O
  H113     1.0000 0.08422  0.89019  0.40538  Biso   1.000  H
  H114     1.0000 0.00399  0.46480  0.62628  Biso   1.000  H
  C77      1.0000 0.95461  0.47690  0.68521  Biso   1.000  C
  C78      1.0000 0.92299  0.42589  0.60919  Biso   1.000  C
  H115     1.0000 0.03099  0.29732  0.55002  Biso   1.000  H
  O57      1.0000 0.89431  0.36808  0.54170  Biso   1.000  O
  H116     1.0000 0.97508  0.40582  0.55170  Biso   1.000  H
  O58      1.0000 0.00802  0.79981  0.46931  Biso   1.000  O
  H117     1.0000 0.00109  0.88561  0.45509  Biso   1.000  H
  H118     1.0000 0.22320  0.91379  0.53460  Biso   1.000  H
  H119     1.0000 0.99502  0.81539  0.38812  Biso   1.000  H
  O59      1.0000 0.00140  0.48949  0.71961  Biso   1.000  O
  H120     1.0000 0.93798  0.51531  0.67469  Biso   1.000  H
  H121     1.0000 0.92222  0.45501  0.70059  Biso   1.000  H
  O60      1.0000 0.90242  0.48120  0.58689  Biso   1.000  O
  H122     1.0000 0.88928  0.40690  0.62600  Biso   1.000  H
  H123     1.0000 0.90668  0.35182  0.51769  Biso   1.000  H
  C79      1.0000 0.94242  0.79492  0.48099  Biso   1.000  C
  H124     1.0000 0.03099  0.50430  0.70650  Biso   1.000  H
  C80      1.0000 0.84489  0.50548  0.60091  Biso   1.000  C
  C81      1.0000 0.93431  0.77852  0.53251  Biso   1.000  C
  C82      1.0000 0.91660  0.74862  0.44879  Biso   1.000  C
  H125     1.0000 0.92281  0.83401  0.47501  Biso   1.000  H
  O61      1.0000 0.85068  0.56111  0.62461  Biso   1.000  O
  H126     1.0000 0.82500  0.47631  0.62181  Biso   1.000  H
  C83      1.0000 0.80638  0.51291  0.55711  Biso   1.000  C
  O62      1.0000 0.87261  0.77000  0.54149  Biso   1.000  O
  H127     1.0000 0.95569  0.74042  0.53869  Biso   1.000  H
  C84      1.0000 0.95868  0.82781  0.56610  Biso   1.000  C
  C85      1.0000 0.85109  0.73231  0.46281  Biso   1.000  C
  O63      1.0000 0.91710  0.76878  0.40140  Biso   1.000  O
  H128     1.0000 0.94138  0.71188  0.45100  Biso   1.000  H
  C86      1.0000 0.88022  0.60981  0.59871  Biso   1.000  C
  O64      1.0000 0.80081  0.45760  0.53170  Biso   1.000  O
  C87      1.0000 0.83669  0.56428  0.52520  Biso   1.000  C
  H129     1.0000 0.76588  0.52641  0.56641  Biso   1.000  H
  C88      1.0000 0.84470  0.72049  0.51520  Biso   1.000  C
  H130     1.0000 0.00091  0.83551  0.55879  Biso   1.000  H
  O65      1.0000 0.95379  0.81132  0.61349  Biso   1.000  O
  H131     1.0000 0.93649  0.86509  0.56089  Biso   1.000  H
  O66      1.0000 0.82849  0.68171  0.43708  Biso   1.000  O
  H132     1.0000 0.82550  0.76719  0.45519  Biso   1.000  H
  H133     1.0000 0.94858  0.78722  0.39630  Biso   1.000  H
  H134     1.0000 0.92131  0.59740  0.59011  Biso   1.000  H
  C89      1.0000 0.88330  0.66440  0.63139  Biso   1.000  C
  C90      1.0000 0.84330  0.62191  0.55481  Biso   1.000  C
  H135     1.0000 0.82980  0.43572  0.53761  Biso   1.000  H
  O67      1.0000 0.79578  0.57511  0.48581  Biso   1.000  O
  H136     1.0000 0.87642  0.55092  0.51381  Biso   1.000  H
  O68      1.0000 0.87519  0.66490  0.52559  Biso   1.000  O
  H137     1.0000 0.80180  0.71709  0.52359  Biso   1.000  H
  H138     1.0000 0.92072  0.82219  0.62359  Biso   1.000  H
  H139     1.0000 0.81032  0.69380  0.41402  Biso   1.000  H
  Se2      1.0000 0.95116  0.66798  0.67396  Biso   1.000  Se
  H140     1.0000 0.84638  0.66522  0.64981  Biso   1.000  H
  H141     1.0000 0.88380  0.70069  0.61241  Biso   1.000  H
  H142     1.0000 0.80330  0.63772  0.56309  Biso   1.000  H
  H143     1.0000 0.80620  0.60610  0.47211  Biso   1.000  H
  C91      1.0000 0.92561  0.63120  0.72649  Biso   1.000  C
  C92      1.0000 0.86899  0.60320  0.73530  Biso   1.000  C
  C93      1.0000 0.96630  0.62531  0.76379  Biso   1.000  C
  H144     1.0000 0.84040  0.60179  0.71139  Biso   1.000  H
  C94      1.0000 0.85490  0.57842  0.77739  Biso   1.000  C
  H145     1.0000 0.00512  0.64098  0.75991  Biso   1.000  H
  C95      1.0000 0.95302  0.59799  0.80559  Biso   1.000  C
  H146     1.0000 0.81580  0.56469  0.78319  Biso   1.000  H
  C96      1.0000 0.89798  0.57398  0.81059  Biso   1.000  C
  H147     1.0000 0.98129  0.59672  0.82961  Biso   1.000  H
  H148     1.0000 0.88901  0.55300  0.83799  Biso   1.000  H
  O69      1.0000 0.66621  0.52351  0.62639  Biso   1.000  O
  H149     1.0000 0.68461  0.49502  0.63810  Biso   1.000  H
  C97      1.0000 0.64959  0.56709  0.66298  Biso   1.000  C
  C98      1.0000 0.64460  0.53339  0.70839  Biso   1.000  C
  C99      1.0000 0.69471  0.61801  0.66550  Biso   1.000  C
  H150     1.0000 0.60981  0.58422  0.65540  Biso   1.000  H
  O70      1.0000 0.70019  0.50802  0.71929  Biso   1.000  O
  O71      1.0000 0.62508  0.57502  0.74390  Biso   1.000  O
  H151     1.0000 0.61439  0.50109  0.70510  Biso   1.000  H
  O72      1.0000 0.69711  0.65172  0.62370  Biso   1.000  O
  C100     1.0000 0.67700  0.65820  0.70510  Biso   1.000  C
  H152     1.0000 0.73489  0.60111  0.67190  Biso   1.000  H
  C101     1.0000 0.70508  0.44242  0.73100  Biso   1.000  C
  C102     1.0000 0.66590  0.62241  0.75170  Biso   1.000  C
  H153     1.0000 0.70871  0.68619  0.62940  Biso   1.000  H
  O73      1.0000 0.72778  0.70101  0.71230  Biso   1.000  O
  H154     1.0000 0.64030  0.68080  0.69678  Biso   1.000  H
  C103     1.0000 0.72148  0.43431  0.78249  Biso   1.000  C
  H155     1.0000 0.66599  0.42281  0.72499  Biso   1.000  H
  C104     1.0000 0.75138  0.41660  0.69881  Biso   1.000  C
  H156     1.0000 0.70458  0.60478  0.76169  Biso   1.000  H
  C105     1.0000 0.64148  0.66250  0.79179  Biso   1.000  C
  C106     1.0000 0.71201  0.76538  0.71699  Biso   1.000  C
  O74      1.0000 0.73000  0.37261  0.79151  Biso   1.000  O
  H157     1.0000 0.75958  0.45569  0.78871  Biso   1.000  H
  C107     1.0000 0.67219  0.45868  0.81611  Biso   1.000  C
  O75      1.0000 0.73122  0.41710  0.65142  Biso   1.000  O
  H158     1.0000 0.78812  0.44138  0.70101  Biso   1.000  H
  C108     1.0000 0.76769  0.35109  0.71279  Biso   1.000  C
  O76      1.0000 0.58648  0.68692  0.77871  Biso   1.000  O
  H159     1.0000 0.63659  0.63849  0.81989  Biso   1.000  H
  H160     1.0000 0.67011  0.69480  0.79839  Biso   1.000  H
  O77      1.0000 0.72660  0.78572  0.76250  Biso   1.000  O
  H161     1.0000 0.66848  0.77059  0.71150  Biso   1.000  H
  C109     1.0000 0.74708  0.79972  0.68029  Biso   1.000  C
  C110     1.0000 0.77951  0.34470  0.76519  Biso   1.000  C
  O78      1.0000 0.68868  0.45379  0.86351  Biso   1.000  O
  H162     1.0000 0.66449  0.50091  0.80881  Biso   1.000  H
  H163     1.0000 0.63491  0.43649  0.81091  Biso   1.000  H
  H164     1.0000 0.71278  0.44858  0.64631  Biso   1.000  H
  O79      1.0000 0.81829  0.32849  0.68710  Biso   1.000  O
  H165     1.0000 0.73281  0.32550  0.70521  Biso   1.000  H
  H166     1.0000 0.58621  0.72320  0.78459  Biso   1.000  H
  C111     1.0000 0.78998  0.77960  0.77361  Biso   1.000  C
  O80      1.0000 0.73630  0.77281  0.63509  Biso   1.000  O
  C112     1.0000 0.81548  0.80149  0.69140  Biso   1.000  C
  H167     1.0000 0.73199  0.84149  0.67959  Biso   1.000  H
  O81      1.0000 0.83510  0.37519  0.77560  Biso   1.000  O
  H168     1.0000 0.78291  0.30180  0.77361  Biso   1.000  H
  H169     1.0000 0.67781  0.42072  0.87361  Biso   1.000  H
  H170     1.0000 0.80620  0.31032  0.66400  Biso   1.000  H
  H171     1.0000 0.80271  0.73761  0.76809  Biso   1.000  H
  C113     1.0000 0.79378  0.79288  0.82419  Biso   1.000  C
  C114     1.0000 0.82608  0.82178  0.74138  Biso   1.000  C
  H172     1.0000 0.71858  0.79718  0.61832  Biso   1.000  H
  O82      1.0000 0.84670  0.84312  0.65879  Biso   1.000  O
  H173     1.0000 0.83229  0.76071  0.68742  Biso   1.000  H
  C115     1.0000 0.87809  0.34330  0.80479  Biso   1.000  C
  O83      1.0000 0.78491  0.85598  0.83450  Biso   1.000  O
  H174     1.0000 0.76330  0.76932  0.84062  Biso   1.000  H
  H175     1.0000 0.83320  0.78051  0.83579  Biso   1.000  H
  O84      1.0000 0.89069  0.81648  0.75019  Biso   1.000  O
  H176     1.0000 0.81290  0.86391  0.74551  Biso   1.000  H
  H177     1.0000 0.87691  0.82640  0.64810  Biso   1.000  H
  C116     1.0000 0.89019  0.38022  0.84869  Biso   1.000  C
  H178     1.0000 0.86228  0.30330  0.81311  Biso   1.000  H
  C117     1.0000 0.93572  0.33669  0.77518  Biso   1.000  C
  H179     1.0000 0.81748  0.87370  0.83331  Biso   1.000  H
  C118     1.0000 0.91909  0.86559  0.77179  Biso   1.000  C
  O85      1.0000 0.93889  0.35068  0.87459  Biso   1.000  O
  H180     1.0000 0.90260  0.42131  0.84009  Biso   1.000  H
  C119     1.0000 0.83560  0.38330  0.88141  Biso   1.000  C
  O86      1.0000 0.92489  0.29578  0.73579  Biso   1.000  O
  H181     1.0000 0.94908  0.37642  0.76379  Biso   1.000  H
  C120     1.0000 0.98709  0.30638  0.80710  Biso   1.000  C
  O87      1.0000 0.93191  0.85331  0.82080  Biso   1.000  O
  H182     1.0000 0.89282  0.90120  0.76959  Biso   1.000  H
  C121     1.0000 0.97821  0.87800  0.74530  Biso   1.000  C
  C122     1.0000 0.99452  0.34489  0.85089  Biso   1.000  C
  Se3      1.0000 0.83202  0.45116  0.92394  Biso   1.000  Se
  H183     1.0000 0.83478  0.34638  0.89979  Biso   1.000  H
  H184     1.0000 0.79931  0.38380  0.86239  Biso   1.000  H
  H185     1.0000 0.89390  0.30620  0.72209  Biso   1.000  H
  H186     1.0000 0.97359  0.26588  0.81639  Biso   1.000  H
  O88      1.0000 0.04240  0.30081  0.78168  Biso   1.000  O
  C123     1.0000 0.97150  0.79890  0.82751  Biso   1.000  C
  O89      1.0000 0.97028  0.89041  0.69640  Biso   1.000  O
  H187     1.0000 0.99719  0.91370  0.75938  Biso   1.000  H
  C124     1.0000 0.02319  0.82192  0.75271  Biso   1.000  C
  O90      1.0000 0.01880  0.40242  0.83691  Biso   1.000  O
  H188     1.0000 0.02369  0.32500  0.87179  Biso   1.000  H
  C125     1.0000 0.86880  0.42561  0.97651  Biso   1.000  C
  H189     1.0000 0.06428  0.32980  0.78759  Biso   1.000  H
  H190     1.0000 0.95171  0.76461  0.81220  Biso   1.000  H
  C126     1.0000 0.96498  0.78799  0.88630  Biso   1.000  C
  C127     1.0000 0.03330  0.80751  0.80451  Biso   1.000  C
  H191     1.0000 0.93730  0.87741  0.68791  Biso   1.000  H
  O91      1.0000 0.07901  0.83329  0.73079  Biso   1.000  O
  H192     1.0000 0.00498  0.78631  0.73789  Biso   1.000  H
  C128     1.0000 0.07411  0.42299  0.85921  Biso   1.000  C
  C129     1.0000 0.89680  0.36899  0.98528  Biso   1.000  C
  C130     1.0000 0.87469  0.46630  0.01381  Biso   1.000  C
  O92      1.0000 0.99869  0.84199  0.89759  Biso   1.000  O
  H193     1.0000 0.92362  0.78998  0.89720  Biso   1.000  H
  H194     1.0000 0.98469  0.75161  0.89699  Biso   1.000  H
  O93      1.0000 0.06659  0.75328  0.80779  Biso   1.000  O
  H195     1.0000 0.05540  0.84058  0.81971  Biso   1.000  H
  H196     1.0000 0.09740  0.85938  0.74540  Biso   1.000  H
  C131     1.0000 0.05839  0.47300  0.89311  Biso   1.000  C
  H197     1.0000 0.09310  0.38928  0.87599  Biso   1.000  H
  C132     1.0000 0.11579  0.44509  0.82069  Biso   1.000  C
  H198     1.0000 0.89821  0.34040  0.96141  Biso   1.000  H
  C133     1.0000 0.92158  0.35490  0.02740  Biso   1.000  C
  C134     1.0000 0.90201  0.45302  0.05561  Biso   1.000  C
  H199     1.0000 0.85902  0.50512  0.00989  Biso   1.000  H
  H200     1.0000 0.02319  0.83410  0.91832  Biso   1.000  H
  C135     1.0000 0.12390  0.75510  0.83041  Biso   1.000  C
  O94      1.0000 0.11629  0.50100  0.91010  Biso   1.000  O
  H201     1.0000 0.03520  0.50399  0.87630  Biso   1.000  H
  C136     1.0000 0.02310  0.45461  0.93520  Biso   1.000  C
  O95      1.0000 0.13192  0.39431  0.79172  Biso   1.000  O
  H202     1.0000 0.09418  0.47508  0.80171  Biso   1.000  H
  C137     1.0000 0.17160  0.47332  0.84009  Biso   1.000  C
  H203     1.0000 0.93531  0.31580  0.03321  Biso   1.000  H
  C138     1.0000 0.92602  0.39798  0.06061  Biso   1.000  C
  H204     1.0000 0.90328  0.48129  0.07959  Biso   1.000  H
  O96      1.0000 0.12250  0.73290  0.87581  Biso   1.000  O
  H205     1.0000 0.13731  0.79741  0.83160  Biso   1.000  H
  C139     1.0000 0.16880  0.72008  0.80150  Biso   1.000  C
  C140     1.0000 0.15788  0.52410  0.87459  Biso   1.000  C
  H206     1.0000 0.98469  0.43798  0.92471  Biso   1.000  H
  O97      1.0000 0.01051  0.50140  0.96959  Biso   1.000  O
  H207     1.0000 0.04499  0.42222  0.95061  Biso   1.000  H
  H208     1.0000 0.14818  0.40668  0.76770  Biso   1.000  H
  O98      1.0000 0.21020  0.49520  0.80500  Biso   1.000  O
  H209     1.0000 0.19371  0.44170  0.85711  Biso   1.000  H
  H210     1.0000 0.94700  0.38901  0.08801  Biso   1.000  H
  C141     1.0000 0.10519  0.66988  0.87941  Biso   1.000  C
  O99      1.0000 0.16938  0.74382  0.75358  Biso   1.000  O
  C142     1.0000 0.15131  0.65280  0.80059  Biso   1.000  C
  H211     1.0000 0.20921  0.72438  0.81520  Biso   1.000  H
  O100     1.0000 0.12481  0.56940  0.84900  Biso   1.000  O
  H212     1.0000 0.19498  0.54068  0.88861  Biso   1.000  H
  H213     1.0000 0.99570  0.53099  0.95648  Biso   1.000  H
  H214     1.0000 0.20268  0.53099  0.80000  Biso   1.000  H
  H215     1.0000 0.06379  0.66440  0.86781  Biso   1.000  H
  C143     1.0000 0.10841  0.65280  0.92929  Biso   1.000  C
  C144     1.0000 0.14741  0.63210  0.85250  Biso   1.000  C
  H216     1.0000 0.19571  0.76991  0.75131  Biso   1.000  H
  O101     1.0000 0.19679  0.62100  0.77501  Biso   1.000  O
  H217     1.0000 0.11190  0.64769  0.78528  Biso   1.000  H
  O102     1.0000 0.06089  0.68941  0.95729  Biso   1.000  O
  H218     1.0000 0.14868  0.66109  0.94131  Biso   1.000  H
  H219     1.0000 0.10048  0.60981  0.93272  Biso   1.000  H
  H220     1.0000 0.18769  0.63269  0.86690  Biso   1.000  H
  H221     1.0000 0.19851  0.58589  0.78420  Biso   1.000  H
  H222     1.0000 0.06379  0.68098  0.98521  Biso   1.000  H
  O103     1.0000 0.52351  0.66621  0.37361  Biso   1.000  O
  C145     1.0000 0.56709  0.64959  0.33702  Biso   1.000  C
  H223     1.0000 0.49502  0.68461  0.36190  Biso   1.000  H
  C146     1.0000 0.53339  0.64460  0.29161  Biso   1.000  C
  C147     1.0000 0.61801  0.69471  0.33450  Biso   1.000  C
  H224     1.0000 0.58422  0.60981  0.34460  Biso   1.000  H
  O104     1.0000 0.50802  0.70019  0.28071  Biso   1.000  O
  O105     1.0000 0.57502  0.62508  0.25610  Biso   1.000  O
  H225     1.0000 0.50109  0.61439  0.29490  Biso   1.000  H
  C148     1.0000 0.65820  0.67700  0.29490  Biso   1.000  C
  O106     1.0000 0.65172  0.69711  0.37630  Biso   1.000  O
  H226     1.0000 0.60111  0.73489  0.32810  Biso   1.000  H
  C149     1.0000 0.44242  0.70508  0.26900  Biso   1.000  C
  C150     1.0000 0.62241  0.66590  0.24830  Biso   1.000  C
  O107     1.0000 0.70101  0.72778  0.28770  Biso   1.000  O
  H227     1.0000 0.68080  0.64030  0.30322  Biso   1.000  H
  H228     1.0000 0.68619  0.70871  0.37060  Biso   1.000  H
  C151     1.0000 0.43431  0.72148  0.21751  Biso   1.000  C
  H229     1.0000 0.42281  0.66599  0.27501  Biso   1.000  H
  C152     1.0000 0.41660  0.75138  0.30119  Biso   1.000  C
  H230     1.0000 0.60478  0.70458  0.23831  Biso   1.000  H
  C153     1.0000 0.66250  0.64148  0.20821  Biso   1.000  C
  C154     1.0000 0.76538  0.71201  0.28301  Biso   1.000  C
  C155     1.0000 0.45868  0.67219  0.18389  Biso   1.000  C
  O108     1.0000 0.37261  0.73000  0.20849  Biso   1.000  O
  H231     1.0000 0.45569  0.75958  0.21129  Biso   1.000  H
  C156     1.0000 0.35109  0.76769  0.28721  Biso   1.000  C
  O109     1.0000 0.41710  0.73122  0.34858  Biso   1.000  O
  H232     1.0000 0.44138  0.78812  0.29899  Biso   1.000  H
  O110     1.0000 0.68692  0.58648  0.22129  Biso   1.000  O
  H233     1.0000 0.63849  0.63659  0.18011  Biso   1.000  H
  H234     1.0000 0.69480  0.67011  0.20161  Biso   1.000  H
  O111     1.0000 0.78572  0.72660  0.23750  Biso   1.000  O
  H235     1.0000 0.77059  0.66848  0.28850  Biso   1.000  H
  C157     1.0000 0.79972  0.74708  0.31971  Biso   1.000  C
  O112     1.0000 0.45379  0.68868  0.13649  Biso   1.000  O
  H236     1.0000 0.50091  0.66449  0.19119  Biso   1.000  H
  H237     1.0000 0.43649  0.63491  0.18909  Biso   1.000  H
  C158     1.0000 0.34470  0.77951  0.23481  Biso   1.000  C
  O113     1.0000 0.32849  0.81829  0.31290  Biso   1.000  O
  H238     1.0000 0.32550  0.73281  0.29479  Biso   1.000  H
  H239     1.0000 0.44858  0.71278  0.35369  Biso   1.000  H
  H240     1.0000 0.72320  0.58621  0.21541  Biso   1.000  H
  C159     1.0000 0.77960  0.78998  0.22639  Biso   1.000  C
  O114     1.0000 0.77281  0.73630  0.36491  Biso   1.000  O
  C160     1.0000 0.80149  0.81548  0.30860  Biso   1.000  C
  H241     1.0000 0.84149  0.73199  0.32041  Biso   1.000  H
  H242     1.0000 0.42072  0.67781  0.12639  Biso   1.000  H
  O115     1.0000 0.37519  0.83510  0.22440  Biso   1.000  O
  H243     1.0000 0.30180  0.78291  0.22639  Biso   1.000  H
  H244     1.0000 0.31032  0.80620  0.33600  Biso   1.000  H
  H245     1.0000 0.73761  0.80271  0.23191  Biso   1.000  H
  C161     1.0000 0.79288  0.79378  0.17581  Biso   1.000  C
  C162     1.0000 0.82178  0.82608  0.25862  Biso   1.000  C
  H246     1.0000 0.79718  0.71858  0.38168  Biso   1.000  H
  O116     1.0000 0.84312  0.84670  0.34121  Biso   1.000  O
  H247     1.0000 0.76071  0.83229  0.31258  Biso   1.000  H
  C163     1.0000 0.34330  0.87809  0.19521  Biso   1.000  C
  O117     1.0000 0.85598  0.78491  0.16550  Biso   1.000  O
  H248     1.0000 0.76932  0.76330  0.15938  Biso   1.000  H
  H249     1.0000 0.78051  0.83320  0.16421  Biso   1.000  H
  O118     1.0000 0.81648  0.89069  0.24981  Biso   1.000  O
  H250     1.0000 0.86391  0.81290  0.25449  Biso   1.000  H
  H251     1.0000 0.82640  0.87691  0.35190  Biso   1.000  H
  C164     1.0000 0.38022  0.89019  0.15131  Biso   1.000  C
  H252     1.0000 0.30330  0.86228  0.18689  Biso   1.000  H
  C165     1.0000 0.33669  0.93572  0.22482  Biso   1.000  C
  H253     1.0000 0.87370  0.81748  0.16669  Biso   1.000  H
  C166     1.0000 0.86559  0.91909  0.22821  Biso   1.000  C
  O119     1.0000 0.35068  0.93889  0.12541  Biso   1.000  O
  H254     1.0000 0.42131  0.90260  0.15991  Biso   1.000  H
  C167     1.0000 0.38330  0.83560  0.11859  Biso   1.000  C
  O120     1.0000 0.29578  0.92489  0.26421  Biso   1.000  O
  H255     1.0000 0.37642  0.94908  0.23621  Biso   1.000  H
  C168     1.0000 0.30638  0.98709  0.19290  Biso   1.000  C
  O121     1.0000 0.85331  0.93191  0.17920  Biso   1.000  O
  H256     1.0000 0.90120  0.89282  0.23041  Biso   1.000  H
  C169     1.0000 0.87800  0.97821  0.25470  Biso   1.000  C
  C170     1.0000 0.34489  0.99452  0.14911  Biso   1.000  C
  Se4      1.0000 0.45116  0.83202  0.07606  Biso   1.000  Se
  H257     1.0000 0.34638  0.83478  0.10021  Biso   1.000  H
  H258     1.0000 0.38380  0.79931  0.13761  Biso   1.000  H
  H259     1.0000 0.30620  0.89390  0.27791  Biso   1.000  H
  H260     1.0000 0.26588  0.97359  0.18361  Biso   1.000  H
  O122     1.0000 0.30081  0.04240  0.21832  Biso   1.000  O
  C171     1.0000 0.79890  0.97150  0.17249  Biso   1.000  C
  O123     1.0000 0.89041  0.97028  0.30360  Biso   1.000  O
  H261     1.0000 0.91370  0.99719  0.24062  Biso   1.000  H
  C172     1.0000 0.82192  0.02319  0.24729  Biso   1.000  C
  O124     1.0000 0.40242  0.01880  0.16309  Biso   1.000  O
  H262     1.0000 0.32500  0.02369  0.12821  Biso   1.000  H
  C173     1.0000 0.42561  0.86880  0.02349  Biso   1.000  C
  H263     1.0000 0.32980  0.06428  0.21241  Biso   1.000  H
  H264     1.0000 0.76461  0.95171  0.18780  Biso   1.000  H
  C174     1.0000 0.78799  0.96498  0.11370  Biso   1.000  C
  C175     1.0000 0.80751  0.03330  0.19549  Biso   1.000  C
  H265     1.0000 0.87741  0.93730  0.31209  Biso   1.000  H
  O125     1.0000 0.83329  0.07901  0.26921  Biso   1.000  O
  H266     1.0000 0.78631  0.00498  0.26211  Biso   1.000  H
  C176     1.0000 0.42299  0.07411  0.14079  Biso   1.000  C
  C177     1.0000 0.36899  0.89680  0.01472  Biso   1.000  C
  C178     1.0000 0.46630  0.87469  0.98619  Biso   1.000  C
  O126     1.0000 0.84199  0.99869  0.10241  Biso   1.000  O
  H267     1.0000 0.78998  0.92362  0.10280  Biso   1.000  H
  H268     1.0000 0.75161  0.98469  0.10301  Biso   1.000  H
  O127     1.0000 0.75328  0.06659  0.19221  Biso   1.000  O
  H269     1.0000 0.84058  0.05540  0.18029  Biso   1.000  H
  H270     1.0000 0.85938  0.09740  0.25460  Biso   1.000  H
  C179     1.0000 0.47300  0.05839  0.10689  Biso   1.000  C
  H271     1.0000 0.38928  0.09310  0.12401  Biso   1.000  H
  C180     1.0000 0.44509  0.11579  0.17931  Biso   1.000  C
  H272     1.0000 0.34040  0.89821  0.03859  Biso   1.000  H
  C181     1.0000 0.35490  0.92158  0.97260  Biso   1.000  C
  C182     1.0000 0.45302  0.90201  0.94439  Biso   1.000  C
  H273     1.0000 0.50512  0.85902  0.99011  Biso   1.000  H
  H274     1.0000 0.83410  0.02319  0.08168  Biso   1.000  H
  C183     1.0000 0.75510  0.12390  0.16959  Biso   1.000  C
  O128     1.0000 0.50100  0.11629  0.08990  Biso   1.000  O
  H275     1.0000 0.50399  0.03520  0.12370  Biso   1.000  H
  C184     1.0000 0.45461  0.02310  0.06480  Biso   1.000  C
  O129     1.0000 0.39431  0.13192  0.20828  Biso   1.000  O
  H276     1.0000 0.47508  0.09418  0.19829  Biso   1.000  H
  C185     1.0000 0.47332  0.17160  0.15991  Biso   1.000  C
  H277     1.0000 0.31580  0.93531  0.96679  Biso   1.000  H
  C186     1.0000 0.39798  0.92602  0.93939  Biso   1.000  C
  H278     1.0000 0.48129  0.90328  0.92041  Biso   1.000  H
  O130     1.0000 0.73290  0.12250  0.12419  Biso   1.000  O
  C187     1.0000 0.72008  0.16880  0.19850  Biso   1.000  C
  H279     1.0000 0.79741  0.13731  0.16840  Biso   1.000  H
  C188     1.0000 0.52410  0.15788  0.12541  Biso   1.000  C
  H280     1.0000 0.43798  0.98469  0.07529  Biso   1.000  H
  O131     1.0000 0.50140  0.01051  0.03041  Biso   1.000  O
  H281     1.0000 0.42222  0.04499  0.04939  Biso   1.000  H
  H282     1.0000 0.40668  0.14818  0.23230  Biso   1.000  H
  O132     1.0000 0.49520  0.21020  0.19500  Biso   1.000  O
  H283     1.0000 0.44170  0.19371  0.14289  Biso   1.000  H
  H284     1.0000 0.38901  0.94700  0.91199  Biso   1.000  H
  C189     1.0000 0.66988  0.10519  0.12059  Biso   1.000  C
  C190     1.0000 0.65280  0.15131  0.19941  Biso   1.000  C
  O133     1.0000 0.74382  0.16938  0.24642  Biso   1.000  O
  H285     1.0000 0.72438  0.20921  0.18480  Biso   1.000  H
  O134     1.0000 0.56940  0.12481  0.15100  Biso   1.000  O
  H286     1.0000 0.54068  0.19498  0.11139  Biso   1.000  H
  H287     1.0000 0.53099  0.99570  0.04352  Biso   1.000  H
  H288     1.0000 0.53099  0.20268  0.20000  Biso   1.000  H
  C191     1.0000 0.63210  0.14741  0.14750  Biso   1.000  C
  H289     1.0000 0.66440  0.06379  0.13219  Biso   1.000  H
  C192     1.0000 0.65280  0.10841  0.07071  Biso   1.000  C
  O135     1.0000 0.62100  0.19679  0.22499  Biso   1.000  O
  H290     1.0000 0.64769  0.11190  0.21472  Biso   1.000  H
  H291     1.0000 0.76991  0.19571  0.24869  Biso   1.000  H
  H292     1.0000 0.63269  0.18769  0.13310  Biso   1.000  H
  O136     1.0000 0.68941  0.06089  0.04271  Biso   1.000  O
  H293     1.0000 0.66109  0.14868  0.05869  Biso   1.000  H
  H294     1.0000 0.60981  0.10048  0.06728  Biso   1.000  H
  H295     1.0000 0.58589  0.19851  0.21580  Biso   1.000  H
  H296     1.0000 0.68098  0.06379  0.01479  Biso   1.000  H
  O137     1.0000 0.54621  0.31132  0.63649  Biso   1.000  O
  C193     1.0000 0.54132  0.32781  0.68389  Biso   1.000  C
  H297     1.0000 0.57928  0.32219  0.62639  Biso   1.000  H
  C194     1.0000 0.56569  0.27852  0.71751  Biso   1.000  C
  H298     1.0000 0.49909  0.33551  0.69119  Biso   1.000  H
  H299     1.0000 0.56351  0.36509  0.68909  Biso   1.000  H
  O138     1.0000 0.62739  0.27000  0.70849  Biso   1.000  O
  H300     1.0000 0.54431  0.24042  0.71129  Biso   1.000  H
  C195     1.0000 0.55758  0.29492  0.76900  Biso   1.000  C
  C196     1.0000 0.65530  0.22049  0.73481  Biso   1.000  C
  C197     1.0000 0.58340  0.24862  0.80119  Biso   1.000  C
  O139     1.0000 0.49198  0.29981  0.78071  Biso   1.000  O
  H301     1.0000 0.57719  0.33401  0.77501  Biso   1.000  H
  O140     1.0000 0.62481  0.16490  0.72440  Biso   1.000  O
  H302     1.0000 0.69820  0.21709  0.72639  Biso   1.000  H
  C198     1.0000 0.64891  0.23231  0.78721  Biso   1.000  C
  O141     1.0000 0.58290  0.26878  0.84858  Biso   1.000  O
  H303     1.0000 0.55862  0.21188  0.79899  Biso   1.000  H
  C199     1.0000 0.46661  0.35540  0.79161  Biso   1.000  C
  C200     1.0000 0.65670  0.12191  0.69521  Biso   1.000  C
  O142     1.0000 0.67151  0.18171  0.81290  Biso   1.000  O
  H304     1.0000 0.67450  0.26719  0.79479  Biso   1.000  H
  H305     1.0000 0.55142  0.28722  0.85369  Biso   1.000  H
  O143     1.0000 0.42498  0.37492  0.75610  Biso   1.000  O
  H306     1.0000 0.49891  0.38561  0.79490  Biso   1.000  H
  C201     1.0000 0.43291  0.35041  0.83702  Biso   1.000  C
  C202     1.0000 0.61978  0.10981  0.65131  Biso   1.000  C
  H307     1.0000 0.69670  0.13772  0.68689  Biso   1.000  H
  C203     1.0000 0.66331  0.06428  0.72482  Biso   1.000  C
  H308     1.0000 0.68968  0.19380  0.83600  Biso   1.000  H
  C204     1.0000 0.37759  0.33410  0.74830  Biso   1.000  C
  O144     1.0000 0.47649  0.33379  0.87361  Biso   1.000  O
  C205     1.0000 0.38199  0.30529  0.83450  Biso   1.000  C
  H309     1.0000 0.41578  0.39019  0.84460  Biso   1.000  H
  C206     1.0000 0.61670  0.16440  0.61859  Biso   1.000  C
  O145     1.0000 0.64932  0.06111  0.62541  Biso   1.000  O
  H310     1.0000 0.57869  0.09740  0.65991  Biso   1.000  H
  C207     1.0000 0.69362  0.01291  0.69290  Biso   1.000  C
  O146     1.0000 0.70422  0.07511  0.76421  Biso   1.000  O
  H311     1.0000 0.62358  0.05092  0.73621  Biso   1.000  H
  H312     1.0000 0.39522  0.29542  0.73831  Biso   1.000  H
  C208     1.0000 0.33750  0.35852  0.70821  Biso   1.000  C
  C209     1.0000 0.34180  0.32300  0.79490  Biso   1.000  C
  H313     1.0000 0.50498  0.31539  0.86190  Biso   1.000  H
  O147     1.0000 0.34828  0.30289  0.87630  Biso   1.000  O
  H314     1.0000 0.39889  0.26511  0.82810  Biso   1.000  H
  Se5      1.0000 0.54884  0.16798  0.57606  Biso   1.000  Se
  H315     1.0000 0.65362  0.16522  0.60021  Biso   1.000  H
  H316     1.0000 0.61620  0.20069  0.63761  Biso   1.000  H
  C210     1.0000 0.65511  0.00548  0.64911  Biso   1.000  C
  H317     1.0000 0.73412  0.02641  0.68361  Biso   1.000  H
  O148     1.0000 0.69919  0.95760  0.71832  Biso   1.000  O
  H318     1.0000 0.69380  0.10610  0.77791  Biso   1.000  H
  O149     1.0000 0.31308  0.41352  0.72129  Biso   1.000  O
  H319     1.0000 0.36151  0.36341  0.68011  Biso   1.000  H
  H320     1.0000 0.30520  0.32989  0.70161  Biso   1.000  H
  O150     1.0000 0.29899  0.27222  0.78770  Biso   1.000  O
  H321     1.0000 0.31920  0.35970  0.80322  Biso   1.000  H
  H322     1.0000 0.31381  0.29129  0.87060  Biso   1.000  H
  C211     1.0000 0.57439  0.13120  0.52349  Biso   1.000  C
  O151     1.0000 0.59758  0.98120  0.66309  Biso   1.000  O
  H323     1.0000 0.67500  0.97631  0.62821  Biso   1.000  H
  H324     1.0000 0.67020  0.93572  0.71241  Biso   1.000  H
  H325     1.0000 0.27680  0.41379  0.71541  Biso   1.000  H
  C212     1.0000 0.23462  0.28799  0.78301  Biso   1.000  C
  C213     1.0000 0.53370  0.12531  0.48619  Biso   1.000  C
  C214     1.0000 0.63101  0.10320  0.51472  Biso   1.000  C
  C215     1.0000 0.57701  0.92589  0.64079  Biso   1.000  C
  O152     1.0000 0.21428  0.27340  0.73750  Biso   1.000  O
  H326     1.0000 0.22941  0.33152  0.78850  Biso   1.000  H
  C216     1.0000 0.20028  0.25292  0.81971  Biso   1.000  C
  C217     1.0000 0.54698  0.09799  0.44439  Biso   1.000  C
  H327     1.0000 0.49488  0.14098  0.49011  Biso   1.000  H
  C218     1.0000 0.64510  0.07842  0.47260  Biso   1.000  C
  H328     1.0000 0.65960  0.10179  0.53859  Biso   1.000  H
  C219     1.0000 0.52700  0.94161  0.60689  Biso   1.000  C
  H329     1.0000 0.61072  0.90690  0.62401  Biso   1.000  H
  C220     1.0000 0.55491  0.88421  0.67931  Biso   1.000  C
  C221     1.0000 0.22040  0.21002  0.72639  Biso   1.000  C
  O153     1.0000 0.22719  0.26370  0.86491  Biso   1.000  O
  C222     1.0000 0.19851  0.18452  0.80860  Biso   1.000  C
  H330     1.0000 0.15851  0.26801  0.82041  Biso   1.000  H
  C223     1.0000 0.60202  0.07398  0.43939  Biso   1.000  C
  H331     1.0000 0.51871  0.09672  0.42041  Biso   1.000  H
  H332     1.0000 0.68420  0.06469  0.46679  Biso   1.000  H
  O154     1.0000 0.49900  0.88371  0.58990  Biso   1.000  O
  H333     1.0000 0.49601  0.96480  0.62370  Biso   1.000  H
  C224     1.0000 0.54539  0.97690  0.56480  Biso   1.000  C
  O155     1.0000 0.60569  0.86808  0.70828  Biso   1.000  O
  H334     1.0000 0.52492  0.90582  0.69829  Biso   1.000  H
  C225     1.0000 0.52668  0.82840  0.65991  Biso   1.000  C
  H335     1.0000 0.26239  0.19729  0.73191  Biso   1.000  H
  C226     1.0000 0.20712  0.20622  0.67581  Biso   1.000  C
  C227     1.0000 0.17822  0.17392  0.75862  Biso   1.000  C
  H336     1.0000 0.20282  0.28142  0.88168  Biso   1.000  H
  O156     1.0000 0.15688  0.15330  0.84121  Biso   1.000  O
  H337     1.0000 0.23929  0.16771  0.81258  Biso   1.000  H
  H338     1.0000 0.61099  0.05300  0.41199  Biso   1.000  H
  C228     1.0000 0.47590  0.84212  0.62541  Biso   1.000  C
  H339     1.0000 0.56202  0.01531  0.57529  Biso   1.000  H
  O157     1.0000 0.49860  0.98949  0.53041  Biso   1.000  O
  H340     1.0000 0.57778  0.95501  0.54939  Biso   1.000  H
  H341     1.0000 0.59332  0.85182  0.73230  Biso   1.000  H
  O158     1.0000 0.50480  0.78980  0.69500  Biso   1.000  O
  H342     1.0000 0.55830  0.80629  0.64289  Biso   1.000  H
  O159     1.0000 0.14402  0.21509  0.66550  Biso   1.000  O
  H343     1.0000 0.23068  0.23670  0.65938  Biso   1.000  H
  H344     1.0000 0.21949  0.16680  0.66421  Biso   1.000  H
  O160     1.0000 0.18352  0.10931  0.74981  Biso   1.000  O
  H345     1.0000 0.13609  0.18710  0.75449  Biso   1.000  H
  H346     1.0000 0.17360  0.12309  0.85190  Biso   1.000  H
  O161     1.0000 0.43060  0.87519  0.65100  Biso   1.000  O
  H347     1.0000 0.45932  0.80502  0.61139  Biso   1.000  H
  H348     1.0000 0.46901  0.00430  0.54352  Biso   1.000  H
  H349     1.0000 0.46901  0.79732  0.70000  Biso   1.000  H
  H350     1.0000 0.12630  0.18252  0.66669  Biso   1.000  H
  C229     1.0000 0.13441  0.08091  0.72821  Biso   1.000  C
  C230     1.0000 0.36790  0.85259  0.64750  Biso   1.000  C
  O162     1.0000 0.14669  0.06809  0.67920  Biso   1.000  O
  C231     1.0000 0.12200  0.02179  0.75470  Biso   1.000  C
  H351     1.0000 0.09880  0.10718  0.73041  Biso   1.000  H
  C232     1.0000 0.33012  0.89481  0.62059  Biso   1.000  C
  H352     1.0000 0.36731  0.81231  0.63310  Biso   1.000  H
  C233     1.0000 0.34720  0.84869  0.69941  Biso   1.000  C
  C234     1.0000 0.20110  0.02850  0.67249  Biso   1.000  C
  C235     1.0000 0.17808  0.97681  0.74729  Biso   1.000  C
  O163     1.0000 0.10959  0.02972  0.80360  Biso   1.000  O
  H353     1.0000 0.08630  0.00281  0.74062  Biso   1.000  H
  O164     1.0000 0.26710  0.87750  0.62419  Biso   1.000  O
  H354     1.0000 0.33560  0.93621  0.63219  Biso   1.000  H
  C236     1.0000 0.34720  0.89159  0.57071  Biso   1.000  C
  O165     1.0000 0.37900  0.80321  0.72499  Biso   1.000  O
  H355     1.0000 0.35231  0.88810  0.71472  Biso   1.000  H
  C237     1.0000 0.27992  0.83120  0.69850  Biso   1.000  C
  C238     1.0000 0.19249  0.96670  0.69549  Biso   1.000  C
  H356     1.0000 0.23539  0.04829  0.68780  Biso   1.000  H
  C239     1.0000 0.21201  0.03502  0.61370  Biso   1.000  C
  O166     1.0000 0.16671  0.92099  0.76921  Biso   1.000  O
  H357     1.0000 0.21369  0.99502  0.76211  Biso   1.000  H
  H358     1.0000 0.12259  0.06270  0.81209  Biso   1.000  H
  C240     1.0000 0.24490  0.87610  0.66959  Biso   1.000  C
  O167     1.0000 0.31059  0.93911  0.54271  Biso   1.000  O
  H359     1.0000 0.33891  0.85132  0.55869  Biso   1.000  H
  H360     1.0000 0.39019  0.89952  0.56728  Biso   1.000  H
  H361     1.0000 0.41411  0.80149  0.71580  Biso   1.000  H
  O168     1.0000 0.25618  0.83062  0.74642  Biso   1.000  O
  H362     1.0000 0.27562  0.79079  0.68480  Biso   1.000  H
  O169     1.0000 0.24672  0.93341  0.69221  Biso   1.000  O
  H363     1.0000 0.15942  0.94460  0.68029  Biso   1.000  H
  O170     1.0000 0.15801  0.00131  0.60241  Biso   1.000  O
  H364     1.0000 0.21002  0.07638  0.60280  Biso   1.000  H
  H365     1.0000 0.24839  0.01531  0.60301  Biso   1.000  H
  H366     1.0000 0.14062  0.90260  0.75460  Biso   1.000  H
  H367     1.0000 0.20259  0.86269  0.66840  Biso   1.000  H
  H368     1.0000 0.31902  0.93621  0.51479  Biso   1.000  H
  H369     1.0000 0.23009  0.80429  0.74869  Biso   1.000  H
  H370     1.0000 0.16590  0.97681  0.58168  Biso   1.000  H
  O171     1.0000 0.31132  0.54621  0.36351  Biso   1.000  O
  C241     1.0000 0.32781  0.54132  0.31611  Biso   1.000  C
  H371     1.0000 0.32219  0.57928  0.37361  Biso   1.000  H
  C242     1.0000 0.27852  0.56569  0.28249  Biso   1.000  C
  H372     1.0000 0.33551  0.49909  0.30881  Biso   1.000  H
  H373     1.0000 0.36509  0.56351  0.31091  Biso   1.000  H
  C243     1.0000 0.29492  0.55758  0.23100  Biso   1.000  C
  O172     1.0000 0.27000  0.62739  0.29151  Biso   1.000  O
  H374     1.0000 0.24042  0.54431  0.28871  Biso   1.000  H
  O173     1.0000 0.29981  0.49198  0.21929  Biso   1.000  O
  H375     1.0000 0.33401  0.57719  0.22499  Biso   1.000  H
  C244     1.0000 0.24862  0.58340  0.19881  Biso   1.000  C
  C245     1.0000 0.22049  0.65530  0.26519  Biso   1.000  C
  C246     1.0000 0.35540  0.46661  0.20839  Biso   1.000  C
  O174     1.0000 0.26878  0.58290  0.15142  Biso   1.000  O
  H376     1.0000 0.21188  0.55862  0.20101  Biso   1.000  H
  C247     1.0000 0.23231  0.64891  0.21279  Biso   1.000  C
  O175     1.0000 0.16490  0.62481  0.27560  Biso   1.000  O
  H377     1.0000 0.21709  0.69820  0.27361  Biso   1.000  H
  O176     1.0000 0.37492  0.42498  0.24390  Biso   1.000  O
  C248     1.0000 0.35041  0.43291  0.16298  Biso   1.000  C
  H378     1.0000 0.38561  0.49891  0.20510  Biso   1.000  H
  H379     1.0000 0.28722  0.55142  0.14631  Biso   1.000  H
  O177     1.0000 0.18171  0.67151  0.18710  Biso   1.000  O
  H380     1.0000 0.26719  0.67450  0.20521  Biso   1.000  H
  C249     1.0000 0.12191  0.65670  0.30479  Biso   1.000  C
  C250     1.0000 0.33410  0.37759  0.25170  Biso   1.000  C
  C251     1.0000 0.30529  0.38199  0.16550  Biso   1.000  C
  O178     1.0000 0.33379  0.47649  0.12639  Biso   1.000  O
  H381     1.0000 0.39019  0.41578  0.15540  Biso   1.000  H
  H382     1.0000 0.19380  0.68968  0.16400  Biso   1.000  H
  C252     1.0000 0.10981  0.61978  0.34869  Biso   1.000  C
  H383     1.0000 0.13772  0.69670  0.31311  Biso   1.000  H
  C253     1.0000 0.06428  0.66331  0.27518  Biso   1.000  C
  C254     1.0000 0.32300  0.34180  0.20510  Biso   1.000  C
  H384     1.0000 0.29542  0.39522  0.26169  Biso   1.000  H
  C255     1.0000 0.35852  0.33750  0.29179  Biso   1.000  C
  O179     1.0000 0.30289  0.34828  0.12370  Biso   1.000  O
  H385     1.0000 0.26511  0.39889  0.17190  Biso   1.000  H
  H386     1.0000 0.31539  0.50498  0.13810  Biso   1.000  H
  O180     1.0000 0.06111  0.64932  0.37459  Biso   1.000  O
  H387     1.0000 0.09740  0.57869  0.34009  Biso   1.000  H
  C256     1.0000 0.16440  0.61670  0.38141  Biso   1.000  C
  O181     1.0000 0.07511  0.70422  0.23579  Biso   1.000  O
  H388     1.0000 0.05092  0.62358  0.26379  Biso   1.000  H
  C257     1.0000 0.01291  0.69362  0.30710  Biso   1.000  C
  O182     1.0000 0.27222  0.29899  0.21230  Biso   1.000  O
  H389     1.0000 0.35970  0.31920  0.19678  Biso   1.000  H
  O183     1.0000 0.41352  0.31308  0.27871  Biso   1.000  O
  H390     1.0000 0.36341  0.36151  0.31989  Biso   1.000  H
  H391     1.0000 0.32989  0.30520  0.29839  Biso   1.000  H
  H392     1.0000 0.29129  0.31381  0.12940  Biso   1.000  H
  C258     1.0000 0.00548  0.65511  0.35089  Biso   1.000  C
  Se6      1.0000 0.16798  0.54884  0.42394  Biso   1.000  Se
  H393     1.0000 0.16522  0.65362  0.39979  Biso   1.000  H
  H394     1.0000 0.20069  0.61620  0.36239  Biso   1.000  H
  H395     1.0000 0.10610  0.69380  0.22209  Biso   1.000  H
  H396     1.0000 0.02641  0.73412  0.31639  Biso   1.000  H
  O184     1.0000 0.95760  0.69919  0.28168  Biso   1.000  O
  C259     1.0000 0.28799  0.23462  0.21699  Biso   1.000  C
  H397     1.0000 0.41379  0.27680  0.28459  Biso   1.000  H
  O185     1.0000 0.98120  0.59758  0.33691  Biso   1.000  O
  H398     1.0000 0.97631  0.67500  0.37179  Biso   1.000  H
  C260     1.0000 0.13120  0.57439  0.47651  Biso   1.000  C
  H399     1.0000 0.93572  0.67020  0.28759  Biso   1.000  H
  O186     1.0000 0.27340  0.21428  0.26250  Biso   1.000  O
  H400     1.0000 0.33152  0.22941  0.21150  Biso   1.000  H
  C261     1.0000 0.25292  0.20028  0.18029  Biso   1.000  C
  C262     1.0000 0.92589  0.57701  0.35921  Biso   1.000  C
  C263     1.0000 0.10320  0.63101  0.48528  Biso   1.000  C
  C264     1.0000 0.12531  0.53370  0.51381  Biso   1.000  C
  C265     1.0000 0.21002  0.22040  0.27361  Biso   1.000  C
  O187     1.0000 0.26370  0.22719  0.13509  Biso   1.000  O
  C266     1.0000 0.18452  0.19851  0.19140  Biso   1.000  C
  H401     1.0000 0.26801  0.15851  0.17959  Biso   1.000  H
  C267     1.0000 0.94161  0.52700  0.39311  Biso   1.000  C
  C268     1.0000 0.88421  0.55491  0.32069  Biso   1.000  C
  H402     1.0000 0.90690  0.61072  0.37599  Biso   1.000  H
  H403     1.0000 0.10179  0.65960  0.46141  Biso   1.000  H
  C269     1.0000 0.07842  0.64510  0.52740  Biso   1.000  C
  C270     1.0000 0.09799  0.54698  0.55561  Biso   1.000  C
  H404     1.0000 0.14098  0.49488  0.50989  Biso   1.000  H
  H405     1.0000 0.19729  0.26239  0.26809  Biso   1.000  H
  C271     1.0000 0.20622  0.20712  0.32419  Biso   1.000  C
  C272     1.0000 0.17392  0.17822  0.24138  Biso   1.000  C
  H406     1.0000 0.28142  0.20282  0.11832  Biso   1.000  H
  O188     1.0000 0.15330  0.15688  0.15879  Biso   1.000  O
  H407     1.0000 0.16771  0.23929  0.18742  Biso   1.000  H
  O189     1.0000 0.88371  0.49900  0.41010  Biso   1.000  O
  H408     1.0000 0.96480  0.49601  0.37630  Biso   1.000  H
  C273     1.0000 0.97690  0.54539  0.43520  Biso   1.000  C
  C274     1.0000 0.82840  0.52668  0.34009  Biso   1.000  C
  O190     1.0000 0.86808  0.60569  0.29172  Biso   1.000  O
  H409     1.0000 0.90582  0.52492  0.30171  Biso   1.000  H
  H410     1.0000 0.06469  0.68420  0.53321  Biso   1.000  H
  C275     1.0000 0.07398  0.60202  0.56061  Biso   1.000  C
  H411     1.0000 0.09672  0.51871  0.57959  Biso   1.000  H
  O191     1.0000 0.21509  0.14402  0.33450  Biso   1.000  O
  H412     1.0000 0.23670  0.23068  0.34062  Biso   1.000  H
  H413     1.0000 0.16680  0.21949  0.33579  Biso   1.000  H
  O192     1.0000 0.10931  0.18352  0.25019  Biso   1.000  O
  H414     1.0000 0.18710  0.13609  0.24551  Biso   1.000  H
  H415     1.0000 0.12309  0.17360  0.14810  Biso   1.000  H
  C276     1.0000 0.84212  0.47590  0.37459  Biso   1.000  C
  H416     1.0000 0.01531  0.56202  0.42471  Biso   1.000  H
  O193     1.0000 0.98949  0.49860  0.46959  Biso   1.000  O
  H417     1.0000 0.95501  0.57778  0.45061  Biso   1.000  H
  O194     1.0000 0.78980  0.50480  0.30500  Biso   1.000  O
  H418     1.0000 0.80629  0.55830  0.35711  Biso   1.000  H
  H419     1.0000 0.85182  0.59332  0.26770  Biso   1.000  H
  H420     1.0000 0.05300  0.61099  0.58801  Biso   1.000  H
  H421     1.0000 0.18252  0.12630  0.33331  Biso   1.000  H
  C277     1.0000 0.08091  0.13441  0.27179  Biso   1.000  C
  O195     1.0000 0.87519  0.43060  0.34900  Biso   1.000  O
  H422     1.0000 0.80502  0.45932  0.38861  Biso   1.000  H
  H423     1.0000 0.00430  0.46901  0.45648  Biso   1.000  H
  H424     1.0000 0.79732  0.46901  0.30000  Biso   1.000  H
  O196     1.0000 0.06809  0.14669  0.32080  Biso   1.000  O
  H425     1.0000 0.10718  0.09880  0.26959  Biso   1.000  H
  C278     1.0000 0.02179  0.12200  0.24530  Biso   1.000  C
  C279     1.0000 0.85259  0.36790  0.35250  Biso   1.000  C
  C280     1.0000 0.02850  0.20110  0.32751  Biso   1.000  C
  O197     1.0000 0.02972  0.10959  0.19640  Biso   1.000  O
  H426     1.0000 0.00281  0.08630  0.25938  Biso   1.000  H
  C281     1.0000 0.97681  0.17808  0.25271  Biso   1.000  C
  C282     1.0000 0.89481  0.33012  0.37941  Biso   1.000  C
  C283     1.0000 0.84869  0.34720  0.30059  Biso   1.000  C
  H427     1.0000 0.81231  0.36731  0.36690  Biso   1.000  H
  H428     1.0000 0.04829  0.23539  0.31220  Biso   1.000  H
  C284     1.0000 0.03502  0.21201  0.38630  Biso   1.000  C
  C285     1.0000 0.96670  0.19249  0.30451  Biso   1.000  C
  H429     1.0000 0.06270  0.12259  0.18791  Biso   1.000  H
  O198     1.0000 0.92099  0.16671  0.23079  Biso   1.000  O
  H430     1.0000 0.99502  0.21369  0.23789  Biso   1.000  H
  O199     1.0000 0.87750  0.26710  0.37581  Biso   1.000  O
  H431     1.0000 0.93621  0.33560  0.36781  Biso   1.000  H
  C286     1.0000 0.89159  0.34720  0.42929  Biso   1.000  C
  C287     1.0000 0.83120  0.27992  0.30150  Biso   1.000  C
  O200     1.0000 0.80321  0.37900  0.27501  Biso   1.000  O
  H432     1.0000 0.88810  0.35231  0.28528  Biso   1.000  H
  O201     1.0000 0.00131  0.15801  0.39759  Biso   1.000  O
  H433     1.0000 0.07638  0.21002  0.39720  Biso   1.000  H
  H434     1.0000 0.01531  0.24839  0.39699  Biso   1.000  H
  O202     1.0000 0.93341  0.24672  0.30779  Biso   1.000  O
  H435     1.0000 0.94460  0.15942  0.31971  Biso   1.000  H
  H436     1.0000 0.90260  0.14062  0.24540  Biso   1.000  H
  C288     1.0000 0.87610  0.24490  0.33041  Biso   1.000  C
  O203     1.0000 0.93911  0.31059  0.45729  Biso   1.000  O
  H437     1.0000 0.85132  0.33891  0.44131  Biso   1.000  H
  H438     1.0000 0.89952  0.39019  0.43272  Biso   1.000  H
  O204     1.0000 0.83062  0.25618  0.25358  Biso   1.000  O
  H439     1.0000 0.79079  0.27562  0.31520  Biso   1.000  H
  H440     1.0000 0.80149  0.41411  0.28420  Biso   1.000  H
  H441     1.0000 0.97681  0.16590  0.41832  Biso   1.000  H
  H442     1.0000 0.86269  0.20259  0.33160  Biso   1.000  H
  H443     1.0000 0.93621  0.31902  0.48521  Biso   1.000  H
  H444     1.0000 0.80429  0.23009  0.25131  Biso   1.000  H
  O205     1.0000 0.65801  0.49869  0.14761  Biso   1.000  O
  C289     1.0000 0.71201  0.46498  0.13632  Biso   1.000  C
  H445     1.0000 0.66590  0.52319  0.16830  Biso   1.000  H
  C290     1.0000 0.70110  0.47150  0.07749  Biso   1.000  C
  H446     1.0000 0.71002  0.42362  0.14719  Biso   1.000  H
  H447     1.0000 0.74839  0.48469  0.14701  Biso   1.000  H
  O206     1.0000 0.64669  0.43191  0.07081  Biso   1.000  O
  H448     1.0000 0.73539  0.45171  0.06222  Biso   1.000  H
  C291     1.0000 0.69249  0.53330  0.05449  Biso   1.000  C
  C292     1.0000 0.63441  0.41909  0.02181  Biso   1.000  C
  C293     1.0000 0.67808  0.52319  0.00269  Biso   1.000  C
  O207     1.0000 0.74672  0.56659  0.05781  Biso   1.000  O
  H449     1.0000 0.65942  0.55540  0.06970  Biso   1.000  H
  O208     1.0000 0.68352  0.39069  0.00021  Biso   1.000  O
  H450     1.0000 0.59880  0.39282  0.01961  Biso   1.000  H
  C294     1.0000 0.62200  0.47821  0.99532  Biso   1.000  C
  O209     1.0000 0.66671  0.57901  0.98081  Biso   1.000  O
  H451     1.0000 0.71369  0.50498  0.98791  Biso   1.000  H
  C295     1.0000 0.74490  0.62390  0.08039  Biso   1.000  C
  C296     1.0000 0.67822  0.32608  0.99140  Biso   1.000  C
  H452     1.0000 0.58630  0.49719  0.00940  Biso   1.000  H
  O210     1.0000 0.60959  0.47028  0.94642  Biso   1.000  O
  H453     1.0000 0.64062  0.59740  0.99539  Biso   1.000  H
  O211     1.0000 0.76710  0.62250  0.12580  Biso   1.000  O
  H454     1.0000 0.70259  0.63731  0.08161  Biso   1.000  H
  C297     1.0000 0.77992  0.66880  0.05149  Biso   1.000  C
  C298     1.0000 0.72040  0.28998  0.02359  Biso   1.000  C
  H455     1.0000 0.63609  0.31290  0.99549  Biso   1.000  H
  C299     1.0000 0.69851  0.31548  0.94138  Biso   1.000  C
  H456     1.0000 0.62259  0.43730  0.93789  Biso   1.000  H
  C300     1.0000 0.83012  0.60519  0.12940  Biso   1.000  C
  O212     1.0000 0.75618  0.66938  0.00360  Biso   1.000  O
  C301     1.0000 0.84720  0.65131  0.05061  Biso   1.000  C
  H457     1.0000 0.77562  0.70921  0.06519  Biso   1.000  H
  C302     1.0000 0.70712  0.29378  0.07420  Biso   1.000  C
  O213     1.0000 0.71428  0.22660  0.01251  Biso   1.000  O
  H458     1.0000 0.76239  0.30271  0.01811  Biso   1.000  H
  C303     1.0000 0.70028  0.24708  0.93030  Biso   1.000  C
  O214     1.0000 0.65688  0.34670  0.90881  Biso   1.000  O
  H459     1.0000 0.73929  0.33229  0.93740  Biso   1.000  H
  H460     1.0000 0.83560  0.56379  0.11779  Biso   1.000  H
  C304     1.0000 0.84720  0.60841  0.17931  Biso   1.000  C
  C305     1.0000 0.86790  0.64741  0.10252  Biso   1.000  C
  H461     1.0000 0.73009  0.69571  0.00129  Biso   1.000  H
  O215     1.0000 0.87900  0.69679  0.02499  Biso   1.000  O
  H462     1.0000 0.85231  0.61190  0.03530  Biso   1.000  H
  O216     1.0000 0.64402  0.28491  0.08452  Biso   1.000  O
  H463     1.0000 0.73068  0.26330  0.09060  Biso   1.000  H
  H464     1.0000 0.71949  0.33320  0.08581  Biso   1.000  H
  C306     1.0000 0.73462  0.21201  0.96700  Biso   1.000  C
  O217     1.0000 0.72719  0.23630  0.88511  Biso   1.000  O
  H465     1.0000 0.65851  0.23199  0.92961  Biso   1.000  H
  H466     1.0000 0.67360  0.37691  0.89811  Biso   1.000  H
  O218     1.0000 0.81059  0.56089  0.20731  Biso   1.000  O
  H467     1.0000 0.83891  0.64868  0.19130  Biso   1.000  H
  H468     1.0000 0.89019  0.60048  0.18270  Biso   1.000  H
  O219     1.0000 0.93060  0.62481  0.09899  Biso   1.000  O
  H469     1.0000 0.86731  0.68769  0.11692  Biso   1.000  H
  H470     1.0000 0.91411  0.69851  0.03418  Biso   1.000  H
  H471     1.0000 0.62630  0.31748  0.08329  Biso   1.000  H
  O220     1.0000 0.79899  0.22778  0.96229  Biso   1.000  O
  H472     1.0000 0.72941  0.16848  0.96152  Biso   1.000  H
  H473     1.0000 0.70282  0.21858  0.86830  Biso   1.000  H
  H474     1.0000 0.81902  0.56379  0.23520  Biso   1.000  H
  C307     1.0000 0.97590  0.65788  0.12461  Biso   1.000  C
  C308     1.0000 0.84180  0.17700  0.95509  Biso   1.000  C
  O221     1.0000 0.99900  0.61629  0.16008  Biso   1.000  O
  H475     1.0000 0.95932  0.69498  0.13859  Biso   1.000  H
  C309     1.0000 0.02668  0.67160  0.09011  Biso   1.000  C
  C310     1.0000 0.87759  0.16590  0.00171  Biso   1.000  C
  H476     1.0000 0.81920  0.14030  0.94680  Biso   1.000  H
  C311     1.0000 0.88199  0.19471  0.91548  Biso   1.000  C
  C312     1.0000 0.02700  0.55839  0.14310  Biso   1.000  C
  O222     1.0000 0.00480  0.71020  0.05502  Biso   1.000  O
  C313     1.0000 0.05491  0.61579  0.07071  Biso   1.000  C
  H477     1.0000 0.05830  0.69371  0.10710  Biso   1.000  H
  H478     1.0000 0.89522  0.20458  0.01171  Biso   1.000  H
  C314     1.0000 0.83750  0.14148  0.04180  Biso   1.000  C
  O223     1.0000 0.92498  0.12508  0.99388  Biso   1.000  O
  O224     1.0000 0.84828  0.19711  0.87372  Biso   1.000  O
  H479     1.0000 0.89889  0.23489  0.92192  Biso   1.000  H
  C315     1.0000 0.93291  0.14959  0.91300  Biso   1.000  C
  H480     1.0000 0.99601  0.53520  0.12628  Biso   1.000  H
  C316     1.0000 0.04539  0.52310  0.18521  Biso   1.000  C
  C317     1.0000 0.07701  0.57411  0.10919  Biso   1.000  C
  H481     1.0000 0.96901  0.70268  0.04998  Biso   1.000  H
  O225     1.0000 0.10569  0.63192  0.04170  Biso   1.000  O
  H482     1.0000 0.02492  0.59418  0.05170  Biso   1.000  H
  O226     1.0000 0.81308  0.08648  0.02870  Biso   1.000  O
  H483     1.0000 0.86151  0.13659  0.06991  Biso   1.000  H
  H484     1.0000 0.80520  0.17011  0.04841  Biso   1.000  H
  C318     1.0000 0.96661  0.14460  0.95841  Biso   1.000  C
  H485     1.0000 0.81381  0.20871  0.87941  Biso   1.000  H
  O227     1.0000 0.97649  0.16621  0.87641  Biso   1.000  O
  H486     1.0000 0.91578  0.10981  0.90538  Biso   1.000  H
  O228     1.0000 0.99860  0.51051  0.21961  Biso   1.000  O
  H487     1.0000 0.06202  0.48469  0.17469  Biso   1.000  H
  H488     1.0000 0.07778  0.54499  0.20059  Biso   1.000  H
  O229     1.0000 0.09758  0.51880  0.08689  Biso   1.000  O
  H489     1.0000 0.11072  0.59310  0.12600  Biso   1.000  H
  H490     1.0000 0.09332  0.64818  0.01769  Biso   1.000  H
  H491     1.0000 0.77680  0.08621  0.03460  Biso   1.000  H
  O230     1.0000 0.99198  0.20019  0.96931  Biso   1.000  O
  H492     1.0000 0.99891  0.11439  0.95509  Biso   1.000  H
  H493     1.0000 0.00498  0.18461  0.88812  Biso   1.000  H
  H494     1.0000 0.96901  0.49570  0.20650  Biso   1.000  H
  C319     1.0000 0.15511  0.49452  0.10091  Biso   1.000  C
  C320     1.0000 0.05758  0.20508  0.98099  Biso   1.000  C
  O231     1.0000 0.14932  0.43889  0.12461  Biso   1.000  O
  C321     1.0000 0.19362  0.48709  0.05711  Biso   1.000  C
  H495     1.0000 0.17500  0.52369  0.12181  Biso   1.000  H
  H496     1.0000 0.07719  0.16599  0.97501  Biso   1.000  H
  C322     1.0000 0.08340  0.25138  0.94879  Biso   1.000  C
  C323     1.0000 0.06569  0.22148  0.03251  Biso   1.000  C
  C324     1.0000 0.11978  0.39019  0.09871  Biso   1.000  C
  C325     1.0000 0.16331  0.43572  0.02520  Biso   1.000  C
  O232     1.0000 0.19919  0.54240  0.03170  Biso   1.000  O
  H497     1.0000 0.23412  0.47359  0.06641  Biso   1.000  H
  O233     1.0000 0.08290  0.23122  0.90140  Biso   1.000  O
  H498     1.0000 0.05862  0.28812  0.95100  Biso   1.000  H
  C326     1.0000 0.14891  0.26769  0.96281  Biso   1.000  C
  O234     1.0000 0.12739  0.23000  0.04149  Biso   1.000  O
  H499     1.0000 0.04431  0.25958  0.03869  Biso   1.000  H
  C327     1.0000 0.04132  0.17219  0.06610  Biso   1.000  C
  C328     1.0000 0.15670  0.37809  0.05481  Biso   1.000  C
  H500     1.0000 0.07869  0.40260  0.09011  Biso   1.000  H
  C329     1.0000 0.11670  0.33560  0.13139  Biso   1.000  C
  O235     1.0000 0.20422  0.42489  0.98581  Biso   1.000  O
  H501     1.0000 0.12358  0.44908  0.01381  Biso   1.000  H
  H502     1.0000 0.17020  0.56428  0.03761  Biso   1.000  H
  H503     1.0000 0.05142  0.21278  0.89630  Biso   1.000  H
  O236     1.0000 0.17151  0.31829  0.93708  Biso   1.000  O
  H504     1.0000 0.17450  0.23281  0.95519  Biso   1.000  H
  C330     1.0000 0.15530  0.27951  0.01520  Biso   1.000  C
  H505     1.0000 0.99909  0.16449  0.05879  Biso   1.000  H
  O237     1.0000 0.04621  0.18868  0.11349  Biso   1.000  O
  H506     1.0000 0.06351  0.13491  0.06089  Biso   1.000  H
  O238     1.0000 0.12481  0.33510  0.02559  Biso   1.000  O
  H507     1.0000 0.19670  0.36228  0.06309  Biso   1.000  H
  Se7      1.0000 0.04884  0.33202  0.17396  Biso   1.000  Se
  H508     1.0000 0.15362  0.33478  0.14981  Biso   1.000  H
  H509     1.0000 0.11620  0.29931  0.11241  Biso   1.000  H
  H510     1.0000 0.19380  0.39390  0.97211  Biso   1.000  H
  H511     1.0000 0.18968  0.30620  0.91402  Biso   1.000  H
  H512     1.0000 0.19820  0.28291  0.02359  Biso   1.000  H
  H513     1.0000 0.07928  0.17781  0.12359  Biso   1.000  H
  C331     1.0000 0.07439  0.36880  0.22649  Biso   1.000  C
  C332     1.0000 0.13101  0.39680  0.23530  Biso   1.000  C
  C333     1.0000 0.03370  0.37469  0.26379  Biso   1.000  C
  H514     1.0000 0.15960  0.39821  0.21139  Biso   1.000  H
  C334     1.0000 0.14510  0.42158  0.27739  Biso   1.000  C
  H515     1.0000 0.99488  0.35902  0.25991  Biso   1.000  H
  C335     1.0000 0.04698  0.40201  0.30559  Biso   1.000  C
  H516     1.0000 0.18420  0.43531  0.28319  Biso   1.000  H
  C336     1.0000 0.10202  0.42602  0.31059  Biso   1.000  C
  H517     1.0000 0.01871  0.40328  0.32961  Biso   1.000  H
  H518     1.0000 0.11099  0.44700  0.33799  Biso   1.000  H
  O239     1.0000 0.49869  0.65801  0.85239  Biso   1.000  O
  H519     1.0000 0.52319  0.66590  0.83170  Biso   1.000  H
  C337     1.0000 0.46498  0.71201  0.86368  Biso   1.000  C
  C338     1.0000 0.47150  0.70110  0.92251  Biso   1.000  C
  H520     1.0000 0.42362  0.71002  0.85281  Biso   1.000  H
  H521     1.0000 0.48469  0.74839  0.85299  Biso   1.000  H
  O240     1.0000 0.43191  0.64669  0.92919  Biso   1.000  O
  H522     1.0000 0.45171  0.73539  0.93778  Biso   1.000  H
  C339     1.0000 0.53330  0.69249  0.94551  Biso   1.000  C
  C340     1.0000 0.41909  0.63441  0.97819  Biso   1.000  C
  O241     1.0000 0.56659  0.74672  0.94219  Biso   1.000  O
  H523     1.0000 0.55540  0.65942  0.93030  Biso   1.000  H
  C341     1.0000 0.52319  0.67808  0.99731  Biso   1.000  C
  O242     1.0000 0.39069  0.68352  0.99979  Biso   1.000  O
  H524     1.0000 0.39282  0.59880  0.98039  Biso   1.000  H
  C342     1.0000 0.47821  0.62200  0.00468  Biso   1.000  C
  C343     1.0000 0.62390  0.74490  0.91961  Biso   1.000  C
  O243     1.0000 0.57901  0.66671  0.01919  Biso   1.000  O
  H525     1.0000 0.50498  0.71369  0.01209  Biso   1.000  H
  C344     1.0000 0.32608  0.67822  0.00860  Biso   1.000  C
  H526     1.0000 0.49719  0.58630  0.99060  Biso   1.000  H
  O244     1.0000 0.47028  0.60959  0.05358  Biso   1.000  O
  O245     1.0000 0.62250  0.76710  0.87420  Biso   1.000  O
  H527     1.0000 0.63731  0.70259  0.91839  Biso   1.000  H
  C345     1.0000 0.66880  0.77992  0.94851  Biso   1.000  C
  H528     1.0000 0.59740  0.64062  0.00461  Biso   1.000  H
  C346     1.0000 0.28998  0.72040  0.97641  Biso   1.000  C
  H529     1.0000 0.31290  0.63609  0.00451  Biso   1.000  H
  C347     1.0000 0.31548  0.69851  0.05862  Biso   1.000  C
  H530     1.0000 0.43730  0.62259  0.06211  Biso   1.000  H
  C348     1.0000 0.60519  0.83012  0.87060  Biso   1.000  C
  O246     1.0000 0.66938  0.75618  0.99640  Biso   1.000  O
  C349     1.0000 0.65131  0.84720  0.94939  Biso   1.000  C
  H531     1.0000 0.70921  0.77562  0.93481  Biso   1.000  H
  O247     1.0000 0.22660  0.71428  0.98749  Biso   1.000  O
  H532     1.0000 0.30271  0.76239  0.98189  Biso   1.000  H
  C350     1.0000 0.29378  0.70712  0.92580  Biso   1.000  C
  O248     1.0000 0.34670  0.65688  0.09119  Biso   1.000  O
  H533     1.0000 0.33229  0.73929  0.06260  Biso   1.000  H
  C351     1.0000 0.24708  0.70028  0.06970  Biso   1.000  C
  H534     1.0000 0.56379  0.83560  0.88221  Biso   1.000  H
  C352     1.0000 0.60841  0.84720  0.82069  Biso   1.000  C
  C353     1.0000 0.64741  0.86790  0.89748  Biso   1.000  C
  H535     1.0000 0.69571  0.73009  0.99871  Biso   1.000  H
  O249     1.0000 0.69679  0.87900  0.97501  Biso   1.000  O
  H536     1.0000 0.61190  0.85231  0.96470  Biso   1.000  H
  C354     1.0000 0.21201  0.73462  0.03300  Biso   1.000  C
  O250     1.0000 0.28491  0.64402  0.91548  Biso   1.000  O
  H537     1.0000 0.26330  0.73068  0.90940  Biso   1.000  H
  H538     1.0000 0.33320  0.71949  0.91419  Biso   1.000  H
  H539     1.0000 0.37691  0.67360  0.10189  Biso   1.000  H
  O251     1.0000 0.23630  0.72719  0.11489  Biso   1.000  O
  H540     1.0000 0.23199  0.65851  0.07039  Biso   1.000  H
  O252     1.0000 0.56089  0.81059  0.79269  Biso   1.000  O
  H541     1.0000 0.64868  0.83891  0.80870  Biso   1.000  H
  H542     1.0000 0.60048  0.89019  0.81730  Biso   1.000  H
  O253     1.0000 0.62481  0.93060  0.90101  Biso   1.000  O
  H543     1.0000 0.68769  0.86731  0.88308  Biso   1.000  H
  H544     1.0000 0.69851  0.91411  0.96582  Biso   1.000  H
  O254     1.0000 0.22778  0.79899  0.03771  Biso   1.000  O
  H545     1.0000 0.16848  0.72941  0.03848  Biso   1.000  H
  H546     1.0000 0.31748  0.62630  0.91671  Biso   1.000  H
  H547     1.0000 0.21858  0.70282  0.13170  Biso   1.000  H
  H548     1.0000 0.56379  0.81902  0.76480  Biso   1.000  H
  C355     1.0000 0.65788  0.97590  0.87539  Biso   1.000  C
  C356     1.0000 0.17700  0.84180  0.04491  Biso   1.000  C
  O255     1.0000 0.61629  0.99900  0.83992  Biso   1.000  O
  H549     1.0000 0.69498  0.95932  0.86141  Biso   1.000  H
  C357     1.0000 0.67160  0.02668  0.90989  Biso   1.000  C
  C358     1.0000 0.16590  0.87759  0.99829  Biso   1.000  C
  H550     1.0000 0.14030  0.81920  0.05320  Biso   1.000  H
  C359     1.0000 0.19471  0.88199  0.08452  Biso   1.000  C
  C360     1.0000 0.55839  0.02700  0.85690  Biso   1.000  C
  O256     1.0000 0.71020  0.00480  0.94498  Biso   1.000  O
  C361     1.0000 0.61579  0.05491  0.92929  Biso   1.000  C
  H551     1.0000 0.69371  0.05830  0.89290  Biso   1.000  H
  H552     1.0000 0.20458  0.89522  0.98829  Biso   1.000  H
  C362     1.0000 0.14148  0.83750  0.95820  Biso   1.000  C
  O257     1.0000 0.12508  0.92498  0.00612  Biso   1.000  O
  O258     1.0000 0.19711  0.84828  0.12628  Biso   1.000  O
  H553     1.0000 0.23489  0.89889  0.07808  Biso   1.000  H
  C363     1.0000 0.14959  0.93291  0.08700  Biso   1.000  C
  H554     1.0000 0.53520  0.99601  0.87372  Biso   1.000  H
  C364     1.0000 0.52310  0.04539  0.81479  Biso   1.000  C
  C365     1.0000 0.57411  0.07701  0.89081  Biso   1.000  C
  H555     1.0000 0.70268  0.96901  0.94998  Biso   1.000  H
  O259     1.0000 0.63192  0.10569  0.95830  Biso   1.000  O
  H556     1.0000 0.59418  0.02492  0.94830  Biso   1.000  H
  O260     1.0000 0.08648  0.81308  0.97130  Biso   1.000  O
  H557     1.0000 0.13659  0.86151  0.93009  Biso   1.000  H
  H558     1.0000 0.17011  0.80520  0.95159  Biso   1.000  H
  C366     1.0000 0.14460  0.96661  0.04159  Biso   1.000  C
  H559     1.0000 0.20871  0.81381  0.12059  Biso   1.000  H
  O261     1.0000 0.16621  0.97649  0.12359  Biso   1.000  O
  H560     1.0000 0.10981  0.91578  0.09462  Biso   1.000  H
  O262     1.0000 0.51051  0.99860  0.78039  Biso   1.000  O
  H561     1.0000 0.48469  0.06202  0.82531  Biso   1.000  H
  H562     1.0000 0.54499  0.07778  0.79941  Biso   1.000  H
  O263     1.0000 0.51880  0.09758  0.91311  Biso   1.000  O
  H563     1.0000 0.59310  0.11072  0.87400  Biso   1.000  H
  H564     1.0000 0.64818  0.09332  0.98231  Biso   1.000  H
  H565     1.0000 0.08621  0.77680  0.96540  Biso   1.000  H
  O264     1.0000 0.20019  0.99198  0.03069  Biso   1.000  O
  H566     1.0000 0.11439  0.99891  0.04491  Biso   1.000  H
  H567     1.0000 0.18461  0.00498  0.11188  Biso   1.000  H
  H568     1.0000 0.49570  0.96901  0.79350  Biso   1.000  H
  C367     1.0000 0.49452  0.15511  0.89909  Biso   1.000  C
  C368     1.0000 0.20508  0.05758  0.01901  Biso   1.000  C
  O265     1.0000 0.43889  0.14932  0.87539  Biso   1.000  O
  H569     1.0000 0.52369  0.17500  0.87819  Biso   1.000  H
  C369     1.0000 0.48709  0.19362  0.94289  Biso   1.000  C
  C370     1.0000 0.22148  0.06569  0.96749  Biso   1.000  C
  H570     1.0000 0.16599  0.07719  0.02499  Biso   1.000  H
  C371     1.0000 0.25138  0.08340  0.05121  Biso   1.000  C
  C372     1.0000 0.39019  0.11978  0.90129  Biso   1.000  C
  O266     1.0000 0.54240  0.19919  0.96830  Biso   1.000  O
  C373     1.0000 0.43572  0.16331  0.97480  Biso   1.000  C
  H571     1.0000 0.47359  0.23412  0.93359  Biso   1.000  H
  O267     1.0000 0.23000  0.12739  0.95851  Biso   1.000  O
  H572     1.0000 0.25958  0.04431  0.96131  Biso   1.000  H
  C374     1.0000 0.17219  0.04132  0.93390  Biso   1.000  C
  O268     1.0000 0.23122  0.08290  0.09860  Biso   1.000  O
  H573     1.0000 0.28812  0.05862  0.04900  Biso   1.000  H
  C375     1.0000 0.26769  0.14891  0.03719  Biso   1.000  C
  H574     1.0000 0.40260  0.07869  0.90989  Biso   1.000  H
  C376     1.0000 0.33560  0.11670  0.86861  Biso   1.000  C
  C377     1.0000 0.37809  0.15670  0.94519  Biso   1.000  C
  H575     1.0000 0.56428  0.17020  0.96239  Biso   1.000  H
  H576     1.0000 0.44908  0.12358  0.98619  Biso   1.000  H
  O269     1.0000 0.42489  0.20422  0.01419  Biso   1.000  O
  C378     1.0000 0.27951  0.15530  0.98480  Biso   1.000  C
  H577     1.0000 0.16449  0.99909  0.94121  Biso   1.000  H
  O270     1.0000 0.18868  0.04621  0.88651  Biso   1.000  O
  H578     1.0000 0.13491  0.06351  0.93911  Biso   1.000  H
  H579     1.0000 0.21278  0.05142  0.10370  Biso   1.000  H
  O271     1.0000 0.31829  0.17151  0.06292  Biso   1.000  O
  H580     1.0000 0.23281  0.17450  0.04481  Biso   1.000  H
  Se8      1.0000 0.33202  0.04884  0.82604  Biso   1.000  Se
  H581     1.0000 0.33478  0.15362  0.85019  Biso   1.000  H
  H582     1.0000 0.29931  0.11620  0.88759  Biso   1.000  H
  O272     1.0000 0.33510  0.12481  0.97441  Biso   1.000  O
  H583     1.0000 0.36228  0.19670  0.93691  Biso   1.000  H
  H584     1.0000 0.39390  0.19380  0.02789  Biso   1.000  H
  H585     1.0000 0.28291  0.19820  0.97641  Biso   1.000  H
  H586     1.0000 0.17781  0.07928  0.87641  Biso   1.000  H
  H587     1.0000 0.30620  0.18968  0.08598  Biso   1.000  H
  C379     1.0000 0.36880  0.07439  0.77351  Biso   1.000  C
  C380     1.0000 0.39680  0.13101  0.76470  Biso   1.000  C
  C381     1.0000 0.37469  0.03370  0.73621  Biso   1.000  C
  H588     1.0000 0.39821  0.15960  0.78861  Biso   1.000  H
  C382     1.0000 0.42158  0.14510  0.72261  Biso   1.000  C
  H589     1.0000 0.35902  0.99488  0.74009  Biso   1.000  H
  C383     1.0000 0.40201  0.04698  0.69441  Biso   1.000  C
  H590     1.0000 0.43531  0.18420  0.71681  Biso   1.000  H
  C384     1.0000 0.42602  0.10202  0.68941  Biso   1.000  C
  H591     1.0000 0.40328  0.01871  0.67039  Biso   1.000  H
  H592     1.0000 0.44700  0.11099  0.66201  Biso   1.000  H
