data_image0
_cell_length_a       31.278
_cell_length_b       13.75
_cell_length_c       22.777
_cell_angle_alpha    90
_cell_angle_beta     130.68
_cell_angle_gamma    90

_symmetry_space_group_name_H-M    "P 1"
_symmetry_int_tables_number       1

loop_
  _symmetry_equiv_pos_as_xyz
  'x, y, z'

loop_
  _atom_site_label
  _atom_site_occupancy
  _atom_site_fract_x
  _atom_site_fract_y
  _atom_site_fract_z
  _atom_site_thermal_displace_type
  _atom_site_B_iso_or_equiv
  _atom_site_type_symbol
  C1       1.0000 0.23250  0.53345  0.59798  Biso   1.000  C
  C2       1.0000 0.26541  0.60676  0.59288  Biso   1.000  C
  H1       1.0000 0.19827  0.51527  0.54506  Biso   1.000  H
  H2       1.0000 0.25565  0.47418  0.62386  Biso   1.000  H
  C3       1.0000 0.21536  0.57149  0.64203  Biso   1.000  C
  O1       1.0000 0.27336  0.56931  0.54234  Biso   1.000  O
  H3       1.0000 0.30236  0.61862  0.64487  Biso   1.000  H
  H4       1.0000 0.24457  0.66909  0.57256  Biso   1.000  H
  H5       1.0000 0.18987  0.62698  0.61425  Biso   1.000  H
  H6       1.0000 0.19616  0.52000  0.64684  Biso   1.000  H
  H7       1.0000 0.24895  0.59236  0.69373  Biso   1.000  H
  C4       1.0000 0.30715  0.62051  0.53453  Biso   1.000  C
  C5       1.0000 0.31600  0.57847  0.48723  Biso   1.000  C
  C6       1.0000 0.33122  0.71025  0.56961  Biso   1.000  C
  C7       1.0000 0.28659  0.48560  0.44387  Biso   1.000  C
  C8       1.0000 0.35015  0.62727  0.47843  Biso   1.000  C
  C9       1.0000 0.36499  0.75876  0.56000  Biso   1.000  C
  H8       1.0000 0.32424  0.73862  0.60064  Biso   1.000  H
  C10      1.0000 0.31683  0.39200  0.48810  Biso   1.000  C
  H9       1.0000 0.24873  0.48531  0.42824  Biso   1.000  H
  H10      1.0000 0.28123  0.48560  0.39593  Biso   1.000  H
  H11      1.0000 0.35653  0.59978  0.44653  Biso   1.000  H
  C11      1.0000 0.37532  0.71542  0.51502  Biso   1.000  C
  C12      1.0000 0.38835  0.85869  0.59520  Biso   1.000  C
  C13      1.0000 0.35119  0.34407  0.47907  Biso   1.000  C
  C14      1.0000 0.30839  0.35171  0.53545  Biso   1.000  C
  O2       1.0000 0.41032  0.76662  0.50900  Biso   1.000  O
  H12      1.0000 0.39074  0.89695  0.56064  Biso   1.000  H
  H13      1.0000 0.36167  0.89236  0.59786  Biso   1.000  H
  C15      1.0000 0.44634  0.85658  0.67602  Biso   1.000  C
  O3       1.0000 0.36068  0.39025  0.43501  Biso   1.000  O
  C16      1.0000 0.37380  0.25367  0.51363  Biso   1.000  C
  C17      1.0000 0.33338  0.26298  0.57314  Biso   1.000  C
  H14      1.0000 0.28537  0.38458  0.54246  Biso   1.000  H
  C18      1.0000 0.42037  0.72960  0.46106  Biso   1.000  C
  C19      1.0000 0.49470  0.85629  0.68534  Biso   1.000  C
  C20      1.0000 0.45247  0.85796  0.74213  Biso   1.000  C
  C21      1.0000 0.40335  0.35142  0.43605  Biso   1.000  C
  C22      1.0000 0.36480  0.21178  0.56006  Biso   1.000  C
  H15      1.0000 0.39595  0.22007  0.50512  Biso   1.000  H
  O4       1.0000 0.32771  0.22029  0.62224  Biso   1.000  O
  H16      1.0000 0.43707  0.66371  0.47866  Biso   1.000  H
  H17      1.0000 0.38444  0.72487  0.40693  Biso   1.000  H
  C23      1.0000 0.46011  0.79716  0.46563  Biso   1.000  C
  C24      1.0000 0.54766  0.85796  0.75799  Biso   1.000  C
  H18      1.0000 0.49146  0.85476  0.64088  Biso   1.000  H
  C25      1.0000 0.50544  0.85629  0.81479  Biso   1.000  C
  O5       1.0000 0.40306  0.86415  0.72992  Biso   1.000  O
  H19      1.0000 0.43703  0.33367  0.48943  Biso   1.000  H
  H20      1.0000 0.38944  0.29258  0.40311  Biso   1.000  H
  C26      1.0000 0.41763  0.43127  0.40444  Biso   1.000  C
  C27      1.0000 0.38698  0.11069  0.59433  Biso   1.000  C
  C28      1.0000 0.30019  0.27513  0.64238  Biso   1.000  C
  H21      1.0000 0.49585  0.80051  0.52005  Biso   1.000  H
  H22      1.0000 0.46873  0.77040  0.43402  Biso   1.000  H
  C29      1.0000 0.43673  0.89905  0.43773  Biso   1.000  C
  O6       1.0000 0.59707  0.86415  0.77021  Biso   1.000  O
  C30      1.0000 0.55379  0.85658  0.82411  Biso   1.000  C
  H23      1.0000 0.50867  0.85476  0.85925  Biso   1.000  H
  C31      1.0000 0.40796  0.87876  0.79615  Biso   1.000  C
  H24      1.0000 0.44673  0.40640  0.40311  Biso   1.000  H
  H25      1.0000 0.43415  0.48727  0.44045  Biso   1.000  H
  C32      1.0000 0.37204  0.46320  0.33144  Biso   1.000  C
  C33      1.0000 0.44342  0.11287  0.67492  Biso   1.000  C
  H26      1.0000 0.39025  0.07273  0.56046  Biso   1.000  H
  H27      1.0000 0.35947  0.07709  0.59537  Biso   1.000  H
  H28      1.0000 0.31803  0.33993  0.66212  Biso   1.000  H
  H29      1.0000 0.26004  0.28458  0.59613  Biso   1.000  H
  C34      1.0000 0.30474  0.22138  0.70323  Biso   1.000  C
  H30      1.0000 0.40063  0.89615  0.38453  Biso   1.000  H
  H31      1.0000 0.43092  0.92807  0.47131  Biso   1.000  H
  H32      1.0000 0.46346  0.93876  0.43935  Biso   1.000  H
  C35      1.0000 0.59217  0.87876  0.70398  Biso   1.000  C
  C36      1.0000 0.61178  0.85869  0.90493  Biso   1.000  C
  H33      1.0000 0.41899  0.81745  0.82579  Biso   1.000  H
  H34      1.0000 0.43666  0.92887  0.83053  Biso   1.000  H
  C37      1.0000 0.34805  0.91309  0.76396  Biso   1.000  C
  H35      1.0000 0.35514  0.40807  0.29543  Biso   1.000  H
  H36      1.0000 0.34403  0.49200  0.33283  Biso   1.000  H
  H37      1.0000 0.38451  0.51207  0.31413  Biso   1.000  H
  C38      1.0000 0.44992  0.11273  0.73872  Biso   1.000  C
  C39      1.0000 0.49440  0.11331  0.68262  Biso   1.000  C
  H38      1.0000 0.28858  0.15549  0.68407  Biso   1.000  H
  H39      1.0000 0.34495  0.21433  0.74995  Biso   1.000  H
  C40      1.0000 0.27422  0.27411  0.72407  Biso   1.000  C
  H40      1.0000 0.58114  0.81745  0.67434  Biso   1.000  H
  H41      1.0000 0.56345  0.92887  0.66953  Biso   1.000  H
  C41      1.0000 0.65208  0.91309  0.73617  Biso   1.000  C
  C42      1.0000 0.63514  0.75876  0.94013  Biso   1.000  C
  H42      1.0000 0.60939  0.89695  0.93949  Biso   1.000  H
  H43      1.0000 0.63846  0.89236  0.90226  Biso   1.000  H
  H44      1.0000 0.33784  0.97418  0.73443  Biso   1.000  H
  H45      1.0000 0.34947  0.92655  0.80796  Biso   1.000  H
  C43      1.0000 0.30587  0.84145  0.71504  Biso   1.000  C
  C44      1.0000 0.50574  0.11331  0.81751  Biso   1.000  C
  H46      1.0000 0.41715  0.11207  0.73333  Biso   1.000  H
  C45      1.0000 0.55021  0.11273  0.76141  Biso   1.000  C
  O7       1.0000 0.49022  0.11338  0.62559  Biso   1.000  O
  H47      1.0000 0.23446  0.28138  0.67775  Biso   1.000  H
  H48      1.0000 0.27726  0.23680  0.76326  Biso   1.000  H
  H49      1.0000 0.29116  0.33840  0.74474  Biso   1.000  H
  H50      1.0000 0.66226  0.97418  0.76564  Biso   1.000  H
  H51      1.0000 0.65067  0.92655  0.69217  Biso   1.000  H
  C46      1.0000 0.69423  0.84145  0.78503  Biso   1.000  C
  C47      1.0000 0.62481  0.71542  0.98511  Biso   1.000  C
  C48      1.0000 0.66891  0.71025  0.93052  Biso   1.000  C
  H52      1.0000 0.29896  0.83738  0.66652  Biso   1.000  H
  H53      1.0000 0.31874  0.77825  0.74115  Biso   1.000  H
  H54      1.0000 0.27096  0.85978  0.70386  Biso   1.000  H
  O8       1.0000 0.50991  0.11338  0.87453  Biso   1.000  O
  C49      1.0000 0.55671  0.11287  0.82521  Biso   1.000  C
  H55      1.0000 0.58295  0.11207  0.76674  Biso   1.000  H
  H56      1.0000 0.70115  0.83738  0.83355  Biso   1.000  H
  H57      1.0000 0.68139  0.77825  0.75898  Biso   1.000  H
  H58      1.0000 0.72917  0.85978  0.79626  Biso   1.000  H
  C50      1.0000 0.64983  0.62727  0.02152  Biso   1.000  C
  O9       1.0000 0.58981  0.76662  0.99113  Biso   1.000  O
  C51      1.0000 0.69298  0.62051  0.96560  Biso   1.000  C
  H59      1.0000 0.67589  0.73862  0.89949  Biso   1.000  H
  C52      1.0000 0.61315  0.11069  0.90580  Biso   1.000  C
  C53      1.0000 0.68399  0.57847  0.01272  Biso   1.000  C
  H60      1.0000 0.64348  0.59978  0.05348  Biso   1.000  H
  C54      1.0000 0.57964  0.72960  0.03895  Biso   1.000  C
  O10      1.0000 0.72675  0.56931  0.95773  Biso   1.000  O
  H61      1.0000 0.60989  0.07273  0.93966  Biso   1.000  H
  H62      1.0000 0.64066  0.07709  0.90475  Biso   1.000  H
  C55      1.0000 0.63534  0.21178  0.94007  Biso   1.000  C
  C56      1.0000 0.71342  0.48560  0.05614  Biso   1.000  C
  H63      1.0000 0.56298  0.66371  0.02135  Biso   1.000  H
  H64      1.0000 0.61557  0.72487  0.09308  Biso   1.000  H
  C57      1.0000 0.53991  0.79716  0.03438  Biso   1.000  C
  C58      1.0000 0.73472  0.60676  0.90724  Biso   1.000  C
  C59      1.0000 0.62633  0.25367  0.98650  Biso   1.000  C
  C60      1.0000 0.66676  0.26298  0.92698  Biso   1.000  C
  C61      1.0000 0.68316  0.39200  0.01186  Biso   1.000  C
  H65      1.0000 0.75128  0.48531  0.07178  Biso   1.000  H
  H66      1.0000 0.71878  0.48560  0.10408  Biso   1.000  H
  H67      1.0000 0.50428  0.80051  0.98007  Biso   1.000  H
  H68      1.0000 0.53128  0.77040  0.06599  Biso   1.000  H
  C62      1.0000 0.56329  0.89905  0.06228  Biso   1.000  C
  H69      1.0000 0.69777  0.61862  0.85526  Biso   1.000  H
  H70      1.0000 0.75559  0.66909  0.92756  Biso   1.000  H
  C63      1.0000 0.76764  0.53345  0.90209  Biso   1.000  C
  H71      1.0000 0.60416  0.22007  0.99495  Biso   1.000  H
  C64      1.0000 0.64882  0.34407  0.02095  Biso   1.000  C
  O11      1.0000 0.67242  0.22029  0.87789  Biso   1.000  O
  C65      1.0000 0.69174  0.35171  0.96467  Biso   1.000  C
  H72      1.0000 0.59938  0.89615  0.11548  Biso   1.000  H
  H73      1.0000 0.56906  0.92807  0.02864  Biso   1.000  H
  H74      1.0000 0.53656  0.93876  0.06066  Biso   1.000  H
  H75      1.0000 0.80186  0.51527  0.95506  Biso   1.000  H
  H76      1.0000 0.74448  0.47418  0.87627  Biso   1.000  H
  C66      1.0000 0.78477  0.57149  0.85809  Biso   1.000  C
  O12      1.0000 0.63933  0.39025  0.06500  Biso   1.000  O
  C67      1.0000 0.69991  0.27513  0.85769  Biso   1.000  C
  H77      1.0000 0.71479  0.38458  0.95767  Biso   1.000  H
  H78      1.0000 0.81027  0.62698  0.88588  Biso   1.000  H
  H79      1.0000 0.80397  0.52000  0.85329  Biso   1.000  H
  H80      1.0000 0.75115  0.59236  0.80634  Biso   1.000  H
  C68      1.0000 0.59666  0.35142  0.06396  Biso   1.000  C
  H81      1.0000 0.68207  0.33993  0.83795  Biso   1.000  H
  H82      1.0000 0.74006  0.28458  0.90394  Biso   1.000  H
  C69      1.0000 0.69539  0.22138  0.79690  Biso   1.000  C
  H83      1.0000 0.56298  0.33367  0.01058  Biso   1.000  H
  H84      1.0000 0.61058  0.29258  0.09684  Biso   1.000  H
  C70      1.0000 0.58238  0.43127  0.09557  Biso   1.000  C
  H85      1.0000 0.71158  0.15549  0.81606  Biso   1.000  H
  H86      1.0000 0.65518  0.21433  0.75018  Biso   1.000  H
  C71      1.0000 0.72591  0.27411  0.77606  Biso   1.000  C
  H87      1.0000 0.55325  0.40640  0.09684  Biso   1.000  H
  H88      1.0000 0.56586  0.48727  0.05956  Biso   1.000  H
  C72      1.0000 0.62797  0.46320  0.16857  Biso   1.000  C
  H89      1.0000 0.76567  0.28138  0.82237  Biso   1.000  H
  H90      1.0000 0.72287  0.23680  0.73686  Biso   1.000  H
  H91      1.0000 0.70894  0.33840  0.75533  Biso   1.000  H
  H92      1.0000 0.64490  0.40807  0.20458  Biso   1.000  H
  H93      1.0000 0.65599  0.49200  0.16718  Biso   1.000  H
  H94      1.0000 0.61550  0.51207  0.18588  Biso   1.000  H
  C73      1.0000 0.11176  0.64131  0.40490  Biso   1.000  C
  C74      1.0000 0.05376  0.64335  0.32409  Biso   1.000  C
  C75      1.0000 0.13509  0.74124  0.44005  Biso   1.000  C
  H95      1.0000 0.10934  0.60298  0.43941  Biso   1.000  H
  H96      1.0000 0.13844  0.60756  0.40224  Biso   1.000  H
  C76      1.0000 0.04764  0.64196  0.25797  Biso   1.000  C
  C77      1.0000 0.00541  0.64371  0.31476  Biso   1.000  C
  C78      1.0000 0.12478  0.78458  0.48509  Biso   1.000  C
  C79      1.0000 0.16889  0.78975  0.43049  Biso   1.000  C
  O13      1.0000 0.09705  0.63578  0.27019  Biso   1.000  O
  C80      1.0000 0.99464  0.64371  0.18532  Biso   1.000  C
  H97      1.0000 0.00864  0.64516  0.35923  Biso   1.000  H
  C81      1.0000 0.95244  0.64196  0.24211  Biso   1.000  C
  O14      1.0000 0.08976  0.73331  0.49105  Biso   1.000  O
  C82      1.0000 0.14992  0.87265  0.52162  Biso   1.000  C
  H98      1.0000 0.17581  0.76138  0.39940  Biso   1.000  H
  C83      1.0000 0.19293  0.87949  0.46552  Biso   1.000  C
  C84      1.0000 0.09212  0.62116  0.20390  Biso   1.000  C
  H99      1.0000 0.99141  0.64516  0.14080  Biso   1.000  H
  C85      1.0000 0.94629  0.64335  0.17600  Biso   1.000  C
  O15      1.0000 0.90300  0.63578  0.22989  Biso   1.000  O
  C86      1.0000 0.07974  0.77040  0.53904  Biso   1.000  C
  C87      1.0000 0.18408  0.92145  0.51282  Biso   1.000  C
  H100     1.0000 0.14355  0.90015  0.55352  Biso   1.000  H
  O16      1.0000 0.22672  0.93069  0.45770  Biso   1.000  O
  C88      1.0000 0.15206  0.58691  0.23615  Biso   1.000  C
  H101     1.0000 0.08111  0.68247  0.17432  Biso   1.000  H
  H102     1.0000 0.06342  0.57105  0.16951  Biso   1.000  H
  C89      1.0000 0.88827  0.64131  0.09512  Biso   1.000  C
  C90      1.0000 0.90791  0.62116  0.29612  Biso   1.000  C
  H103     1.0000 0.06304  0.83629  0.52144  Biso   1.000  H
  H104     1.0000 0.11566  0.77505  0.59317  Biso   1.000  H
  C91      1.0000 0.03997  0.70276  0.53441  Biso   1.000  C
  C92      1.0000 0.21349  0.01440  0.55618  Biso   1.000  C
  C93      1.0000 0.23470  0.89316  0.40722  Biso   1.000  C
  H105     1.0000 0.16221  0.52582  0.26561  Biso   1.000  H
  H106     1.0000 0.15061  0.57338  0.19209  Biso   1.000  H
  C94      1.0000 0.19418  0.65847  0.28501  Biso   1.000  C
  C95      1.0000 0.86497  0.74124  0.05998  Biso   1.000  C
  H107     1.0000 0.89072  0.60298  0.06061  Biso   1.000  H
  H108     1.0000 0.86159  0.60756  0.09778  Biso   1.000  H
  H109     1.0000 0.91891  0.68247  0.32571  Biso   1.000  H
  H110     1.0000 0.93663  0.57105  0.33051  Biso   1.000  H
  C96      1.0000 0.84800  0.58691  0.26393  Biso   1.000  C
  H111     1.0000 0.00426  0.69949  0.48005  Biso   1.000  H
  H112     1.0000 0.03135  0.72960  0.56602  Biso   1.000  H
  C97      1.0000 0.06335  0.60087  0.56232  Biso   1.000  C
  C98      1.0000 0.18322  0.10800  0.51195  Biso   1.000  C
  H113     1.0000 0.25137  0.01469  0.57187  Biso   1.000  H
  H114     1.0000 0.21888  0.01440  0.60417  Biso   1.000  H
  H115     1.0000 0.19774  0.88138  0.35523  Biso   1.000  H
  H116     1.0000 0.25553  0.83091  0.42754  Biso   1.000  H
  C99      1.0000 0.26758  0.96647  0.40207  Biso   1.000  C
  H117     1.0000 0.20112  0.66262  0.33352  Biso   1.000  H
  H118     1.0000 0.18130  0.72167  0.25890  Biso   1.000  H
  H119     1.0000 0.22915  0.64022  0.29624  Biso   1.000  H
  C100     1.0000 0.87527  0.78458  0.01494  Biso   1.000  C
  C101     1.0000 0.83114  0.78975  0.06953  Biso   1.000  C
  H120     1.0000 0.83782  0.52582  0.23441  Biso   1.000  H
  H121     1.0000 0.84944  0.57338  0.30793  Biso   1.000  H
  C102     1.0000 0.80585  0.65847  0.21502  Biso   1.000  C
  H122     1.0000 0.09945  0.60378  0.61552  Biso   1.000  H
  H123     1.0000 0.06916  0.57185  0.52874  Biso   1.000  H
  H124     1.0000 0.03665  0.56116  0.56075  Biso   1.000  H
  C103     1.0000 0.14891  0.15585  0.52104  Biso   1.000  C
  C104     1.0000 0.19169  0.14829  0.46459  Biso   1.000  C
  H125     1.0000 0.30184  0.98465  0.45504  Biso   1.000  H
  C105     1.0000 0.28472  0.92851  0.35801  Biso   1.000  C
  H126     1.0000 0.24446  0.02575  0.37625  Biso   1.000  H
  C106     1.0000 0.85022  0.87265  0.97852  Biso   1.000  C
  O17      1.0000 0.91030  0.73331  0.00897  Biso   1.000  O
  H127     1.0000 0.82422  0.76138  0.10062  Biso   1.000  H
  C107     1.0000 0.80709  0.87949  0.03450  Biso   1.000  C
  H128     1.0000 0.79890  0.66262  0.16650  Biso   1.000  H
  H129     1.0000 0.81872  0.72167  0.24112  Biso   1.000  H
  H130     1.0000 0.77094  0.64022  0.20384  Biso   1.000  H
  O18      1.0000 0.13940  0.10967  0.56504  Biso   1.000  O
  C108     1.0000 0.12628  0.24625  0.48642  Biso   1.000  C
  H131     1.0000 0.21474  0.11535  0.45765  Biso   1.000  H
  C109     1.0000 0.16670  0.23695  0.42690  Biso   1.000  C
  H132     1.0000 0.31024  0.87295  0.38586  Biso   1.000  H
  H133     1.0000 0.30392  0.98000  0.35321  Biso   1.000  H
  H134     1.0000 0.25113  0.90756  0.30631  Biso   1.000  H
  C110     1.0000 0.81606  0.92145  0.98732  Biso   1.000  C
  H135     1.0000 0.85662  0.90015  0.94662  Biso   1.000  H
  C111     1.0000 0.92044  0.77040  0.96110  Biso   1.000  C
  O19      1.0000 0.77330  0.93069  0.04232  Biso   1.000  O
  C112     1.0000 0.09676  0.14858  0.56405  Biso   1.000  C
  C113     1.0000 0.13531  0.28815  0.44005  Biso   1.000  C
  H136     1.0000 0.10413  0.27985  0.49493  Biso   1.000  H
  O20      1.0000 0.17237  0.27964  0.37781  Biso   1.000  O
  C114     1.0000 0.78669  0.01440  0.94396  Biso   1.000  C
  H137     1.0000 0.93710  0.83629  0.97870  Biso   1.000  H
  H138     1.0000 0.88451  0.77505  0.90702  Biso   1.000  H
  C115     1.0000 0.96020  0.70276  0.96573  Biso   1.000  C
  C116     1.0000 0.76535  0.89316  0.09286  Biso   1.000  C
  H139     1.0000 0.06302  0.16625  0.51062  Biso   1.000  H
  H140     1.0000 0.11064  0.20735  0.59694  Biso   1.000  H
  C117     1.0000 0.08244  0.06865  0.59566  Biso   1.000  C
  C118     1.0000 0.11313  0.38924  0.40577  Biso   1.000  C
  C119     1.0000 0.19989  0.22487  0.35766  Biso   1.000  C
  C120     1.0000 0.81692  0.10800  0.98819  Biso   1.000  C
  H141     1.0000 0.74883  0.01469  0.92833  Biso   1.000  H
  H142     1.0000 0.78133  0.01440  0.89602  Biso   1.000  H
  H143     1.0000 0.96882  0.72960  0.93412  Biso   1.000  H
  C121     1.0000 0.93682  0.60087  0.93782  Biso   1.000  C
  H144     1.0000 0.99580  0.69949  0.01997  Biso   1.000  H
  H145     1.0000 0.80231  0.88138  0.14479  Biso   1.000  H
  H146     1.0000 0.74449  0.83091  0.07248  Biso   1.000  H
  C122     1.0000 0.73244  0.96647  0.09796  Biso   1.000  C
  H147     1.0000 0.05335  0.09360  0.59694  Biso   1.000  H
  H148     1.0000 0.06596  0.01265  0.55965  Biso   1.000  H
  C123     1.0000 0.12806  0.03680  0.66867  Biso   1.000  C
  C124     1.0000 0.05666  0.38713  0.32513  Biso   1.000  C
  H149     1.0000 0.10983  0.42727  0.43964  Biso   1.000  H
  H150     1.0000 0.14064  0.42284  0.40473  Biso   1.000  H
  H151     1.0000 0.18202  0.16007  0.33792  Biso   1.000  H
  H152     1.0000 0.24004  0.21535  0.40392  Biso   1.000  H
  C125     1.0000 0.19537  0.27855  0.29688  Biso   1.000  C
  C126     1.0000 0.85129  0.15585  0.97916  Biso   1.000  C
  C127     1.0000 0.80836  0.14829  0.03543  Biso   1.000  C
  H153     1.0000 0.90073  0.60378  0.88462  Biso   1.000  H
  H154     1.0000 0.93102  0.57185  0.97140  Biso   1.000  H
  H155     1.0000 0.96349  0.56116  0.93939  Biso   1.000  H
  H156     1.0000 0.69819  0.98465  0.04498  Biso   1.000  H
  C128     1.0000 0.71534  0.92851  0.14201  Biso   1.000  C
  H157     1.0000 0.75563  0.02575  0.12383  Biso   1.000  H
  H158     1.0000 0.11556  0.98785  0.68598  Biso   1.000  H
  H159     1.0000 0.14496  0.09185  0.70468  Biso   1.000  H
  H160     1.0000 0.15608  0.00800  0.66728  Biso   1.000  H
  C129     1.0000 0.05016  0.38727  0.26139  Biso   1.000  C
  C130     1.0000 0.00568  0.38669  0.31749  Biso   1.000  C
  H161     1.0000 0.21153  0.34444  0.31604  Biso   1.000  H
  H162     1.0000 0.15510  0.28567  0.25010  Biso   1.000  H
  C131     1.0000 0.22585  0.22589  0.27603  Biso   1.000  C
  O21      1.0000 0.86075  0.10967  0.93510  Biso   1.000  O
  C132     1.0000 0.87378  0.24625  0.01360  Biso   1.000  C
  H163     1.0000 0.78529  0.11535  0.04238  Biso   1.000  H
  C133     1.0000 0.83332  0.23695  0.07312  Biso   1.000  C
  H164     1.0000 0.68981  0.87295  0.11422  Biso   1.000  H
  H165     1.0000 0.69610  0.98000  0.14682  Biso   1.000  H
  H166     1.0000 0.74893  0.90756  0.19371  Biso   1.000  H
  C134     1.0000 0.99434  0.38669  0.18254  Biso   1.000  C
  H167     1.0000 0.08293  0.38785  0.26671  Biso   1.000  H
  C135     1.0000 0.94990  0.38727  0.23869  Biso   1.000  C
  O22      1.0000 0.00983  0.38655  0.37445  Biso   1.000  O
  H168     1.0000 0.26565  0.21855  0.32235  Biso   1.000  H
  H169     1.0000 0.22282  0.26320  0.23684  Biso   1.000  H
  H170     1.0000 0.20892  0.16160  0.25531  Biso   1.000  H
  C136     1.0000 0.90342  0.14858  0.93609  Biso   1.000  C
  C137     1.0000 0.86474  0.28815  0.05998  Biso   1.000  C
  H171     1.0000 0.89589  0.27985  0.00509  Biso   1.000  H
  O23      1.0000 0.82769  0.27964  0.12221  Biso   1.000  O
  C138     1.0000 0.94337  0.38713  0.17490  Biso   1.000  C
  O24      1.0000 0.99019  0.38655  0.12557  Biso   1.000  O
  H172     1.0000 0.91713  0.38785  0.23331  Biso   1.000  H
  H173     1.0000 0.93713  0.16625  0.98952  Biso   1.000  H
  H174     1.0000 0.88950  0.20735  0.90320  Biso   1.000  H
  C139     1.0000 0.91773  0.06865  0.90453  Biso   1.000  C
  C140     1.0000 0.88693  0.38924  0.09425  Biso   1.000  C
  C141     1.0000 0.80013  0.22487  0.14236  Biso   1.000  C
  H175     1.0000 0.94680  0.09360  0.90320  Biso   1.000  H
  H176     1.0000 0.93422  0.01265  0.94049  Biso   1.000  H
  C142     1.0000 0.87211  0.03680  0.83153  Biso   1.000  C
  H177     1.0000 0.89019  0.42727  0.06038  Biso   1.000  H
  H178     1.0000 0.85942  0.42284  0.09529  Biso   1.000  H
  H179     1.0000 0.81801  0.16007  0.16210  Biso   1.000  H
  H180     1.0000 0.76002  0.21535  0.09610  Biso   1.000  H
  C143     1.0000 0.80469  0.27855  0.20320  Biso   1.000  C
  H181     1.0000 0.88461  0.98785  0.81422  Biso   1.000  H
  H182     1.0000 0.85521  0.09185  0.79552  Biso   1.000  H
  H183     1.0000 0.84412  0.00800  0.83292  Biso   1.000  H
  H184     1.0000 0.78852  0.34444  0.18404  Biso   1.000  H
  H185     1.0000 0.84493  0.28567  0.24992  Biso   1.000  H
  C144     1.0000 0.77417  0.22589  0.22399  Biso   1.000  C
  H186     1.0000 0.73444  0.21855  0.17773  Biso   1.000  H
  H187     1.0000 0.77723  0.26320  0.26324  Biso   1.000  H
  H188     1.0000 0.79111  0.16160  0.24471  Biso   1.000  H
  C145     1.0000 0.15208  0.41309  0.73617  Biso   1.000  C
  C146     1.0000 0.09217  0.37876  0.70398  Biso   1.000  C
  H189     1.0000 0.16226  0.47418  0.76564  Biso   1.000  H
  H190     1.0000 0.15067  0.42662  0.69217  Biso   1.000  H
  C147     1.0000 0.19423  0.34153  0.78503  Biso   1.000  C
  O25      1.0000 0.09707  0.36422  0.77021  Biso   1.000  O
  H191     1.0000 0.08114  0.31753  0.67434  Biso   1.000  H
  H192     1.0000 0.06345  0.42887  0.66953  Biso   1.000  H
  H193     1.0000 0.20115  0.33738  0.83355  Biso   1.000  H
  H194     1.0000 0.18139  0.27833  0.75898  Biso   1.000  H
  H195     1.0000 0.22917  0.35978  0.79626  Biso   1.000  H
  C148     1.0000 0.04766  0.35796  0.75799  Biso   1.000  C
  C149     1.0000 0.05379  0.35658  0.82411  Biso   1.000  C
  C150     1.0000 0.99470  0.35629  0.68534  Biso   1.000  C
  C151     1.0000 0.11178  0.35869  0.90493  Biso   1.000  C
  C152     1.0000 0.00544  0.35629  0.81479  Biso   1.000  C
  C153     1.0000 0.94634  0.35658  0.67602  Biso   1.000  C
  H196     1.0000 0.99146  0.35476  0.64088  Biso   1.000  H
  C154     1.0000 0.13514  0.25876  0.94013  Biso   1.000  C
  H197     1.0000 0.10939  0.39702  0.93949  Biso   1.000  H
  H198     1.0000 0.13846  0.39236  0.90226  Biso   1.000  H
  H199     1.0000 0.00867  0.35476  0.85925  Biso   1.000  H
  C155     1.0000 0.95247  0.35796  0.74213  Biso   1.000  C
  C156     1.0000 0.88835  0.35869  0.59520  Biso   1.000  C
  C157     1.0000 0.16891  0.21025  0.93052  Biso   1.000  C
  C158     1.0000 0.12481  0.21542  0.98511  Biso   1.000  C
  O26      1.0000 0.90306  0.36422  0.72992  Biso   1.000  O
  C159     1.0000 0.86499  0.25876  0.56000  Biso   1.000  C
  H200     1.0000 0.89074  0.39702  0.56064  Biso   1.000  H
  H201     1.0000 0.86167  0.39236  0.59786  Biso   1.000  H
  C160     1.0000 0.19298  0.12051  0.96560  Biso   1.000  C
  H202     1.0000 0.17589  0.23862  0.89949  Biso   1.000  H
  C161     1.0000 0.14983  0.12727  0.02152  Biso   1.000  C
  O27      1.0000 0.08981  0.26662  0.99113  Biso   1.000  O
  C162     1.0000 0.90796  0.37876  0.79615  Biso   1.000  C
  C163     1.0000 0.87532  0.21542  0.51502  Biso   1.000  C
  C164     1.0000 0.83122  0.21025  0.56961  Biso   1.000  C
  O28      1.0000 0.22675  0.06931  0.95773  Biso   1.000  O
  C165     1.0000 0.18399  0.07847  0.01272  Biso   1.000  C
  H203     1.0000 0.14348  0.09978  0.05348  Biso   1.000  H
  C166     1.0000 0.07964  0.22960  0.03895  Biso   1.000  C
  H204     1.0000 0.91899  0.31753  0.82579  Biso   1.000  H
  H205     1.0000 0.93666  0.42887  0.83053  Biso   1.000  H
  C167     1.0000 0.84805  0.41309  0.76396  Biso   1.000  C
  O29      1.0000 0.91032  0.26662  0.50900  Biso   1.000  O
  C168     1.0000 0.85015  0.12727  0.47843  Biso   1.000  C
  H206     1.0000 0.82424  0.23862  0.60064  Biso   1.000  H
  C169     1.0000 0.80715  0.12051  0.53453  Biso   1.000  C
  C170     1.0000 0.23472  0.10676  0.90724  Biso   1.000  C
  C171     1.0000 0.21342  0.98560  0.05614  Biso   1.000  C
  H207     1.0000 0.06298  0.16371  0.02135  Biso   1.000  H
  H208     1.0000 0.11557  0.22487  0.09308  Biso   1.000  H
  C172     1.0000 0.03991  0.29716  0.03438  Biso   1.000  C
  H209     1.0000 0.83784  0.47418  0.73443  Biso   1.000  H
  H210     1.0000 0.84947  0.42662  0.80796  Biso   1.000  H
  C173     1.0000 0.80587  0.34153  0.71504  Biso   1.000  C
  C174     1.0000 0.92037  0.22960  0.46106  Biso   1.000  C
  C175     1.0000 0.81600  0.07847  0.48723  Biso   1.000  C
  H211     1.0000 0.85653  0.09978  0.44653  Biso   1.000  H
  O30      1.0000 0.77336  0.06931  0.54234  Biso   1.000  O
  C176     1.0000 0.26764  0.03353  0.90209  Biso   1.000  C
  H212     1.0000 0.19777  0.11862  0.85526  Biso   1.000  H
  H213     1.0000 0.25559  0.16909  0.92756  Biso   1.000  H
  C177     1.0000 0.18316  0.89200  0.01186  Biso   1.000  C
  H214     1.0000 0.25128  0.98531  0.07178  Biso   1.000  H
  H215     1.0000 0.21878  0.98560  0.10408  Biso   1.000  H
  H216     1.0000 0.00428  0.30051  0.98007  Biso   1.000  H
  H217     1.0000 0.03128  0.27040  0.06599  Biso   1.000  H
  C178     1.0000 0.06329  0.39913  0.06228  Biso   1.000  C
  H218     1.0000 0.79896  0.33738  0.66652  Biso   1.000  H
  H219     1.0000 0.81874  0.27833  0.74115  Biso   1.000  H
  H220     1.0000 0.77096  0.35978  0.70386  Biso   1.000  H
  H221     1.0000 0.93707  0.16371  0.47866  Biso   1.000  H
  H222     1.0000 0.88444  0.22487  0.40693  Biso   1.000  H
  C179     1.0000 0.96011  0.29716  0.46563  Biso   1.000  C
  C180     1.0000 0.78659  0.98560  0.44387  Biso   1.000  C
  C181     1.0000 0.76541  0.10676  0.59288  Biso   1.000  C
  C182     1.0000 0.28477  0.07149  0.85809  Biso   1.000  C
  H223     1.0000 0.30186  0.01527  0.95506  Biso   1.000  H
  H224     1.0000 0.24448  0.97418  0.87627  Biso   1.000  H
  C183     1.0000 0.19174  0.85171  0.96467  Biso   1.000  C
  C184     1.0000 0.14882  0.84407  0.02095  Biso   1.000  C
  H225     1.0000 0.09938  0.39622  0.11548  Biso   1.000  H
  H226     1.0000 0.06906  0.42807  0.02864  Biso   1.000  H
  H227     1.0000 0.03656  0.43876  0.06066  Biso   1.000  H
  H228     1.0000 0.99585  0.30051  0.52005  Biso   1.000  H
  H229     1.0000 0.96873  0.27040  0.43402  Biso   1.000  H
  C185     1.0000 0.93673  0.39913  0.43773  Biso   1.000  C
  C186     1.0000 0.81683  0.89200  0.48810  Biso   1.000  C
  H230     1.0000 0.74873  0.98531  0.42824  Biso   1.000  H
  H231     1.0000 0.78123  0.98560  0.39593  Biso   1.000  H
  H232     1.0000 0.80236  0.11862  0.64487  Biso   1.000  H
  H233     1.0000 0.74457  0.16909  0.57256  Biso   1.000  H
  C187     1.0000 0.73250  0.03353  0.59798  Biso   1.000  C
  H234     1.0000 0.31027  0.12698  0.88588  Biso   1.000  H
  H235     1.0000 0.30397  0.02000  0.85329  Biso   1.000  H
  H236     1.0000 0.25115  0.09236  0.80634  Biso   1.000  H
  H237     1.0000 0.21479  0.88458  0.95767  Biso   1.000  H
  C188     1.0000 0.16676  0.76298  0.92698  Biso   1.000  C
  C189     1.0000 0.12633  0.75367  0.98650  Biso   1.000  C
  O31      1.0000 0.13933  0.89025  0.06500  Biso   1.000  O
  H238     1.0000 0.90063  0.39622  0.38453  Biso   1.000  H
  H239     1.0000 0.93092  0.42807  0.47131  Biso   1.000  H
  H240     1.0000 0.96346  0.43876  0.43935  Biso   1.000  H
  C190     1.0000 0.85119  0.84407  0.47907  Biso   1.000  C
  C191     1.0000 0.80839  0.85171  0.53545  Biso   1.000  C
  H241     1.0000 0.75565  0.97418  0.62386  Biso   1.000  H
  H242     1.0000 0.69827  0.01527  0.54506  Biso   1.000  H
  C192     1.0000 0.71536  0.07149  0.64203  Biso   1.000  C
  O32      1.0000 0.17242  0.72036  0.87789  Biso   1.000  O
  C193     1.0000 0.13534  0.71178  0.94007  Biso   1.000  C
  H243     1.0000 0.10416  0.72007  0.99495  Biso   1.000  H
  C194     1.0000 0.09666  0.85142  0.06396  Biso   1.000  C
  C195     1.0000 0.87380  0.75367  0.51363  Biso   1.000  C
  O33      1.0000 0.86068  0.89025  0.43501  Biso   1.000  O
  C196     1.0000 0.83338  0.76298  0.57314  Biso   1.000  C
  H244     1.0000 0.78537  0.88458  0.54246  Biso   1.000  H
  H245     1.0000 0.68987  0.12698  0.61425  Biso   1.000  H
  H246     1.0000 0.69616  0.02000  0.64684  Biso   1.000  H
  H247     1.0000 0.74895  0.09236  0.69373  Biso   1.000  H
  C197     1.0000 0.19991  0.77513  0.85769  Biso   1.000  C
  C198     1.0000 0.11315  0.61069  0.90580  Biso   1.000  C
  H248     1.0000 0.06298  0.83367  0.01058  Biso   1.000  H
  H249     1.0000 0.11058  0.79258  0.09684  Biso   1.000  H
  C199     1.0000 0.08238  0.93127  0.09557  Biso   1.000  C
  C200     1.0000 0.86480  0.71178  0.56006  Biso   1.000  C
  H250     1.0000 0.89595  0.72007  0.50512  Biso   1.000  H
  C201     1.0000 0.90335  0.85142  0.43605  Biso   1.000  C
  O34      1.0000 0.82771  0.72036  0.62224  Biso   1.000  O
  H251     1.0000 0.18207  0.83993  0.83795  Biso   1.000  H
  H252     1.0000 0.24006  0.78458  0.90394  Biso   1.000  H
  C202     1.0000 0.19539  0.72138  0.79690  Biso   1.000  C
  C203     1.0000 0.05671  0.61287  0.82521  Biso   1.000  C
  H253     1.0000 0.10989  0.57273  0.93966  Biso   1.000  H
  H254     1.0000 0.14066  0.57709  0.90475  Biso   1.000  H
  H255     1.0000 0.05325  0.90640  0.09684  Biso   1.000  H
  H256     1.0000 0.06586  0.98727  0.05956  Biso   1.000  H
  C204     1.0000 0.12797  0.96320  0.16857  Biso   1.000  C
  C205     1.0000 0.88698  0.61069  0.59433  Biso   1.000  C
  H257     1.0000 0.93703  0.83367  0.48943  Biso   1.000  H
  H258     1.0000 0.88944  0.79258  0.40311  Biso   1.000  H
  C206     1.0000 0.91763  0.93127  0.40444  Biso   1.000  C
  C207     1.0000 0.80019  0.77513  0.64238  Biso   1.000  C
  H259     1.0000 0.21158  0.65549  0.81606  Biso   1.000  H
  H260     1.0000 0.15518  0.71433  0.75018  Biso   1.000  H
  C208     1.0000 0.22591  0.77411  0.77606  Biso   1.000  C
  C209     1.0000 0.05021  0.61273  0.76141  Biso   1.000  C
  C210     1.0000 0.00574  0.61331  0.81751  Biso   1.000  C
  H261     1.0000 0.14490  0.90807  0.20458  Biso   1.000  H
  H262     1.0000 0.15599  0.99200  0.16718  Biso   1.000  H
  H263     1.0000 0.11550  0.01207  0.18588  Biso   1.000  H
  C211     1.0000 0.94342  0.61287  0.67492  Biso   1.000  C
  H264     1.0000 0.89025  0.57273  0.56046  Biso   1.000  H
  H265     1.0000 0.85947  0.57709  0.59537  Biso   1.000  H
  H266     1.0000 0.94673  0.90640  0.40311  Biso   1.000  H
  H267     1.0000 0.93415  0.98727  0.44045  Biso   1.000  H
  C212     1.0000 0.87204  0.96320  0.33144  Biso   1.000  C
  H268     1.0000 0.81803  0.83993  0.66212  Biso   1.000  H
  H269     1.0000 0.76004  0.78458  0.59613  Biso   1.000  H
  C213     1.0000 0.80474  0.72138  0.70323  Biso   1.000  C
  H270     1.0000 0.26567  0.78138  0.82237  Biso   1.000  H
  H271     1.0000 0.22287  0.73680  0.73686  Biso   1.000  H
  H272     1.0000 0.20894  0.83840  0.75533  Biso   1.000  H
  C214     1.0000 0.99440  0.61331  0.68262  Biso   1.000  C
  H273     1.0000 0.08295  0.61207  0.76674  Biso   1.000  H
  C215     1.0000 0.94992  0.61273  0.73872  Biso   1.000  C
  O35      1.0000 0.00991  0.61338  0.87453  Biso   1.000  O
  H274     1.0000 0.85514  0.90807  0.29543  Biso   1.000  H
  H275     1.0000 0.84403  0.99200  0.33283  Biso   1.000  H
  H276     1.0000 0.88451  0.01207  0.31413  Biso   1.000  H
  H277     1.0000 0.78858  0.65549  0.68407  Biso   1.000  H
  H278     1.0000 0.84495  0.71433  0.74995  Biso   1.000  H
  C216     1.0000 0.77422  0.77411  0.72407  Biso   1.000  C
  O36      1.0000 0.99022  0.61338  0.62559  Biso   1.000  O
  H279     1.0000 0.91715  0.61207  0.73333  Biso   1.000  H
  H280     1.0000 0.73446  0.78138  0.67775  Biso   1.000  H
  H281     1.0000 0.77726  0.73680  0.76326  Biso   1.000  H
  H282     1.0000 0.79116  0.83840  0.74474  Biso   1.000  H
  C217     1.0000 0.21534  0.42851  0.14201  Biso   1.000  C
  C218     1.0000 0.23244  0.46647  0.09796  Biso   1.000  C
  H283     1.0000 0.18981  0.37302  0.11422  Biso   1.000  H
  H284     1.0000 0.19610  0.48000  0.14682  Biso   1.000  H
  H285     1.0000 0.24893  0.40756  0.19371  Biso   1.000  H
  C219     1.0000 0.26535  0.39316  0.09286  Biso   1.000  C
  H286     1.0000 0.19819  0.48465  0.04498  Biso   1.000  H
  H287     1.0000 0.25563  0.52582  0.12383  Biso   1.000  H
  O37      1.0000 0.27330  0.43069  0.04232  Biso   1.000  O
  H288     1.0000 0.30231  0.38138  0.14479  Biso   1.000  H
  H289     1.0000 0.24449  0.33091  0.07248  Biso   1.000  H
  C220     1.0000 0.30709  0.37949  0.03450  Biso   1.000  C
  C221     1.0000 0.33114  0.28975  0.06953  Biso   1.000  C
  C222     1.0000 0.31606  0.42145  0.98732  Biso   1.000  C
  C223     1.0000 0.36497  0.24124  0.05998  Biso   1.000  C
  H290     1.0000 0.32422  0.26138  0.10062  Biso   1.000  H
  C224     1.0000 0.35022  0.37273  0.97852  Biso   1.000  C
  C225     1.0000 0.28669  0.51440  0.94396  Biso   1.000  C
  C226     1.0000 0.38827  0.14131  0.09512  Biso   1.000  C
  C227     1.0000 0.37527  0.28458  0.01494  Biso   1.000  C
  H291     1.0000 0.35662  0.40022  0.94662  Biso   1.000  H
  C228     1.0000 0.31692  0.60800  0.98819  Biso   1.000  C
  H292     1.0000 0.24883  0.51469  0.92833  Biso   1.000  H
  H293     1.0000 0.28133  0.51440  0.89602  Biso   1.000  H
  C229     1.0000 0.44629  0.14342  0.17600  Biso   1.000  C
  H294     1.0000 0.39072  0.10298  0.06061  Biso   1.000  H
  H295     1.0000 0.36159  0.10756  0.09778  Biso   1.000  H
  O38      1.0000 0.41030  0.23338  0.00897  Biso   1.000  O
  C230     1.0000 0.30836  0.64829  0.03543  Biso   1.000  C
  C231     1.0000 0.35129  0.65585  0.97916  Biso   1.000  C
  C232     1.0000 0.45244  0.14196  0.24211  Biso   1.000  C
  C233     1.0000 0.49464  0.14371  0.18532  Biso   1.000  C
  C234     1.0000 0.42044  0.27040  0.96110  Biso   1.000  C
  H296     1.0000 0.28529  0.61542  0.04238  Biso   1.000  H
  C235     1.0000 0.33332  0.73702  0.07312  Biso   1.000  C
  C236     1.0000 0.37378  0.74625  0.01360  Biso   1.000  C
  O39      1.0000 0.36075  0.60975  0.93510  Biso   1.000  O
  O40      1.0000 0.40300  0.13578  0.22989  Biso   1.000  O
  C237     1.0000 0.50541  0.14371  0.31476  Biso   1.000  C
  H297     1.0000 0.49141  0.14516  0.14080  Biso   1.000  H
  C238     1.0000 0.54764  0.14196  0.25797  Biso   1.000  C
  H298     1.0000 0.43710  0.33629  0.97870  Biso   1.000  H
  H299     1.0000 0.38451  0.27513  0.90702  Biso   1.000  H
  C239     1.0000 0.46020  0.20276  0.96573  Biso   1.000  C
  O41      1.0000 0.32769  0.77964  0.12221  Biso   1.000  O
  C240     1.0000 0.36474  0.78822  0.05998  Biso   1.000  C
  H300     1.0000 0.39589  0.77985  0.00509  Biso   1.000  H
  C241     1.0000 0.40342  0.64858  0.93609  Biso   1.000  C
  C242     1.0000 0.40791  0.12116  0.29612  Biso   1.000  C
  H301     1.0000 0.50864  0.14516  0.35923  Biso   1.000  H
  C243     1.0000 0.55376  0.14342  0.32409  Biso   1.000  C
  O42      1.0000 0.59705  0.13578  0.27019  Biso   1.000  O
  H302     1.0000 0.49580  0.19949  0.01997  Biso   1.000  H
  H303     1.0000 0.46882  0.22960  0.93412  Biso   1.000  H
  C244     1.0000 0.43682  0.10087  0.93782  Biso   1.000  C
  C245     1.0000 0.30013  0.72487  0.14236  Biso   1.000  C
  C246     1.0000 0.38693  0.88931  0.09425  Biso   1.000  C
  H304     1.0000 0.43713  0.66625  0.98952  Biso   1.000  H
  H305     1.0000 0.38950  0.70742  0.90320  Biso   1.000  H
  C247     1.0000 0.41773  0.56865  0.90453  Biso   1.000  C
  C248     1.0000 0.34800  0.08691  0.26393  Biso   1.000  C
  H306     1.0000 0.41891  0.18247  0.32571  Biso   1.000  H
  H307     1.0000 0.43663  0.07113  0.33051  Biso   1.000  H
  C249     1.0000 0.61176  0.14131  0.40490  Biso   1.000  C
  C250     1.0000 0.59212  0.12116  0.20390  Biso   1.000  C
  H308     1.0000 0.40073  0.10378  0.88462  Biso   1.000  H
  H309     1.0000 0.43102  0.07193  0.97140  Biso   1.000  H
  H310     1.0000 0.46349  0.06116  0.93939  Biso   1.000  H
  H311     1.0000 0.31801  0.66007  0.16210  Biso   1.000  H
  H312     1.0000 0.26002  0.71542  0.09610  Biso   1.000  H
  C251     1.0000 0.30469  0.77862  0.20320  Biso   1.000  C
  C252     1.0000 0.44337  0.88713  0.17490  Biso   1.000  C
  H313     1.0000 0.39019  0.92727  0.06038  Biso   1.000  H
  H314     1.0000 0.35942  0.92291  0.09529  Biso   1.000  H
  H315     1.0000 0.44680  0.59360  0.90320  Biso   1.000  H
  H316     1.0000 0.43422  0.51265  0.94049  Biso   1.000  H
  C253     1.0000 0.37211  0.53680  0.83153  Biso   1.000  C
  C254     1.0000 0.30585  0.15847  0.21502  Biso   1.000  C
  H317     1.0000 0.33782  0.02582  0.23441  Biso   1.000  H
  H318     1.0000 0.34944  0.07338  0.30793  Biso   1.000  H
  C255     1.0000 0.63509  0.24124  0.44005  Biso   1.000  C
  H319     1.0000 0.60934  0.10298  0.43941  Biso   1.000  H
  H320     1.0000 0.63844  0.10756  0.40224  Biso   1.000  H
  H321     1.0000 0.58111  0.18247  0.17432  Biso   1.000  H
  H322     1.0000 0.56342  0.07113  0.16951  Biso   1.000  H
  C256     1.0000 0.65206  0.08691  0.23615  Biso   1.000  C
  H323     1.0000 0.28852  0.84451  0.18404  Biso   1.000  H
  H324     1.0000 0.34493  0.78567  0.24992  Biso   1.000  H
  C257     1.0000 0.27417  0.72589  0.22399  Biso   1.000  C
  C258     1.0000 0.44990  0.88727  0.23869  Biso   1.000  C
  C259     1.0000 0.49434  0.88669  0.18254  Biso   1.000  C
  H325     1.0000 0.35521  0.59185  0.79552  Biso   1.000  H
  H326     1.0000 0.34412  0.50800  0.83292  Biso   1.000  H
  H327     1.0000 0.38461  0.48785  0.81422  Biso   1.000  H
  H328     1.0000 0.29890  0.16262  0.16650  Biso   1.000  H
  H329     1.0000 0.31872  0.22167  0.24112  Biso   1.000  H
  H330     1.0000 0.27094  0.14022  0.20384  Biso   1.000  H
  C260     1.0000 0.62478  0.28458  0.48509  Biso   1.000  C
  C261     1.0000 0.66889  0.28975  0.43049  Biso   1.000  C
  H331     1.0000 0.66221  0.02582  0.26561  Biso   1.000  H
  H332     1.0000 0.65061  0.07338  0.19209  Biso   1.000  H
  C262     1.0000 0.69418  0.15847  0.28501  Biso   1.000  C
  H333     1.0000 0.23444  0.71862  0.17773  Biso   1.000  H
  H334     1.0000 0.27723  0.76320  0.26324  Biso   1.000  H
  H335     1.0000 0.29111  0.66160  0.24471  Biso   1.000  H
  H336     1.0000 0.41713  0.88785  0.23331  Biso   1.000  H
  C263     1.0000 0.50568  0.88669  0.31749  Biso   1.000  C
  O43      1.0000 0.49019  0.88655  0.12557  Biso   1.000  O
  C264     1.0000 0.55016  0.88727  0.26139  Biso   1.000  C
  O44      1.0000 0.58976  0.23338  0.49105  Biso   1.000  O
  C265     1.0000 0.64992  0.37273  0.52162  Biso   1.000  C
  H337     1.0000 0.67581  0.26138  0.39940  Biso   1.000  H
  C266     1.0000 0.69293  0.37949  0.46552  Biso   1.000  C
  H338     1.0000 0.70112  0.16262  0.33352  Biso   1.000  H
  H339     1.0000 0.68130  0.22167  0.25890  Biso   1.000  H
  H340     1.0000 0.72915  0.14022  0.29624  Biso   1.000  H
  C267     1.0000 0.55666  0.88713  0.32513  Biso   1.000  C
  O45      1.0000 0.50983  0.88655  0.37445  Biso   1.000  O
  H341     1.0000 0.58293  0.88785  0.26671  Biso   1.000  H
  C268     1.0000 0.57974  0.27040  0.53904  Biso   1.000  C
  C269     1.0000 0.68408  0.42145  0.51282  Biso   1.000  C
  H342     1.0000 0.64355  0.40022  0.55352  Biso   1.000  H
  O46      1.0000 0.72672  0.43069  0.45770  Biso   1.000  O
  C270     1.0000 0.61313  0.88931  0.40577  Biso   1.000  C
  H343     1.0000 0.56304  0.33629  0.52144  Biso   1.000  H
  H344     1.0000 0.61566  0.27513  0.59317  Biso   1.000  H
  C271     1.0000 0.53997  0.20276  0.53441  Biso   1.000  C
  C272     1.0000 0.71349  0.51440  0.55618  Biso   1.000  C
  C273     1.0000 0.73470  0.39316  0.40722  Biso   1.000  C
  C274     1.0000 0.63531  0.78822  0.44005  Biso   1.000  C
  H345     1.0000 0.60983  0.92727  0.43964  Biso   1.000  H
  H346     1.0000 0.64064  0.92291  0.40473  Biso   1.000  H
  H347     1.0000 0.50426  0.19949  0.48005  Biso   1.000  H
  H348     1.0000 0.53135  0.22960  0.56602  Biso   1.000  H
  C275     1.0000 0.56335  0.10087  0.56232  Biso   1.000  C
  C276     1.0000 0.68322  0.60800  0.51195  Biso   1.000  C
  H349     1.0000 0.75137  0.51469  0.57187  Biso   1.000  H
  H350     1.0000 0.71888  0.51440  0.60417  Biso   1.000  H
  H351     1.0000 0.69774  0.38138  0.35523  Biso   1.000  H
  H352     1.0000 0.75553  0.33091  0.42754  Biso   1.000  H
  C277     1.0000 0.76758  0.46647  0.40207  Biso   1.000  C
  C278     1.0000 0.62628  0.74625  0.48642  Biso   1.000  C
  C279     1.0000 0.66670  0.73702  0.42690  Biso   1.000  C
  H353     1.0000 0.59945  0.10378  0.61552  Biso   1.000  H
  H354     1.0000 0.56916  0.07193  0.52874  Biso   1.000  H
  H355     1.0000 0.53665  0.06116  0.56075  Biso   1.000  H
  C280     1.0000 0.64891  0.65585  0.52104  Biso   1.000  C
  C281     1.0000 0.69169  0.64829  0.46459  Biso   1.000  C
  H356     1.0000 0.80184  0.48465  0.45504  Biso   1.000  H
  H357     1.0000 0.74446  0.52582  0.37625  Biso   1.000  H
  C282     1.0000 0.78472  0.42851  0.35801  Biso   1.000  C
  H358     1.0000 0.60413  0.77985  0.49493  Biso   1.000  H
  O47      1.0000 0.67237  0.77964  0.37781  Biso   1.000  O
  O48      1.0000 0.63940  0.60975  0.56504  Biso   1.000  O
  H359     1.0000 0.71474  0.61542  0.45765  Biso   1.000  H
  H360     1.0000 0.81024  0.37302  0.38586  Biso   1.000  H
  H361     1.0000 0.80392  0.48000  0.35321  Biso   1.000  H
  H362     1.0000 0.75113  0.40756  0.30631  Biso   1.000  H
  C283     1.0000 0.69989  0.72487  0.35766  Biso   1.000  C
  C284     1.0000 0.59676  0.64858  0.56405  Biso   1.000  C
  H363     1.0000 0.68202  0.66007  0.33792  Biso   1.000  H
  H364     1.0000 0.74004  0.71542  0.40392  Biso   1.000  H
  C285     1.0000 0.69537  0.77862  0.29688  Biso   1.000  C
  H365     1.0000 0.56302  0.66625  0.51062  Biso   1.000  H
  H366     1.0000 0.61064  0.70742  0.59694  Biso   1.000  H
  C286     1.0000 0.58244  0.56865  0.59566  Biso   1.000  C
  H367     1.0000 0.71153  0.84451  0.31604  Biso   1.000  H
  H368     1.0000 0.65510  0.78567  0.25010  Biso   1.000  H
  C287     1.0000 0.72585  0.72589  0.27603  Biso   1.000  C
  H369     1.0000 0.55335  0.59360  0.59694  Biso   1.000  H
  H370     1.0000 0.56596  0.51265  0.55965  Biso   1.000  H
  C288     1.0000 0.62806  0.53680  0.66867  Biso   1.000  C
  H371     1.0000 0.76565  0.71862  0.32235  Biso   1.000  H
  H372     1.0000 0.72282  0.76320  0.23684  Biso   1.000  H
  H373     1.0000 0.70892  0.66160  0.25531  Biso   1.000  H
  H374     1.0000 0.64496  0.59185  0.70468  Biso   1.000  H
  H375     1.0000 0.65608  0.50800  0.66728  Biso   1.000  H
  H376     1.0000 0.61556  0.48785  0.68598  Biso   1.000  H
