data_image0
_cell_length_a       21.949
_cell_length_b       12.527
_cell_length_c       21.949
_cell_angle_alpha    90
_cell_angle_beta     90
_cell_angle_gamma    90

_symmetry_space_group_name_H-M    "P 1"
_symmetry_int_tables_number       1

loop_
  _symmetry_equiv_pos_as_xyz
  'x, y, z'

loop_
  _atom_site_label
  _atom_site_occupancy
  _atom_site_fract_x
  _atom_site_fract_y
  _atom_site_fract_z
  _atom_site_thermal_displace_type
  _atom_site_B_iso_or_equiv
  _atom_site_type_symbol
  C1       1.0000 0.66992  0.51122  0.33701  Biso   1.000  C
  N1       1.0000 0.60827  0.54442  0.32243  Biso   1.000  N
  H1       1.0000 0.69812  0.55153  0.31190  Biso   1.000  H
  H2       1.0000 0.67443  0.43642  0.32648  Biso   1.000  H
  N2       1.0000 0.68677  0.52550  0.40052  Biso   1.000  N
  C2       1.0000 0.56344  0.47202  0.30744  Biso   1.000  C
  C3       1.0000 0.59151  0.65147  0.30361  Biso   1.000  C
  C4       1.0000 0.69429  0.44161  0.43984  Biso   1.000  C
  C5       1.0000 0.70600  0.62649  0.42676  Biso   1.000  C
  N3       1.0000 0.51365  0.52606  0.28712  Biso   1.000  N
  O1       1.0000 0.56777  0.37479  0.31145  Biso   1.000  O
  C6       1.0000 0.52545  0.63950  0.28029  Biso   1.000  C
  H3       1.0000 0.61862  0.67822  0.27158  Biso   1.000  H
  N4       1.0000 0.58545  0.72787  0.35273  Biso   1.000  N
  N5       1.0000 0.71160  0.48272  0.49542  Biso   1.000  N
  O2       1.0000 0.68673  0.34773  0.42836  Biso   1.000  O
  N6       1.0000 0.65766  0.70304  0.43528  Biso   1.000  N
  C7       1.0000 0.72413  0.59567  0.49264  Biso   1.000  C
  H4       1.0000 0.74031  0.65738  0.40439  Biso   1.000  H
  C8       1.0000 0.46020  0.47250  0.26325  Biso   1.000  C
  N7       1.0000 0.49046  0.70815  0.32074  Biso   1.000  N
  H5       1.0000 0.52171  0.66209  0.23769  Biso   1.000  H
  C9       1.0000 0.52709  0.76028  0.36097  Biso   1.000  C
  C10      1.0000 0.63584  0.77169  0.38699  Biso   1.000  C
  C11      1.0000 0.72810  0.41478  0.54590  Biso   1.000  C
  C12      1.0000 0.64887  0.72779  0.49556  Biso   1.000  C
  H6       1.0000 0.76723  0.61060  0.50039  Biso   1.000  H
  N8       1.0000 0.68527  0.66241  0.52932  Biso   1.000  N
  N9       1.0000 0.40899  0.47074  0.30498  Biso   1.000  N
  H7       1.0000 0.44772  0.50778  0.22589  Biso   1.000  H
  H8       1.0000 0.47100  0.39962  0.25300  Biso   1.000  H
  C13      1.0000 0.42622  0.72946  0.31505  Biso   1.000  C
  O3       1.0000 0.51005  0.82773  0.39788  Biso   1.000  O
  H9       1.0000 0.66923  0.78598  0.35920  Biso   1.000  H
  H10      1.0000 0.62331  0.83923  0.40453  Biso   1.000  H
  N10      1.0000 0.68363  0.41343  0.59465  Biso   1.000  N
  H11      1.0000 0.73352  0.34246  0.53100  Biso   1.000  H
  H12      1.0000 0.76682  0.43857  0.56221  Biso   1.000  H
  O4       1.0000 0.61547  0.79676  0.51519  Biso   1.000  O
  C14      1.0000 0.69051  0.67359  0.59456  Biso   1.000  C
  C15      1.0000 0.39291  0.38086  0.33683  Biso   1.000  C
  C16      1.0000 0.36562  0.55632  0.31222  Biso   1.000  C
  N11      1.0000 0.38785  0.64996  0.34393  Biso   1.000  N
  H13      1.0000 0.41583  0.73330  0.27209  Biso   1.000  H
  H14      1.0000 0.41751  0.79860  0.33291  Biso   1.000  H
  C17      1.0000 0.64636  0.32817  0.60499  Biso   1.000  C
  C18      1.0000 0.68194  0.49046  0.64386  Biso   1.000  C
  N12      1.0000 0.65675  0.59392  0.62827  Biso   1.000  N
  H15      1.0000 0.73320  0.66896  0.60572  Biso   1.000  H
  H16      1.0000 0.67602  0.74391  0.60622  Biso   1.000  H
  N13      1.0000 0.34325  0.40608  0.37173  Biso   1.000  N
  O5       1.0000 0.41833  0.29464  0.33441  Biso   1.000  O
  C19      1.0000 0.31806  0.50946  0.35614  Biso   1.000  C
  H17      1.0000 0.34712  0.57556  0.27309  Biso   1.000  H
  C20      1.0000 0.35368  0.67183  0.39501  Biso   1.000  C
  N14      1.0000 0.61219  0.35004  0.65607  Biso   1.000  N
  O6       1.0000 0.64349  0.24731  0.57438  Biso   1.000  O
  C21      1.0000 0.63438  0.44368  0.68778  Biso   1.000  C
  H18      1.0000 0.72181  0.49749  0.66349  Biso   1.000  H
  C22      1.0000 0.60709  0.61906  0.66317  Biso   1.000  C
  C23      1.0000 0.30949  0.32641  0.40549  Biso   1.000  C
  H19      1.0000 0.27819  0.50251  0.33651  Biso   1.000  H
  N15      1.0000 0.31637  0.58657  0.40535  Biso   1.000  N
  O7       1.0000 0.35651  0.75269  0.42562  Biso   1.000  O
  C24      1.0000 0.57383  0.27054  0.68495  Biso   1.000  C
  N16      1.0000 0.59101  0.52926  0.69502  Biso   1.000  N
  H20      1.0000 0.65292  0.42436  0.72691  Biso   1.000  H
  O8       1.0000 0.58167  0.70536  0.66563  Biso   1.000  O
  H21      1.0000 0.26680  0.33097  0.39432  Biso   1.000  H
  H22      1.0000 0.32402  0.25609  0.39382  Biso   1.000  H
  N17      1.0000 0.31478  0.33759  0.47068  Biso   1.000  N
  C25      1.0000 0.27195  0.58522  0.45410  Biso   1.000  C
  N18      1.0000 0.50954  0.29185  0.67930  Biso   1.000  N
  H23      1.0000 0.58422  0.26670  0.72791  Biso   1.000  H
  H24      1.0000 0.58253  0.20140  0.66709  Biso   1.000  H
  C26      1.0000 0.53984  0.52750  0.73680  Biso   1.000  C
  C27      1.0000 0.35118  0.27221  0.50449  Biso   1.000  C
  C28      1.0000 0.27591  0.40433  0.50736  Biso   1.000  C
  N19      1.0000 0.28840  0.51728  0.50458  Biso   1.000  N
  H25      1.0000 0.26653  0.65746  0.46900  Biso   1.000  H
  H26      1.0000 0.23322  0.56143  0.43779  Biso   1.000  H
  C29      1.0000 0.47291  0.23972  0.63903  Biso   1.000  C
  C30      1.0000 0.47460  0.36050  0.71976  Biso   1.000  C
  N20      1.0000 0.48635  0.47394  0.71293  Biso   1.000  N
  H27      1.0000 0.55233  0.49222  0.77411  Biso   1.000  H
  H28      1.0000 0.52900  0.60038  0.74700  Biso   1.000  H
  N21      1.0000 0.34238  0.29696  0.56472  Biso   1.000  N
  O9       1.0000 0.38453  0.20324  0.48485  Biso   1.000  O
  H29      1.0000 0.23281  0.38940  0.49961  Biso   1.000  H
  C31      1.0000 0.29405  0.37351  0.57324  Biso   1.000  C
  C32      1.0000 0.30571  0.55839  0.56016  Biso   1.000  C
  N22      1.0000 0.41460  0.27213  0.64727  Biso   1.000  N
  O10      1.0000 0.49000  0.17227  0.60212  Biso   1.000  O
  C33      1.0000 0.40849  0.34853  0.69639  Biso   1.000  C
  H30      1.0000 0.47829  0.33791  0.76231  Biso   1.000  H
  C34      1.0000 0.43660  0.52798  0.69261  Biso   1.000  C
  C35      1.0000 0.36421  0.22831  0.61306  Biso   1.000  C
  H31      1.0000 0.25969  0.34262  0.59561  Biso   1.000  H
  N23      1.0000 0.31327  0.47450  0.59953  Biso   1.000  N
  O11      1.0000 0.31327  0.65219  0.57169  Biso   1.000  O
  N24      1.0000 0.39173  0.45558  0.67757  Biso   1.000  N
  H32      1.0000 0.38143  0.32178  0.72842  Biso   1.000  H
  O12      1.0000 0.43227  0.62521  0.68855  Biso   1.000  O
  H33      1.0000 0.33081  0.21402  0.64080  Biso   1.000  H
  H34      1.0000 0.37669  0.16077  0.59552  Biso   1.000  H
  C36      1.0000 0.33013  0.48878  0.66299  Biso   1.000  C
  H35      1.0000 0.30193  0.44847  0.68810  Biso   1.000  H
  H36      1.0000 0.32562  0.56358  0.67352  Biso   1.000  H
  C37      1.0000 0.81808  0.50946  0.14388  Biso   1.000  C
  N25      1.0000 0.84323  0.40608  0.12830  Biso   1.000  N
  N26      1.0000 0.84327  0.40608  0.12830  Biso   1.000  N
  C38      1.0000 0.86560  0.55632  0.18780  Biso   1.000  C
  H37      1.0000 0.77821  0.50251  0.16352  Biso   1.000  H
  N27      1.0000 0.81635  0.58657  0.09463  Biso   1.000  N
  N28      1.0000 0.81635  0.58657  0.09467  Biso   1.000  N
  C39      1.0000 0.86564  0.55632  0.18780  Biso   1.000  C
  N29      1.0000 0.81639  0.58657  0.09463  Biso   1.000  N
  N30      1.0000 0.81639  0.58657  0.09467  Biso   1.000  N
  C40      1.0000 0.80947  0.32641  0.09454  Biso   1.000  C
  C41      1.0000 0.89289  0.38086  0.16315  Biso   1.000  C
  C42      1.0000 0.89289  0.38086  0.16320  Biso   1.000  C
  C43      1.0000 0.89293  0.38086  0.16315  Biso   1.000  C
  C44      1.0000 0.80951  0.32641  0.09454  Biso   1.000  C
  C45      1.0000 0.89293  0.38086  0.16320  Biso   1.000  C
  N31      1.0000 0.90897  0.47074  0.19500  Biso   1.000  N
  N32      1.0000 0.90897  0.47074  0.19504  Biso   1.000  N
  N33      1.0000 0.90902  0.47074  0.19500  Biso   1.000  N
  N34      1.0000 0.90902  0.47074  0.19504  Biso   1.000  N
  H38      1.0000 0.84710  0.57556  0.22689  Biso   1.000  H
  N35      1.0000 0.88783  0.64996  0.15604  Biso   1.000  N
  H39      1.0000 0.84710  0.57556  0.22694  Biso   1.000  H
  N36      1.0000 0.88783  0.64996  0.15609  Biso   1.000  N
  N37      1.0000 0.88788  0.64996  0.15604  Biso   1.000  N
  N38      1.0000 0.88788  0.64996  0.15609  Biso   1.000  N
  C46      1.0000 0.85366  0.67183  0.10497  Biso   1.000  C
  C47      1.0000 0.77193  0.58522  0.04588  Biso   1.000  C
  C48      1.0000 0.85366  0.67183  0.10502  Biso   1.000  C
  C49      1.0000 0.77193  0.58522  0.04592  Biso   1.000  C
  H40      1.0000 0.76678  0.33097  0.10570  Biso   1.000  H
  H41      1.0000 0.82400  0.25609  0.10620  Biso   1.000  H
  N39      1.0000 0.81475  0.33759  0.02934  Biso   1.000  N
  H42      1.0000 0.76682  0.33097  0.10570  Biso   1.000  H
  O13      1.0000 0.91836  0.29464  0.16561  Biso   1.000  O
  C50      1.0000 0.96018  0.47250  0.23678  Biso   1.000  C
  C51      1.0000 0.92619  0.72946  0.18497  Biso   1.000  C
  O14      1.0000 0.85649  0.75269  0.07440  Biso   1.000  O
  O15      1.0000 0.85653  0.75269  0.07440  Biso   1.000  O
  N40      1.0000 0.78837  0.51728  0.99540  Biso   1.000  N
  N41      1.0000 0.78837  0.51728  0.99544  Biso   1.000  N
  N42      1.0000 0.78842  0.51728  0.99540  Biso   1.000  N
  N43      1.0000 0.78842  0.51728  0.99544  Biso   1.000  N
  H43      1.0000 0.76650  0.65746  0.03098  Biso   1.000  H
  H44      1.0000 0.73320  0.56143  0.06219  Biso   1.000  H
  H45      1.0000 0.76650  0.65746  0.03103  Biso   1.000  H
  H46      1.0000 0.73320  0.56143  0.06224  Biso   1.000  H
  C52      1.0000 0.85115  0.27221  0.99554  Biso   1.000  C
  C53      1.0000 0.77589  0.40433  0.99266  Biso   1.000  C
  C54      1.0000 0.85115  0.27221  0.99558  Biso   1.000  C
  C55      1.0000 0.77594  0.40433  0.99266  Biso   1.000  C
  H47      1.0000 0.94770  0.50778  0.27409  Biso   1.000  H
  H48      1.0000 0.97098  0.39962  0.24703  Biso   1.000  H
  H49      1.0000 0.94770  0.50778  0.27414  Biso   1.000  H
  H50      1.0000 0.97102  0.39962  0.24703  Biso   1.000  H
  N44      1.0000 0.01367  0.52606  0.21290  Biso   1.000  N
  H51      1.0000 0.91580  0.73330  0.22789  Biso   1.000  H
  H52      1.0000 0.91749  0.79860  0.16711  Biso   1.000  H
  N45      1.0000 0.99043  0.70815  0.17928  Biso   1.000  N
  H53      1.0000 0.91580  0.73330  0.22794  Biso   1.000  H
  H54      1.0000 0.91754  0.79860  0.16711  Biso   1.000  H
  N46      1.0000 0.99048  0.70815  0.17928  Biso   1.000  N
  C56      1.0000 0.80569  0.55839  0.93986  Biso   1.000  C
  C57      1.0000 0.80573  0.55839  0.93986  Biso   1.000  C
  O16      1.0000 0.88455  0.20324  0.01517  Biso   1.000  O
  N47      1.0000 0.84236  0.29696  0.93526  Biso   1.000  N
  N48      1.0000 0.84236  0.29696  0.93530  Biso   1.000  N
  N49      1.0000 0.84241  0.29696  0.93526  Biso   1.000  N
  N50      1.0000 0.84241  0.29696  0.93530  Biso   1.000  N
  H55      1.0000 0.73279  0.38940  0.00041  Biso   1.000  H
  H56      1.0000 0.73284  0.38940  0.00041  Biso   1.000  H
  C58      1.0000 0.79402  0.37351  0.92678  Biso   1.000  C
  C59      1.0000 0.06342  0.47202  0.19258  Biso   1.000  C
  C60      1.0000 0.02542  0.63950  0.21974  Biso   1.000  C
  C61      1.0000 0.02542  0.63950  0.21978  Biso   1.000  C
  C62      1.0000 0.02547  0.63950  0.21974  Biso   1.000  C
  C63      1.0000 0.02547  0.63950  0.21978  Biso   1.000  C
  C64      1.0000 0.02706  0.76028  0.13900  Biso   1.000  C
  C65      1.0000 0.02706  0.76028  0.13905  Biso   1.000  C
  C66      1.0000 0.02711  0.76028  0.13900  Biso   1.000  C
  C67      1.0000 0.02711  0.76028  0.13905  Biso   1.000  C
  N51      1.0000 0.81325  0.47450  0.90050  Biso   1.000  N
  N52      1.0000 0.81329  0.47450  0.90050  Biso   1.000  N
  O17      1.0000 0.81325  0.65219  0.92833  Biso   1.000  O
  O18      1.0000 0.81329  0.65219  0.92833  Biso   1.000  O
  C68      1.0000 0.86419  0.22831  0.88697  Biso   1.000  C
  H57      1.0000 0.75972  0.34262  0.90441  Biso   1.000  H
  N53      1.0000 0.10830  0.54442  0.17759  Biso   1.000  N
  O19      1.0000 0.06775  0.37479  0.18853  Biso   1.000  O
  O20      1.0000 0.06775  0.37479  0.18857  Biso   1.000  O
  C69      1.0000 0.09148  0.65147  0.19636  Biso   1.000  C
  H58      1.0000 0.02169  0.66209  0.26229  Biso   1.000  H
  C70      1.0000 0.09148  0.65147  0.19641  Biso   1.000  C
  H59      1.0000 0.02169  0.66209  0.26234  Biso   1.000  H
  C71      1.0000 0.09153  0.65147  0.19636  Biso   1.000  C
  H60      1.0000 0.02173  0.66209  0.26229  Biso   1.000  H
  C72      1.0000 0.09153  0.65147  0.19641  Biso   1.000  C
  H61      1.0000 0.02173  0.66209  0.26234  Biso   1.000  H
  N54      1.0000 0.08543  0.72787  0.14725  Biso   1.000  N
  N55      1.0000 0.08543  0.72787  0.14730  Biso   1.000  N
  N56      1.0000 0.08547  0.72787  0.14725  Biso   1.000  N
  N57      1.0000 0.08547  0.72787  0.14730  Biso   1.000  N
  O21      1.0000 0.01002  0.82773  0.10210  Biso   1.000  O
  O22      1.0000 0.01002  0.82773  0.10215  Biso   1.000  O
  C73      1.0000 0.83011  0.48878  0.83699  Biso   1.000  C
  C74      1.0000 0.83011  0.48878  0.83703  Biso   1.000  C
  N58      1.0000 0.91457  0.27213  0.85275  Biso   1.000  N
  H62      1.0000 0.83079  0.21402  0.85922  Biso   1.000  H
  H63      1.0000 0.87671  0.16077  0.90451  Biso   1.000  H
  H64      1.0000 0.83084  0.21402  0.85922  Biso   1.000  H
  C75      1.0000 0.16989  0.51122  0.16301  Biso   1.000  C
  H65      1.0000 0.11859  0.67822  0.22839  Biso   1.000  H
  H66      1.0000 0.11859  0.67822  0.22844  Biso   1.000  H
  H67      1.0000 0.11864  0.67822  0.22839  Biso   1.000  H
  H68      1.0000 0.11864  0.67822  0.22844  Biso   1.000  H
  C76      1.0000 0.13581  0.77169  0.11303  Biso   1.000  C
  C77      1.0000 0.13581  0.77169  0.11308  Biso   1.000  C
  H69      1.0000 0.80190  0.44847  0.81188  Biso   1.000  H
  H70      1.0000 0.82560  0.56358  0.82651  Biso   1.000  H
  N59      1.0000 0.89170  0.45558  0.82241  Biso   1.000  N
  H71      1.0000 0.80190  0.44847  0.81193  Biso   1.000  H
  N60      1.0000 0.89170  0.45558  0.82245  Biso   1.000  N
  N61      1.0000 0.89175  0.45558  0.82241  Biso   1.000  N
  N62      1.0000 0.89175  0.45558  0.82245  Biso   1.000  N
  C78      1.0000 0.97294  0.23972  0.86100  Biso   1.000  C
  C79      1.0000 0.90852  0.34853  0.80364  Biso   1.000  C
  N63      1.0000 0.18675  0.52550  0.09950  Biso   1.000  N
  H72      1.0000 0.19810  0.55153  0.18812  Biso   1.000  H
  H73      1.0000 0.17440  0.43642  0.17349  Biso   1.000  H
  H74      1.0000 0.17440  0.43642  0.17354  Biso   1.000  H
  H75      1.0000 0.19814  0.55153  0.18812  Biso   1.000  H
  H76      1.0000 0.16921  0.78598  0.14078  Biso   1.000  H
  H77      1.0000 0.12329  0.83923  0.09549  Biso   1.000  H
  N64      1.0000 0.15764  0.70304  0.06474  Biso   1.000  N
  H78      1.0000 0.16921  0.78598  0.14083  Biso   1.000  H
  H79      1.0000 0.12329  0.83923  0.09554  Biso   1.000  H
  H80      1.0000 0.12333  0.83923  0.09549  Biso   1.000  H
  H81      1.0000 0.12333  0.83923  0.09554  Biso   1.000  H
  C80      1.0000 0.93658  0.52798  0.80742  Biso   1.000  C
  O23      1.0000 0.98998  0.17227  0.89790  Biso   1.000  O
  N65      1.0000 0.00957  0.29185  0.82072  Biso   1.000  N
  N66      1.0000 0.00957  0.29185  0.82077  Biso   1.000  N
  H82      1.0000 0.88141  0.32178  0.77161  Biso   1.000  H
  C81      1.0000 0.97458  0.36050  0.78026  Biso   1.000  C
  C82      1.0000 0.19431  0.44161  0.06014  Biso   1.000  C
  C83      1.0000 0.20598  0.62649  0.07322  Biso   1.000  C
  C84      1.0000 0.19431  0.44161  0.06018  Biso   1.000  C
  C85      1.0000 0.20598  0.62649  0.07326  Biso   1.000  C
  C86      1.0000 0.14885  0.72779  0.00446  Biso   1.000  C
  N67      1.0000 0.98633  0.47394  0.78710  Biso   1.000  N
  N68      1.0000 0.98633  0.47394  0.78714  Biso   1.000  N
  N69      1.0000 0.98638  0.47394  0.78710  Biso   1.000  N
  N70      1.0000 0.98638  0.47394  0.78714  Biso   1.000  N
  O24      1.0000 0.93225  0.62521  0.81147  Biso   1.000  O
  O25      1.0000 0.93230  0.62521  0.81147  Biso   1.000  O
  C87      1.0000 0.07381  0.27054  0.81503  Biso   1.000  C
  C88      1.0000 0.07381  0.27054  0.81507  Biso   1.000  C
  H83      1.0000 0.97831  0.33791  0.73771  Biso   1.000  H
  N71      1.0000 0.21163  0.48272  0.00460  Biso   1.000  N
  O26      1.0000 0.18675  0.34773  0.07167  Biso   1.000  O
  O27      1.0000 0.18675  0.34773  0.07171  Biso   1.000  O
  C89      1.0000 0.22411  0.59567  0.00734  Biso   1.000  C
  H84      1.0000 0.24028  0.65738  0.09559  Biso   1.000  H
  C90      1.0000 0.22411  0.59567  0.00738  Biso   1.000  C
  H85      1.0000 0.24028  0.65738  0.09563  Biso   1.000  H
  H86      1.0000 0.24033  0.65738  0.09559  Biso   1.000  H
  H87      1.0000 0.24033  0.65738  0.09563  Biso   1.000  H
  N72      1.0000 0.18525  0.66241  0.97066  Biso   1.000  N
  N73      1.0000 0.18525  0.66241  0.97070  Biso   1.000  N
  N74      1.0000 0.18529  0.66241  0.97066  Biso   1.000  N
  N75      1.0000 0.18529  0.66241  0.97070  Biso   1.000  N
  O28      1.0000 0.11545  0.79676  0.98483  Biso   1.000  O
  O29      1.0000 0.11550  0.79676  0.98483  Biso   1.000  O
  C91      1.0000 0.03982  0.52750  0.76322  Biso   1.000  C
  H88      1.0000 0.08420  0.26670  0.77211  Biso   1.000  H
  H89      1.0000 0.08251  0.20140  0.83289  Biso   1.000  H
  N76      1.0000 0.11217  0.35004  0.84396  Biso   1.000  N
  H90      1.0000 0.08251  0.20140  0.83293  Biso   1.000  H
  H91      1.0000 0.08424  0.26670  0.77211  Biso   1.000  H
  C92      1.0000 0.22807  0.41478  0.95412  Biso   1.000  C
  H92      1.0000 0.26721  0.61060  0.99959  Biso   1.000  H
  H93      1.0000 0.26721  0.61060  0.99964  Biso   1.000  H
  C93      1.0000 0.19053  0.67359  0.90546  Biso   1.000  C
  H94      1.0000 0.05230  0.49222  0.72591  Biso   1.000  H
  H95      1.0000 0.02902  0.60038  0.75297  Biso   1.000  H
  N77      1.0000 0.09103  0.52926  0.80500  Biso   1.000  N
  H96      1.0000 0.02902  0.60038  0.75302  Biso   1.000  H
  C94      1.0000 0.14634  0.32817  0.89503  Biso   1.000  C
  C95      1.0000 0.13440  0.44368  0.81220  Biso   1.000  C
  C96      1.0000 0.13440  0.44368  0.81225  Biso   1.000  C
  N78      1.0000 0.18365  0.41343  0.90537  Biso   1.000  N
  H97      1.0000 0.23350  0.34246  0.96902  Biso   1.000  H
  H98      1.0000 0.26680  0.43857  0.93781  Biso   1.000  H
  H99      1.0000 0.23354  0.34246  0.96902  Biso   1.000  H
  N79      1.0000 0.15677  0.59392  0.87170  Biso   1.000  N
  N80      1.0000 0.15677  0.59392  0.87175  Biso   1.000  N
  H100     1.0000 0.23322  0.66896  0.89430  Biso   1.000  H
  H101     1.0000 0.17600  0.74391  0.89380  Biso   1.000  H
  C97      1.0000 0.10711  0.61906  0.83685  Biso   1.000  C
  O30      1.0000 0.14351  0.24731  0.92560  Biso   1.000  O
  O31      1.0000 0.14351  0.24731  0.92565  Biso   1.000  O
  H102     1.0000 0.15290  0.42436  0.77311  Biso   1.000  H
  C98      1.0000 0.18192  0.49046  0.85612  Biso   1.000  C
  C99      1.0000 0.18192  0.49046  0.85617  Biso   1.000  C
  C100     1.0000 0.18197  0.49046  0.85612  Biso   1.000  C
  C101     1.0000 0.18197  0.49046  0.85617  Biso   1.000  C
  O32      1.0000 0.08164  0.70536  0.83439  Biso   1.000  O
  O33      1.0000 0.08169  0.70536  0.83439  Biso   1.000  O
  H103     1.0000 0.22179  0.49749  0.83648  Biso   1.000  H
  H104     1.0000 0.22179  0.49749  0.83653  Biso   1.000  H
  H105     1.0000 0.22183  0.49749  0.83648  Biso   1.000  H
  H106     1.0000 0.22183  0.49749  0.83653  Biso   1.000  H
  C102     1.0000 0.81808  0.50946  0.14388  Biso   1.000  C
  N81      1.0000 0.84323  0.40608  0.12830  Biso   1.000  N
  N82      1.0000 0.84327  0.40608  0.12830  Biso   1.000  N
  C103     1.0000 0.86560  0.55632  0.18780  Biso   1.000  C
  H107     1.0000 0.77821  0.50251  0.16352  Biso   1.000  H
  C104     1.0000 0.86564  0.55632  0.18780  Biso   1.000  C
  N83      1.0000 0.81635  0.58657  0.09463  Biso   1.000  N
  N84      1.0000 0.81635  0.58657  0.09467  Biso   1.000  N
  N85      1.0000 0.81639  0.58657  0.09463  Biso   1.000  N
  N86      1.0000 0.81639  0.58657  0.09467  Biso   1.000  N
  C105     1.0000 0.80947  0.32641  0.09454  Biso   1.000  C
  C106     1.0000 0.80951  0.32641  0.09454  Biso   1.000  C
  C107     1.0000 0.89289  0.38086  0.16315  Biso   1.000  C
  C108     1.0000 0.89289  0.38086  0.16320  Biso   1.000  C
  C109     1.0000 0.89293  0.38086  0.16315  Biso   1.000  C
  C110     1.0000 0.89293  0.38086  0.16320  Biso   1.000  C
  N87      1.0000 0.90897  0.47074  0.19500  Biso   1.000  N
  N88      1.0000 0.90897  0.47074  0.19504  Biso   1.000  N
  N89      1.0000 0.90902  0.47074  0.19500  Biso   1.000  N
  N90      1.0000 0.90902  0.47074  0.19504  Biso   1.000  N
  H108     1.0000 0.84710  0.57556  0.22689  Biso   1.000  H
  H109     1.0000 0.84710  0.57556  0.22694  Biso   1.000  H
  N91      1.0000 0.88783  0.64996  0.15604  Biso   1.000  N
  N92      1.0000 0.88783  0.64996  0.15609  Biso   1.000  N
  N93      1.0000 0.88788  0.64996  0.15604  Biso   1.000  N
  N94      1.0000 0.88788  0.64996  0.15609  Biso   1.000  N
  C111     1.0000 0.85366  0.67183  0.10497  Biso   1.000  C
  C112     1.0000 0.77193  0.58522  0.04588  Biso   1.000  C
  C113     1.0000 0.85366  0.67183  0.10502  Biso   1.000  C
  C114     1.0000 0.77193  0.58522  0.04592  Biso   1.000  C
  H110     1.0000 0.76678  0.33097  0.10570  Biso   1.000  H
  H111     1.0000 0.82400  0.25609  0.10620  Biso   1.000  H
  N95      1.0000 0.81475  0.33759  0.02934  Biso   1.000  N
  H112     1.0000 0.76682  0.33097  0.10570  Biso   1.000  H
  O34      1.0000 0.91836  0.29464  0.16561  Biso   1.000  O
  C115     1.0000 0.96018  0.47250  0.23678  Biso   1.000  C
  C116     1.0000 0.92619  0.72946  0.18497  Biso   1.000  C
  O35      1.0000 0.85649  0.75269  0.07440  Biso   1.000  O
  O36      1.0000 0.85653  0.75269  0.07440  Biso   1.000  O
  N96      1.0000 0.78837  0.51728  0.99540  Biso   1.000  N
  N97      1.0000 0.78837  0.51728  0.99544  Biso   1.000  N
  N98      1.0000 0.78842  0.51728  0.99540  Biso   1.000  N
  N99      1.0000 0.78842  0.51728  0.99544  Biso   1.000  N
  H113     1.0000 0.76650  0.65746  0.03098  Biso   1.000  H
  H114     1.0000 0.73320  0.56143  0.06219  Biso   1.000  H
  H115     1.0000 0.76650  0.65746  0.03103  Biso   1.000  H
  H116     1.0000 0.73320  0.56143  0.06224  Biso   1.000  H
  C117     1.0000 0.85115  0.27221  0.99554  Biso   1.000  C
  C118     1.0000 0.77589  0.40433  0.99266  Biso   1.000  C
  C119     1.0000 0.85115  0.27221  0.99558  Biso   1.000  C
  C120     1.0000 0.77594  0.40433  0.99266  Biso   1.000  C
  H117     1.0000 0.97098  0.39962  0.24703  Biso   1.000  H
  H118     1.0000 0.94770  0.50778  0.27409  Biso   1.000  H
  H119     1.0000 0.94770  0.50778  0.27414  Biso   1.000  H
  H120     1.0000 0.97102  0.39962  0.24703  Biso   1.000  H
  N100     1.0000 0.01367  0.52606  0.21290  Biso   1.000  N
  H121     1.0000 0.91749  0.79860  0.16711  Biso   1.000  H
  N101     1.0000 0.99043  0.70815  0.17928  Biso   1.000  N
  H122     1.0000 0.91580  0.73330  0.22789  Biso   1.000  H
  H123     1.0000 0.91580  0.73330  0.22794  Biso   1.000  H
  H124     1.0000 0.91754  0.79860  0.16711  Biso   1.000  H
  N102     1.0000 0.99048  0.70815  0.17928  Biso   1.000  N
  C121     1.0000 0.80569  0.55839  0.93986  Biso   1.000  C
  C122     1.0000 0.80573  0.55839  0.93986  Biso   1.000  C
  O37      1.0000 0.88455  0.20324  0.01517  Biso   1.000  O
  N103     1.0000 0.84236  0.29696  0.93526  Biso   1.000  N
  N104     1.0000 0.84236  0.29696  0.93530  Biso   1.000  N
  N105     1.0000 0.84241  0.29696  0.93526  Biso   1.000  N
  N106     1.0000 0.84241  0.29696  0.93530  Biso   1.000  N
  H125     1.0000 0.73279  0.38940  0.00041  Biso   1.000  H
  H126     1.0000 0.73284  0.38940  0.00041  Biso   1.000  H
  C123     1.0000 0.79402  0.37351  0.92678  Biso   1.000  C
  C124     1.0000 0.06342  0.47202  0.19258  Biso   1.000  C
  C125     1.0000 0.02542  0.63950  0.21974  Biso   1.000  C
  C126     1.0000 0.02542  0.63950  0.21978  Biso   1.000  C
  C127     1.0000 0.02547  0.63950  0.21974  Biso   1.000  C
  C128     1.0000 0.02547  0.63950  0.21978  Biso   1.000  C
  C129     1.0000 0.02706  0.76028  0.13900  Biso   1.000  C
  C130     1.0000 0.02706  0.76028  0.13905  Biso   1.000  C
  C131     1.0000 0.02711  0.76028  0.13900  Biso   1.000  C
  C132     1.0000 0.02711  0.76028  0.13905  Biso   1.000  C
  N107     1.0000 0.81325  0.47450  0.90050  Biso   1.000  N
  N108     1.0000 0.81329  0.47450  0.90050  Biso   1.000  N
  O38      1.0000 0.81325  0.65219  0.92833  Biso   1.000  O
  O39      1.0000 0.81329  0.65219  0.92833  Biso   1.000  O
  C133     1.0000 0.86419  0.22831  0.88697  Biso   1.000  C
  H127     1.0000 0.75972  0.34262  0.90441  Biso   1.000  H
  N109     1.0000 0.10830  0.54442  0.17759  Biso   1.000  N
  O40      1.0000 0.06775  0.37479  0.18853  Biso   1.000  O
  O41      1.0000 0.06775  0.37479  0.18857  Biso   1.000  O
  C134     1.0000 0.09148  0.65147  0.19636  Biso   1.000  C
  H128     1.0000 0.02169  0.66209  0.26229  Biso   1.000  H
  C135     1.0000 0.09148  0.65147  0.19641  Biso   1.000  C
  H129     1.0000 0.02169  0.66209  0.26234  Biso   1.000  H
  C136     1.0000 0.09153  0.65147  0.19636  Biso   1.000  C
  H130     1.0000 0.02173  0.66209  0.26229  Biso   1.000  H
  C137     1.0000 0.09153  0.65147  0.19641  Biso   1.000  C
  H131     1.0000 0.02173  0.66209  0.26234  Biso   1.000  H
  N110     1.0000 0.08543  0.72787  0.14725  Biso   1.000  N
  O42      1.0000 0.01002  0.82773  0.10210  Biso   1.000  O
  N111     1.0000 0.08543  0.72787  0.14730  Biso   1.000  N
  O43      1.0000 0.01002  0.82773  0.10215  Biso   1.000  O
  N112     1.0000 0.08547  0.72787  0.14725  Biso   1.000  N
  N113     1.0000 0.08547  0.72787  0.14730  Biso   1.000  N
  C138     1.0000 0.83011  0.48878  0.83699  Biso   1.000  C
  C139     1.0000 0.83011  0.48878  0.83703  Biso   1.000  C
  N114     1.0000 0.91457  0.27213  0.85275  Biso   1.000  N
  H132     1.0000 0.83079  0.21402  0.85922  Biso   1.000  H
  H133     1.0000 0.87671  0.16077  0.90451  Biso   1.000  H
  H134     1.0000 0.83084  0.21402  0.85922  Biso   1.000  H
  C140     1.0000 0.16989  0.51122  0.16301  Biso   1.000  C
  H135     1.0000 0.11859  0.67822  0.22839  Biso   1.000  H
  H136     1.0000 0.11859  0.67822  0.22844  Biso   1.000  H
  H137     1.0000 0.11864  0.67822  0.22839  Biso   1.000  H
  H138     1.0000 0.11864  0.67822  0.22844  Biso   1.000  H
  C141     1.0000 0.13581  0.77169  0.11303  Biso   1.000  C
  C142     1.0000 0.13581  0.77169  0.11308  Biso   1.000  C
  H139     1.0000 0.80190  0.44847  0.81188  Biso   1.000  H
  H140     1.0000 0.82560  0.56358  0.82651  Biso   1.000  H
  N115     1.0000 0.89170  0.45558  0.82241  Biso   1.000  N
  H141     1.0000 0.80190  0.44847  0.81193  Biso   1.000  H
  N116     1.0000 0.89170  0.45558  0.82245  Biso   1.000  N
  N117     1.0000 0.89175  0.45558  0.82241  Biso   1.000  N
  N118     1.0000 0.89175  0.45558  0.82245  Biso   1.000  N
  C143     1.0000 0.97294  0.23972  0.86100  Biso   1.000  C
  C144     1.0000 0.90852  0.34853  0.80364  Biso   1.000  C
  N119     1.0000 0.18675  0.52550  0.09950  Biso   1.000  N
  H142     1.0000 0.19810  0.55153  0.18812  Biso   1.000  H
  H143     1.0000 0.17440  0.43642  0.17349  Biso   1.000  H
  H144     1.0000 0.17440  0.43642  0.17354  Biso   1.000  H
  H145     1.0000 0.19814  0.55153  0.18812  Biso   1.000  H
  H146     1.0000 0.16921  0.78598  0.14078  Biso   1.000  H
  H147     1.0000 0.12329  0.83923  0.09549  Biso   1.000  H
  N120     1.0000 0.15764  0.70304  0.06474  Biso   1.000  N
  H148     1.0000 0.16921  0.78598  0.14083  Biso   1.000  H
  H149     1.0000 0.12329  0.83923  0.09554  Biso   1.000  H
  H150     1.0000 0.12333  0.83923  0.09549  Biso   1.000  H
  H151     1.0000 0.12333  0.83923  0.09554  Biso   1.000  H
  C145     1.0000 0.93658  0.52798  0.80742  Biso   1.000  C
  O44      1.0000 0.98998  0.17227  0.89790  Biso   1.000  O
  N121     1.0000 0.00957  0.29185  0.82072  Biso   1.000  N
  N122     1.0000 0.00957  0.29185  0.82077  Biso   1.000  N
  H152     1.0000 0.88141  0.32178  0.77161  Biso   1.000  H
  C146     1.0000 0.97458  0.36050  0.78026  Biso   1.000  C
  C147     1.0000 0.19431  0.44161  0.06014  Biso   1.000  C
  C148     1.0000 0.20598  0.62649  0.07322  Biso   1.000  C
  C149     1.0000 0.19431  0.44161  0.06018  Biso   1.000  C
  C150     1.0000 0.20598  0.62649  0.07326  Biso   1.000  C
  C151     1.0000 0.14885  0.72779  0.00446  Biso   1.000  C
  N123     1.0000 0.98633  0.47394  0.78710  Biso   1.000  N
  N124     1.0000 0.98633  0.47394  0.78714  Biso   1.000  N
  N125     1.0000 0.98638  0.47394  0.78710  Biso   1.000  N
  N126     1.0000 0.98638  0.47394  0.78714  Biso   1.000  N
  O45      1.0000 0.93225  0.62521  0.81147  Biso   1.000  O
  O46      1.0000 0.93230  0.62521  0.81147  Biso   1.000  O
  C152     1.0000 0.07381  0.27054  0.81503  Biso   1.000  C
  C153     1.0000 0.07381  0.27054  0.81507  Biso   1.000  C
  H153     1.0000 0.97831  0.33791  0.73771  Biso   1.000  H
  N127     1.0000 0.21163  0.48272  0.00460  Biso   1.000  N
  O47      1.0000 0.18675  0.34773  0.07167  Biso   1.000  O
  O48      1.0000 0.18675  0.34773  0.07171  Biso   1.000  O
  C154     1.0000 0.22411  0.59567  0.00734  Biso   1.000  C
  H154     1.0000 0.24028  0.65738  0.09559  Biso   1.000  H
  C155     1.0000 0.22411  0.59567  0.00738  Biso   1.000  C
  H155     1.0000 0.24028  0.65738  0.09563  Biso   1.000  H
  H156     1.0000 0.24033  0.65738  0.09559  Biso   1.000  H
  H157     1.0000 0.24033  0.65738  0.09563  Biso   1.000  H
  N128     1.0000 0.18525  0.66241  0.97066  Biso   1.000  N
  O49      1.0000 0.11545  0.79676  0.98483  Biso   1.000  O
  N129     1.0000 0.18525  0.66241  0.97070  Biso   1.000  N
  N130     1.0000 0.18529  0.66241  0.97066  Biso   1.000  N
  O50      1.0000 0.11550  0.79676  0.98483  Biso   1.000  O
  N131     1.0000 0.18529  0.66241  0.97070  Biso   1.000  N
  C156     1.0000 0.03982  0.52750  0.76322  Biso   1.000  C
  H158     1.0000 0.08420  0.26670  0.77211  Biso   1.000  H
  H159     1.0000 0.08251  0.20140  0.83289  Biso   1.000  H
  N132     1.0000 0.11217  0.35004  0.84396  Biso   1.000  N
  H160     1.0000 0.08251  0.20140  0.83293  Biso   1.000  H
  H161     1.0000 0.08424  0.26670  0.77211  Biso   1.000  H
  C157     1.0000 0.22807  0.41478  0.95412  Biso   1.000  C
  H162     1.0000 0.26721  0.61060  0.99959  Biso   1.000  H
  H163     1.0000 0.26721  0.61060  0.99964  Biso   1.000  H
  C158     1.0000 0.19053  0.67359  0.90546  Biso   1.000  C
  H164     1.0000 0.05230  0.49222  0.72591  Biso   1.000  H
  H165     1.0000 0.02902  0.60038  0.75297  Biso   1.000  H
  N133     1.0000 0.09103  0.52926  0.80500  Biso   1.000  N
  H166     1.0000 0.02902  0.60038  0.75302  Biso   1.000  H
  C159     1.0000 0.14634  0.32817  0.89503  Biso   1.000  C
  C160     1.0000 0.13440  0.44368  0.81220  Biso   1.000  C
  C161     1.0000 0.13440  0.44368  0.81225  Biso   1.000  C
  N134     1.0000 0.18365  0.41343  0.90537  Biso   1.000  N
  H167     1.0000 0.23350  0.34246  0.96902  Biso   1.000  H
  H168     1.0000 0.26680  0.43857  0.93781  Biso   1.000  H
  H169     1.0000 0.23354  0.34246  0.96902  Biso   1.000  H
  N135     1.0000 0.15677  0.59392  0.87170  Biso   1.000  N
  N136     1.0000 0.15677  0.59392  0.87175  Biso   1.000  N
  H170     1.0000 0.23322  0.66896  0.89430  Biso   1.000  H
  H171     1.0000 0.17600  0.74391  0.89380  Biso   1.000  H
  C162     1.0000 0.10711  0.61906  0.83685  Biso   1.000  C
  O51      1.0000 0.14351  0.24731  0.92560  Biso   1.000  O
  O52      1.0000 0.14351  0.24731  0.92565  Biso   1.000  O
  H172     1.0000 0.15290  0.42436  0.77311  Biso   1.000  H
  C163     1.0000 0.18192  0.49046  0.85612  Biso   1.000  C
  C164     1.0000 0.18192  0.49046  0.85617  Biso   1.000  C
  C165     1.0000 0.18197  0.49046  0.85612  Biso   1.000  C
  C166     1.0000 0.18197  0.49046  0.85617  Biso   1.000  C
  O53      1.0000 0.08164  0.70536  0.83439  Biso   1.000  O
  O54      1.0000 0.08169  0.70536  0.83439  Biso   1.000  O
  H173     1.0000 0.22179  0.49749  0.83648  Biso   1.000  H
  H174     1.0000 0.22179  0.49749  0.83653  Biso   1.000  H
  H175     1.0000 0.22183  0.49749  0.83648  Biso   1.000  H
  H176     1.0000 0.22183  0.49749  0.83653  Biso   1.000  H
  C167     1.0000 0.81808  0.50946  0.14388  Biso   1.000  C
  H177     1.0000 0.77821  0.50251  0.16352  Biso   1.000  H
  C168     1.0000 0.86560  0.55632  0.18780  Biso   1.000  C
  N137     1.0000 0.81635  0.58657  0.09463  Biso   1.000  N
  N138     1.0000 0.84323  0.40608  0.12830  Biso   1.000  N
  N139     1.0000 0.81635  0.58657  0.09467  Biso   1.000  N
  C169     1.0000 0.86564  0.55632  0.18780  Biso   1.000  C
  N140     1.0000 0.81639  0.58657  0.09463  Biso   1.000  N
  N141     1.0000 0.84327  0.40608  0.12830  Biso   1.000  N
  N142     1.0000 0.81639  0.58657  0.09467  Biso   1.000  N
  H178     1.0000 0.84710  0.57556  0.22689  Biso   1.000  H
  N143     1.0000 0.88783  0.64996  0.15604  Biso   1.000  N
  N144     1.0000 0.90897  0.47074  0.19500  Biso   1.000  N
  H179     1.0000 0.84710  0.57556  0.22694  Biso   1.000  H
  N145     1.0000 0.88783  0.64996  0.15609  Biso   1.000  N
  N146     1.0000 0.90897  0.47074  0.19504  Biso   1.000  N
  N147     1.0000 0.88788  0.64996  0.15604  Biso   1.000  N
  N148     1.0000 0.90902  0.47074  0.19500  Biso   1.000  N
  N149     1.0000 0.88788  0.64996  0.15609  Biso   1.000  N
  N150     1.0000 0.90902  0.47074  0.19504  Biso   1.000  N
  C170     1.0000 0.85366  0.67183  0.10497  Biso   1.000  C
  C171     1.0000 0.77193  0.58522  0.04588  Biso   1.000  C
  C172     1.0000 0.85366  0.67183  0.10502  Biso   1.000  C
  C173     1.0000 0.77193  0.58522  0.04592  Biso   1.000  C
  C174     1.0000 0.89289  0.38086  0.16315  Biso   1.000  C
  C175     1.0000 0.80947  0.32641  0.09454  Biso   1.000  C
  C176     1.0000 0.89289  0.38086  0.16320  Biso   1.000  C
  C177     1.0000 0.89293  0.38086  0.16315  Biso   1.000  C
  C178     1.0000 0.80951  0.32641  0.09454  Biso   1.000  C
  C179     1.0000 0.89293  0.38086  0.16320  Biso   1.000  C
  C180     1.0000 0.92619  0.72946  0.18497  Biso   1.000  C
  C181     1.0000 0.96018  0.47250  0.23678  Biso   1.000  C
  O55      1.0000 0.85649  0.75269  0.07440  Biso   1.000  O
  O56      1.0000 0.85653  0.75269  0.07440  Biso   1.000  O
  N151     1.0000 0.78837  0.51728  0.99540  Biso   1.000  N
  N152     1.0000 0.78837  0.51728  0.99544  Biso   1.000  N
  N153     1.0000 0.78842  0.51728  0.99540  Biso   1.000  N
  N154     1.0000 0.78842  0.51728  0.99544  Biso   1.000  N
  H180     1.0000 0.76650  0.65746  0.03098  Biso   1.000  H
  H181     1.0000 0.73320  0.56143  0.06219  Biso   1.000  H
  H182     1.0000 0.76650  0.65746  0.03103  Biso   1.000  H
  H183     1.0000 0.73320  0.56143  0.06224  Biso   1.000  H
  O57      1.0000 0.91836  0.29464  0.16561  Biso   1.000  O
  H184     1.0000 0.82400  0.25609  0.10620  Biso   1.000  H
  N155     1.0000 0.81475  0.33759  0.02934  Biso   1.000  N
  H185     1.0000 0.76678  0.33097  0.10570  Biso   1.000  H
  H186     1.0000 0.76682  0.33097  0.10570  Biso   1.000  H
  H187     1.0000 0.91580  0.73330  0.22789  Biso   1.000  H
  H188     1.0000 0.91749  0.79860  0.16711  Biso   1.000  H
  N156     1.0000 0.99043  0.70815  0.17928  Biso   1.000  N
  H189     1.0000 0.91580  0.73330  0.22794  Biso   1.000  H
  H190     1.0000 0.91754  0.79860  0.16711  Biso   1.000  H
  N157     1.0000 0.99048  0.70815  0.17928  Biso   1.000  N
  H191     1.0000 0.94770  0.50778  0.27409  Biso   1.000  H
  H192     1.0000 0.97098  0.39962  0.24703  Biso   1.000  H
  H193     1.0000 0.94770  0.50778  0.27414  Biso   1.000  H
  H194     1.0000 0.97102  0.39962  0.24703  Biso   1.000  H
  N158     1.0000 0.01367  0.52606  0.21290  Biso   1.000  N
  C182     1.0000 0.80569  0.55839  0.93986  Biso   1.000  C
  C183     1.0000 0.77589  0.40433  0.99266  Biso   1.000  C
  C184     1.0000 0.80573  0.55839  0.93986  Biso   1.000  C
  C185     1.0000 0.77594  0.40433  0.99266  Biso   1.000  C
  C186     1.0000 0.85115  0.27221  0.99554  Biso   1.000  C
  C187     1.0000 0.85115  0.27221  0.99558  Biso   1.000  C
  C188     1.0000 0.02706  0.76028  0.13900  Biso   1.000  C
  C189     1.0000 0.02542  0.63950  0.21974  Biso   1.000  C
  C190     1.0000 0.02706  0.76028  0.13905  Biso   1.000  C
  C191     1.0000 0.02542  0.63950  0.21978  Biso   1.000  C
  C192     1.0000 0.02711  0.76028  0.13900  Biso   1.000  C
  C193     1.0000 0.02547  0.63950  0.21974  Biso   1.000  C
  C194     1.0000 0.02711  0.76028  0.13905  Biso   1.000  C
  C195     1.0000 0.02547  0.63950  0.21978  Biso   1.000  C
  C196     1.0000 0.06342  0.47202  0.19258  Biso   1.000  C
  N159     1.0000 0.81325  0.47450  0.90050  Biso   1.000  N
  O58      1.0000 0.81325  0.65219  0.92833  Biso   1.000  O
  N160     1.0000 0.81329  0.47450  0.90050  Biso   1.000  N
  O59      1.0000 0.81329  0.65219  0.92833  Biso   1.000  O
  C197     1.0000 0.79402  0.37351  0.92678  Biso   1.000  C
  H195     1.0000 0.73279  0.38940  0.00041  Biso   1.000  H
  H196     1.0000 0.73284  0.38940  0.00041  Biso   1.000  H
  O60      1.0000 0.88455  0.20324  0.01517  Biso   1.000  O
  N161     1.0000 0.84236  0.29696  0.93526  Biso   1.000  N
  N162     1.0000 0.84236  0.29696  0.93530  Biso   1.000  N
  N163     1.0000 0.84241  0.29696  0.93526  Biso   1.000  N
  N164     1.0000 0.84241  0.29696  0.93530  Biso   1.000  N
  N165     1.0000 0.08543  0.72787  0.14725  Biso   1.000  N
  O61      1.0000 0.01002  0.82773  0.10210  Biso   1.000  O
  N166     1.0000 0.08543  0.72787  0.14730  Biso   1.000  N
  O62      1.0000 0.01002  0.82773  0.10215  Biso   1.000  O
  N167     1.0000 0.08547  0.72787  0.14725  Biso   1.000  N
  N168     1.0000 0.08547  0.72787  0.14730  Biso   1.000  N
  C198     1.0000 0.09148  0.65147  0.19636  Biso   1.000  C
  H197     1.0000 0.02169  0.66209  0.26229  Biso   1.000  H
  C199     1.0000 0.09148  0.65147  0.19641  Biso   1.000  C
  H198     1.0000 0.02169  0.66209  0.26234  Biso   1.000  H
  C200     1.0000 0.09153  0.65147  0.19636  Biso   1.000  C
  H199     1.0000 0.02173  0.66209  0.26229  Biso   1.000  H
  C201     1.0000 0.09153  0.65147  0.19641  Biso   1.000  C
  H200     1.0000 0.02173  0.66209  0.26234  Biso   1.000  H
  N169     1.0000 0.10830  0.54442  0.17759  Biso   1.000  N
  O63      1.0000 0.06775  0.37479  0.18853  Biso   1.000  O
  O64      1.0000 0.06775  0.37479  0.18857  Biso   1.000  O
  C202     1.0000 0.83011  0.48878  0.83699  Biso   1.000  C
  C203     1.0000 0.83011  0.48878  0.83703  Biso   1.000  C
  H201     1.0000 0.75972  0.34262  0.90441  Biso   1.000  H
  C204     1.0000 0.86419  0.22831  0.88697  Biso   1.000  C
  C205     1.0000 0.13581  0.77169  0.11303  Biso   1.000  C
  C206     1.0000 0.13581  0.77169  0.11308  Biso   1.000  C
  H202     1.0000 0.11859  0.67822  0.22839  Biso   1.000  H
  H203     1.0000 0.11859  0.67822  0.22844  Biso   1.000  H
  H204     1.0000 0.11864  0.67822  0.22839  Biso   1.000  H
  H205     1.0000 0.11864  0.67822  0.22844  Biso   1.000  H
  C207     1.0000 0.16989  0.51122  0.16301  Biso   1.000  C
  H206     1.0000 0.80190  0.44847  0.81188  Biso   1.000  H
  H207     1.0000 0.82560  0.56358  0.82651  Biso   1.000  H
  N170     1.0000 0.89170  0.45558  0.82241  Biso   1.000  N
  H208     1.0000 0.80190  0.44847  0.81193  Biso   1.000  H
  N171     1.0000 0.89170  0.45558  0.82245  Biso   1.000  N
  N172     1.0000 0.89175  0.45558  0.82241  Biso   1.000  N
  N173     1.0000 0.89175  0.45558  0.82245  Biso   1.000  N
  N174     1.0000 0.91457  0.27213  0.85275  Biso   1.000  N
  H209     1.0000 0.83079  0.21402  0.85922  Biso   1.000  H
  H210     1.0000 0.87671  0.16077  0.90451  Biso   1.000  H
  H211     1.0000 0.83084  0.21402  0.85922  Biso   1.000  H
  H212     1.0000 0.16921  0.78598  0.14078  Biso   1.000  H
  H213     1.0000 0.12329  0.83923  0.09549  Biso   1.000  H
  N175     1.0000 0.15764  0.70304  0.06474  Biso   1.000  N
  H214     1.0000 0.16921  0.78598  0.14083  Biso   1.000  H
  H215     1.0000 0.12329  0.83923  0.09554  Biso   1.000  H
  H216     1.0000 0.12333  0.83923  0.09549  Biso   1.000  H
  H217     1.0000 0.12333  0.83923  0.09554  Biso   1.000  H
  N176     1.0000 0.18675  0.52550  0.09950  Biso   1.000  N
  H218     1.0000 0.19810  0.55153  0.18812  Biso   1.000  H
  H219     1.0000 0.17440  0.43642  0.17349  Biso   1.000  H
  H220     1.0000 0.17440  0.43642  0.17354  Biso   1.000  H
  H221     1.0000 0.19814  0.55153  0.18812  Biso   1.000  H
  C208     1.0000 0.93658  0.52798  0.80742  Biso   1.000  C
  C209     1.0000 0.90852  0.34853  0.80364  Biso   1.000  C
  C210     1.0000 0.97294  0.23972  0.86100  Biso   1.000  C
  C211     1.0000 0.14885  0.72779  0.00446  Biso   1.000  C
  C212     1.0000 0.20598  0.62649  0.07322  Biso   1.000  C
  C213     1.0000 0.20598  0.62649  0.07326  Biso   1.000  C
  C214     1.0000 0.19431  0.44161  0.06014  Biso   1.000  C
  C215     1.0000 0.19431  0.44161  0.06018  Biso   1.000  C
  N177     1.0000 0.98633  0.47394  0.78710  Biso   1.000  N
  O65      1.0000 0.93225  0.62521  0.81147  Biso   1.000  O
  N178     1.0000 0.98633  0.47394  0.78714  Biso   1.000  N
  N179     1.0000 0.98638  0.47394  0.78710  Biso   1.000  N
  O66      1.0000 0.93230  0.62521  0.81147  Biso   1.000  O
  N180     1.0000 0.98638  0.47394  0.78714  Biso   1.000  N
  H222     1.0000 0.88141  0.32178  0.77161  Biso   1.000  H
  C216     1.0000 0.97458  0.36050  0.78026  Biso   1.000  C
  O67      1.0000 0.98998  0.17227  0.89790  Biso   1.000  O
  N181     1.0000 0.00957  0.29185  0.82072  Biso   1.000  N
  N182     1.0000 0.00957  0.29185  0.82077  Biso   1.000  N
  N183     1.0000 0.18525  0.66241  0.97066  Biso   1.000  N
  O68      1.0000 0.11545  0.79676  0.98483  Biso   1.000  O
  N184     1.0000 0.18525  0.66241  0.97070  Biso   1.000  N
  N185     1.0000 0.18529  0.66241  0.97066  Biso   1.000  N
  O69      1.0000 0.11550  0.79676  0.98483  Biso   1.000  O
  N186     1.0000 0.18529  0.66241  0.97070  Biso   1.000  N
  C217     1.0000 0.22411  0.59567  0.00734  Biso   1.000  C
  H223     1.0000 0.24028  0.65738  0.09559  Biso   1.000  H
  C218     1.0000 0.22411  0.59567  0.00738  Biso   1.000  C
  H224     1.0000 0.24028  0.65738  0.09563  Biso   1.000  H
  H225     1.0000 0.24033  0.65738  0.09559  Biso   1.000  H
  H226     1.0000 0.24033  0.65738  0.09563  Biso   1.000  H
  N187     1.0000 0.21163  0.48272  0.00460  Biso   1.000  N
  O70      1.0000 0.18675  0.34773  0.07167  Biso   1.000  O
  O71      1.0000 0.18675  0.34773  0.07171  Biso   1.000  O
  C219     1.0000 0.03982  0.52750  0.76322  Biso   1.000  C
  H227     1.0000 0.97831  0.33791  0.73771  Biso   1.000  H
  C220     1.0000 0.07381  0.27054  0.81503  Biso   1.000  C
  C221     1.0000 0.07381  0.27054  0.81507  Biso   1.000  C
  C222     1.0000 0.19053  0.67359  0.90546  Biso   1.000  C
  H228     1.0000 0.26721  0.61060  0.99959  Biso   1.000  H
  H229     1.0000 0.26721  0.61060  0.99964  Biso   1.000  H
  C223     1.0000 0.22807  0.41478  0.95412  Biso   1.000  C
  H230     1.0000 0.05230  0.49222  0.72591  Biso   1.000  H
  H231     1.0000 0.02902  0.60038  0.75297  Biso   1.000  H
  N188     1.0000 0.09103  0.52926  0.80500  Biso   1.000  N
  H232     1.0000 0.02902  0.60038  0.75302  Biso   1.000  H
  H233     1.0000 0.08420  0.26670  0.77211  Biso   1.000  H
  H234     1.0000 0.08251  0.20140  0.83289  Biso   1.000  H
  N189     1.0000 0.11217  0.35004  0.84396  Biso   1.000  N
  H235     1.0000 0.08251  0.20140  0.83293  Biso   1.000  H
  H236     1.0000 0.08424  0.26670  0.77211  Biso   1.000  H
  H237     1.0000 0.23322  0.66896  0.89430  Biso   1.000  H
  H238     1.0000 0.17600  0.74391  0.89380  Biso   1.000  H
  N190     1.0000 0.15677  0.59392  0.87170  Biso   1.000  N
  N191     1.0000 0.15677  0.59392  0.87175  Biso   1.000  N
  H239     1.0000 0.23350  0.34246  0.96902  Biso   1.000  H
  H240     1.0000 0.26680  0.43857  0.93781  Biso   1.000  H
  N192     1.0000 0.18365  0.41343  0.90537  Biso   1.000  N
  H241     1.0000 0.23354  0.34246  0.96902  Biso   1.000  H
  C224     1.0000 0.10711  0.61906  0.83685  Biso   1.000  C
  C225     1.0000 0.13440  0.44368  0.81220  Biso   1.000  C
  C226     1.0000 0.13440  0.44368  0.81225  Biso   1.000  C
  C227     1.0000 0.14634  0.32817  0.89503  Biso   1.000  C
  C228     1.0000 0.18192  0.49046  0.85612  Biso   1.000  C
  C229     1.0000 0.18192  0.49046  0.85617  Biso   1.000  C
  C230     1.0000 0.18197  0.49046  0.85612  Biso   1.000  C
  C231     1.0000 0.18197  0.49046  0.85617  Biso   1.000  C
  O72      1.0000 0.08164  0.70536  0.83439  Biso   1.000  O
  O73      1.0000 0.08169  0.70536  0.83439  Biso   1.000  O
  H242     1.0000 0.15290  0.42436  0.77311  Biso   1.000  H
  O74      1.0000 0.14351  0.24731  0.92560  Biso   1.000  O
  O75      1.0000 0.14351  0.24731  0.92565  Biso   1.000  O
  H243     1.0000 0.22179  0.49749  0.83648  Biso   1.000  H
  H244     1.0000 0.22179  0.49749  0.83653  Biso   1.000  H
  H245     1.0000 0.22183  0.49749  0.83648  Biso   1.000  H
  H246     1.0000 0.22183  0.49749  0.83653  Biso   1.000  H
  C232     1.0000 0.81808  0.50946  0.14388  Biso   1.000  C
  H247     1.0000 0.77821  0.50251  0.16352  Biso   1.000  H
  C233     1.0000 0.86560  0.55632  0.18780  Biso   1.000  C
  N193     1.0000 0.81635  0.58657  0.09463  Biso   1.000  N
  N194     1.0000 0.84323  0.40608  0.12830  Biso   1.000  N
  N195     1.0000 0.81635  0.58657  0.09467  Biso   1.000  N
  C234     1.0000 0.86564  0.55632  0.18780  Biso   1.000  C
  N196     1.0000 0.81639  0.58657  0.09463  Biso   1.000  N
  N197     1.0000 0.84327  0.40608  0.12830  Biso   1.000  N
  N198     1.0000 0.81639  0.58657  0.09467  Biso   1.000  N
  H248     1.0000 0.84710  0.57556  0.22689  Biso   1.000  H
  N199     1.0000 0.88783  0.64996  0.15604  Biso   1.000  N
  N200     1.0000 0.90897  0.47074  0.19500  Biso   1.000  N
  H249     1.0000 0.84710  0.57556  0.22694  Biso   1.000  H
  N201     1.0000 0.88783  0.64996  0.15609  Biso   1.000  N
  N202     1.0000 0.90897  0.47074  0.19504  Biso   1.000  N
  N203     1.0000 0.88788  0.64996  0.15604  Biso   1.000  N
  N204     1.0000 0.90902  0.47074  0.19500  Biso   1.000  N
  N205     1.0000 0.88788  0.64996  0.15609  Biso   1.000  N
  N206     1.0000 0.90902  0.47074  0.19504  Biso   1.000  N
  C235     1.0000 0.85366  0.67183  0.10497  Biso   1.000  C
  C236     1.0000 0.77193  0.58522  0.04588  Biso   1.000  C
  C237     1.0000 0.85366  0.67183  0.10502  Biso   1.000  C
  C238     1.0000 0.77193  0.58522  0.04592  Biso   1.000  C
  C239     1.0000 0.89289  0.38086  0.16315  Biso   1.000  C
  C240     1.0000 0.80947  0.32641  0.09454  Biso   1.000  C
  C241     1.0000 0.89289  0.38086  0.16320  Biso   1.000  C
  C242     1.0000 0.89293  0.38086  0.16315  Biso   1.000  C
  C243     1.0000 0.80951  0.32641  0.09454  Biso   1.000  C
  C244     1.0000 0.89293  0.38086  0.16320  Biso   1.000  C
  C245     1.0000 0.92619  0.72946  0.18497  Biso   1.000  C
  C246     1.0000 0.96018  0.47250  0.23678  Biso   1.000  C
  O76      1.0000 0.85649  0.75269  0.07440  Biso   1.000  O
  O77      1.0000 0.85653  0.75269  0.07440  Biso   1.000  O
  N207     1.0000 0.78837  0.51728  0.99540  Biso   1.000  N
  N208     1.0000 0.78837  0.51728  0.99544  Biso   1.000  N
  N209     1.0000 0.78842  0.51728  0.99540  Biso   1.000  N
  N210     1.0000 0.78842  0.51728  0.99544  Biso   1.000  N
  H250     1.0000 0.76650  0.65746  0.03098  Biso   1.000  H
  H251     1.0000 0.73320  0.56143  0.06219  Biso   1.000  H
  H252     1.0000 0.76650  0.65746  0.03103  Biso   1.000  H
  H253     1.0000 0.73320  0.56143  0.06224  Biso   1.000  H
  O78      1.0000 0.91836  0.29464  0.16561  Biso   1.000  O
  H254     1.0000 0.82400  0.25609  0.10620  Biso   1.000  H
  N211     1.0000 0.81475  0.33759  0.02934  Biso   1.000  N
  H255     1.0000 0.76678  0.33097  0.10570  Biso   1.000  H
  H256     1.0000 0.76682  0.33097  0.10570  Biso   1.000  H
  H257     1.0000 0.91580  0.73330  0.22789  Biso   1.000  H
  H258     1.0000 0.91749  0.79860  0.16711  Biso   1.000  H
  N212     1.0000 0.99043  0.70815  0.17928  Biso   1.000  N
  H259     1.0000 0.91580  0.73330  0.22794  Biso   1.000  H
  H260     1.0000 0.91754  0.79860  0.16711  Biso   1.000  H
  N213     1.0000 0.99048  0.70815  0.17928  Biso   1.000  N
  H261     1.0000 0.94770  0.50778  0.27409  Biso   1.000  H
  H262     1.0000 0.97098  0.39962  0.24703  Biso   1.000  H
  H263     1.0000 0.94770  0.50778  0.27414  Biso   1.000  H
  H264     1.0000 0.97102  0.39962  0.24703  Biso   1.000  H
  N214     1.0000 0.01367  0.52606  0.21290  Biso   1.000  N
  C247     1.0000 0.80569  0.55839  0.93986  Biso   1.000  C
  C248     1.0000 0.77589  0.40433  0.99266  Biso   1.000  C
  C249     1.0000 0.80573  0.55839  0.93986  Biso   1.000  C
  C250     1.0000 0.77594  0.40433  0.99266  Biso   1.000  C
  C251     1.0000 0.85115  0.27221  0.99554  Biso   1.000  C
  C252     1.0000 0.85115  0.27221  0.99558  Biso   1.000  C
  C253     1.0000 0.02706  0.76028  0.13900  Biso   1.000  C
  C254     1.0000 0.02542  0.63950  0.21974  Biso   1.000  C
  C255     1.0000 0.02706  0.76028  0.13905  Biso   1.000  C
  C256     1.0000 0.02542  0.63950  0.21978  Biso   1.000  C
  C257     1.0000 0.02711  0.76028  0.13900  Biso   1.000  C
  C258     1.0000 0.02547  0.63950  0.21974  Biso   1.000  C
  C259     1.0000 0.02711  0.76028  0.13905  Biso   1.000  C
  C260     1.0000 0.02547  0.63950  0.21978  Biso   1.000  C
  C261     1.0000 0.06342  0.47202  0.19258  Biso   1.000  C
  N215     1.0000 0.81325  0.47450  0.90050  Biso   1.000  N
  O79      1.0000 0.81325  0.65219  0.92833  Biso   1.000  O
  N216     1.0000 0.81329  0.47450  0.90050  Biso   1.000  N
  O80      1.0000 0.81329  0.65219  0.92833  Biso   1.000  O
  C262     1.0000 0.79402  0.37351  0.92678  Biso   1.000  C
  H265     1.0000 0.73279  0.38940  0.00041  Biso   1.000  H
  H266     1.0000 0.73284  0.38940  0.00041  Biso   1.000  H
  O81      1.0000 0.88455  0.20324  0.01517  Biso   1.000  O
  N217     1.0000 0.84236  0.29696  0.93526  Biso   1.000  N
  N218     1.0000 0.84236  0.29696  0.93530  Biso   1.000  N
  N219     1.0000 0.84241  0.29696  0.93526  Biso   1.000  N
  N220     1.0000 0.84241  0.29696  0.93530  Biso   1.000  N
  N221     1.0000 0.08543  0.72787  0.14725  Biso   1.000  N
  O82      1.0000 0.01002  0.82773  0.10210  Biso   1.000  O
  N222     1.0000 0.08543  0.72787  0.14730  Biso   1.000  N
  O83      1.0000 0.01002  0.82773  0.10215  Biso   1.000  O
  N223     1.0000 0.08547  0.72787  0.14725  Biso   1.000  N
  N224     1.0000 0.08547  0.72787  0.14730  Biso   1.000  N
  C263     1.0000 0.09148  0.65147  0.19636  Biso   1.000  C
  H267     1.0000 0.02169  0.66209  0.26229  Biso   1.000  H
  C264     1.0000 0.09148  0.65147  0.19641  Biso   1.000  C
  H268     1.0000 0.02169  0.66209  0.26234  Biso   1.000  H
  C265     1.0000 0.09153  0.65147  0.19636  Biso   1.000  C
  H269     1.0000 0.02173  0.66209  0.26229  Biso   1.000  H
  C266     1.0000 0.09153  0.65147  0.19641  Biso   1.000  C
  H270     1.0000 0.02173  0.66209  0.26234  Biso   1.000  H
  N225     1.0000 0.10830  0.54442  0.17759  Biso   1.000  N
  O84      1.0000 0.06775  0.37479  0.18853  Biso   1.000  O
  O85      1.0000 0.06775  0.37479  0.18857  Biso   1.000  O
  C267     1.0000 0.83011  0.48878  0.83699  Biso   1.000  C
  C268     1.0000 0.83011  0.48878  0.83703  Biso   1.000  C
  H271     1.0000 0.75972  0.34262  0.90441  Biso   1.000  H
  C269     1.0000 0.86419  0.22831  0.88697  Biso   1.000  C
  C270     1.0000 0.13581  0.77169  0.11303  Biso   1.000  C
  C271     1.0000 0.13581  0.77169  0.11308  Biso   1.000  C
  H272     1.0000 0.11859  0.67822  0.22839  Biso   1.000  H
  H273     1.0000 0.11859  0.67822  0.22844  Biso   1.000  H
  H274     1.0000 0.11864  0.67822  0.22839  Biso   1.000  H
  H275     1.0000 0.11864  0.67822  0.22844  Biso   1.000  H
  C272     1.0000 0.16989  0.51122  0.16301  Biso   1.000  C
  H276     1.0000 0.80190  0.44847  0.81188  Biso   1.000  H
  H277     1.0000 0.82560  0.56358  0.82651  Biso   1.000  H
  N226     1.0000 0.89170  0.45558  0.82241  Biso   1.000  N
  H278     1.0000 0.80190  0.44847  0.81193  Biso   1.000  H
  N227     1.0000 0.89170  0.45558  0.82245  Biso   1.000  N
  N228     1.0000 0.89175  0.45558  0.82241  Biso   1.000  N
  N229     1.0000 0.89175  0.45558  0.82245  Biso   1.000  N
  N230     1.0000 0.91457  0.27213  0.85275  Biso   1.000  N
  H279     1.0000 0.83079  0.21402  0.85922  Biso   1.000  H
  H280     1.0000 0.87671  0.16077  0.90451  Biso   1.000  H
  H281     1.0000 0.83084  0.21402  0.85922  Biso   1.000  H
  H282     1.0000 0.16921  0.78598  0.14078  Biso   1.000  H
  H283     1.0000 0.12329  0.83923  0.09549  Biso   1.000  H
  N231     1.0000 0.15764  0.70304  0.06474  Biso   1.000  N
  H284     1.0000 0.16921  0.78598  0.14083  Biso   1.000  H
  H285     1.0000 0.12329  0.83923  0.09554  Biso   1.000  H
  H286     1.0000 0.12333  0.83923  0.09549  Biso   1.000  H
  H287     1.0000 0.12333  0.83923  0.09554  Biso   1.000  H
  N232     1.0000 0.18675  0.52550  0.09950  Biso   1.000  N
  H288     1.0000 0.19810  0.55153  0.18812  Biso   1.000  H
  H289     1.0000 0.17440  0.43642  0.17349  Biso   1.000  H
  H290     1.0000 0.17440  0.43642  0.17354  Biso   1.000  H
  H291     1.0000 0.19814  0.55153  0.18812  Biso   1.000  H
  C273     1.0000 0.93658  0.52798  0.80742  Biso   1.000  C
  C274     1.0000 0.90852  0.34853  0.80364  Biso   1.000  C
  C275     1.0000 0.97294  0.23972  0.86100  Biso   1.000  C
  C276     1.0000 0.14885  0.72779  0.00446  Biso   1.000  C
  C277     1.0000 0.20598  0.62649  0.07322  Biso   1.000  C
  C278     1.0000 0.20598  0.62649  0.07326  Biso   1.000  C
  C279     1.0000 0.19431  0.44161  0.06014  Biso   1.000  C
  C280     1.0000 0.19431  0.44161  0.06018  Biso   1.000  C
  N233     1.0000 0.98633  0.47394  0.78710  Biso   1.000  N
  O86      1.0000 0.93225  0.62521  0.81147  Biso   1.000  O
  N234     1.0000 0.98633  0.47394  0.78714  Biso   1.000  N
  N235     1.0000 0.98638  0.47394  0.78710  Biso   1.000  N
  O87      1.0000 0.93230  0.62521  0.81147  Biso   1.000  O
  N236     1.0000 0.98638  0.47394  0.78714  Biso   1.000  N
  H292     1.0000 0.88141  0.32178  0.77161  Biso   1.000  H
  C281     1.0000 0.97458  0.36050  0.78026  Biso   1.000  C
  O88      1.0000 0.98998  0.17227  0.89790  Biso   1.000  O
  N237     1.0000 0.00957  0.29185  0.82072  Biso   1.000  N
  N238     1.0000 0.00957  0.29185  0.82077  Biso   1.000  N
  N239     1.0000 0.18525  0.66241  0.97066  Biso   1.000  N
  O89      1.0000 0.11545  0.79676  0.98483  Biso   1.000  O
  N240     1.0000 0.18525  0.66241  0.97070  Biso   1.000  N
  N241     1.0000 0.18529  0.66241  0.97066  Biso   1.000  N
  O90      1.0000 0.11550  0.79676  0.98483  Biso   1.000  O
  N242     1.0000 0.18529  0.66241  0.97070  Biso   1.000  N
  C282     1.0000 0.22411  0.59567  0.00734  Biso   1.000  C
  H293     1.0000 0.24028  0.65738  0.09559  Biso   1.000  H
  C283     1.0000 0.22411  0.59567  0.00738  Biso   1.000  C
  H294     1.0000 0.24028  0.65738  0.09563  Biso   1.000  H
  H295     1.0000 0.24033  0.65738  0.09559  Biso   1.000  H
  H296     1.0000 0.24033  0.65738  0.09563  Biso   1.000  H
  N243     1.0000 0.21163  0.48272  0.00460  Biso   1.000  N
  O91      1.0000 0.18675  0.34773  0.07167  Biso   1.000  O
  O92      1.0000 0.18675  0.34773  0.07171  Biso   1.000  O
  C284     1.0000 0.03982  0.52750  0.76322  Biso   1.000  C
  H297     1.0000 0.97831  0.33791  0.73771  Biso   1.000  H
  C285     1.0000 0.07381  0.27054  0.81503  Biso   1.000  C
  C286     1.0000 0.07381  0.27054  0.81507  Biso   1.000  C
  C287     1.0000 0.19053  0.67359  0.90546  Biso   1.000  C
  H298     1.0000 0.26721  0.61060  0.99959  Biso   1.000  H
  H299     1.0000 0.26721  0.61060  0.99964  Biso   1.000  H
  C288     1.0000 0.22807  0.41478  0.95412  Biso   1.000  C
  H300     1.0000 0.05230  0.49222  0.72591  Biso   1.000  H
  H301     1.0000 0.02902  0.60038  0.75297  Biso   1.000  H
  N244     1.0000 0.09103  0.52926  0.80500  Biso   1.000  N
  H302     1.0000 0.02902  0.60038  0.75302  Biso   1.000  H
  H303     1.0000 0.08420  0.26670  0.77211  Biso   1.000  H
  H304     1.0000 0.08251  0.20140  0.83289  Biso   1.000  H
  N245     1.0000 0.11217  0.35004  0.84396  Biso   1.000  N
  H305     1.0000 0.08251  0.20140  0.83293  Biso   1.000  H
  H306     1.0000 0.08424  0.26670  0.77211  Biso   1.000  H
  H307     1.0000 0.23322  0.66896  0.89430  Biso   1.000  H
  H308     1.0000 0.17600  0.74391  0.89380  Biso   1.000  H
  N246     1.0000 0.15677  0.59392  0.87170  Biso   1.000  N
  N247     1.0000 0.15677  0.59392  0.87175  Biso   1.000  N
  H309     1.0000 0.23350  0.34246  0.96902  Biso   1.000  H
  H310     1.0000 0.26680  0.43857  0.93781  Biso   1.000  H
  N248     1.0000 0.18365  0.41343  0.90537  Biso   1.000  N
  H311     1.0000 0.23354  0.34246  0.96902  Biso   1.000  H
  C289     1.0000 0.10711  0.61906  0.83685  Biso   1.000  C
  C290     1.0000 0.13440  0.44368  0.81220  Biso   1.000  C
  C291     1.0000 0.13440  0.44368  0.81225  Biso   1.000  C
  C292     1.0000 0.14634  0.32817  0.89503  Biso   1.000  C
  C293     1.0000 0.18192  0.49046  0.85612  Biso   1.000  C
  C294     1.0000 0.18192  0.49046  0.85617  Biso   1.000  C
  C295     1.0000 0.18197  0.49046  0.85612  Biso   1.000  C
  C296     1.0000 0.18197  0.49046  0.85617  Biso   1.000  C
  O93      1.0000 0.08164  0.70536  0.83439  Biso   1.000  O
  O94      1.0000 0.08169  0.70536  0.83439  Biso   1.000  O
  H312     1.0000 0.15290  0.42436  0.77311  Biso   1.000  H
  O95      1.0000 0.14351  0.24731  0.92560  Biso   1.000  O
  O96      1.0000 0.14351  0.24731  0.92565  Biso   1.000  O
  H313     1.0000 0.22179  0.49749  0.83648  Biso   1.000  H
  H314     1.0000 0.22179  0.49749  0.83653  Biso   1.000  H
  H315     1.0000 0.22183  0.49749  0.83648  Biso   1.000  H
  H316     1.0000 0.22183  0.49749  0.83653  Biso   1.000  H
  C297     1.0000 0.57383  0.22950  0.18497  Biso   1.000  C
  N249     1.0000 0.50954  0.20819  0.17928  Biso   1.000  N
  H317     1.0000 0.58422  0.23334  0.22789  Biso   1.000  H
  H318     1.0000 0.58253  0.29863  0.16711  Biso   1.000  H
  N250     1.0000 0.61219  0.14992  0.15604  Biso   1.000  N
  H319     1.0000 0.58422  0.23334  0.22794  Biso   1.000  H
  N251     1.0000 0.61219  0.14992  0.15609  Biso   1.000  N
  H320     1.0000 0.58422  0.23326  0.22789  Biso   1.000  H
  H321     1.0000 0.58253  0.29856  0.16711  Biso   1.000  H
  H322     1.0000 0.58422  0.23326  0.22794  Biso   1.000  H
  C298     1.0000 0.47460  0.13954  0.21974  Biso   1.000  C
  C299     1.0000 0.47460  0.13954  0.21978  Biso   1.000  C
  C300     1.0000 0.47291  0.26032  0.13900  Biso   1.000  C
  C301     1.0000 0.47291  0.26032  0.13905  Biso   1.000  C
  C302     1.0000 0.64636  0.17179  0.10497  Biso   1.000  C
  C303     1.0000 0.63438  0.05628  0.18780  Biso   1.000  C
  C304     1.0000 0.64636  0.17179  0.10502  Biso   1.000  C
  C305     1.0000 0.40849  0.15151  0.19641  Biso   1.000  C
  C306     1.0000 0.40849  0.15151  0.19636  Biso   1.000  C
  H323     1.0000 0.47829  0.16213  0.26229  Biso   1.000  H
  N252     1.0000 0.48635  0.02602  0.21290  Biso   1.000  N
  H324     1.0000 0.47829  0.16213  0.26234  Biso   1.000  H
  N253     1.0000 0.41460  0.22791  0.14725  Biso   1.000  N
  N254     1.0000 0.41460  0.22791  0.14730  Biso   1.000  N
  N255     1.0000 0.41460  0.22783  0.14725  Biso   1.000  N
  N256     1.0000 0.41460  0.22783  0.14730  Biso   1.000  N
  O97      1.0000 0.49000  0.32769  0.10210  Biso   1.000  O
  O98      1.0000 0.49000  0.32769  0.10215  Biso   1.000  O
  N257     1.0000 0.68363  0.08661  0.09463  Biso   1.000  N
  O99      1.0000 0.64349  0.25265  0.07440  Biso   1.000  O
  N258     1.0000 0.68363  0.08661  0.09467  Biso   1.000  N
  N259     1.0000 0.68363  0.08653  0.09463  Biso   1.000  N
  N260     1.0000 0.68363  0.08653  0.09467  Biso   1.000  N
  N261     1.0000 0.59101  0.97070  0.19500  Biso   1.000  N
  N262     1.0000 0.59101  0.97070  0.19504  Biso   1.000  N
  H325     1.0000 0.65292  0.07560  0.22689  Biso   1.000  H
  C307     1.0000 0.68194  0.00950  0.14388  Biso   1.000  C
  H326     1.0000 0.65292  0.07560  0.22694  Biso   1.000  H
  H327     1.0000 0.38143  0.17818  0.22839  Biso   1.000  H
  N263     1.0000 0.39173  0.04438  0.17759  Biso   1.000  N
  H328     1.0000 0.38143  0.17818  0.22844  Biso   1.000  H
  C308     1.0000 0.43660  0.97198  0.19258  Biso   1.000  C
  C309     1.0000 0.53984  0.97254  0.23678  Biso   1.000  C
  C310     1.0000 0.53984  0.97246  0.23678  Biso   1.000  C
  C311     1.0000 0.36421  0.27173  0.11303  Biso   1.000  C
  C312     1.0000 0.36421  0.27173  0.11308  Biso   1.000  C
  C313     1.0000 0.36421  0.27165  0.11303  Biso   1.000  C
  C314     1.0000 0.36421  0.27165  0.11308  Biso   1.000  C
  C315     1.0000 0.72810  0.08518  0.04588  Biso   1.000  C
  C316     1.0000 0.72810  0.08518  0.04592  Biso   1.000  C
  C317     1.0000 0.60709  0.88090  0.16315  Biso   1.000  C
  C318     1.0000 0.60709  0.88090  0.16320  Biso   1.000  C
  N264     1.0000 0.65675  0.90604  0.12830  Biso   1.000  N
  H329     1.0000 0.72181  0.00247  0.16352  Biso   1.000  H
  C319     1.0000 0.33013  0.01118  0.16301  Biso   1.000  C
  O100     1.0000 0.43227  0.87483  0.18853  Biso   1.000  O
  O101     1.0000 0.43227  0.87483  0.18857  Biso   1.000  O
  H330     1.0000 0.55233  0.00782  0.27409  Biso   1.000  H
  H331     1.0000 0.55233  0.00782  0.27414  Biso   1.000  H
  H332     1.0000 0.52900  0.89958  0.24703  Biso   1.000  H
  H333     1.0000 0.33081  0.28602  0.14078  Biso   1.000  H
  H334     1.0000 0.37669  0.33919  0.09549  Biso   1.000  H
  N265     1.0000 0.34238  0.20300  0.06474  Biso   1.000  N
  H335     1.0000 0.33081  0.28602  0.14083  Biso   1.000  H
  H336     1.0000 0.37669  0.33919  0.09554  Biso   1.000  H
  H337     1.0000 0.73352  0.15750  0.03098  Biso   1.000  H
  H338     1.0000 0.76682  0.06139  0.06219  Biso   1.000  H
  H339     1.0000 0.73352  0.15750  0.03103  Biso   1.000  H
  H340     1.0000 0.76682  0.06139  0.06224  Biso   1.000  H
  N266     1.0000 0.71160  0.01724  0.99540  Biso   1.000  N
  N267     1.0000 0.71160  0.01724  0.99544  Biso   1.000  N
  O102     1.0000 0.58167  0.79460  0.16561  Biso   1.000  O
  C320     1.0000 0.69051  0.82638  0.09454  Biso   1.000  C
  H341     1.0000 0.30193  0.05149  0.18812  Biso   1.000  H
  N268     1.0000 0.31327  0.02546  0.09950  Biso   1.000  N
  H342     1.0000 0.32562  0.93638  0.17349  Biso   1.000  H
  H343     1.0000 0.32562  0.93638  0.17354  Biso   1.000  H
  C321     1.0000 0.35118  0.22783  0.00446  Biso   1.000  C
  C322     1.0000 0.29405  0.12653  0.07322  Biso   1.000  C
  C323     1.0000 0.29405  0.12653  0.07326  Biso   1.000  C
  C324     1.0000 0.72413  0.90429  0.99266  Biso   1.000  C
  C325     1.0000 0.69429  0.05843  0.93986  Biso   1.000  C
  C326     1.0000 0.69429  0.05835  0.93986  Biso   1.000  C
  H344     1.0000 0.73320  0.83101  0.10570  Biso   1.000  H
  H345     1.0000 0.67602  0.75613  0.10620  Biso   1.000  H
  N269     1.0000 0.68527  0.83763  0.02934  Biso   1.000  N
  C327     1.0000 0.30571  0.94157  0.06014  Biso   1.000  C
  C328     1.0000 0.30571  0.94157  0.06018  Biso   1.000  C
  N270     1.0000 0.31478  0.16237  0.97066  Biso   1.000  N
  O103     1.0000 0.38453  0.29680  0.98483  Biso   1.000  O
  N271     1.0000 0.31478  0.16237  0.97070  Biso   1.000  N
  C329     1.0000 0.27591  0.09571  0.00734  Biso   1.000  C
  H346     1.0000 0.25969  0.15742  0.09559  Biso   1.000  H
  C330     1.0000 0.27591  0.09571  0.00738  Biso   1.000  C
  H347     1.0000 0.25969  0.15742  0.09563  Biso   1.000  H
  C331     1.0000 0.70600  0.87347  0.92678  Biso   1.000  C
  H348     1.0000 0.76723  0.88944  0.00041  Biso   1.000  H
  H349     1.0000 0.76723  0.88936  0.00041  Biso   1.000  H
  N272     1.0000 0.68677  0.97454  0.90050  Biso   1.000  N
  O104     1.0000 0.68673  0.15223  0.92833  Biso   1.000  O
  C332     1.0000 0.64887  0.77217  0.99554  Biso   1.000  C
  C333     1.0000 0.64887  0.77217  0.99558  Biso   1.000  C
  N273     1.0000 0.28840  0.98276  0.00460  Biso   1.000  N
  O105     1.0000 0.31327  0.84777  0.07167  Biso   1.000  O
  O106     1.0000 0.31327  0.84777  0.07171  Biso   1.000  O
  C334     1.0000 0.30949  0.17362  0.90546  Biso   1.000  C
  H350     1.0000 0.23281  0.11056  0.99959  Biso   1.000  H
  H351     1.0000 0.23281  0.11056  0.99964  Biso   1.000  H
  N274     1.0000 0.65766  0.79700  0.93526  Biso   1.000  N
  N275     1.0000 0.65766  0.79700  0.93530  Biso   1.000  N
  N276     1.0000 0.65766  0.79692  0.93526  Biso   1.000  N
  N277     1.0000 0.65766  0.79692  0.93530  Biso   1.000  N
  H352     1.0000 0.74031  0.84258  0.90441  Biso   1.000  H
  C335     1.0000 0.66992  0.98882  0.83699  Biso   1.000  C
  C336     1.0000 0.66992  0.98882  0.83703  Biso   1.000  C
  O107     1.0000 0.61547  0.70320  0.01517  Biso   1.000  O
  C337     1.0000 0.27195  0.91482  0.95412  Biso   1.000  C
  H353     1.0000 0.26680  0.16899  0.89430  Biso   1.000  H
  H354     1.0000 0.32402  0.24387  0.89380  Biso   1.000  H
  N278     1.0000 0.34325  0.09396  0.87170  Biso   1.000  N
  N279     1.0000 0.34325  0.09396  0.87175  Biso   1.000  N
  N280     1.0000 0.34325  0.09388  0.87170  Biso   1.000  N
  N281     1.0000 0.34325  0.09388  0.87175  Biso   1.000  N
  C338     1.0000 0.63584  0.72827  0.88697  Biso   1.000  C
  H355     1.0000 0.69812  0.94851  0.81188  Biso   1.000  H
  N282     1.0000 0.60827  0.95562  0.82241  Biso   1.000  N
  H356     1.0000 0.69812  0.94851  0.81193  Biso   1.000  H
  N283     1.0000 0.60827  0.95562  0.82245  Biso   1.000  N
  H357     1.0000 0.67443  0.06362  0.82651  Biso   1.000  H
  H358     1.0000 0.26653  0.84250  0.96902  Biso   1.000  H
  H359     1.0000 0.23322  0.93861  0.93781  Biso   1.000  H
  N284     1.0000 0.31637  0.91339  0.90537  Biso   1.000  N
  C339     1.0000 0.31806  0.99050  0.85612  Biso   1.000  C
  C340     1.0000 0.31806  0.99050  0.85617  Biso   1.000  C
  C341     1.0000 0.39291  0.11910  0.83685  Biso   1.000  C
  H360     1.0000 0.66923  0.71398  0.85922  Biso   1.000  H
  H361     1.0000 0.62331  0.66081  0.90451  Biso   1.000  H
  N285     1.0000 0.58545  0.77209  0.85275  Biso   1.000  N
  C342     1.0000 0.56344  0.02802  0.80742  Biso   1.000  C
  C343     1.0000 0.59151  0.84849  0.80364  Biso   1.000  C
  C344     1.0000 0.35368  0.82821  0.89503  Biso   1.000  C
  C345     1.0000 0.36562  0.94372  0.81220  Biso   1.000  C
  H362     1.0000 0.27819  0.99753  0.83648  Biso   1.000  H
  C346     1.0000 0.36562  0.94372  0.81225  Biso   1.000  C
  H363     1.0000 0.27819  0.99753  0.83653  Biso   1.000  H
  N286     1.0000 0.40899  0.02930  0.80500  Biso   1.000  N
  O108     1.0000 0.41833  0.20540  0.83439  Biso   1.000  O
  C347     1.0000 0.52709  0.73968  0.86100  Biso   1.000  C
  N287     1.0000 0.51365  0.97398  0.78710  Biso   1.000  N
  N288     1.0000 0.51365  0.97398  0.78714  Biso   1.000  N
  N289     1.0000 0.51365  0.97390  0.78710  Biso   1.000  N
  N290     1.0000 0.51365  0.97390  0.78714  Biso   1.000  N
  O109     1.0000 0.56777  0.12517  0.81147  Biso   1.000  O
  C348     1.0000 0.52545  0.86046  0.78026  Biso   1.000  C
  H364     1.0000 0.61862  0.82182  0.77161  Biso   1.000  H
  N291     1.0000 0.38785  0.85008  0.84396  Biso   1.000  N
  O110     1.0000 0.35651  0.74735  0.92560  Biso   1.000  O
  O111     1.0000 0.35651  0.74735  0.92565  Biso   1.000  O
  O112     1.0000 0.35651  0.74727  0.92560  Biso   1.000  O
  O113     1.0000 0.35651  0.74727  0.92565  Biso   1.000  O
  H365     1.0000 0.34712  0.92440  0.77311  Biso   1.000  H
  C349     1.0000 0.46020  0.02746  0.76322  Biso   1.000  C
  N292     1.0000 0.49046  0.79181  0.82072  Biso   1.000  N
  N293     1.0000 0.49046  0.79181  0.82077  Biso   1.000  N
  O114     1.0000 0.51005  0.67231  0.89790  Biso   1.000  O
  H366     1.0000 0.52171  0.83787  0.73771  Biso   1.000  H
  C350     1.0000 0.42622  0.77050  0.81503  Biso   1.000  C
  C351     1.0000 0.42622  0.77050  0.81507  Biso   1.000  C
  H367     1.0000 0.44772  0.99218  0.72591  Biso   1.000  H
  H368     1.0000 0.47100  0.10042  0.75297  Biso   1.000  H
  H369     1.0000 0.47100  0.10042  0.75302  Biso   1.000  H
  H370     1.0000 0.41583  0.76666  0.77211  Biso   1.000  H
  H371     1.0000 0.41751  0.70137  0.83289  Biso   1.000  H
  H372     1.0000 0.41751  0.70137  0.83293  Biso   1.000  H
  C352     1.0000 0.57383  0.22950  0.18497  Biso   1.000  C
  N294     1.0000 0.50954  0.20819  0.17928  Biso   1.000  N
  H373     1.0000 0.58253  0.29863  0.16711  Biso   1.000  H
  N295     1.0000 0.61219  0.14992  0.15604  Biso   1.000  N
  H374     1.0000 0.58253  0.29856  0.16711  Biso   1.000  H
  N296     1.0000 0.61219  0.14992  0.15609  Biso   1.000  N
  H375     1.0000 0.58422  0.23334  0.22789  Biso   1.000  H
  H376     1.0000 0.58422  0.23334  0.22794  Biso   1.000  H
  H377     1.0000 0.58422  0.23326  0.22789  Biso   1.000  H
  H378     1.0000 0.58422  0.23326  0.22794  Biso   1.000  H
  C353     1.0000 0.47460  0.13954  0.21974  Biso   1.000  C
  C354     1.0000 0.47460  0.13954  0.21978  Biso   1.000  C
  C355     1.0000 0.47291  0.26032  0.13900  Biso   1.000  C
  C356     1.0000 0.47291  0.26032  0.13905  Biso   1.000  C
  C357     1.0000 0.63438  0.05628  0.18780  Biso   1.000  C
  C358     1.0000 0.64636  0.17179  0.10497  Biso   1.000  C
  C359     1.0000 0.64636  0.17179  0.10502  Biso   1.000  C
  C360     1.0000 0.40849  0.15151  0.19641  Biso   1.000  C
  C361     1.0000 0.40849  0.15151  0.19636  Biso   1.000  C
  N297     1.0000 0.48635  0.02602  0.21290  Biso   1.000  N
  H379     1.0000 0.47829  0.16213  0.26229  Biso   1.000  H
  H380     1.0000 0.47829  0.16213  0.26234  Biso   1.000  H
  N298     1.0000 0.41460  0.22791  0.14725  Biso   1.000  N
  N299     1.0000 0.41460  0.22791  0.14730  Biso   1.000  N
  N300     1.0000 0.41460  0.22783  0.14725  Biso   1.000  N
  N301     1.0000 0.41460  0.22783  0.14730  Biso   1.000  N
  O115     1.0000 0.49000  0.32769  0.10210  Biso   1.000  O
  O116     1.0000 0.49000  0.32769  0.10215  Biso   1.000  O
  N302     1.0000 0.59101  0.97070  0.19500  Biso   1.000  N
  N303     1.0000 0.59101  0.97070  0.19504  Biso   1.000  N
  C362     1.0000 0.68194  0.00950  0.14388  Biso   1.000  C
  H381     1.0000 0.65292  0.07560  0.22689  Biso   1.000  H
  H382     1.0000 0.65292  0.07560  0.22694  Biso   1.000  H
  O117     1.0000 0.64349  0.25265  0.07440  Biso   1.000  O
  N304     1.0000 0.68363  0.08661  0.09463  Biso   1.000  N
  N305     1.0000 0.68363  0.08661  0.09467  Biso   1.000  N
  N306     1.0000 0.68363  0.08653  0.09463  Biso   1.000  N
  N307     1.0000 0.68363  0.08653  0.09467  Biso   1.000  N
  N308     1.0000 0.39173  0.04438  0.17759  Biso   1.000  N
  H383     1.0000 0.38143  0.17818  0.22839  Biso   1.000  H
  H384     1.0000 0.38143  0.17818  0.22844  Biso   1.000  H
  C363     1.0000 0.43660  0.97198  0.19258  Biso   1.000  C
  C364     1.0000 0.53984  0.97254  0.23678  Biso   1.000  C
  C365     1.0000 0.53984  0.97246  0.23678  Biso   1.000  C
  C366     1.0000 0.36421  0.27173  0.11303  Biso   1.000  C
  C367     1.0000 0.36421  0.27173  0.11308  Biso   1.000  C
  C368     1.0000 0.36421  0.27165  0.11303  Biso   1.000  C
  C369     1.0000 0.36421  0.27165  0.11308  Biso   1.000  C
  C370     1.0000 0.60709  0.88090  0.16315  Biso   1.000  C
  C371     1.0000 0.60709  0.88090  0.16320  Biso   1.000  C
  N309     1.0000 0.65675  0.90604  0.12830  Biso   1.000  N
  H385     1.0000 0.72181  0.00247  0.16352  Biso   1.000  H
  C372     1.0000 0.72810  0.08518  0.04588  Biso   1.000  C
  C373     1.0000 0.72810  0.08518  0.04592  Biso   1.000  C
  C374     1.0000 0.33013  0.01118  0.16301  Biso   1.000  C
  O118     1.0000 0.43227  0.87483  0.18853  Biso   1.000  O
  O119     1.0000 0.43227  0.87483  0.18857  Biso   1.000  O
  H386     1.0000 0.55233  0.00782  0.27409  Biso   1.000  H
  H387     1.0000 0.55233  0.00782  0.27414  Biso   1.000  H
  H388     1.0000 0.52900  0.89958  0.24703  Biso   1.000  H
  N310     1.0000 0.34238  0.20300  0.06474  Biso   1.000  N
  H389     1.0000 0.33081  0.28602  0.14078  Biso   1.000  H
  H390     1.0000 0.37669  0.33919  0.09549  Biso   1.000  H
  H391     1.0000 0.33081  0.28602  0.14083  Biso   1.000  H
  H392     1.0000 0.37669  0.33919  0.09554  Biso   1.000  H
  O120     1.0000 0.58167  0.79460  0.16561  Biso   1.000  O
  C375     1.0000 0.69051  0.82638  0.09454  Biso   1.000  C
  H393     1.0000 0.73352  0.15750  0.03098  Biso   1.000  H
  H394     1.0000 0.76682  0.06139  0.06219  Biso   1.000  H
  H395     1.0000 0.73352  0.15750  0.03103  Biso   1.000  H
  H396     1.0000 0.76682  0.06139  0.06224  Biso   1.000  H
  N311     1.0000 0.71160  0.01724  0.99540  Biso   1.000  N
  N312     1.0000 0.71160  0.01724  0.99544  Biso   1.000  N
  H397     1.0000 0.30193  0.05149  0.18812  Biso   1.000  H
  N313     1.0000 0.31327  0.02546  0.09950  Biso   1.000  N
  H398     1.0000 0.32562  0.93638  0.17349  Biso   1.000  H
  H399     1.0000 0.32562  0.93638  0.17354  Biso   1.000  H
  C376     1.0000 0.29405  0.12653  0.07322  Biso   1.000  C
  C377     1.0000 0.29405  0.12653  0.07326  Biso   1.000  C
  C378     1.0000 0.35118  0.22783  0.00446  Biso   1.000  C
  H400     1.0000 0.73320  0.83101  0.10570  Biso   1.000  H
  H401     1.0000 0.67602  0.75613  0.10620  Biso   1.000  H
  N314     1.0000 0.68527  0.83763  0.02934  Biso   1.000  N
  C379     1.0000 0.72413  0.90429  0.99266  Biso   1.000  C
  C380     1.0000 0.69429  0.05843  0.93986  Biso   1.000  C
  C381     1.0000 0.69429  0.05835  0.93986  Biso   1.000  C
  C382     1.0000 0.30571  0.94157  0.06014  Biso   1.000  C
  C383     1.0000 0.30571  0.94157  0.06018  Biso   1.000  C
  C384     1.0000 0.27591  0.09571  0.00734  Biso   1.000  C
  H402     1.0000 0.25969  0.15742  0.09559  Biso   1.000  H
  C385     1.0000 0.27591  0.09571  0.00738  Biso   1.000  C
  H403     1.0000 0.25969  0.15742  0.09563  Biso   1.000  H
  N315     1.0000 0.31478  0.16237  0.97066  Biso   1.000  N
  O121     1.0000 0.38453  0.29680  0.98483  Biso   1.000  O
  N316     1.0000 0.31478  0.16237  0.97070  Biso   1.000  N
  C386     1.0000 0.64887  0.77217  0.99554  Biso   1.000  C
  C387     1.0000 0.64887  0.77217  0.99558  Biso   1.000  C
  C388     1.0000 0.70600  0.87347  0.92678  Biso   1.000  C
  H404     1.0000 0.76723  0.88944  0.00041  Biso   1.000  H
  H405     1.0000 0.76723  0.88936  0.00041  Biso   1.000  H
  N317     1.0000 0.68677  0.97454  0.90050  Biso   1.000  N
  O122     1.0000 0.68673  0.15223  0.92833  Biso   1.000  O
  N318     1.0000 0.28840  0.98276  0.00460  Biso   1.000  N
  O123     1.0000 0.31327  0.84777  0.07167  Biso   1.000  O
  O124     1.0000 0.31327  0.84777  0.07171  Biso   1.000  O
  H406     1.0000 0.23281  0.11056  0.99959  Biso   1.000  H
  H407     1.0000 0.23281  0.11056  0.99964  Biso   1.000  H
  C389     1.0000 0.30949  0.17362  0.90546  Biso   1.000  C
  N319     1.0000 0.65766  0.79700  0.93526  Biso   1.000  N
  N320     1.0000 0.65766  0.79700  0.93530  Biso   1.000  N
  N321     1.0000 0.65766  0.79692  0.93526  Biso   1.000  N
  N322     1.0000 0.65766  0.79692  0.93530  Biso   1.000  N
  O125     1.0000 0.61547  0.70320  0.01517  Biso   1.000  O
  H408     1.0000 0.74031  0.84258  0.90441  Biso   1.000  H
  C390     1.0000 0.66992  0.98882  0.83699  Biso   1.000  C
  C391     1.0000 0.66992  0.98882  0.83703  Biso   1.000  C
  C392     1.0000 0.27195  0.91482  0.95412  Biso   1.000  C
  H409     1.0000 0.26680  0.16899  0.89430  Biso   1.000  H
  H410     1.0000 0.32402  0.24387  0.89380  Biso   1.000  H
  N323     1.0000 0.34325  0.09396  0.87170  Biso   1.000  N
  N324     1.0000 0.34325  0.09396  0.87175  Biso   1.000  N
  N325     1.0000 0.34325  0.09388  0.87170  Biso   1.000  N
  N326     1.0000 0.34325  0.09388  0.87175  Biso   1.000  N
  C393     1.0000 0.63584  0.72827  0.88697  Biso   1.000  C
  H411     1.0000 0.69812  0.94851  0.81188  Biso   1.000  H
  N327     1.0000 0.60827  0.95562  0.82241  Biso   1.000  N
  H412     1.0000 0.69812  0.94851  0.81193  Biso   1.000  H
  N328     1.0000 0.60827  0.95562  0.82245  Biso   1.000  N
  H413     1.0000 0.67443  0.06362  0.82651  Biso   1.000  H
  H414     1.0000 0.26653  0.84250  0.96902  Biso   1.000  H
  H415     1.0000 0.23322  0.93861  0.93781  Biso   1.000  H
  N329     1.0000 0.31637  0.91339  0.90537  Biso   1.000  N
  C394     1.0000 0.31806  0.99050  0.85612  Biso   1.000  C
  C395     1.0000 0.31806  0.99050  0.85617  Biso   1.000  C
  C396     1.0000 0.39291  0.11910  0.83685  Biso   1.000  C
  H416     1.0000 0.66923  0.71398  0.85922  Biso   1.000  H
  H417     1.0000 0.62331  0.66081  0.90451  Biso   1.000  H
  N330     1.0000 0.58545  0.77209  0.85275  Biso   1.000  N
  C397     1.0000 0.56344  0.02802  0.80742  Biso   1.000  C
  C398     1.0000 0.59151  0.84849  0.80364  Biso   1.000  C
  C399     1.0000 0.35368  0.82821  0.89503  Biso   1.000  C
  C400     1.0000 0.36562  0.94372  0.81220  Biso   1.000  C
  H418     1.0000 0.27819  0.99753  0.83648  Biso   1.000  H
  C401     1.0000 0.36562  0.94372  0.81225  Biso   1.000  C
  H419     1.0000 0.27819  0.99753  0.83653  Biso   1.000  H
  N331     1.0000 0.40899  0.02930  0.80500  Biso   1.000  N
  O126     1.0000 0.41833  0.20540  0.83439  Biso   1.000  O
  C402     1.0000 0.52709  0.73968  0.86100  Biso   1.000  C
  N332     1.0000 0.51365  0.97398  0.78710  Biso   1.000  N
  N333     1.0000 0.51365  0.97398  0.78714  Biso   1.000  N
  N334     1.0000 0.51365  0.97390  0.78710  Biso   1.000  N
  N335     1.0000 0.51365  0.97390  0.78714  Biso   1.000  N
  O127     1.0000 0.56777  0.12517  0.81147  Biso   1.000  O
  C403     1.0000 0.52545  0.86046  0.78026  Biso   1.000  C
  H420     1.0000 0.61862  0.82182  0.77161  Biso   1.000  H
  N336     1.0000 0.38785  0.85008  0.84396  Biso   1.000  N
  O128     1.0000 0.35651  0.74735  0.92560  Biso   1.000  O
  O129     1.0000 0.35651  0.74735  0.92565  Biso   1.000  O
  O130     1.0000 0.35651  0.74727  0.92560  Biso   1.000  O
  O131     1.0000 0.35651  0.74727  0.92565  Biso   1.000  O
  H421     1.0000 0.34712  0.92440  0.77311  Biso   1.000  H
  C404     1.0000 0.46020  0.02746  0.76322  Biso   1.000  C
  N337     1.0000 0.49046  0.79181  0.82072  Biso   1.000  N
  N338     1.0000 0.49046  0.79181  0.82077  Biso   1.000  N
  O132     1.0000 0.51005  0.67231  0.89790  Biso   1.000  O
  H422     1.0000 0.52171  0.83787  0.73771  Biso   1.000  H
  C405     1.0000 0.42622  0.77050  0.81503  Biso   1.000  C
  C406     1.0000 0.42622  0.77050  0.81507  Biso   1.000  C
  H423     1.0000 0.44772  0.99218  0.72591  Biso   1.000  H
  H424     1.0000 0.47100  0.10042  0.75297  Biso   1.000  H
  H425     1.0000 0.47100  0.10042  0.75302  Biso   1.000  H
  H426     1.0000 0.41583  0.76666  0.77211  Biso   1.000  H
  H427     1.0000 0.41751  0.70137  0.83289  Biso   1.000  H
  H428     1.0000 0.41751  0.70137  0.83293  Biso   1.000  H
  C407     1.0000 0.57383  0.22950  0.18497  Biso   1.000  C
  N339     1.0000 0.50954  0.20819  0.17928  Biso   1.000  N
  H429     1.0000 0.58422  0.23334  0.22789  Biso   1.000  H
  H430     1.0000 0.58253  0.29863  0.16711  Biso   1.000  H
  N340     1.0000 0.61219  0.14992  0.15604  Biso   1.000  N
  H431     1.0000 0.58422  0.23334  0.22794  Biso   1.000  H
  N341     1.0000 0.61219  0.14992  0.15609  Biso   1.000  N
  H432     1.0000 0.58422  0.23326  0.22789  Biso   1.000  H
  H433     1.0000 0.58253  0.29856  0.16711  Biso   1.000  H
  H434     1.0000 0.58422  0.23326  0.22794  Biso   1.000  H
  C408     1.0000 0.47460  0.13954  0.21974  Biso   1.000  C
  C409     1.0000 0.47460  0.13954  0.21978  Biso   1.000  C
  C410     1.0000 0.47291  0.26032  0.13900  Biso   1.000  C
  C411     1.0000 0.47291  0.26032  0.13905  Biso   1.000  C
  C412     1.0000 0.63438  0.05628  0.18780  Biso   1.000  C
  C413     1.0000 0.64636  0.17179  0.10497  Biso   1.000  C
  C414     1.0000 0.64636  0.17179  0.10502  Biso   1.000  C
  C415     1.0000 0.40849  0.15151  0.19636  Biso   1.000  C
  C416     1.0000 0.40849  0.15151  0.19641  Biso   1.000  C
  N342     1.0000 0.48635  0.02602  0.21290  Biso   1.000  N
  H435     1.0000 0.47829  0.16213  0.26229  Biso   1.000  H
  H436     1.0000 0.47829  0.16213  0.26234  Biso   1.000  H
  N343     1.0000 0.41460  0.22791  0.14725  Biso   1.000  N
  N344     1.0000 0.41460  0.22791  0.14730  Biso   1.000  N
  N345     1.0000 0.41460  0.22783  0.14725  Biso   1.000  N
  N346     1.0000 0.41460  0.22783  0.14730  Biso   1.000  N
  O133     1.0000 0.49000  0.32769  0.10210  Biso   1.000  O
  O134     1.0000 0.49000  0.32769  0.10215  Biso   1.000  O
  N347     1.0000 0.59101  0.97070  0.19500  Biso   1.000  N
  N348     1.0000 0.59101  0.97070  0.19504  Biso   1.000  N
  C417     1.0000 0.68194  0.00950  0.14388  Biso   1.000  C
  H437     1.0000 0.65292  0.07560  0.22689  Biso   1.000  H
  H438     1.0000 0.65292  0.07560  0.22694  Biso   1.000  H
  N349     1.0000 0.68363  0.08661  0.09463  Biso   1.000  N
  N350     1.0000 0.68363  0.08661  0.09467  Biso   1.000  N
  N351     1.0000 0.68363  0.08653  0.09463  Biso   1.000  N
  N352     1.0000 0.68363  0.08653  0.09467  Biso   1.000  N
  O135     1.0000 0.64349  0.25265  0.07440  Biso   1.000  O
  N353     1.0000 0.39173  0.04438  0.17759  Biso   1.000  N
  H439     1.0000 0.38143  0.17818  0.22839  Biso   1.000  H
  H440     1.0000 0.38143  0.17818  0.22844  Biso   1.000  H
  C418     1.0000 0.43660  0.97198  0.19258  Biso   1.000  C
  C419     1.0000 0.53984  0.97254  0.23678  Biso   1.000  C
  C420     1.0000 0.53984  0.97246  0.23678  Biso   1.000  C
  C421     1.0000 0.36421  0.27173  0.11303  Biso   1.000  C
  C422     1.0000 0.36421  0.27173  0.11308  Biso   1.000  C
  C423     1.0000 0.36421  0.27165  0.11303  Biso   1.000  C
  C424     1.0000 0.36421  0.27165  0.11308  Biso   1.000  C
  C425     1.0000 0.60709  0.88090  0.16315  Biso   1.000  C
  C426     1.0000 0.60709  0.88090  0.16320  Biso   1.000  C
  N354     1.0000 0.65675  0.90604  0.12830  Biso   1.000  N
  H441     1.0000 0.72181  0.00247  0.16352  Biso   1.000  H
  C427     1.0000 0.72810  0.08518  0.04588  Biso   1.000  C
  C428     1.0000 0.72810  0.08518  0.04592  Biso   1.000  C
  C429     1.0000 0.33013  0.01118  0.16301  Biso   1.000  C
  O136     1.0000 0.43227  0.87483  0.18853  Biso   1.000  O
  O137     1.0000 0.43227  0.87483  0.18857  Biso   1.000  O
  H442     1.0000 0.52900  0.89958  0.24703  Biso   1.000  H
  H443     1.0000 0.55233  0.00782  0.27409  Biso   1.000  H
  H444     1.0000 0.55233  0.00782  0.27414  Biso   1.000  H
  N355     1.0000 0.34238  0.20300  0.06474  Biso   1.000  N
  H445     1.0000 0.33081  0.28602  0.14078  Biso   1.000  H
  H446     1.0000 0.37669  0.33919  0.09549  Biso   1.000  H
  H447     1.0000 0.33081  0.28602  0.14083  Biso   1.000  H
  H448     1.0000 0.37669  0.33919  0.09554  Biso   1.000  H
  O138     1.0000 0.58167  0.79460  0.16561  Biso   1.000  O
  C430     1.0000 0.69051  0.82638  0.09454  Biso   1.000  C
  N356     1.0000 0.71160  0.01724  0.99540  Biso   1.000  N
  N357     1.0000 0.71160  0.01724  0.99544  Biso   1.000  N
  H449     1.0000 0.73352  0.15750  0.03098  Biso   1.000  H
  H450     1.0000 0.76682  0.06139  0.06219  Biso   1.000  H
  H451     1.0000 0.73352  0.15750  0.03103  Biso   1.000  H
  H452     1.0000 0.76682  0.06139  0.06224  Biso   1.000  H
  H453     1.0000 0.30193  0.05149  0.18812  Biso   1.000  H
  N358     1.0000 0.31327  0.02546  0.09950  Biso   1.000  N
  H454     1.0000 0.32562  0.93638  0.17349  Biso   1.000  H
  H455     1.0000 0.32562  0.93638  0.17354  Biso   1.000  H
  C431     1.0000 0.29405  0.12653  0.07322  Biso   1.000  C
  C432     1.0000 0.29405  0.12653  0.07326  Biso   1.000  C
  C433     1.0000 0.35118  0.22783  0.00446  Biso   1.000  C
  H456     1.0000 0.73320  0.83101  0.10570  Biso   1.000  H
  H457     1.0000 0.67602  0.75613  0.10620  Biso   1.000  H
  N359     1.0000 0.68527  0.83763  0.02934  Biso   1.000  N
  C434     1.0000 0.72413  0.90429  0.99266  Biso   1.000  C
  C435     1.0000 0.69429  0.05843  0.93986  Biso   1.000  C
  C436     1.0000 0.69429  0.05835  0.93986  Biso   1.000  C
  C437     1.0000 0.30571  0.94157  0.06014  Biso   1.000  C
  C438     1.0000 0.30571  0.94157  0.06018  Biso   1.000  C
  C439     1.0000 0.27591  0.09571  0.00734  Biso   1.000  C
  H458     1.0000 0.25969  0.15742  0.09559  Biso   1.000  H
  C440     1.0000 0.27591  0.09571  0.00738  Biso   1.000  C
  H459     1.0000 0.25969  0.15742  0.09563  Biso   1.000  H
  N360     1.0000 0.31478  0.16237  0.97066  Biso   1.000  N
  N361     1.0000 0.31478  0.16237  0.97070  Biso   1.000  N
  O139     1.0000 0.38453  0.29680  0.98483  Biso   1.000  O
  C441     1.0000 0.64887  0.77217  0.99554  Biso   1.000  C
  C442     1.0000 0.64887  0.77217  0.99558  Biso   1.000  C
  C443     1.0000 0.70600  0.87347  0.92678  Biso   1.000  C
  H460     1.0000 0.76723  0.88944  0.00041  Biso   1.000  H
  H461     1.0000 0.76723  0.88936  0.00041  Biso   1.000  H
  N362     1.0000 0.68677  0.97454  0.90050  Biso   1.000  N
  O140     1.0000 0.68673  0.15223  0.92833  Biso   1.000  O
  N363     1.0000 0.28840  0.98276  0.00460  Biso   1.000  N
  O141     1.0000 0.31327  0.84777  0.07167  Biso   1.000  O
  O142     1.0000 0.31327  0.84777  0.07171  Biso   1.000  O
  H462     1.0000 0.23281  0.11056  0.99959  Biso   1.000  H
  H463     1.0000 0.23281  0.11056  0.99964  Biso   1.000  H
  C444     1.0000 0.30949  0.17362  0.90546  Biso   1.000  C
  N364     1.0000 0.65766  0.79700  0.93526  Biso   1.000  N
  N365     1.0000 0.65766  0.79700  0.93530  Biso   1.000  N
  N366     1.0000 0.65766  0.79692  0.93526  Biso   1.000  N
  N367     1.0000 0.65766  0.79692  0.93530  Biso   1.000  N
  O143     1.0000 0.61547  0.70320  0.01517  Biso   1.000  O
  H464     1.0000 0.74031  0.84258  0.90441  Biso   1.000  H
  C445     1.0000 0.66992  0.98882  0.83699  Biso   1.000  C
  C446     1.0000 0.66992  0.98882  0.83703  Biso   1.000  C
  C447     1.0000 0.27195  0.91482  0.95412  Biso   1.000  C
  H465     1.0000 0.26680  0.16899  0.89430  Biso   1.000  H
  H466     1.0000 0.32402  0.24387  0.89380  Biso   1.000  H
  N368     1.0000 0.34325  0.09396  0.87170  Biso   1.000  N
  N369     1.0000 0.34325  0.09396  0.87175  Biso   1.000  N
  N370     1.0000 0.34325  0.09388  0.87170  Biso   1.000  N
  N371     1.0000 0.34325  0.09388  0.87175  Biso   1.000  N
  C448     1.0000 0.63584  0.72827  0.88697  Biso   1.000  C
  N372     1.0000 0.60827  0.95562  0.82241  Biso   1.000  N
  N373     1.0000 0.60827  0.95562  0.82245  Biso   1.000  N
  H467     1.0000 0.69812  0.94851  0.81188  Biso   1.000  H
  H468     1.0000 0.69812  0.94851  0.81193  Biso   1.000  H
  H469     1.0000 0.67443  0.06362  0.82651  Biso   1.000  H
  H470     1.0000 0.26653  0.84250  0.96902  Biso   1.000  H
  H471     1.0000 0.23322  0.93861  0.93781  Biso   1.000  H
  N374     1.0000 0.31637  0.91339  0.90537  Biso   1.000  N
  C449     1.0000 0.31806  0.99050  0.85612  Biso   1.000  C
  C450     1.0000 0.31806  0.99050  0.85617  Biso   1.000  C
  C451     1.0000 0.39291  0.11910  0.83685  Biso   1.000  C
  N375     1.0000 0.58545  0.77209  0.85275  Biso   1.000  N
  H472     1.0000 0.66923  0.71398  0.85922  Biso   1.000  H
  H473     1.0000 0.62331  0.66081  0.90451  Biso   1.000  H
  C452     1.0000 0.59151  0.84849  0.80364  Biso   1.000  C
  C453     1.0000 0.56344  0.02802  0.80742  Biso   1.000  C
  C454     1.0000 0.35368  0.82821  0.89503  Biso   1.000  C
  C455     1.0000 0.36562  0.94372  0.81220  Biso   1.000  C
  H474     1.0000 0.27819  0.99753  0.83648  Biso   1.000  H
  C456     1.0000 0.36562  0.94372  0.81225  Biso   1.000  C
  H475     1.0000 0.27819  0.99753  0.83653  Biso   1.000  H
  N376     1.0000 0.40899  0.02930  0.80500  Biso   1.000  N
  O144     1.0000 0.41833  0.20540  0.83439  Biso   1.000  O
  C457     1.0000 0.52709  0.73968  0.86100  Biso   1.000  C
  C458     1.0000 0.52545  0.86046  0.78026  Biso   1.000  C
  H476     1.0000 0.61862  0.82182  0.77161  Biso   1.000  H
  N377     1.0000 0.51365  0.97398  0.78710  Biso   1.000  N
  N378     1.0000 0.51365  0.97398  0.78714  Biso   1.000  N
  N379     1.0000 0.51365  0.97390  0.78710  Biso   1.000  N
  N380     1.0000 0.51365  0.97390  0.78714  Biso   1.000  N
  O145     1.0000 0.56777  0.12517  0.81147  Biso   1.000  O
  N381     1.0000 0.38785  0.85008  0.84396  Biso   1.000  N
  O146     1.0000 0.35651  0.74735  0.92560  Biso   1.000  O
  O147     1.0000 0.35651  0.74735  0.92565  Biso   1.000  O
  O148     1.0000 0.35651  0.74727  0.92560  Biso   1.000  O
  O149     1.0000 0.35651  0.74727  0.92565  Biso   1.000  O
  H477     1.0000 0.34712  0.92440  0.77311  Biso   1.000  H
  C459     1.0000 0.46020  0.02746  0.76322  Biso   1.000  C
  N382     1.0000 0.49046  0.79181  0.82072  Biso   1.000  N
  N383     1.0000 0.49046  0.79181  0.82077  Biso   1.000  N
  O150     1.0000 0.51005  0.67231  0.89790  Biso   1.000  O
  H478     1.0000 0.52171  0.83787  0.73771  Biso   1.000  H
  C460     1.0000 0.42622  0.77050  0.81503  Biso   1.000  C
  C461     1.0000 0.42622  0.77050  0.81507  Biso   1.000  C
  H479     1.0000 0.44772  0.99218  0.72591  Biso   1.000  H
  H480     1.0000 0.47100  0.10042  0.75297  Biso   1.000  H
  H481     1.0000 0.47100  0.10042  0.75302  Biso   1.000  H
  H482     1.0000 0.41583  0.76666  0.77211  Biso   1.000  H
  H483     1.0000 0.41751  0.70137  0.83289  Biso   1.000  H
  H484     1.0000 0.41751  0.70137  0.83293  Biso   1.000  H
  C462     1.0000 0.57383  0.22950  0.18497  Biso   1.000  C
  N384     1.0000 0.50954  0.20819  0.17928  Biso   1.000  N
  H485     1.0000 0.58422  0.23334  0.22789  Biso   1.000  H
  H486     1.0000 0.58253  0.29863  0.16711  Biso   1.000  H
  N385     1.0000 0.61219  0.14992  0.15604  Biso   1.000  N
  H487     1.0000 0.58422  0.23334  0.22794  Biso   1.000  H
  N386     1.0000 0.61219  0.14992  0.15609  Biso   1.000  N
  H488     1.0000 0.58422  0.23326  0.22789  Biso   1.000  H
  H489     1.0000 0.58253  0.29856  0.16711  Biso   1.000  H
  H490     1.0000 0.58422  0.23326  0.22794  Biso   1.000  H
  C463     1.0000 0.47460  0.13954  0.21974  Biso   1.000  C
  C464     1.0000 0.47460  0.13954  0.21978  Biso   1.000  C
  C465     1.0000 0.47291  0.26032  0.13900  Biso   1.000  C
  C466     1.0000 0.47291  0.26032  0.13905  Biso   1.000  C
  C467     1.0000 0.63438  0.05628  0.18780  Biso   1.000  C
  C468     1.0000 0.64636  0.17179  0.10497  Biso   1.000  C
  C469     1.0000 0.64636  0.17179  0.10502  Biso   1.000  C
  C470     1.0000 0.40849  0.15151  0.19636  Biso   1.000  C
  C471     1.0000 0.40849  0.15151  0.19641  Biso   1.000  C
  N387     1.0000 0.48635  0.02602  0.21290  Biso   1.000  N
  H491     1.0000 0.47829  0.16213  0.26229  Biso   1.000  H
  H492     1.0000 0.47829  0.16213  0.26234  Biso   1.000  H
  N388     1.0000 0.41460  0.22791  0.14725  Biso   1.000  N
  N389     1.0000 0.41460  0.22791  0.14730  Biso   1.000  N
  N390     1.0000 0.41460  0.22783  0.14725  Biso   1.000  N
  N391     1.0000 0.41460  0.22783  0.14730  Biso   1.000  N
  O151     1.0000 0.49000  0.32769  0.10210  Biso   1.000  O
  O152     1.0000 0.49000  0.32769  0.10215  Biso   1.000  O
  N392     1.0000 0.59101  0.97070  0.19500  Biso   1.000  N
  N393     1.0000 0.59101  0.97070  0.19504  Biso   1.000  N
  C472     1.0000 0.68194  0.00950  0.14388  Biso   1.000  C
  H493     1.0000 0.65292  0.07560  0.22689  Biso   1.000  H
  H494     1.0000 0.65292  0.07560  0.22694  Biso   1.000  H
  N394     1.0000 0.68363  0.08661  0.09463  Biso   1.000  N
  N395     1.0000 0.68363  0.08661  0.09467  Biso   1.000  N
  N396     1.0000 0.68363  0.08653  0.09463  Biso   1.000  N
  N397     1.0000 0.68363  0.08653  0.09467  Biso   1.000  N
  O153     1.0000 0.64349  0.25265  0.07440  Biso   1.000  O
  N398     1.0000 0.39173  0.04438  0.17759  Biso   1.000  N
  H495     1.0000 0.38143  0.17818  0.22839  Biso   1.000  H
  H496     1.0000 0.38143  0.17818  0.22844  Biso   1.000  H
  C473     1.0000 0.43660  0.97198  0.19258  Biso   1.000  C
  C474     1.0000 0.53984  0.97254  0.23678  Biso   1.000  C
  C475     1.0000 0.53984  0.97246  0.23678  Biso   1.000  C
  C476     1.0000 0.36421  0.27173  0.11303  Biso   1.000  C
  C477     1.0000 0.36421  0.27173  0.11308  Biso   1.000  C
  C478     1.0000 0.36421  0.27165  0.11303  Biso   1.000  C
  C479     1.0000 0.36421  0.27165  0.11308  Biso   1.000  C
  C480     1.0000 0.60709  0.88090  0.16315  Biso   1.000  C
  C481     1.0000 0.60709  0.88090  0.16320  Biso   1.000  C
  N399     1.0000 0.65675  0.90604  0.12830  Biso   1.000  N
  H497     1.0000 0.72181  0.00247  0.16352  Biso   1.000  H
  C482     1.0000 0.72810  0.08518  0.04588  Biso   1.000  C
  C483     1.0000 0.72810  0.08518  0.04592  Biso   1.000  C
  C484     1.0000 0.33013  0.01118  0.16301  Biso   1.000  C
  O154     1.0000 0.43227  0.87483  0.18853  Biso   1.000  O
  O155     1.0000 0.43227  0.87483  0.18857  Biso   1.000  O
  H498     1.0000 0.52900  0.89958  0.24703  Biso   1.000  H
  H499     1.0000 0.55233  0.00782  0.27409  Biso   1.000  H
  H500     1.0000 0.55233  0.00782  0.27414  Biso   1.000  H
  N400     1.0000 0.34238  0.20300  0.06474  Biso   1.000  N
  H501     1.0000 0.33081  0.28602  0.14078  Biso   1.000  H
  H502     1.0000 0.37669  0.33919  0.09549  Biso   1.000  H
  H503     1.0000 0.33081  0.28602  0.14083  Biso   1.000  H
  H504     1.0000 0.37669  0.33919  0.09554  Biso   1.000  H
  O156     1.0000 0.58167  0.79460  0.16561  Biso   1.000  O
  C485     1.0000 0.69051  0.82638  0.09454  Biso   1.000  C
  N401     1.0000 0.71160  0.01724  0.99540  Biso   1.000  N
  N402     1.0000 0.71160  0.01724  0.99544  Biso   1.000  N
  H505     1.0000 0.73352  0.15750  0.03098  Biso   1.000  H
  H506     1.0000 0.76682  0.06139  0.06219  Biso   1.000  H
  H507     1.0000 0.73352  0.15750  0.03103  Biso   1.000  H
  H508     1.0000 0.76682  0.06139  0.06224  Biso   1.000  H
  H509     1.0000 0.30193  0.05149  0.18812  Biso   1.000  H
  N403     1.0000 0.31327  0.02546  0.09950  Biso   1.000  N
  H510     1.0000 0.32562  0.93638  0.17349  Biso   1.000  H
  H511     1.0000 0.32562  0.93638  0.17354  Biso   1.000  H
  C486     1.0000 0.29405  0.12653  0.07322  Biso   1.000  C
  C487     1.0000 0.29405  0.12653  0.07326  Biso   1.000  C
  C488     1.0000 0.35118  0.22783  0.00446  Biso   1.000  C
  H512     1.0000 0.73320  0.83101  0.10570  Biso   1.000  H
  H513     1.0000 0.67602  0.75613  0.10620  Biso   1.000  H
  N404     1.0000 0.68527  0.83763  0.02934  Biso   1.000  N
  C489     1.0000 0.72413  0.90429  0.99266  Biso   1.000  C
  C490     1.0000 0.69429  0.05843  0.93986  Biso   1.000  C
  C491     1.0000 0.69429  0.05835  0.93986  Biso   1.000  C
  C492     1.0000 0.30571  0.94157  0.06014  Biso   1.000  C
  C493     1.0000 0.30571  0.94157  0.06018  Biso   1.000  C
  C494     1.0000 0.27591  0.09571  0.00734  Biso   1.000  C
  H514     1.0000 0.25969  0.15742  0.09559  Biso   1.000  H
  C495     1.0000 0.27591  0.09571  0.00738  Biso   1.000  C
  H515     1.0000 0.25969  0.15742  0.09563  Biso   1.000  H
  N405     1.0000 0.31478  0.16237  0.97066  Biso   1.000  N
  N406     1.0000 0.31478  0.16237  0.97070  Biso   1.000  N
  O157     1.0000 0.38453  0.29680  0.98483  Biso   1.000  O
  C496     1.0000 0.64887  0.77217  0.99554  Biso   1.000  C
  C497     1.0000 0.64887  0.77217  0.99558  Biso   1.000  C
  C498     1.0000 0.70600  0.87347  0.92678  Biso   1.000  C
  H516     1.0000 0.76723  0.88944  0.00041  Biso   1.000  H
  H517     1.0000 0.76723  0.88936  0.00041  Biso   1.000  H
  N407     1.0000 0.68677  0.97454  0.90050  Biso   1.000  N
  O158     1.0000 0.68673  0.15223  0.92833  Biso   1.000  O
  N408     1.0000 0.28840  0.98276  0.00460  Biso   1.000  N
  O159     1.0000 0.31327  0.84777  0.07167  Biso   1.000  O
  O160     1.0000 0.31327  0.84777  0.07171  Biso   1.000  O
  H518     1.0000 0.23281  0.11056  0.99959  Biso   1.000  H
  H519     1.0000 0.23281  0.11056  0.99964  Biso   1.000  H
  C499     1.0000 0.30949  0.17362  0.90546  Biso   1.000  C
  N409     1.0000 0.65766  0.79700  0.93526  Biso   1.000  N
  N410     1.0000 0.65766  0.79700  0.93530  Biso   1.000  N
  N411     1.0000 0.65766  0.79692  0.93526  Biso   1.000  N
  N412     1.0000 0.65766  0.79692  0.93530  Biso   1.000  N
  O161     1.0000 0.61547  0.70320  0.01517  Biso   1.000  O
  H520     1.0000 0.74031  0.84258  0.90441  Biso   1.000  H
  C500     1.0000 0.66992  0.98882  0.83699  Biso   1.000  C
  C501     1.0000 0.66992  0.98882  0.83703  Biso   1.000  C
  C502     1.0000 0.27195  0.91482  0.95412  Biso   1.000  C
  H521     1.0000 0.26680  0.16899  0.89430  Biso   1.000  H
  H522     1.0000 0.32402  0.24387  0.89380  Biso   1.000  H
  N413     1.0000 0.34325  0.09396  0.87170  Biso   1.000  N
  N414     1.0000 0.34325  0.09396  0.87175  Biso   1.000  N
  N415     1.0000 0.34325  0.09388  0.87170  Biso   1.000  N
  N416     1.0000 0.34325  0.09388  0.87175  Biso   1.000  N
  C503     1.0000 0.63584  0.72827  0.88697  Biso   1.000  C
  N417     1.0000 0.60827  0.95562  0.82241  Biso   1.000  N
  N418     1.0000 0.60827  0.95562  0.82245  Biso   1.000  N
  H523     1.0000 0.69812  0.94851  0.81188  Biso   1.000  H
  H524     1.0000 0.69812  0.94851  0.81193  Biso   1.000  H
  H525     1.0000 0.67443  0.06362  0.82651  Biso   1.000  H
  H526     1.0000 0.26653  0.84250  0.96902  Biso   1.000  H
  H527     1.0000 0.23322  0.93861  0.93781  Biso   1.000  H
  N419     1.0000 0.31637  0.91339  0.90537  Biso   1.000  N
  C504     1.0000 0.31806  0.99050  0.85612  Biso   1.000  C
  C505     1.0000 0.31806  0.99050  0.85617  Biso   1.000  C
  C506     1.0000 0.39291  0.11910  0.83685  Biso   1.000  C
  N420     1.0000 0.58545  0.77209  0.85275  Biso   1.000  N
  H528     1.0000 0.66923  0.71398  0.85922  Biso   1.000  H
  H529     1.0000 0.62331  0.66081  0.90451  Biso   1.000  H
  C507     1.0000 0.59151  0.84849  0.80364  Biso   1.000  C
  C508     1.0000 0.56344  0.02802  0.80742  Biso   1.000  C
  C509     1.0000 0.35368  0.82821  0.89503  Biso   1.000  C
  C510     1.0000 0.36562  0.94372  0.81220  Biso   1.000  C
  H530     1.0000 0.27819  0.99753  0.83648  Biso   1.000  H
  C511     1.0000 0.36562  0.94372  0.81225  Biso   1.000  C
  H531     1.0000 0.27819  0.99753  0.83653  Biso   1.000  H
  N421     1.0000 0.40899  0.02930  0.80500  Biso   1.000  N
  O162     1.0000 0.41833  0.20540  0.83439  Biso   1.000  O
  C512     1.0000 0.52709  0.73968  0.86100  Biso   1.000  C
  C513     1.0000 0.52545  0.86046  0.78026  Biso   1.000  C
  H532     1.0000 0.61862  0.82182  0.77161  Biso   1.000  H
  N422     1.0000 0.51365  0.97398  0.78710  Biso   1.000  N
  N423     1.0000 0.51365  0.97398  0.78714  Biso   1.000  N
  N424     1.0000 0.51365  0.97390  0.78710  Biso   1.000  N
  N425     1.0000 0.51365  0.97390  0.78714  Biso   1.000  N
  O163     1.0000 0.56777  0.12517  0.81147  Biso   1.000  O
  N426     1.0000 0.38785  0.85008  0.84396  Biso   1.000  N
  O164     1.0000 0.35651  0.74735  0.92560  Biso   1.000  O
  O165     1.0000 0.35651  0.74735  0.92565  Biso   1.000  O
  O166     1.0000 0.35651  0.74727  0.92560  Biso   1.000  O
  O167     1.0000 0.35651  0.74727  0.92565  Biso   1.000  O
  H533     1.0000 0.34712  0.92440  0.77311  Biso   1.000  H
  C514     1.0000 0.46020  0.02746  0.76322  Biso   1.000  C
  N427     1.0000 0.49046  0.79181  0.82072  Biso   1.000  N
  N428     1.0000 0.49046  0.79181  0.82077  Biso   1.000  N
  O168     1.0000 0.51005  0.67231  0.89790  Biso   1.000  O
  H534     1.0000 0.52171  0.83787  0.73771  Biso   1.000  H
  C515     1.0000 0.42622  0.77050  0.81503  Biso   1.000  C
  C516     1.0000 0.42622  0.77050  0.81507  Biso   1.000  C
  H535     1.0000 0.44772  0.99218  0.72591  Biso   1.000  H
  H536     1.0000 0.47100  0.10042  0.75297  Biso   1.000  H
  H537     1.0000 0.47100  0.10042  0.75302  Biso   1.000  H
  H538     1.0000 0.41583  0.76666  0.77211  Biso   1.000  H
  H539     1.0000 0.41751  0.70137  0.83289  Biso   1.000  H
  H540     1.0000 0.41751  0.70137  0.83293  Biso   1.000  H
  O169     1.0000 0.81325  0.84777  0.42836  Biso   1.000  O
  C517     1.0000 0.80569  0.94157  0.43984  Biso   1.000  C
  C518     1.0000 0.80573  0.94157  0.43984  Biso   1.000  C
  N429     1.0000 0.78837  0.98276  0.49542  Biso   1.000  N
  N430     1.0000 0.78842  0.98276  0.49542  Biso   1.000  N
  O170     1.0000 0.81329  0.84777  0.42836  Biso   1.000  O
  N431     1.0000 0.81325  0.02546  0.40052  Biso   1.000  N
  N432     1.0000 0.81329  0.02546  0.40052  Biso   1.000  N
  C519     1.0000 0.77193  0.91482  0.54590  Biso   1.000  C
  C520     1.0000 0.77589  0.09571  0.49264  Biso   1.000  C
  C521     1.0000 0.77594  0.09571  0.49264  Biso   1.000  C
  C522     1.0000 0.79402  0.12653  0.42676  Biso   1.000  C
  C523     1.0000 0.83011  0.01118  0.33701  Biso   1.000  C
  H541     1.0000 0.76650  0.84250  0.53100  Biso   1.000  H
  H542     1.0000 0.73320  0.93861  0.56221  Biso   1.000  H
  N433     1.0000 0.81635  0.91339  0.59465  Biso   1.000  N
  N434     1.0000 0.81639  0.91339  0.59465  Biso   1.000  N
  H543     1.0000 0.73279  0.11056  0.50039  Biso   1.000  H
  N435     1.0000 0.81475  0.16237  0.52932  Biso   1.000  N
  H544     1.0000 0.73284  0.11056  0.50039  Biso   1.000  H
  H545     1.0000 0.75972  0.15742  0.40439  Biso   1.000  H
  N436     1.0000 0.84236  0.20300  0.43528  Biso   1.000  N
  N437     1.0000 0.84241  0.20300  0.43528  Biso   1.000  N
  H546     1.0000 0.82560  0.93638  0.32648  Biso   1.000  H
  H547     1.0000 0.80190  0.05149  0.31190  Biso   1.000  H
  N438     1.0000 0.89170  0.04438  0.32243  Biso   1.000  N
  N439     1.0000 0.89175  0.04438  0.32243  Biso   1.000  N
  C524     1.0000 0.85366  0.82821  0.60499  Biso   1.000  C
  C525     1.0000 0.81808  0.99050  0.64386  Biso   1.000  C
  C526     1.0000 0.80947  0.17362  0.59456  Biso   1.000  C
  C527     1.0000 0.85115  0.22783  0.49556  Biso   1.000  C
  C528     1.0000 0.80951  0.17362  0.59456  Biso   1.000  C
  C529     1.0000 0.86419  0.27173  0.38699  Biso   1.000  C
  C530     1.0000 0.86419  0.27165  0.38699  Biso   1.000  C
  C531     1.0000 0.93658  0.97198  0.30744  Biso   1.000  C
  C532     1.0000 0.90852  0.15151  0.30361  Biso   1.000  C
  N440     1.0000 0.88783  0.85008  0.65607  Biso   1.000  N
  O171     1.0000 0.85649  0.74735  0.57438  Biso   1.000  O
  O172     1.0000 0.85649  0.74727  0.57438  Biso   1.000  O
  N441     1.0000 0.88788  0.85008  0.65607  Biso   1.000  N
  O173     1.0000 0.85653  0.74735  0.57438  Biso   1.000  O
  O174     1.0000 0.85653  0.74727  0.57438  Biso   1.000  O
  C533     1.0000 0.86560  0.94372  0.68778  Biso   1.000  C
  H548     1.0000 0.77821  0.99753  0.66349  Biso   1.000  H
  C534     1.0000 0.86564  0.94372  0.68778  Biso   1.000  C
  N442     1.0000 0.84323  0.09396  0.62827  Biso   1.000  N
  N443     1.0000 0.84323  0.09388  0.62827  Biso   1.000  N
  N444     1.0000 0.84327  0.09396  0.62827  Biso   1.000  N
  N445     1.0000 0.84327  0.09388  0.62827  Biso   1.000  N
  H549     1.0000 0.76678  0.16899  0.60572  Biso   1.000  H
  H550     1.0000 0.82400  0.24387  0.60622  Biso   1.000  H
  H551     1.0000 0.76682  0.16899  0.60572  Biso   1.000  H
  O175     1.0000 0.88455  0.29680  0.51519  Biso   1.000  O
  H552     1.0000 0.83079  0.28602  0.35920  Biso   1.000  H
  H553     1.0000 0.87671  0.33919  0.40453  Biso   1.000  H
  N446     1.0000 0.91457  0.22791  0.35273  Biso   1.000  N
  N447     1.0000 0.91457  0.22783  0.35273  Biso   1.000  N
  H554     1.0000 0.83084  0.28602  0.35920  Biso   1.000  H
  O176     1.0000 0.93225  0.87483  0.31145  Biso   1.000  O
  O177     1.0000 0.93230  0.87483  0.31145  Biso   1.000  O
  N448     1.0000 0.98633  0.02602  0.28712  Biso   1.000  N
  N449     1.0000 0.98638  0.02602  0.28712  Biso   1.000  N
  H555     1.0000 0.88141  0.17818  0.27158  Biso   1.000  H
  C535     1.0000 0.97458  0.13954  0.28029  Biso   1.000  C
  C536     1.0000 0.92619  0.77050  0.68495  Biso   1.000  C
  H556     1.0000 0.84710  0.92440  0.72691  Biso   1.000  H
  N450     1.0000 0.90897  0.02930  0.69502  Biso   1.000  N
  N451     1.0000 0.90902  0.02930  0.69502  Biso   1.000  N
  C537     1.0000 0.89289  0.11910  0.66317  Biso   1.000  C
  C538     1.0000 0.89293  0.11910  0.66317  Biso   1.000  C
  C539     1.0000 0.97294  0.26032  0.36097  Biso   1.000  C
  C540     1.0000 0.03982  0.97254  0.26325  Biso   1.000  C
  C541     1.0000 0.03982  0.97246  0.26325  Biso   1.000  C
  H557     1.0000 0.97831  0.16213  0.23769  Biso   1.000  H
  N452     1.0000 0.00957  0.20819  0.32074  Biso   1.000  N
  H558     1.0000 0.91580  0.76666  0.72791  Biso   1.000  H
  H559     1.0000 0.91749  0.70137  0.66709  Biso   1.000  H
  N453     1.0000 0.99043  0.79181  0.67930  Biso   1.000  N
  H560     1.0000 0.91754  0.70137  0.66709  Biso   1.000  H
  N454     1.0000 0.99048  0.79181  0.67930  Biso   1.000  N
  C542     1.0000 0.96018  0.02746  0.73680  Biso   1.000  C
  O178     1.0000 0.91836  0.20540  0.66563  Biso   1.000  O
  O179     1.0000 0.98998  0.32769  0.39788  Biso   1.000  O
  H561     1.0000 0.02902  0.89958  0.25300  Biso   1.000  H
  N455     1.0000 0.09103  0.97070  0.30498  Biso   1.000  N
  H562     1.0000 0.05230  0.00782  0.22589  Biso   1.000  H
  C543     1.0000 0.07381  0.22950  0.31505  Biso   1.000  C
  C544     1.0000 0.02706  0.73968  0.63903  Biso   1.000  C
  C545     1.0000 0.02542  0.86046  0.71976  Biso   1.000  C
  C546     1.0000 0.02711  0.73968  0.63903  Biso   1.000  C
  C547     1.0000 0.02547  0.86046  0.71976  Biso   1.000  C
  H563     1.0000 0.94770  0.99218  0.77411  Biso   1.000  H
  H564     1.0000 0.97098  0.10042  0.74700  Biso   1.000  H
  H565     1.0000 0.97102  0.10042  0.74700  Biso   1.000  H
  N456     1.0000 0.01367  0.97398  0.71293  Biso   1.000  N
  N457     1.0000 0.01367  0.97390  0.71293  Biso   1.000  N
  C548     1.0000 0.10711  0.88090  0.33683  Biso   1.000  C
  C549     1.0000 0.13440  0.05628  0.31222  Biso   1.000  C
  H566     1.0000 0.08420  0.23334  0.27209  Biso   1.000  H
  H567     1.0000 0.08251  0.29863  0.33291  Biso   1.000  H
  N458     1.0000 0.11217  0.14992  0.34393  Biso   1.000  N
  H568     1.0000 0.08420  0.23326  0.27209  Biso   1.000  H
  H569     1.0000 0.08251  0.29856  0.33291  Biso   1.000  H
  H570     1.0000 0.08424  0.23334  0.27209  Biso   1.000  H
  H571     1.0000 0.08424  0.23326  0.27209  Biso   1.000  H
  N459     1.0000 0.08543  0.77209  0.64727  Biso   1.000  N
  O180     1.0000 0.01002  0.67231  0.60212  Biso   1.000  O
  N460     1.0000 0.08547  0.77209  0.64727  Biso   1.000  N
  C550     1.0000 0.09148  0.84849  0.69639  Biso   1.000  C
  H572     1.0000 0.02169  0.83787  0.76231  Biso   1.000  H
  C551     1.0000 0.09153  0.84849  0.69639  Biso   1.000  C
  H573     1.0000 0.02173  0.83787  0.76231  Biso   1.000  H
  C552     1.0000 0.06342  0.02802  0.69261  Biso   1.000  C
  N461     1.0000 0.15677  0.90604  0.37173  Biso   1.000  N
  O181     1.0000 0.08164  0.79460  0.33441  Biso   1.000  O
  O182     1.0000 0.08169  0.79460  0.33441  Biso   1.000  O
  H574     1.0000 0.15290  0.07560  0.27309  Biso   1.000  H
  C553     1.0000 0.18192  0.00950  0.35614  Biso   1.000  C
  C554     1.0000 0.18197  0.00950  0.35614  Biso   1.000  C
  C555     1.0000 0.14634  0.17179  0.39501  Biso   1.000  C
  C556     1.0000 0.13581  0.72827  0.61306  Biso   1.000  C
  H575     1.0000 0.11859  0.82182  0.72842  Biso   1.000  H
  N462     1.0000 0.10830  0.95562  0.67757  Biso   1.000  N
  H576     1.0000 0.11864  0.82182  0.72842  Biso   1.000  H
  O183     1.0000 0.06775  0.12517  0.68855  Biso   1.000  O
  C557     1.0000 0.19053  0.82638  0.40549  Biso   1.000  C
  H577     1.0000 0.22179  0.00247  0.33651  Biso   1.000  H
  N463     1.0000 0.18365  0.08661  0.40535  Biso   1.000  N
  N464     1.0000 0.18365  0.08653  0.40535  Biso   1.000  N
  H578     1.0000 0.22183  0.00247  0.33651  Biso   1.000  H
  O184     1.0000 0.14351  0.25265  0.42562  Biso   1.000  O
  H579     1.0000 0.16921  0.71398  0.64080  Biso   1.000  H
  H580     1.0000 0.12329  0.66081  0.59552  Biso   1.000  H
  N465     1.0000 0.15764  0.79700  0.56472  Biso   1.000  N
  N466     1.0000 0.15764  0.79692  0.56472  Biso   1.000  N
  H581     1.0000 0.12333  0.66081  0.59552  Biso   1.000  H
  C558     1.0000 0.16989  0.98882  0.66299  Biso   1.000  C
  H582     1.0000 0.23322  0.83101  0.39432  Biso   1.000  H
  H583     1.0000 0.17600  0.75613  0.39382  Biso   1.000  H
  N467     1.0000 0.18525  0.83763  0.47068  Biso   1.000  N
  N468     1.0000 0.18529  0.83763  0.47068  Biso   1.000  N
  C559     1.0000 0.22807  0.08518  0.45410  Biso   1.000  C
  C560     1.0000 0.14885  0.77217  0.50449  Biso   1.000  C
  C561     1.0000 0.20598  0.87347  0.57324  Biso   1.000  C
  H584     1.0000 0.19810  0.94851  0.68810  Biso   1.000  H
  N469     1.0000 0.18675  0.97454  0.59953  Biso   1.000  N
  H585     1.0000 0.19814  0.94851  0.68810  Biso   1.000  H
  H586     1.0000 0.17440  0.06362  0.67352  Biso   1.000  H
  C562     1.0000 0.22411  0.90429  0.50736  Biso   1.000  C
  H587     1.0000 0.23350  0.15750  0.46900  Biso   1.000  H
  H588     1.0000 0.26680  0.06139  0.43779  Biso   1.000  H
  N470     1.0000 0.21163  0.01724  0.50458  Biso   1.000  N
  H589     1.0000 0.23354  0.15750  0.46900  Biso   1.000  H
  O185     1.0000 0.11545  0.70320  0.48485  Biso   1.000  O
  O186     1.0000 0.11550  0.70320  0.48485  Biso   1.000  O
  H590     1.0000 0.24028  0.84258  0.59561  Biso   1.000  H
  H591     1.0000 0.24033  0.84258  0.59561  Biso   1.000  H
  C563     1.0000 0.19431  0.05843  0.56016  Biso   1.000  C
  C564     1.0000 0.19431  0.05835  0.56016  Biso   1.000  C
  H592     1.0000 0.26721  0.88944  0.49961  Biso   1.000  H
  H593     1.0000 0.26721  0.88936  0.49961  Biso   1.000  H
  O187     1.0000 0.18675  0.15223  0.57169  Biso   1.000  O
  O188     1.0000 0.81325  0.84777  0.42836  Biso   1.000  O
  C565     1.0000 0.80569  0.94157  0.43984  Biso   1.000  C
  C566     1.0000 0.80573  0.94157  0.43984  Biso   1.000  C
  N471     1.0000 0.78837  0.98276  0.49542  Biso   1.000  N
  N472     1.0000 0.78842  0.98276  0.49542  Biso   1.000  N
  O189     1.0000 0.81329  0.84777  0.42836  Biso   1.000  O
  N473     1.0000 0.81325  0.02546  0.40052  Biso   1.000  N
  N474     1.0000 0.81329  0.02546  0.40052  Biso   1.000  N
  C567     1.0000 0.77193  0.91482  0.54590  Biso   1.000  C
  C568     1.0000 0.77589  0.09571  0.49264  Biso   1.000  C
  C569     1.0000 0.77594  0.09571  0.49264  Biso   1.000  C
  C570     1.0000 0.79402  0.12653  0.42676  Biso   1.000  C
  C571     1.0000 0.83011  0.01118  0.33701  Biso   1.000  C
  H594     1.0000 0.76650  0.84250  0.53100  Biso   1.000  H
  H595     1.0000 0.73320  0.93861  0.56221  Biso   1.000  H
  N475     1.0000 0.81635  0.91339  0.59465  Biso   1.000  N
  N476     1.0000 0.81639  0.91339  0.59465  Biso   1.000  N
  H596     1.0000 0.73279  0.11056  0.50039  Biso   1.000  H
  N477     1.0000 0.81475  0.16237  0.52932  Biso   1.000  N
  H597     1.0000 0.73284  0.11056  0.50039  Biso   1.000  H
  H598     1.0000 0.75972  0.15742  0.40439  Biso   1.000  H
  N478     1.0000 0.84236  0.20300  0.43528  Biso   1.000  N
  N479     1.0000 0.84241  0.20300  0.43528  Biso   1.000  N
  H599     1.0000 0.82560  0.93638  0.32648  Biso   1.000  H
  H600     1.0000 0.80190  0.05149  0.31190  Biso   1.000  H
  N480     1.0000 0.89170  0.04438  0.32243  Biso   1.000  N
  N481     1.0000 0.89175  0.04438  0.32243  Biso   1.000  N
  C572     1.0000 0.85366  0.82821  0.60499  Biso   1.000  C
  C573     1.0000 0.81808  0.99050  0.64386  Biso   1.000  C
  C574     1.0000 0.80947  0.17362  0.59456  Biso   1.000  C
  C575     1.0000 0.85115  0.22783  0.49556  Biso   1.000  C
  C576     1.0000 0.80951  0.17362  0.59456  Biso   1.000  C
  C577     1.0000 0.86419  0.27173  0.38699  Biso   1.000  C
  C578     1.0000 0.86419  0.27165  0.38699  Biso   1.000  C
  C579     1.0000 0.93658  0.97198  0.30744  Biso   1.000  C
  C580     1.0000 0.90852  0.15151  0.30361  Biso   1.000  C
  N482     1.0000 0.88783  0.85008  0.65607  Biso   1.000  N
  N483     1.0000 0.88788  0.85008  0.65607  Biso   1.000  N
  O190     1.0000 0.85649  0.74735  0.57438  Biso   1.000  O
  O191     1.0000 0.85649  0.74727  0.57438  Biso   1.000  O
  O192     1.0000 0.85653  0.74735  0.57438  Biso   1.000  O
  O193     1.0000 0.85653  0.74727  0.57438  Biso   1.000  O
  C581     1.0000 0.86560  0.94372  0.68778  Biso   1.000  C
  H601     1.0000 0.77821  0.99753  0.66349  Biso   1.000  H
  C582     1.0000 0.86564  0.94372  0.68778  Biso   1.000  C
  N484     1.0000 0.84323  0.09396  0.62827  Biso   1.000  N
  N485     1.0000 0.84323  0.09388  0.62827  Biso   1.000  N
  N486     1.0000 0.84327  0.09396  0.62827  Biso   1.000  N
  N487     1.0000 0.84327  0.09388  0.62827  Biso   1.000  N
  H602     1.0000 0.76678  0.16899  0.60572  Biso   1.000  H
  H603     1.0000 0.82400  0.24387  0.60622  Biso   1.000  H
  H604     1.0000 0.76682  0.16899  0.60572  Biso   1.000  H
  O194     1.0000 0.88455  0.29680  0.51519  Biso   1.000  O
  H605     1.0000 0.83079  0.28602  0.35920  Biso   1.000  H
  H606     1.0000 0.87671  0.33919  0.40453  Biso   1.000  H
  N488     1.0000 0.91457  0.22791  0.35273  Biso   1.000  N
  N489     1.0000 0.91457  0.22783  0.35273  Biso   1.000  N
  H607     1.0000 0.83084  0.28602  0.35920  Biso   1.000  H
  O195     1.0000 0.93225  0.87483  0.31145  Biso   1.000  O
  O196     1.0000 0.93230  0.87483  0.31145  Biso   1.000  O
  N490     1.0000 0.98633  0.02602  0.28712  Biso   1.000  N
  N491     1.0000 0.98638  0.02602  0.28712  Biso   1.000  N
  H608     1.0000 0.88141  0.17818  0.27158  Biso   1.000  H
  C583     1.0000 0.97458  0.13954  0.28029  Biso   1.000  C
  C584     1.0000 0.92619  0.77050  0.68495  Biso   1.000  C
  H609     1.0000 0.84710  0.92440  0.72691  Biso   1.000  H
  N492     1.0000 0.90897  0.02930  0.69502  Biso   1.000  N
  N493     1.0000 0.90902  0.02930  0.69502  Biso   1.000  N
  C585     1.0000 0.89289  0.11910  0.66317  Biso   1.000  C
  C586     1.0000 0.89293  0.11910  0.66317  Biso   1.000  C
  C587     1.0000 0.97294  0.26032  0.36097  Biso   1.000  C
  C588     1.0000 0.03982  0.97254  0.26325  Biso   1.000  C
  C589     1.0000 0.03982  0.97246  0.26325  Biso   1.000  C
  H610     1.0000 0.97831  0.16213  0.23769  Biso   1.000  H
  N494     1.0000 0.00957  0.20819  0.32074  Biso   1.000  N
  H611     1.0000 0.91580  0.76666  0.72791  Biso   1.000  H
  H612     1.0000 0.91749  0.70137  0.66709  Biso   1.000  H
  N495     1.0000 0.99043  0.79181  0.67930  Biso   1.000  N
  H613     1.0000 0.91754  0.70137  0.66709  Biso   1.000  H
  N496     1.0000 0.99048  0.79181  0.67930  Biso   1.000  N
  C590     1.0000 0.96018  0.02746  0.73680  Biso   1.000  C
  O197     1.0000 0.91836  0.20540  0.66563  Biso   1.000  O
  O198     1.0000 0.98998  0.32769  0.39788  Biso   1.000  O
  H614     1.0000 0.02902  0.89958  0.25300  Biso   1.000  H
  N497     1.0000 0.09103  0.97070  0.30498  Biso   1.000  N
  H615     1.0000 0.05230  0.00782  0.22589  Biso   1.000  H
  C591     1.0000 0.07381  0.22950  0.31505  Biso   1.000  C
  C592     1.0000 0.02706  0.73968  0.63903  Biso   1.000  C
  C593     1.0000 0.02542  0.86046  0.71976  Biso   1.000  C
  C594     1.0000 0.02711  0.73968  0.63903  Biso   1.000  C
  C595     1.0000 0.02547  0.86046  0.71976  Biso   1.000  C
  H616     1.0000 0.94770  0.99218  0.77411  Biso   1.000  H
  H617     1.0000 0.97098  0.10042  0.74700  Biso   1.000  H
  H618     1.0000 0.97102  0.10042  0.74700  Biso   1.000  H
  N498     1.0000 0.01367  0.97398  0.71293  Biso   1.000  N
  N499     1.0000 0.01367  0.97390  0.71293  Biso   1.000  N
  C596     1.0000 0.10711  0.88090  0.33683  Biso   1.000  C
  C597     1.0000 0.13440  0.05628  0.31222  Biso   1.000  C
  H619     1.0000 0.08420  0.23334  0.27209  Biso   1.000  H
  H620     1.0000 0.08251  0.29863  0.33291  Biso   1.000  H
  N500     1.0000 0.11217  0.14992  0.34393  Biso   1.000  N
  H621     1.0000 0.08420  0.23326  0.27209  Biso   1.000  H
  H622     1.0000 0.08251  0.29856  0.33291  Biso   1.000  H
  H623     1.0000 0.08424  0.23334  0.27209  Biso   1.000  H
  H624     1.0000 0.08424  0.23326  0.27209  Biso   1.000  H
  N501     1.0000 0.08543  0.77209  0.64727  Biso   1.000  N
  O199     1.0000 0.01002  0.67231  0.60212  Biso   1.000  O
  N502     1.0000 0.08547  0.77209  0.64727  Biso   1.000  N
  C598     1.0000 0.09148  0.84849  0.69639  Biso   1.000  C
  H625     1.0000 0.02169  0.83787  0.76231  Biso   1.000  H
  C599     1.0000 0.09153  0.84849  0.69639  Biso   1.000  C
  H626     1.0000 0.02173  0.83787  0.76231  Biso   1.000  H
  C600     1.0000 0.06342  0.02802  0.69261  Biso   1.000  C
  N503     1.0000 0.15677  0.90604  0.37173  Biso   1.000  N
  O200     1.0000 0.08164  0.79460  0.33441  Biso   1.000  O
  O201     1.0000 0.08169  0.79460  0.33441  Biso   1.000  O
  H627     1.0000 0.15290  0.07560  0.27309  Biso   1.000  H
  C601     1.0000 0.18192  0.00950  0.35614  Biso   1.000  C
  C602     1.0000 0.18197  0.00950  0.35614  Biso   1.000  C
  C603     1.0000 0.14634  0.17179  0.39501  Biso   1.000  C
  C604     1.0000 0.13581  0.72827  0.61306  Biso   1.000  C
  H628     1.0000 0.11859  0.82182  0.72842  Biso   1.000  H
  N504     1.0000 0.10830  0.95562  0.67757  Biso   1.000  N
  H629     1.0000 0.11864  0.82182  0.72842  Biso   1.000  H
  O202     1.0000 0.06775  0.12517  0.68855  Biso   1.000  O
  C605     1.0000 0.19053  0.82638  0.40549  Biso   1.000  C
  H630     1.0000 0.22179  0.00247  0.33651  Biso   1.000  H
  N505     1.0000 0.18365  0.08661  0.40535  Biso   1.000  N
  N506     1.0000 0.18365  0.08653  0.40535  Biso   1.000  N
  H631     1.0000 0.22183  0.00247  0.33651  Biso   1.000  H
  O203     1.0000 0.14351  0.25265  0.42562  Biso   1.000  O
  H632     1.0000 0.16921  0.71398  0.64080  Biso   1.000  H
  H633     1.0000 0.12329  0.66081  0.59552  Biso   1.000  H
  N507     1.0000 0.15764  0.79700  0.56472  Biso   1.000  N
  N508     1.0000 0.15764  0.79692  0.56472  Biso   1.000  N
  H634     1.0000 0.12333  0.66081  0.59552  Biso   1.000  H
  C606     1.0000 0.16989  0.98882  0.66299  Biso   1.000  C
  H635     1.0000 0.23322  0.83101  0.39432  Biso   1.000  H
  H636     1.0000 0.17600  0.75613  0.39382  Biso   1.000  H
  N509     1.0000 0.18525  0.83763  0.47068  Biso   1.000  N
  N510     1.0000 0.18529  0.83763  0.47068  Biso   1.000  N
  C607     1.0000 0.22807  0.08518  0.45410  Biso   1.000  C
  C608     1.0000 0.14885  0.77217  0.50449  Biso   1.000  C
  C609     1.0000 0.20598  0.87347  0.57324  Biso   1.000  C
  H637     1.0000 0.19810  0.94851  0.68810  Biso   1.000  H
  N511     1.0000 0.18675  0.97454  0.59953  Biso   1.000  N
  H638     1.0000 0.19814  0.94851  0.68810  Biso   1.000  H
  H639     1.0000 0.17440  0.06362  0.67352  Biso   1.000  H
  C610     1.0000 0.22411  0.90429  0.50736  Biso   1.000  C
  H640     1.0000 0.23350  0.15750  0.46900  Biso   1.000  H
  H641     1.0000 0.26680  0.06139  0.43779  Biso   1.000  H
  N512     1.0000 0.21163  0.01724  0.50458  Biso   1.000  N
  H642     1.0000 0.23354  0.15750  0.46900  Biso   1.000  H
  O204     1.0000 0.11545  0.70320  0.48485  Biso   1.000  O
  O205     1.0000 0.11550  0.70320  0.48485  Biso   1.000  O
  H643     1.0000 0.24028  0.84258  0.59561  Biso   1.000  H
  H644     1.0000 0.24033  0.84258  0.59561  Biso   1.000  H
  C611     1.0000 0.19431  0.05843  0.56016  Biso   1.000  C
  C612     1.0000 0.19431  0.05835  0.56016  Biso   1.000  C
  H645     1.0000 0.26721  0.88944  0.49961  Biso   1.000  H
  H646     1.0000 0.26721  0.88936  0.49961  Biso   1.000  H
  O206     1.0000 0.18675  0.15223  0.57169  Biso   1.000  O
  O207     1.0000 0.81325  0.84777  0.42836  Biso   1.000  O
  C613     1.0000 0.80569  0.94157  0.43984  Biso   1.000  C
  C614     1.0000 0.80573  0.94157  0.43984  Biso   1.000  C
  N513     1.0000 0.78837  0.98276  0.49542  Biso   1.000  N
  N514     1.0000 0.78842  0.98276  0.49542  Biso   1.000  N
  O208     1.0000 0.81329  0.84777  0.42836  Biso   1.000  O
  N515     1.0000 0.81325  0.02546  0.40052  Biso   1.000  N
  N516     1.0000 0.81329  0.02546  0.40052  Biso   1.000  N
  C615     1.0000 0.77193  0.91482  0.54590  Biso   1.000  C
  C616     1.0000 0.77589  0.09571  0.49264  Biso   1.000  C
  C617     1.0000 0.77594  0.09571  0.49264  Biso   1.000  C
  C618     1.0000 0.79402  0.12653  0.42676  Biso   1.000  C
  C619     1.0000 0.83011  0.01118  0.33701  Biso   1.000  C
  H647     1.0000 0.76650  0.84250  0.53100  Biso   1.000  H
  H648     1.0000 0.73320  0.93861  0.56221  Biso   1.000  H
  N517     1.0000 0.81635  0.91339  0.59465  Biso   1.000  N
  N518     1.0000 0.81639  0.91339  0.59465  Biso   1.000  N
  H649     1.0000 0.73279  0.11056  0.50039  Biso   1.000  H
  N519     1.0000 0.81475  0.16237  0.52932  Biso   1.000  N
  H650     1.0000 0.73284  0.11056  0.50039  Biso   1.000  H
  H651     1.0000 0.75972  0.15742  0.40439  Biso   1.000  H
  N520     1.0000 0.84236  0.20300  0.43528  Biso   1.000  N
  N521     1.0000 0.84241  0.20300  0.43528  Biso   1.000  N
  H652     1.0000 0.82560  0.93638  0.32648  Biso   1.000  H
  H653     1.0000 0.80190  0.05149  0.31190  Biso   1.000  H
  N522     1.0000 0.89170  0.04438  0.32243  Biso   1.000  N
  N523     1.0000 0.89175  0.04438  0.32243  Biso   1.000  N
  C620     1.0000 0.85366  0.82821  0.60499  Biso   1.000  C
  C621     1.0000 0.81808  0.99050  0.64386  Biso   1.000  C
  C622     1.0000 0.80947  0.17362  0.59456  Biso   1.000  C
  C623     1.0000 0.80951  0.17362  0.59456  Biso   1.000  C
  C624     1.0000 0.85115  0.22783  0.49556  Biso   1.000  C
  C625     1.0000 0.86419  0.27173  0.38699  Biso   1.000  C
  C626     1.0000 0.86419  0.27165  0.38699  Biso   1.000  C
  C627     1.0000 0.93658  0.97198  0.30744  Biso   1.000  C
  C628     1.0000 0.90852  0.15151  0.30361  Biso   1.000  C
  N524     1.0000 0.88783  0.85008  0.65607  Biso   1.000  N
  O209     1.0000 0.85649  0.74735  0.57438  Biso   1.000  O
  O210     1.0000 0.85649  0.74727  0.57438  Biso   1.000  O
  N525     1.0000 0.88788  0.85008  0.65607  Biso   1.000  N
  O211     1.0000 0.85653  0.74735  0.57438  Biso   1.000  O
  O212     1.0000 0.85653  0.74727  0.57438  Biso   1.000  O
  H654     1.0000 0.77821  0.99753  0.66349  Biso   1.000  H
  C629     1.0000 0.86560  0.94372  0.68778  Biso   1.000  C
  C630     1.0000 0.86564  0.94372  0.68778  Biso   1.000  C
  N526     1.0000 0.84323  0.09396  0.62827  Biso   1.000  N
  N527     1.0000 0.84323  0.09388  0.62827  Biso   1.000  N
  N528     1.0000 0.84327  0.09396  0.62827  Biso   1.000  N
  N529     1.0000 0.84327  0.09388  0.62827  Biso   1.000  N
  H655     1.0000 0.76678  0.16899  0.60572  Biso   1.000  H
  H656     1.0000 0.82400  0.24387  0.60622  Biso   1.000  H
  H657     1.0000 0.76682  0.16899  0.60572  Biso   1.000  H
  O213     1.0000 0.88455  0.29680  0.51519  Biso   1.000  O
  H658     1.0000 0.83079  0.28602  0.35920  Biso   1.000  H
  H659     1.0000 0.87671  0.33919  0.40453  Biso   1.000  H
  N530     1.0000 0.91457  0.22791  0.35273  Biso   1.000  N
  N531     1.0000 0.91457  0.22783  0.35273  Biso   1.000  N
  H660     1.0000 0.83084  0.28602  0.35920  Biso   1.000  H
  O214     1.0000 0.93225  0.87483  0.31145  Biso   1.000  O
  O215     1.0000 0.93230  0.87483  0.31145  Biso   1.000  O
  N532     1.0000 0.98633  0.02602  0.28712  Biso   1.000  N
  N533     1.0000 0.98638  0.02602  0.28712  Biso   1.000  N
  H661     1.0000 0.88141  0.17818  0.27158  Biso   1.000  H
  C631     1.0000 0.97458  0.13954  0.28029  Biso   1.000  C
  C632     1.0000 0.92619  0.77050  0.68495  Biso   1.000  C
  H662     1.0000 0.84710  0.92440  0.72691  Biso   1.000  H
  N534     1.0000 0.90897  0.02930  0.69502  Biso   1.000  N
  N535     1.0000 0.90902  0.02930  0.69502  Biso   1.000  N
  C633     1.0000 0.89289  0.11910  0.66317  Biso   1.000  C
  C634     1.0000 0.89293  0.11910  0.66317  Biso   1.000  C
  C635     1.0000 0.97294  0.26032  0.36097  Biso   1.000  C
  C636     1.0000 0.03982  0.97254  0.26325  Biso   1.000  C
  C637     1.0000 0.03982  0.97246  0.26325  Biso   1.000  C
  H663     1.0000 0.97831  0.16213  0.23769  Biso   1.000  H
  N536     1.0000 0.00957  0.20819  0.32074  Biso   1.000  N
  H664     1.0000 0.91580  0.76666  0.72791  Biso   1.000  H
  H665     1.0000 0.91749  0.70137  0.66709  Biso   1.000  H
  N537     1.0000 0.99043  0.79181  0.67930  Biso   1.000  N
  H666     1.0000 0.91754  0.70137  0.66709  Biso   1.000  H
  N538     1.0000 0.99048  0.79181  0.67930  Biso   1.000  N
  C638     1.0000 0.96018  0.02746  0.73680  Biso   1.000  C
  O216     1.0000 0.91836  0.20540  0.66563  Biso   1.000  O
  O217     1.0000 0.98998  0.32769  0.39788  Biso   1.000  O
  H667     1.0000 0.02902  0.89958  0.25300  Biso   1.000  H
  N539     1.0000 0.09103  0.97070  0.30498  Biso   1.000  N
  H668     1.0000 0.05230  0.00782  0.22589  Biso   1.000  H
  C639     1.0000 0.07381  0.22950  0.31505  Biso   1.000  C
  C640     1.0000 0.02706  0.73968  0.63903  Biso   1.000  C
  C641     1.0000 0.02542  0.86046  0.71976  Biso   1.000  C
  C642     1.0000 0.02711  0.73968  0.63903  Biso   1.000  C
  C643     1.0000 0.02547  0.86046  0.71976  Biso   1.000  C
  H669     1.0000 0.94770  0.99218  0.77411  Biso   1.000  H
  H670     1.0000 0.97098  0.10042  0.74700  Biso   1.000  H
  H671     1.0000 0.97102  0.10042  0.74700  Biso   1.000  H
  N540     1.0000 0.01367  0.97398  0.71293  Biso   1.000  N
  N541     1.0000 0.01367  0.97390  0.71293  Biso   1.000  N
  C644     1.0000 0.10711  0.88090  0.33683  Biso   1.000  C
  C645     1.0000 0.13440  0.05628  0.31222  Biso   1.000  C
  H672     1.0000 0.08420  0.23334  0.27209  Biso   1.000  H
  H673     1.0000 0.08251  0.29863  0.33291  Biso   1.000  H
  N542     1.0000 0.11217  0.14992  0.34393  Biso   1.000  N
  H674     1.0000 0.08420  0.23326  0.27209  Biso   1.000  H
  H675     1.0000 0.08251  0.29856  0.33291  Biso   1.000  H
  H676     1.0000 0.08424  0.23334  0.27209  Biso   1.000  H
  H677     1.0000 0.08424  0.23326  0.27209  Biso   1.000  H
  N543     1.0000 0.08543  0.77209  0.64727  Biso   1.000  N
  O218     1.0000 0.01002  0.67231  0.60212  Biso   1.000  O
  N544     1.0000 0.08547  0.77209  0.64727  Biso   1.000  N
  C646     1.0000 0.09148  0.84849  0.69639  Biso   1.000  C
  H678     1.0000 0.02169  0.83787  0.76231  Biso   1.000  H
  C647     1.0000 0.09153  0.84849  0.69639  Biso   1.000  C
  H679     1.0000 0.02173  0.83787  0.76231  Biso   1.000  H
  C648     1.0000 0.06342  0.02802  0.69261  Biso   1.000  C
  N545     1.0000 0.15677  0.90604  0.37173  Biso   1.000  N
  O219     1.0000 0.08164  0.79460  0.33441  Biso   1.000  O
  O220     1.0000 0.08169  0.79460  0.33441  Biso   1.000  O
  H680     1.0000 0.15290  0.07560  0.27309  Biso   1.000  H
  C649     1.0000 0.18192  0.00950  0.35614  Biso   1.000  C
  C650     1.0000 0.18197  0.00950  0.35614  Biso   1.000  C
  C651     1.0000 0.14634  0.17179  0.39501  Biso   1.000  C
  C652     1.0000 0.13581  0.72827  0.61306  Biso   1.000  C
  H681     1.0000 0.11859  0.82182  0.72842  Biso   1.000  H
  N546     1.0000 0.10830  0.95562  0.67757  Biso   1.000  N
  H682     1.0000 0.11864  0.82182  0.72842  Biso   1.000  H
  O221     1.0000 0.06775  0.12517  0.68855  Biso   1.000  O
  C653     1.0000 0.19053  0.82638  0.40549  Biso   1.000  C
  H683     1.0000 0.22179  0.00247  0.33651  Biso   1.000  H
  N547     1.0000 0.18365  0.08661  0.40535  Biso   1.000  N
  N548     1.0000 0.18365  0.08653  0.40535  Biso   1.000  N
  H684     1.0000 0.22183  0.00247  0.33651  Biso   1.000  H
  O222     1.0000 0.14351  0.25265  0.42562  Biso   1.000  O
  H685     1.0000 0.16921  0.71398  0.64080  Biso   1.000  H
  H686     1.0000 0.12329  0.66081  0.59552  Biso   1.000  H
  N549     1.0000 0.15764  0.79700  0.56472  Biso   1.000  N
  N550     1.0000 0.15764  0.79692  0.56472  Biso   1.000  N
  H687     1.0000 0.12333  0.66081  0.59552  Biso   1.000  H
  C654     1.0000 0.16989  0.98882  0.66299  Biso   1.000  C
  N551     1.0000 0.18525  0.83763  0.47068  Biso   1.000  N
  N552     1.0000 0.18529  0.83763  0.47068  Biso   1.000  N
  H688     1.0000 0.23322  0.83101  0.39432  Biso   1.000  H
  H689     1.0000 0.17600  0.75613  0.39382  Biso   1.000  H
  C655     1.0000 0.22807  0.08518  0.45410  Biso   1.000  C
  C656     1.0000 0.14885  0.77217  0.50449  Biso   1.000  C
  C657     1.0000 0.20598  0.87347  0.57324  Biso   1.000  C
  H690     1.0000 0.19810  0.94851  0.68810  Biso   1.000  H
  N553     1.0000 0.18675  0.97454  0.59953  Biso   1.000  N
  H691     1.0000 0.19814  0.94851  0.68810  Biso   1.000  H
  H692     1.0000 0.17440  0.06362  0.67352  Biso   1.000  H
  C658     1.0000 0.22411  0.90429  0.50736  Biso   1.000  C
  N554     1.0000 0.21163  0.01724  0.50458  Biso   1.000  N
  H693     1.0000 0.23350  0.15750  0.46900  Biso   1.000  H
  H694     1.0000 0.26680  0.06139  0.43779  Biso   1.000  H
  H695     1.0000 0.23354  0.15750  0.46900  Biso   1.000  H
  O223     1.0000 0.11545  0.70320  0.48485  Biso   1.000  O
  O224     1.0000 0.11550  0.70320  0.48485  Biso   1.000  O
  H696     1.0000 0.24028  0.84258  0.59561  Biso   1.000  H
  H697     1.0000 0.24033  0.84258  0.59561  Biso   1.000  H
  C659     1.0000 0.19431  0.05843  0.56016  Biso   1.000  C
  C660     1.0000 0.19431  0.05835  0.56016  Biso   1.000  C
  H698     1.0000 0.26721  0.88944  0.49961  Biso   1.000  H
  H699     1.0000 0.26721  0.88936  0.49961  Biso   1.000  H
  O225     1.0000 0.18675  0.15223  0.57169  Biso   1.000  O
  O226     1.0000 0.81325  0.84777  0.42836  Biso   1.000  O
  C661     1.0000 0.80569  0.94157  0.43984  Biso   1.000  C
  C662     1.0000 0.80573  0.94157  0.43984  Biso   1.000  C
  N555     1.0000 0.78837  0.98276  0.49542  Biso   1.000  N
  N556     1.0000 0.78842  0.98276  0.49542  Biso   1.000  N
  O227     1.0000 0.81329  0.84777  0.42836  Biso   1.000  O
  N557     1.0000 0.81325  0.02546  0.40052  Biso   1.000  N
  N558     1.0000 0.81329  0.02546  0.40052  Biso   1.000  N
  C663     1.0000 0.77193  0.91482  0.54590  Biso   1.000  C
  C664     1.0000 0.77589  0.09571  0.49264  Biso   1.000  C
  C665     1.0000 0.77594  0.09571  0.49264  Biso   1.000  C
  C666     1.0000 0.79402  0.12653  0.42676  Biso   1.000  C
  C667     1.0000 0.83011  0.01118  0.33701  Biso   1.000  C
  H700     1.0000 0.76650  0.84250  0.53100  Biso   1.000  H
  H701     1.0000 0.73320  0.93861  0.56221  Biso   1.000  H
  N559     1.0000 0.81635  0.91339  0.59465  Biso   1.000  N
  N560     1.0000 0.81639  0.91339  0.59465  Biso   1.000  N
  H702     1.0000 0.73279  0.11056  0.50039  Biso   1.000  H
  N561     1.0000 0.81475  0.16237  0.52932  Biso   1.000  N
  H703     1.0000 0.73284  0.11056  0.50039  Biso   1.000  H
  H704     1.0000 0.75972  0.15742  0.40439  Biso   1.000  H
  N562     1.0000 0.84236  0.20300  0.43528  Biso   1.000  N
  N563     1.0000 0.84241  0.20300  0.43528  Biso   1.000  N
  H705     1.0000 0.82560  0.93638  0.32648  Biso   1.000  H
  H706     1.0000 0.80190  0.05149  0.31190  Biso   1.000  H
  N564     1.0000 0.89170  0.04438  0.32243  Biso   1.000  N
  N565     1.0000 0.89175  0.04438  0.32243  Biso   1.000  N
  C668     1.0000 0.85366  0.82821  0.60499  Biso   1.000  C
  C669     1.0000 0.81808  0.99050  0.64386  Biso   1.000  C
  C670     1.0000 0.80947  0.17362  0.59456  Biso   1.000  C
  C671     1.0000 0.80951  0.17362  0.59456  Biso   1.000  C
  C672     1.0000 0.85115  0.22783  0.49556  Biso   1.000  C
  C673     1.0000 0.86419  0.27173  0.38699  Biso   1.000  C
  C674     1.0000 0.86419  0.27165  0.38699  Biso   1.000  C
  C675     1.0000 0.93658  0.97198  0.30744  Biso   1.000  C
  C676     1.0000 0.90852  0.15151  0.30361  Biso   1.000  C
  N566     1.0000 0.88783  0.85008  0.65607  Biso   1.000  N
  O228     1.0000 0.85649  0.74735  0.57438  Biso   1.000  O
  O229     1.0000 0.85649  0.74727  0.57438  Biso   1.000  O
  N567     1.0000 0.88788  0.85008  0.65607  Biso   1.000  N
  O230     1.0000 0.85653  0.74735  0.57438  Biso   1.000  O
  O231     1.0000 0.85653  0.74727  0.57438  Biso   1.000  O
  H707     1.0000 0.77821  0.99753  0.66349  Biso   1.000  H
  C677     1.0000 0.86560  0.94372  0.68778  Biso   1.000  C
  C678     1.0000 0.86564  0.94372  0.68778  Biso   1.000  C
  N568     1.0000 0.84323  0.09396  0.62827  Biso   1.000  N
  N569     1.0000 0.84323  0.09388  0.62827  Biso   1.000  N
  N570     1.0000 0.84327  0.09396  0.62827  Biso   1.000  N
  N571     1.0000 0.84327  0.09388  0.62827  Biso   1.000  N
  H708     1.0000 0.76678  0.16899  0.60572  Biso   1.000  H
  H709     1.0000 0.82400  0.24387  0.60622  Biso   1.000  H
  H710     1.0000 0.76682  0.16899  0.60572  Biso   1.000  H
  O232     1.0000 0.88455  0.29680  0.51519  Biso   1.000  O
  H711     1.0000 0.83079  0.28602  0.35920  Biso   1.000  H
  H712     1.0000 0.87671  0.33919  0.40453  Biso   1.000  H
  N572     1.0000 0.91457  0.22791  0.35273  Biso   1.000  N
  N573     1.0000 0.91457  0.22783  0.35273  Biso   1.000  N
  H713     1.0000 0.83084  0.28602  0.35920  Biso   1.000  H
  O233     1.0000 0.93225  0.87483  0.31145  Biso   1.000  O
  O234     1.0000 0.93230  0.87483  0.31145  Biso   1.000  O
  N574     1.0000 0.98633  0.02602  0.28712  Biso   1.000  N
  N575     1.0000 0.98638  0.02602  0.28712  Biso   1.000  N
  H714     1.0000 0.88141  0.17818  0.27158  Biso   1.000  H
  C679     1.0000 0.97458  0.13954  0.28029  Biso   1.000  C
  C680     1.0000 0.92619  0.77050  0.68495  Biso   1.000  C
  H715     1.0000 0.84710  0.92440  0.72691  Biso   1.000  H
  N576     1.0000 0.90897  0.02930  0.69502  Biso   1.000  N
  N577     1.0000 0.90902  0.02930  0.69502  Biso   1.000  N
  C681     1.0000 0.89289  0.11910  0.66317  Biso   1.000  C
  C682     1.0000 0.89293  0.11910  0.66317  Biso   1.000  C
  C683     1.0000 0.97294  0.26032  0.36097  Biso   1.000  C
  C684     1.0000 0.03982  0.97254  0.26325  Biso   1.000  C
  C685     1.0000 0.03982  0.97246  0.26325  Biso   1.000  C
  H716     1.0000 0.97831  0.16213  0.23769  Biso   1.000  H
  N578     1.0000 0.00957  0.20819  0.32074  Biso   1.000  N
  H717     1.0000 0.91580  0.76666  0.72791  Biso   1.000  H
  H718     1.0000 0.91749  0.70137  0.66709  Biso   1.000  H
  N579     1.0000 0.99043  0.79181  0.67930  Biso   1.000  N
  H719     1.0000 0.91754  0.70137  0.66709  Biso   1.000  H
  N580     1.0000 0.99048  0.79181  0.67930  Biso   1.000  N
  C686     1.0000 0.96018  0.02746  0.73680  Biso   1.000  C
  O235     1.0000 0.91836  0.20540  0.66563  Biso   1.000  O
  O236     1.0000 0.98998  0.32769  0.39788  Biso   1.000  O
  H720     1.0000 0.02902  0.89958  0.25300  Biso   1.000  H
  N581     1.0000 0.09103  0.97070  0.30498  Biso   1.000  N
  H721     1.0000 0.05230  0.00782  0.22589  Biso   1.000  H
  C687     1.0000 0.07381  0.22950  0.31505  Biso   1.000  C
  C688     1.0000 0.02706  0.73968  0.63903  Biso   1.000  C
  C689     1.0000 0.02542  0.86046  0.71976  Biso   1.000  C
  C690     1.0000 0.02711  0.73968  0.63903  Biso   1.000  C
  C691     1.0000 0.02547  0.86046  0.71976  Biso   1.000  C
  H722     1.0000 0.94770  0.99218  0.77411  Biso   1.000  H
  H723     1.0000 0.97098  0.10042  0.74700  Biso   1.000  H
  H724     1.0000 0.97102  0.10042  0.74700  Biso   1.000  H
  N582     1.0000 0.01367  0.97398  0.71293  Biso   1.000  N
  N583     1.0000 0.01367  0.97390  0.71293  Biso   1.000  N
  C692     1.0000 0.10711  0.88090  0.33683  Biso   1.000  C
  C693     1.0000 0.13440  0.05628  0.31222  Biso   1.000  C
  H725     1.0000 0.08420  0.23334  0.27209  Biso   1.000  H
  H726     1.0000 0.08251  0.29863  0.33291  Biso   1.000  H
  N584     1.0000 0.11217  0.14992  0.34393  Biso   1.000  N
  H727     1.0000 0.08420  0.23326  0.27209  Biso   1.000  H
  H728     1.0000 0.08251  0.29856  0.33291  Biso   1.000  H
  H729     1.0000 0.08424  0.23334  0.27209  Biso   1.000  H
  H730     1.0000 0.08424  0.23326  0.27209  Biso   1.000  H
  N585     1.0000 0.08543  0.77209  0.64727  Biso   1.000  N
  O237     1.0000 0.01002  0.67231  0.60212  Biso   1.000  O
  N586     1.0000 0.08547  0.77209  0.64727  Biso   1.000  N
  C694     1.0000 0.09148  0.84849  0.69639  Biso   1.000  C
  H731     1.0000 0.02169  0.83787  0.76231  Biso   1.000  H
  C695     1.0000 0.09153  0.84849  0.69639  Biso   1.000  C
  H732     1.0000 0.02173  0.83787  0.76231  Biso   1.000  H
  C696     1.0000 0.06342  0.02802  0.69261  Biso   1.000  C
  N587     1.0000 0.15677  0.90604  0.37173  Biso   1.000  N
  O238     1.0000 0.08164  0.79460  0.33441  Biso   1.000  O
  O239     1.0000 0.08169  0.79460  0.33441  Biso   1.000  O
  H733     1.0000 0.15290  0.07560  0.27309  Biso   1.000  H
  C697     1.0000 0.18192  0.00950  0.35614  Biso   1.000  C
  C698     1.0000 0.18197  0.00950  0.35614  Biso   1.000  C
  C699     1.0000 0.14634  0.17179  0.39501  Biso   1.000  C
  C700     1.0000 0.13581  0.72827  0.61306  Biso   1.000  C
  H734     1.0000 0.11859  0.82182  0.72842  Biso   1.000  H
  N588     1.0000 0.10830  0.95562  0.67757  Biso   1.000  N
  H735     1.0000 0.11864  0.82182  0.72842  Biso   1.000  H
  O240     1.0000 0.06775  0.12517  0.68855  Biso   1.000  O
  C701     1.0000 0.19053  0.82638  0.40549  Biso   1.000  C
  H736     1.0000 0.22179  0.00247  0.33651  Biso   1.000  H
  N589     1.0000 0.18365  0.08661  0.40535  Biso   1.000  N
  N590     1.0000 0.18365  0.08653  0.40535  Biso   1.000  N
  H737     1.0000 0.22183  0.00247  0.33651  Biso   1.000  H
  O241     1.0000 0.14351  0.25265  0.42562  Biso   1.000  O
  H738     1.0000 0.16921  0.71398  0.64080  Biso   1.000  H
  H739     1.0000 0.12329  0.66081  0.59552  Biso   1.000  H
  N591     1.0000 0.15764  0.79700  0.56472  Biso   1.000  N
  N592     1.0000 0.15764  0.79692  0.56472  Biso   1.000  N
  H740     1.0000 0.12333  0.66081  0.59552  Biso   1.000  H
  C702     1.0000 0.16989  0.98882  0.66299  Biso   1.000  C
  N593     1.0000 0.18525  0.83763  0.47068  Biso   1.000  N
  N594     1.0000 0.18529  0.83763  0.47068  Biso   1.000  N
  H741     1.0000 0.23322  0.83101  0.39432  Biso   1.000  H
  H742     1.0000 0.17600  0.75613  0.39382  Biso   1.000  H
  C703     1.0000 0.22807  0.08518  0.45410  Biso   1.000  C
  C704     1.0000 0.14885  0.77217  0.50449  Biso   1.000  C
  C705     1.0000 0.20598  0.87347  0.57324  Biso   1.000  C
  H743     1.0000 0.19810  0.94851  0.68810  Biso   1.000  H
  N595     1.0000 0.18675  0.97454  0.59953  Biso   1.000  N
  H744     1.0000 0.19814  0.94851  0.68810  Biso   1.000  H
  H745     1.0000 0.17440  0.06362  0.67352  Biso   1.000  H
  C706     1.0000 0.22411  0.90429  0.50736  Biso   1.000  C
  N596     1.0000 0.21163  0.01724  0.50458  Biso   1.000  N
  H746     1.0000 0.23350  0.15750  0.46900  Biso   1.000  H
  H747     1.0000 0.26680  0.06139  0.43779  Biso   1.000  H
  H748     1.0000 0.23354  0.15750  0.46900  Biso   1.000  H
  O242     1.0000 0.11545  0.70320  0.48485  Biso   1.000  O
  O243     1.0000 0.11550  0.70320  0.48485  Biso   1.000  O
  H749     1.0000 0.24028  0.84258  0.59561  Biso   1.000  H
  H750     1.0000 0.24033  0.84258  0.59561  Biso   1.000  H
  C707     1.0000 0.19431  0.05843  0.56016  Biso   1.000  C
  C708     1.0000 0.19431  0.05835  0.56016  Biso   1.000  C
  H751     1.0000 0.26721  0.88944  0.49961  Biso   1.000  H
  H752     1.0000 0.26721  0.88936  0.49961  Biso   1.000  H
  O244     1.0000 0.18675  0.15223  0.57169  Biso   1.000  O
