data_image0
_cell_length_a       37.248
_cell_length_b       14.191
_cell_length_c       37.892
_cell_angle_alpha    90
_cell_angle_beta     92
_cell_angle_gamma    90

_symmetry_space_group_name_H-M    "P 1"
_symmetry_int_tables_number       1

loop_
  _symmetry_equiv_pos_as_xyz
  'x, y, z'

loop_
  _atom_site_label
  _atom_site_occupancy
  _atom_site_fract_x
  _atom_site_fract_y
  _atom_site_fract_z
  _atom_site_thermal_displace_type
  _atom_site_B_iso_or_equiv
  _atom_site_type_symbol
  C1       1.0000 0.52036  0.17307  0.45470  Biso   1.000  C
  N1       1.0000 0.52287  0.21105  0.41945  Biso   1.000  N
  N2       1.0000 0.50612  0.07780  0.45523  Biso   1.000  N
  H1       1.0000 0.54451  0.17342  0.46640  Biso   1.000  H
  H2       1.0000 0.50471  0.21464  0.46851  Biso   1.000  H
  C2       1.0000 0.49591  0.26883  0.40202  Biso   1.000  C
  C3       1.0000 0.55489  0.21345  0.40273  Biso   1.000  C
  C4       1.0000 0.46873  0.05377  0.45393  Biso   1.000  C
  C5       1.0000 0.46873  0.05384  0.45393  Biso   1.000  C
  C6       1.0000 0.52783  0.00000  0.45647  Biso   1.000  C
  C7       1.0000 0.52783  0.00007  0.45647  Biso   1.000  C
  N3       1.0000 0.46455  0.21866  0.38916  Biso   1.000  N
  C8       1.0000 0.51378  0.30104  0.36785  Biso   1.000  C
  H3       1.0000 0.48930  0.32387  0.41699  Biso   1.000  H
  N4       1.0000 0.54963  0.26136  0.37173  Biso   1.000  N
  O1       1.0000 0.58359  0.18166  0.41398  Biso   1.000  O
  N5       1.0000 0.44983  0.07822  0.42127  Biso   1.000  N
  C9       1.0000 0.46873  0.94623  0.45393  Biso   1.000  C
  C10      1.0000 0.46873  0.94616  0.45393  Biso   1.000  C
  H4       1.0000 0.45621  0.07949  0.47480  Biso   1.000  H
  H5       1.0000 0.45621  0.07956  0.47480  Biso   1.000  H
  N6       1.0000 0.50612  0.92213  0.45523  Biso   1.000  N
  O2       1.0000 0.56095  0.00000  0.45856  Biso   1.000  O
  O3       1.0000 0.56095  0.00007  0.45856  Biso   1.000  O
  C11      1.0000 0.46158  0.21746  0.35243  Biso   1.000  C
  C12      1.0000 0.46158  0.21753  0.35243  Biso   1.000  C
  C13      1.0000 0.43974  0.17328  0.40957  Biso   1.000  C
  N7       1.0000 0.49114  0.26284  0.34028  Biso   1.000  N
  H6       1.0000 0.51470  0.37136  0.36640  Biso   1.000  H
  H7       1.0000 0.51470  0.37143  0.36640  Biso   1.000  H
  C14      1.0000 0.57775  0.27257  0.34646  Biso   1.000  C
  C15      1.0000 0.57775  0.27264  0.34646  Biso   1.000  C
  C16      1.0000 0.43684  0.00000  0.40342  Biso   1.000  C
  C17      1.0000 0.43684  0.00007  0.40342  Biso   1.000  C
  N8       1.0000 0.44983  0.92178  0.42127  Biso   1.000  N
  H8       1.0000 0.45621  0.92051  0.47480  Biso   1.000  H
  H9       1.0000 0.45621  0.92044  0.47480  Biso   1.000  H
  C18      1.0000 0.52036  0.82686  0.45470  Biso   1.000  C
  O4       1.0000 0.43604  0.18681  0.33481  Biso   1.000  O
  H10      1.0000 0.41670  0.16926  0.39581  Biso   1.000  H
  H11      1.0000 0.43561  0.21225  0.43070  Biso   1.000  H
  C19      1.0000 0.49488  0.28074  0.30281  Biso   1.000  C
  N9       1.0000 0.57558  0.20527  0.31762  Biso   1.000  N
  H12      1.0000 0.60139  0.26566  0.35900  Biso   1.000  H
  H13      1.0000 0.57641  0.33704  0.33661  Biso   1.000  H
  O5       1.0000 0.41697  0.00000  0.37685  Biso   1.000  O
  O6       1.0000 0.41697  0.00007  0.37685  Biso   1.000  O
  C20      1.0000 0.43974  0.82665  0.40957  Biso   1.000  C
  H14      1.0000 0.54451  0.82658  0.46640  Biso   1.000  H
  N10      1.0000 0.52287  0.78888  0.41945  Biso   1.000  N
  H15      1.0000 0.50471  0.78536  0.46851  Biso   1.000  H
  N11      1.0000 0.51752  0.21330  0.28559  Biso   1.000  N
  H16      1.0000 0.50501  0.34458  0.29980  Biso   1.000  H
  H17      1.0000 0.47071  0.27997  0.29100  Biso   1.000  H
  N12      1.0000 0.51752  0.21323  0.28559  Biso   1.000  N
  H18      1.0000 0.50501  0.34466  0.29980  Biso   1.000  H
  H19      1.0000 0.47071  0.28004  0.29100  Biso   1.000  H
  C21      1.0000 0.55665  0.22070  0.28430  Biso   1.000  C
  C22      1.0000 0.55665  0.22063  0.28430  Biso   1.000  C
  C23      1.0000 0.59852  0.12959  0.31659  Biso   1.000  C
  C24      1.0000 0.59852  0.12966  0.31659  Biso   1.000  C
  H20      1.0000 0.43561  0.78768  0.43070  Biso   1.000  H
  N13      1.0000 0.46455  0.78127  0.38916  Biso   1.000  N
  H21      1.0000 0.41670  0.83067  0.39581  Biso   1.000  H
  C25      1.0000 0.49591  0.73103  0.40202  Biso   1.000  C
  C26      1.0000 0.49591  0.73110  0.40202  Biso   1.000  C
  C27      1.0000 0.55489  0.78655  0.40273  Biso   1.000  C
  C28      1.0000 0.50462  0.13311  0.26940  Biso   1.000  C
  H22      1.0000 0.56421  0.28088  0.27289  Biso   1.000  H
  C29      1.0000 0.56679  0.13410  0.26227  Biso   1.000  C
  N14      1.0000 0.59249  0.08562  0.28506  Biso   1.000  N
  N15      1.0000 0.59249  0.08555  0.28506  Biso   1.000  N
  O7       1.0000 0.62038  0.10781  0.33954  Biso   1.000  O
  C30      1.0000 0.46158  0.78254  0.35243  Biso   1.000  C
  C31      1.0000 0.46158  0.78247  0.35243  Biso   1.000  C
  H23      1.0000 0.48930  0.67613  0.41699  Biso   1.000  H
  C32      1.0000 0.51378  0.69889  0.36785  Biso   1.000  C
  H24      1.0000 0.48930  0.67606  0.41699  Biso   1.000  H
  N16      1.0000 0.54963  0.73857  0.37173  Biso   1.000  N
  O8       1.0000 0.58359  0.81834  0.41398  Biso   1.000  O
  O9       1.0000 0.58359  0.81827  0.41398  Biso   1.000  O
  O10      1.0000 0.47293  0.11240  0.26605  Biso   1.000  O
  O11      1.0000 0.47293  0.11247  0.26605  Biso   1.000  O
  N17      1.0000 0.53243  0.08604  0.25641  Biso   1.000  N
  H25      1.0000 0.57750  0.15284  0.23951  Biso   1.000  H
  C33      1.0000 0.61106  0.00000  0.27513  Biso   1.000  C
  C34      1.0000 0.61106  0.00007  0.27513  Biso   1.000  C
  O12      1.0000 0.43604  0.81319  0.33481  Biso   1.000  O
  N18      1.0000 0.49114  0.73716  0.34028  Biso   1.000  N
  H26      1.0000 0.51470  0.62864  0.36640  Biso   1.000  H
  H27      1.0000 0.51470  0.62857  0.36640  Biso   1.000  H
  C35      1.0000 0.57775  0.72743  0.34646  Biso   1.000  C
  C36      1.0000 0.57775  0.72736  0.34646  Biso   1.000  C
  C37      1.0000 0.52768  0.00000  0.23589  Biso   1.000  C
  C38      1.0000 0.52768  0.00007  0.23589  Biso   1.000  C
  N19      1.0000 0.59249  0.91438  0.28506  Biso   1.000  N
  H28      1.0000 0.63541  0.00000  0.28649  Biso   1.000  H
  H29      1.0000 0.61390  0.00000  0.24920  Biso   1.000  H
  H30      1.0000 0.63541  0.00007  0.28649  Biso   1.000  H
  H31      1.0000 0.61390  0.00007  0.24920  Biso   1.000  H
  C39      1.0000 0.49488  0.71919  0.30281  Biso   1.000  C
  N20      1.0000 0.57558  0.79466  0.31762  Biso   1.000  N
  H32      1.0000 0.57641  0.66288  0.33661  Biso   1.000  H
  H33      1.0000 0.60139  0.73427  0.35900  Biso   1.000  H
  N21      1.0000 0.53243  0.91389  0.25641  Biso   1.000  N
  H34      1.0000 0.54509  0.00000  0.21669  Biso   1.000  H
  H35      1.0000 0.50331  0.00000  0.22470  Biso   1.000  H
  H36      1.0000 0.54509  0.00007  0.21669  Biso   1.000  H
  H37      1.0000 0.50331  0.00007  0.22470  Biso   1.000  H
  C40      1.0000 0.56679  0.86590  0.26227  Biso   1.000  C
  C41      1.0000 0.59852  0.87041  0.31659  Biso   1.000  C
  C42      1.0000 0.59852  0.87034  0.31659  Biso   1.000  C
  N22      1.0000 0.51752  0.78670  0.28559  Biso   1.000  N
  H38      1.0000 0.50501  0.65542  0.29980  Biso   1.000  H
  H39      1.0000 0.47071  0.71996  0.29100  Biso   1.000  H
  H40      1.0000 0.50501  0.65534  0.29980  Biso   1.000  H
  C43      1.0000 0.55665  0.77930  0.28430  Biso   1.000  C
  C44      1.0000 0.50462  0.86689  0.26940  Biso   1.000  C
  H41      1.0000 0.57750  0.84709  0.23951  Biso   1.000  H
  O13      1.0000 0.62038  0.89219  0.33954  Biso   1.000  O
  H42      1.0000 0.56421  0.71905  0.27289  Biso   1.000  H
  O14      1.0000 0.47293  0.88760  0.26605  Biso   1.000  O
  O15      1.0000 0.47293  0.88753  0.26605  Biso   1.000  O
  C45      1.0000 0.47968  0.17307  0.54530  Biso   1.000  C
  N23      1.0000 0.49389  0.07780  0.54477  Biso   1.000  N
  H43      1.0000 0.45550  0.17342  0.53360  Biso   1.000  H
  N24      1.0000 0.47715  0.21105  0.58056  Biso   1.000  N
  H44      1.0000 0.49530  0.21464  0.53149  Biso   1.000  H
  C46      1.0000 0.47218  0.00000  0.54353  Biso   1.000  C
  C47      1.0000 0.53131  0.05377  0.54607  Biso   1.000  C
  C48      1.0000 0.47218  0.00007  0.54353  Biso   1.000  C
  C49      1.0000 0.53131  0.05384  0.54607  Biso   1.000  C
  C50      1.0000 0.50413  0.26883  0.59798  Biso   1.000  C
  C51      1.0000 0.44512  0.21345  0.59727  Biso   1.000  C
  N25      1.0000 0.49389  0.92213  0.54477  Biso   1.000  N
  O16      1.0000 0.43906  0.00000  0.54145  Biso   1.000  O
  O17      1.0000 0.43906  0.00007  0.54145  Biso   1.000  O
  N26      1.0000 0.55019  0.07822  0.57873  Biso   1.000  N
  C52      1.0000 0.53131  0.94623  0.54607  Biso   1.000  C
  C53      1.0000 0.53131  0.94616  0.54607  Biso   1.000  C
  H45      1.0000 0.54380  0.07949  0.52521  Biso   1.000  H
  H46      1.0000 0.54380  0.07956  0.52521  Biso   1.000  H
  N27      1.0000 0.53546  0.21866  0.61084  Biso   1.000  N
  H47      1.0000 0.51071  0.32387  0.58301  Biso   1.000  H
  C54      1.0000 0.48623  0.30104  0.63213  Biso   1.000  C
  O18      1.0000 0.41642  0.18166  0.58602  Biso   1.000  O
  N28      1.0000 0.45038  0.26136  0.62827  Biso   1.000  N
  C55      1.0000 0.47968  0.82686  0.54530  Biso   1.000  C
  C56      1.0000 0.56027  0.17328  0.59043  Biso   1.000  C
  C57      1.0000 0.56317  0.00000  0.59658  Biso   1.000  C
  C58      1.0000 0.56317  0.00007  0.59658  Biso   1.000  C
  N29      1.0000 0.55019  0.92178  0.57873  Biso   1.000  N
  H48      1.0000 0.54380  0.92051  0.52521  Biso   1.000  H
  H49      1.0000 0.54380  0.92044  0.52521  Biso   1.000  H
  C59      1.0000 0.53845  0.21746  0.64758  Biso   1.000  C
  C60      1.0000 0.53845  0.21753  0.64758  Biso   1.000  C
  H50      1.0000 0.48531  0.37136  0.63361  Biso   1.000  H
  N30      1.0000 0.50887  0.26284  0.65972  Biso   1.000  N
  H51      1.0000 0.48531  0.37143  0.63361  Biso   1.000  H
  C61      1.0000 0.42226  0.27257  0.65354  Biso   1.000  C
  C62      1.0000 0.42226  0.27264  0.65354  Biso   1.000  C
  H52      1.0000 0.45550  0.82658  0.53360  Biso   1.000  H
  N31      1.0000 0.47715  0.78888  0.58056  Biso   1.000  N
  H53      1.0000 0.49530  0.78536  0.53149  Biso   1.000  H
  H54      1.0000 0.58331  0.16926  0.60419  Biso   1.000  H
  H55      1.0000 0.56440  0.21225  0.56931  Biso   1.000  H
  O19      1.0000 0.58304  0.00000  0.62315  Biso   1.000  O
  O20      1.0000 0.58304  0.00007  0.62315  Biso   1.000  O
  C63      1.0000 0.56027  0.82665  0.59043  Biso   1.000  C
  O21      1.0000 0.56399  0.18681  0.66519  Biso   1.000  O
  C64      1.0000 0.50515  0.28074  0.69717  Biso   1.000  C
  N32      1.0000 0.42444  0.20527  0.68238  Biso   1.000  N
  H56      1.0000 0.39862  0.26566  0.64100  Biso   1.000  H
  H57      1.0000 0.42360  0.33704  0.66339  Biso   1.000  H
  C65      1.0000 0.50413  0.73103  0.59798  Biso   1.000  C
  C66      1.0000 0.50413  0.73110  0.59798  Biso   1.000  C
  C67      1.0000 0.44512  0.78655  0.59727  Biso   1.000  C
  H58      1.0000 0.56440  0.78768  0.56931  Biso   1.000  H
  N33      1.0000 0.53546  0.78127  0.61084  Biso   1.000  N
  H59      1.0000 0.58331  0.83067  0.60419  Biso   1.000  H
  N34      1.0000 0.48252  0.21330  0.71441  Biso   1.000  N
  H60      1.0000 0.49501  0.34458  0.70020  Biso   1.000  H
  H61      1.0000 0.52931  0.27997  0.70900  Biso   1.000  H
  N35      1.0000 0.48252  0.21323  0.71441  Biso   1.000  N
  H62      1.0000 0.49501  0.34466  0.70020  Biso   1.000  H
  H63      1.0000 0.52931  0.28004  0.70900  Biso   1.000  H
  C68      1.0000 0.40149  0.12959  0.68341  Biso   1.000  C
  C69      1.0000 0.44336  0.22070  0.71571  Biso   1.000  C
  C70      1.0000 0.40149  0.12966  0.68341  Biso   1.000  C
  C71      1.0000 0.44336  0.22063  0.71571  Biso   1.000  C
  H64      1.0000 0.51071  0.67613  0.58301  Biso   1.000  H
  C72      1.0000 0.48623  0.69889  0.63213  Biso   1.000  C
  H65      1.0000 0.51071  0.67606  0.58301  Biso   1.000  H
  O22      1.0000 0.41642  0.81834  0.58602  Biso   1.000  O
  O23      1.0000 0.41642  0.81827  0.58602  Biso   1.000  O
  N36      1.0000 0.45038  0.73857  0.62827  Biso   1.000  N
  C73      1.0000 0.53845  0.78254  0.64758  Biso   1.000  C
  C74      1.0000 0.53845  0.78247  0.64758  Biso   1.000  C
  C75      1.0000 0.49541  0.13311  0.73060  Biso   1.000  C
  O24      1.0000 0.37963  0.10781  0.66046  Biso   1.000  O
  N37      1.0000 0.40755  0.08562  0.71494  Biso   1.000  N
  N38      1.0000 0.40755  0.08555  0.71494  Biso   1.000  N
  H66      1.0000 0.43582  0.28088  0.72711  Biso   1.000  H
  C76      1.0000 0.43322  0.13410  0.73773  Biso   1.000  C
  N39      1.0000 0.50887  0.73716  0.65972  Biso   1.000  N
  H67      1.0000 0.48531  0.62864  0.63361  Biso   1.000  H
  H68      1.0000 0.48531  0.62857  0.63361  Biso   1.000  H
  C77      1.0000 0.42226  0.72743  0.65354  Biso   1.000  C
  C78      1.0000 0.42226  0.72736  0.65354  Biso   1.000  C
  O25      1.0000 0.56399  0.81319  0.66519  Biso   1.000  O
  O26      1.0000 0.52710  0.11240  0.73395  Biso   1.000  O
  O27      1.0000 0.52710  0.11247  0.73395  Biso   1.000  O
  N40      1.0000 0.46760  0.08604  0.74359  Biso   1.000  N
  C79      1.0000 0.38895  0.00000  0.72487  Biso   1.000  C
  C80      1.0000 0.38895  0.00007  0.72487  Biso   1.000  C
  H69      1.0000 0.42251  0.15284  0.76049  Biso   1.000  H
  C81      1.0000 0.50515  0.71919  0.69717  Biso   1.000  C
  N41      1.0000 0.42444  0.79466  0.68238  Biso   1.000  N
  H70      1.0000 0.42360  0.66288  0.66339  Biso   1.000  H
  H71      1.0000 0.39862  0.73427  0.64100  Biso   1.000  H
  C82      1.0000 0.47233  0.00000  0.76411  Biso   1.000  C
  C83      1.0000 0.47233  0.00007  0.76411  Biso   1.000  C
  N42      1.0000 0.40755  0.91438  0.71494  Biso   1.000  N
  H72      1.0000 0.36462  0.00000  0.71349  Biso   1.000  H
  H73      1.0000 0.38611  0.00000  0.75080  Biso   1.000  H
  H74      1.0000 0.36462  0.00007  0.71349  Biso   1.000  H
  H75      1.0000 0.38611  0.00007  0.75080  Biso   1.000  H
  N43      1.0000 0.48252  0.78670  0.71441  Biso   1.000  N
  H76      1.0000 0.49501  0.65542  0.70020  Biso   1.000  H
  H77      1.0000 0.52931  0.71996  0.70900  Biso   1.000  H
  H78      1.0000 0.49501  0.65534  0.70020  Biso   1.000  H
  C84      1.0000 0.40149  0.87041  0.68341  Biso   1.000  C
  C85      1.0000 0.44336  0.77930  0.71571  Biso   1.000  C
  C86      1.0000 0.40149  0.87034  0.68341  Biso   1.000  C
  N44      1.0000 0.46760  0.91389  0.74359  Biso   1.000  N
  H79      1.0000 0.45492  0.00000  0.78331  Biso   1.000  H
  H80      1.0000 0.49671  0.00000  0.77531  Biso   1.000  H
  H81      1.0000 0.45492  0.00007  0.78331  Biso   1.000  H
  H82      1.0000 0.49671  0.00007  0.77531  Biso   1.000  H
  C87      1.0000 0.43322  0.86590  0.73773  Biso   1.000  C
  C88      1.0000 0.49541  0.86689  0.73060  Biso   1.000  C
  O28      1.0000 0.37963  0.89219  0.66046  Biso   1.000  O
  H83      1.0000 0.43582  0.71905  0.72711  Biso   1.000  H
  H84      1.0000 0.42251  0.84709  0.76049  Biso   1.000  H
  O29      1.0000 0.52710  0.88760  0.73395  Biso   1.000  O
  O30      1.0000 0.52710  0.88753  0.73395  Biso   1.000  O
  C89      1.0000 0.65480  0.49996  0.47794  Biso   1.000  C
  N45      1.0000 0.66491  0.58579  0.46014  Biso   1.000  N
  N46      1.0000 0.66491  0.41421  0.46014  Biso   1.000  N
  H85      1.0000 0.62842  0.49996  0.48050  Biso   1.000  H
  H86      1.0000 0.66610  0.49996  0.50199  Biso   1.000  H
  C90      1.0000 0.64294  0.63350  0.43347  Biso   1.000  C
  C91      1.0000 0.69651  0.63061  0.46790  Biso   1.000  C
  C92      1.0000 0.64294  0.36650  0.43347  Biso   1.000  C
  C93      1.0000 0.69651  0.36939  0.46790  Biso   1.000  C
  N47      1.0000 0.63876  0.58579  0.39956  Biso   1.000  N
  C94      1.0000 0.66603  0.72116  0.42438  Biso   1.000  C
  H87      1.0000 0.61922  0.65239  0.44279  Biso   1.000  H
  N48      1.0000 0.69821  0.70841  0.44596  Biso   1.000  N
  O31      1.0000 0.71877  0.60870  0.49069  Biso   1.000  O
  N49      1.0000 0.63876  0.41421  0.39956  Biso   1.000  N
  C95      1.0000 0.66603  0.27877  0.42438  Biso   1.000  C
  H88      1.0000 0.61922  0.34761  0.44279  Biso   1.000  H
  N50      1.0000 0.69821  0.29159  0.44596  Biso   1.000  N
  O32      1.0000 0.71877  0.39130  0.49069  Biso   1.000  O
  C96      1.0000 0.61800  0.49996  0.39412  Biso   1.000  C
  C97      1.0000 0.65444  0.63237  0.37321  Biso   1.000  C
  N51      1.0000 0.67047  0.71200  0.38681  Biso   1.000  N
  H89      1.0000 0.65351  0.78120  0.43030  Biso   1.000  H
  C98      1.0000 0.72713  0.77549  0.44839  Biso   1.000  C
  C99      1.0000 0.65444  0.36756  0.37321  Biso   1.000  C
  N52      1.0000 0.67047  0.28800  0.38681  Biso   1.000  N
  H90      1.0000 0.65351  0.21880  0.43030  Biso   1.000  H
  C100     1.0000 0.72713  0.22451  0.44839  Biso   1.000  C
  H91      1.0000 0.59791  0.49996  0.41049  Biso   1.000  H
  H92      1.0000 0.60760  0.49996  0.36970  Biso   1.000  H
  O33      1.0000 0.65260  0.61109  0.34192  Biso   1.000  O
  C101     1.0000 0.68892  0.77916  0.36518  Biso   1.000  C
  N53      1.0000 0.75399  0.76140  0.42320  Biso   1.000  N
  H93      1.0000 0.71700  0.83955  0.44530  Biso   1.000  H
  H94      1.0000 0.73850  0.77197  0.47239  Biso   1.000  H
  O34      1.0000 0.65260  0.38891  0.34192  Biso   1.000  O
  C102     1.0000 0.68892  0.22077  0.36518  Biso   1.000  C
  N54      1.0000 0.75399  0.23860  0.42320  Biso   1.000  N
  H95      1.0000 0.71700  0.16038  0.44530  Biso   1.000  H
  H96      1.0000 0.73850  0.22796  0.47239  Biso   1.000  H
  N55      1.0000 0.72662  0.76358  0.36302  Biso   1.000  N
  H97      1.0000 0.67791  0.77746  0.34099  Biso   1.000  H
  H98      1.0000 0.68510  0.84314  0.37479  Biso   1.000  H
  C103     1.0000 0.75325  0.80319  0.38805  Biso   1.000  C
  C104     1.0000 0.78556  0.71545  0.43006  Biso   1.000  C
  N56      1.0000 0.72662  0.23642  0.36302  Biso   1.000  N
  H99      1.0000 0.67791  0.22246  0.34099  Biso   1.000  H
  H100     1.0000 0.68510  0.15679  0.37479  Biso   1.000  H
  C105     1.0000 0.75325  0.19681  0.38805  Biso   1.000  C
  C106     1.0000 0.78556  0.28448  0.43006  Biso   1.000  C
  C107     1.0000 0.74182  0.71757  0.33592  Biso   1.000  C
  C108     1.0000 0.78952  0.76915  0.37213  Biso   1.000  C
  H101     1.0000 0.75170  0.87344  0.38900  Biso   1.000  H
  O35      1.0000 0.79479  0.68064  0.45940  Biso   1.000  O
  N57      1.0000 0.80572  0.71510  0.40107  Biso   1.000  N
  C109     1.0000 0.74182  0.28236  0.33592  Biso   1.000  C
  C110     1.0000 0.78952  0.23078  0.37213  Biso   1.000  C
  H102     1.0000 0.75170  0.12649  0.38900  Biso   1.000  H
  O36      1.0000 0.79479  0.31929  0.45940  Biso   1.000  O
  N58      1.0000 0.80572  0.28490  0.40107  Biso   1.000  N
  O37      1.0000 0.72535  0.68480  0.30999  Biso   1.000  O
  N59      1.0000 0.77801  0.71538  0.34128  Biso   1.000  N
  H103     1.0000 0.80500  0.82355  0.36560  Biso   1.000  H
  C111     1.0000 0.84067  0.67261  0.40017  Biso   1.000  C
  O38      1.0000 0.72535  0.31520  0.30999  Biso   1.000  O
  N60      1.0000 0.77801  0.28462  0.34128  Biso   1.000  N
  H104     1.0000 0.80500  0.17638  0.36560  Biso   1.000  H
  C112     1.0000 0.84067  0.32739  0.40017  Biso   1.000  C
  C113     1.0000 0.80196  0.67346  0.31701  Biso   1.000  C
  N61      1.0000 0.83990  0.57776  0.38604  Biso   1.000  N
  H105     1.0000 0.85141  0.67106  0.42441  Biso   1.000  H
  H106     1.0000 0.85620  0.71214  0.38559  Biso   1.000  H
  C114     1.0000 0.80196  0.32647  0.31701  Biso   1.000  C
  N62      1.0000 0.83990  0.42217  0.38604  Biso   1.000  N
  H107     1.0000 0.85141  0.32887  0.42441  Biso   1.000  H
  H108     1.0000 0.85620  0.28779  0.38559  Biso   1.000  H
  N63      1.0000 0.81233  0.57755  0.32655  Biso   1.000  N
  H109     1.0000 0.82380  0.71285  0.31601  Biso   1.000  H
  H110     1.0000 0.79021  0.67296  0.29320  Biso   1.000  H
  C115     1.0000 0.84348  0.55500  0.34928  Biso   1.000  C
  C116     1.0000 0.84001  0.49996  0.40727  Biso   1.000  C
  N64      1.0000 0.81233  0.42238  0.32655  Biso   1.000  N
  H111     1.0000 0.82380  0.28708  0.31601  Biso   1.000  H
  H112     1.0000 0.79021  0.32697  0.29320  Biso   1.000  H
  C117     1.0000 0.84348  0.44500  0.34928  Biso   1.000  C
  C118     1.0000 0.79619  0.49996  0.31271  Biso   1.000  C
  H113     1.0000 0.86610  0.58107  0.33980  Biso   1.000  H
  O39      1.0000 0.84027  0.49996  0.43957  Biso   1.000  O
  H114     1.0000 0.86610  0.41886  0.33980  Biso   1.000  H
  O40      1.0000 0.77106  0.49996  0.29082  Biso   1.000  O
  C119     1.0000 0.34524  0.49996  0.52206  Biso   1.000  C
  N65      1.0000 0.33510  0.41421  0.53986  Biso   1.000  N
  N66      1.0000 0.33510  0.58579  0.53986  Biso   1.000  N
  H115     1.0000 0.37162  0.49996  0.51950  Biso   1.000  H
  H116     1.0000 0.33391  0.49996  0.49801  Biso   1.000  H
  C120     1.0000 0.30350  0.36939  0.53210  Biso   1.000  C
  C121     1.0000 0.35710  0.36650  0.56653  Biso   1.000  C
  C122     1.0000 0.30350  0.63061  0.53210  Biso   1.000  C
  C123     1.0000 0.35710  0.63350  0.56653  Biso   1.000  C
  O41      1.0000 0.28124  0.39130  0.50931  Biso   1.000  O
  N67      1.0000 0.30181  0.29159  0.55404  Biso   1.000  N
  C124     1.0000 0.33401  0.27877  0.57562  Biso   1.000  C
  N68      1.0000 0.36128  0.41421  0.60044  Biso   1.000  N
  H117     1.0000 0.38082  0.34761  0.55721  Biso   1.000  H
  O42      1.0000 0.28124  0.60870  0.50931  Biso   1.000  O
  N69      1.0000 0.30181  0.70841  0.55404  Biso   1.000  N
  N70      1.0000 0.36128  0.58579  0.60044  Biso   1.000  N
  C125     1.0000 0.33401  0.72116  0.57562  Biso   1.000  C
  H118     1.0000 0.38082  0.65239  0.55721  Biso   1.000  H
  C126     1.0000 0.27291  0.22451  0.55161  Biso   1.000  C
  N71      1.0000 0.32957  0.28800  0.61317  Biso   1.000  N
  H119     1.0000 0.34650  0.21880  0.56970  Biso   1.000  H
  C127     1.0000 0.34560  0.36756  0.62679  Biso   1.000  C
  C128     1.0000 0.38201  0.49996  0.60588  Biso   1.000  C
  C129     1.0000 0.27291  0.77549  0.55161  Biso   1.000  C
  C130     1.0000 0.34560  0.63237  0.62679  Biso   1.000  C
  N72      1.0000 0.32957  0.71200  0.61317  Biso   1.000  N
  H120     1.0000 0.34650  0.78120  0.56970  Biso   1.000  H
  N73      1.0000 0.24602  0.23860  0.57681  Biso   1.000  N
  H121     1.0000 0.28301  0.16038  0.55470  Biso   1.000  H
  H122     1.0000 0.26151  0.22796  0.52761  Biso   1.000  H
  C131     1.0000 0.31109  0.22077  0.63482  Biso   1.000  C
  O43      1.0000 0.34741  0.38891  0.65809  Biso   1.000  O
  H123     1.0000 0.40210  0.49996  0.58951  Biso   1.000  H
  H124     1.0000 0.39241  0.49996  0.63031  Biso   1.000  H
  N74      1.0000 0.24602  0.76140  0.57681  Biso   1.000  N
  H125     1.0000 0.28301  0.83955  0.55470  Biso   1.000  H
  H126     1.0000 0.26151  0.77197  0.52761  Biso   1.000  H
  O44      1.0000 0.34741  0.61109  0.65809  Biso   1.000  O
  C132     1.0000 0.31109  0.77916  0.63482  Biso   1.000  C
  C133     1.0000 0.21445  0.28448  0.56994  Biso   1.000  C
  C134     1.0000 0.24676  0.19681  0.61195  Biso   1.000  C
  N75      1.0000 0.27339  0.23642  0.63699  Biso   1.000  N
  H127     1.0000 0.32212  0.22246  0.65901  Biso   1.000  H
  H128     1.0000 0.31491  0.15679  0.62521  Biso   1.000  H
  C135     1.0000 0.21445  0.71545  0.56994  Biso   1.000  C
  C136     1.0000 0.24676  0.80319  0.61195  Biso   1.000  C
  N76      1.0000 0.27339  0.76358  0.63699  Biso   1.000  N
  H129     1.0000 0.32212  0.77746  0.65901  Biso   1.000  H
  H130     1.0000 0.31491  0.84314  0.62521  Biso   1.000  H
  O45      1.0000 0.20524  0.31929  0.54060  Biso   1.000  O
  N77      1.0000 0.19429  0.28490  0.59893  Biso   1.000  N
  C137     1.0000 0.21049  0.23078  0.62788  Biso   1.000  C
  H131     1.0000 0.24831  0.12649  0.61100  Biso   1.000  H
  C138     1.0000 0.25819  0.28236  0.66408  Biso   1.000  C
  O46      1.0000 0.20524  0.68064  0.54060  Biso   1.000  O
  N78      1.0000 0.19429  0.71510  0.59893  Biso   1.000  N
  C139     1.0000 0.21049  0.76915  0.62788  Biso   1.000  C
  H132     1.0000 0.24831  0.87344  0.61100  Biso   1.000  H
  C140     1.0000 0.25819  0.71757  0.66408  Biso   1.000  C
  C141     1.0000 0.15934  0.32739  0.59983  Biso   1.000  C
  N79      1.0000 0.22200  0.28462  0.65872  Biso   1.000  N
  H133     1.0000 0.19502  0.17638  0.63440  Biso   1.000  H
  O47      1.0000 0.27466  0.31520  0.69001  Biso   1.000  O
  C142     1.0000 0.15934  0.67261  0.59983  Biso   1.000  C
  N80      1.0000 0.22200  0.71538  0.65872  Biso   1.000  N
  H134     1.0000 0.19502  0.82355  0.63440  Biso   1.000  H
  O48      1.0000 0.27466  0.68480  0.69001  Biso   1.000  O
  N81      1.0000 0.16011  0.42217  0.61396  Biso   1.000  N
  H135     1.0000 0.14860  0.32887  0.57559  Biso   1.000  H
  H136     1.0000 0.14381  0.28779  0.61441  Biso   1.000  H
  C143     1.0000 0.19806  0.32647  0.68299  Biso   1.000  C
  N82      1.0000 0.16011  0.57776  0.61396  Biso   1.000  N
  H137     1.0000 0.14860  0.67106  0.57559  Biso   1.000  H
  H138     1.0000 0.14381  0.71214  0.61441  Biso   1.000  H
  C144     1.0000 0.19806  0.67346  0.68299  Biso   1.000  C
  C145     1.0000 0.16000  0.49996  0.59273  Biso   1.000  C
  C146     1.0000 0.15653  0.44500  0.65072  Biso   1.000  C
  N83      1.0000 0.18768  0.42238  0.67343  Biso   1.000  N
  H139     1.0000 0.17621  0.28708  0.68399  Biso   1.000  H
  H140     1.0000 0.20980  0.32697  0.70681  Biso   1.000  H
  C147     1.0000 0.15653  0.55500  0.65072  Biso   1.000  C
  N84      1.0000 0.18768  0.57755  0.67343  Biso   1.000  N
  H141     1.0000 0.17621  0.71285  0.68399  Biso   1.000  H
  H142     1.0000 0.20980  0.67296  0.70681  Biso   1.000  H
  O49      1.0000 0.15974  0.49996  0.56043  Biso   1.000  O
  H143     1.0000 0.13391  0.41886  0.66020  Biso   1.000  H
  C148     1.0000 0.20382  0.49996  0.68729  Biso   1.000  C
  H144     1.0000 0.13391  0.58107  0.66020  Biso   1.000  H
  O50      1.0000 0.22895  0.49996  0.70918  Biso   1.000  O
  C149     1.0000 0.65934  0.82736  0.59983  Biso   1.000  C
  N85      1.0000 0.69429  0.78486  0.59893  Biso   1.000  N
  H145     1.0000 0.64860  0.82891  0.57559  Biso   1.000  H
  N86      1.0000 0.66011  0.92213  0.61396  Biso   1.000  N
  H146     1.0000 0.64381  0.78775  0.61441  Biso   1.000  H
  C150     1.0000 0.71049  0.73082  0.62788  Biso   1.000  C
  C151     1.0000 0.71049  0.73074  0.62788  Biso   1.000  C
  C152     1.0000 0.71445  0.78444  0.56994  Biso   1.000  C
  C153     1.0000 0.65934  0.82743  0.59983  Biso   1.000  C
  C154     1.0000 0.65653  0.94497  0.65072  Biso   1.000  C
  C155     1.0000 0.66000  0.00007  0.59273  Biso   1.000  C
  C156     1.0000 0.74676  0.69678  0.61195  Biso   1.000  C
  N87      1.0000 0.72200  0.78451  0.65872  Biso   1.000  N
  N88      1.0000 0.72200  0.78458  0.65872  Biso   1.000  N
  H147     1.0000 0.69502  0.67634  0.63440  Biso   1.000  H
  N89      1.0000 0.74602  0.73857  0.57681  Biso   1.000  N
  O51      1.0000 0.70524  0.81932  0.54060  Biso   1.000  O
  O52      1.0000 0.70524  0.81925  0.54060  Biso   1.000  O
  N90      1.0000 0.68768  0.92235  0.67343  Biso   1.000  N
  H148     1.0000 0.63391  0.91889  0.66020  Biso   1.000  H
  C157     1.0000 0.65653  0.05503  0.65072  Biso   1.000  C
  N91      1.0000 0.66011  0.07780  0.61396  Biso   1.000  N
  O53      1.0000 0.65974  0.00007  0.56043  Biso   1.000  O
  N92      1.0000 0.77339  0.73638  0.63699  Biso   1.000  N
  H149     1.0000 0.74831  0.62645  0.61100  Biso   1.000  H
  C158     1.0000 0.75819  0.78240  0.66408  Biso   1.000  C
  C159     1.0000 0.69806  0.82644  0.68299  Biso   1.000  C
  C160     1.0000 0.77291  0.72447  0.55161  Biso   1.000  C
  C161     1.0000 0.70382  0.00007  0.68729  Biso   1.000  C
  N93      1.0000 0.68768  0.07765  0.67343  Biso   1.000  N
  H150     1.0000 0.63391  0.08111  0.66020  Biso   1.000  H
  C162     1.0000 0.65934  0.17257  0.59983  Biso   1.000  C
  C163     1.0000 0.81109  0.72081  0.63482  Biso   1.000  C
  O54      1.0000 0.77466  0.81524  0.69001  Biso   1.000  O
  O55      1.0000 0.77466  0.81516  0.69001  Biso   1.000  O
  H151     1.0000 0.70980  0.82700  0.70681  Biso   1.000  H
  H152     1.0000 0.67621  0.78705  0.68399  Biso   1.000  H
  H153     1.0000 0.76151  0.72800  0.52761  Biso   1.000  H
  N94      1.0000 0.80181  0.79156  0.55404  Biso   1.000  N
  H154     1.0000 0.78301  0.66035  0.55470  Biso   1.000  H
  O56      1.0000 0.72895  0.00007  0.70918  Biso   1.000  O
  C164     1.0000 0.69806  0.17349  0.68299  Biso   1.000  C
  N95      1.0000 0.69429  0.21507  0.59893  Biso   1.000  N
  H155     1.0000 0.64860  0.17109  0.57559  Biso   1.000  H
  H156     1.0000 0.64860  0.17102  0.57559  Biso   1.000  H
  H157     1.0000 0.64381  0.21225  0.61441  Biso   1.000  H
  H158     1.0000 0.82212  0.72250  0.65901  Biso   1.000  H
  N96      1.0000 0.82957  0.78796  0.61317  Biso   1.000  N
  H159     1.0000 0.81491  0.65675  0.62521  Biso   1.000  H
  C165     1.0000 0.83401  0.77880  0.57562  Biso   1.000  C
  C166     1.0000 0.80350  0.86935  0.53210  Biso   1.000  C
  N97      1.0000 0.72200  0.21542  0.65872  Biso   1.000  N
  H160     1.0000 0.67621  0.21288  0.68399  Biso   1.000  H
  H161     1.0000 0.70980  0.17300  0.70681  Biso   1.000  H
  N98      1.0000 0.72200  0.21535  0.65872  Biso   1.000  N
  H162     1.0000 0.70980  0.17293  0.70681  Biso   1.000  H
  C167     1.0000 0.71049  0.26918  0.62788  Biso   1.000  C
  C168     1.0000 0.71445  0.21549  0.56994  Biso   1.000  C
  C169     1.0000 0.84560  0.86759  0.62679  Biso   1.000  C
  H163     1.0000 0.84650  0.71884  0.56970  Biso   1.000  H
  C170     1.0000 0.85710  0.86654  0.56653  Biso   1.000  C
  H164     1.0000 0.84650  0.71877  0.56970  Biso   1.000  H
  C171     1.0000 0.85710  0.86646  0.56653  Biso   1.000  C
  O57      1.0000 0.78124  0.89127  0.50931  Biso   1.000  O
  N99      1.0000 0.83510  0.91417  0.53986  Biso   1.000  N
  C172     1.0000 0.75819  0.21760  0.66408  Biso   1.000  C
  C173     1.0000 0.75819  0.21753  0.66408  Biso   1.000  C
  C174     1.0000 0.74676  0.30322  0.61195  Biso   1.000  C
  H165     1.0000 0.69502  0.32366  0.63440  Biso   1.000  H
  C175     1.0000 0.74676  0.30315  0.61195  Biso   1.000  C
  O58      1.0000 0.70524  0.18068  0.54060  Biso   1.000  O
  N100     1.0000 0.74602  0.26136  0.57681  Biso   1.000  N
  O59      1.0000 0.84741  0.88887  0.65809  Biso   1.000  O
  N101     1.0000 0.86128  0.91417  0.60044  Biso   1.000  N
  H166     1.0000 0.88082  0.84758  0.55721  Biso   1.000  H
  C176     1.0000 0.84524  0.00007  0.52206  Biso   1.000  C
  O60      1.0000 0.77466  0.18476  0.69001  Biso   1.000  O
  O61      1.0000 0.77466  0.18484  0.69001  Biso   1.000  O
  N102     1.0000 0.77339  0.26355  0.63699  Biso   1.000  N
  H167     1.0000 0.74831  0.37348  0.61100  Biso   1.000  H
  H168     1.0000 0.74831  0.37355  0.61100  Biso   1.000  H
  C177     1.0000 0.77291  0.27553  0.55161  Biso   1.000  C
  C178     1.0000 0.88201  0.00007  0.60588  Biso   1.000  C
  N103     1.0000 0.83510  0.08583  0.53986  Biso   1.000  N
  N104     1.0000 0.83510  0.08576  0.53986  Biso   1.000  N
  H169     1.0000 0.87162  0.00007  0.51950  Biso   1.000  H
  H170     1.0000 0.83391  0.00007  0.49801  Biso   1.000  H
  C179     1.0000 0.81109  0.27919  0.63482  Biso   1.000  C
  N105     1.0000 0.80181  0.20837  0.55404  Biso   1.000  N
  N106     1.0000 0.80181  0.20844  0.55404  Biso   1.000  N
  H171     1.0000 0.76151  0.27200  0.52761  Biso   1.000  H
  H172     1.0000 0.78301  0.33965  0.55470  Biso   1.000  H
  N107     1.0000 0.86128  0.08583  0.60044  Biso   1.000  N
  N108     1.0000 0.86128  0.08576  0.60044  Biso   1.000  N
  H173     1.0000 0.90210  0.00007  0.58951  Biso   1.000  H
  H174     1.0000 0.89241  0.00007  0.63031  Biso   1.000  H
  C180     1.0000 0.85710  0.13354  0.56653  Biso   1.000  C
  C181     1.0000 0.80350  0.13058  0.53210  Biso   1.000  C
  C182     1.0000 0.80350  0.13065  0.53210  Biso   1.000  C
  N109     1.0000 0.82957  0.21204  0.61317  Biso   1.000  N
  H175     1.0000 0.82212  0.27750  0.65901  Biso   1.000  H
  H176     1.0000 0.81491  0.34318  0.62521  Biso   1.000  H
  H177     1.0000 0.82212  0.27743  0.65901  Biso   1.000  H
  C183     1.0000 0.83401  0.22113  0.57562  Biso   1.000  C
  C184     1.0000 0.84560  0.13241  0.62679  Biso   1.000  C
  C185     1.0000 0.84560  0.13234  0.62679  Biso   1.000  C
  H178     1.0000 0.88082  0.15242  0.55721  Biso   1.000  H
  O62      1.0000 0.78124  0.10866  0.50931  Biso   1.000  O
  H179     1.0000 0.84650  0.28123  0.56970  Biso   1.000  H
  O63      1.0000 0.84741  0.11113  0.65809  Biso   1.000  O
  O64      1.0000 0.84741  0.11106  0.65809  Biso   1.000  O
  C186     1.0000 0.34067  0.82736  0.40017  Biso   1.000  C
  N110     1.0000 0.30572  0.78486  0.40107  Biso   1.000  N
  H180     1.0000 0.35141  0.82891  0.42441  Biso   1.000  H
  N111     1.0000 0.33990  0.92213  0.38604  Biso   1.000  N
  H181     1.0000 0.35620  0.78775  0.38559  Biso   1.000  H
  C187     1.0000 0.28952  0.73082  0.37213  Biso   1.000  C
  C188     1.0000 0.28952  0.73074  0.37213  Biso   1.000  C
  C189     1.0000 0.28556  0.78444  0.43006  Biso   1.000  C
  C190     1.0000 0.34067  0.82743  0.40017  Biso   1.000  C
  C191     1.0000 0.34348  0.94497  0.34928  Biso   1.000  C
  C192     1.0000 0.34001  0.00007  0.40727  Biso   1.000  C
  C193     1.0000 0.25325  0.69678  0.38805  Biso   1.000  C
  N112     1.0000 0.27801  0.78451  0.34128  Biso   1.000  N
  N113     1.0000 0.27801  0.78458  0.34128  Biso   1.000  N
  H182     1.0000 0.30500  0.67634  0.36560  Biso   1.000  H
  N114     1.0000 0.25399  0.73857  0.42320  Biso   1.000  N
  O65      1.0000 0.29479  0.81932  0.45940  Biso   1.000  O
  O66      1.0000 0.29479  0.81925  0.45940  Biso   1.000  O
  N115     1.0000 0.31233  0.92235  0.32655  Biso   1.000  N
  H183     1.0000 0.36610  0.91889  0.33980  Biso   1.000  H
  C194     1.0000 0.34348  0.05503  0.34928  Biso   1.000  C
  N116     1.0000 0.33990  0.07780  0.38604  Biso   1.000  N
  O67      1.0000 0.34027  0.00007  0.43957  Biso   1.000  O
  N117     1.0000 0.22662  0.73638  0.36302  Biso   1.000  N
  H184     1.0000 0.25170  0.62645  0.38900  Biso   1.000  H
  C195     1.0000 0.24182  0.78240  0.33592  Biso   1.000  C
  C196     1.0000 0.30196  0.82644  0.31701  Biso   1.000  C
  C197     1.0000 0.22713  0.72447  0.44839  Biso   1.000  C
  C198     1.0000 0.29619  0.00007  0.31271  Biso   1.000  C
  N118     1.0000 0.31233  0.07765  0.32655  Biso   1.000  N
  H185     1.0000 0.36610  0.08111  0.33980  Biso   1.000  H
  C199     1.0000 0.34067  0.17257  0.40017  Biso   1.000  C
  C200     1.0000 0.18892  0.72081  0.36518  Biso   1.000  C
  O68      1.0000 0.22535  0.81524  0.30999  Biso   1.000  O
  O69      1.0000 0.22535  0.81516  0.30999  Biso   1.000  O
  H186     1.0000 0.29021  0.82700  0.29320  Biso   1.000  H
  H187     1.0000 0.32380  0.78705  0.31601  Biso   1.000  H
  H188     1.0000 0.23850  0.72800  0.47239  Biso   1.000  H
  N119     1.0000 0.19821  0.79156  0.44596  Biso   1.000  N
  H189     1.0000 0.21700  0.66035  0.44530  Biso   1.000  H
  O70      1.0000 0.27106  0.00007  0.29082  Biso   1.000  O
  C201     1.0000 0.30196  0.17349  0.31701  Biso   1.000  C
  N120     1.0000 0.30572  0.21507  0.40107  Biso   1.000  N
  H190     1.0000 0.35141  0.17109  0.42441  Biso   1.000  H
  H191     1.0000 0.35141  0.17102  0.42441  Biso   1.000  H
  H192     1.0000 0.35620  0.21225  0.38559  Biso   1.000  H
  H193     1.0000 0.17791  0.72250  0.34099  Biso   1.000  H
  N121     1.0000 0.17047  0.78796  0.38681  Biso   1.000  N
  H194     1.0000 0.18510  0.65675  0.37479  Biso   1.000  H
  C202     1.0000 0.16603  0.77880  0.42438  Biso   1.000  C
  C203     1.0000 0.19651  0.86935  0.46790  Biso   1.000  C
  N122     1.0000 0.27801  0.21542  0.34128  Biso   1.000  N
  H195     1.0000 0.32380  0.21288  0.31601  Biso   1.000  H
  H196     1.0000 0.29021  0.17300  0.29320  Biso   1.000  H
  N123     1.0000 0.27801  0.21535  0.34128  Biso   1.000  N
  H197     1.0000 0.29021  0.17293  0.29320  Biso   1.000  H
  C204     1.0000 0.28952  0.26918  0.37213  Biso   1.000  C
  C205     1.0000 0.28556  0.21549  0.43006  Biso   1.000  C
  C206     1.0000 0.15444  0.86759  0.37321  Biso   1.000  C
  H198     1.0000 0.15351  0.71884  0.43030  Biso   1.000  H
  C207     1.0000 0.14294  0.86654  0.43347  Biso   1.000  C
  H199     1.0000 0.15351  0.71877  0.43030  Biso   1.000  H
  C208     1.0000 0.14294  0.86646  0.43347  Biso   1.000  C
  O71      1.0000 0.21877  0.89127  0.49069  Biso   1.000  O
  N124     1.0000 0.16491  0.91417  0.46014  Biso   1.000  N
  C209     1.0000 0.24182  0.21760  0.33592  Biso   1.000  C
  C210     1.0000 0.24182  0.21753  0.33592  Biso   1.000  C
  C211     1.0000 0.25325  0.30322  0.38805  Biso   1.000  C
  H200     1.0000 0.30500  0.32366  0.36560  Biso   1.000  H
  C212     1.0000 0.25325  0.30315  0.38805  Biso   1.000  C
  O72      1.0000 0.29479  0.18068  0.45940  Biso   1.000  O
  N125     1.0000 0.25399  0.26136  0.42320  Biso   1.000  N
  O73      1.0000 0.15260  0.88887  0.34192  Biso   1.000  O
  N126     1.0000 0.13876  0.91417  0.39956  Biso   1.000  N
  H201     1.0000 0.11922  0.84758  0.44279  Biso   1.000  H
  C213     1.0000 0.15480  0.00007  0.47794  Biso   1.000  C
  O74      1.0000 0.22535  0.18476  0.30999  Biso   1.000  O
  O75      1.0000 0.22535  0.18484  0.30999  Biso   1.000  O
  N127     1.0000 0.22662  0.26355  0.36302  Biso   1.000  N
  H202     1.0000 0.25170  0.37348  0.38900  Biso   1.000  H
  H203     1.0000 0.25170  0.37355  0.38900  Biso   1.000  H
  C214     1.0000 0.22713  0.27553  0.44839  Biso   1.000  C
  C215     1.0000 0.11800  0.00007  0.39412  Biso   1.000  C
  N128     1.0000 0.16491  0.08583  0.46014  Biso   1.000  N
  N129     1.0000 0.16491  0.08576  0.46014  Biso   1.000  N
  H204     1.0000 0.12842  0.00007  0.48050  Biso   1.000  H
  H205     1.0000 0.16610  0.00007  0.50199  Biso   1.000  H
  C216     1.0000 0.18892  0.27919  0.36518  Biso   1.000  C
  N130     1.0000 0.19821  0.20837  0.44596  Biso   1.000  N
  N131     1.0000 0.19821  0.20844  0.44596  Biso   1.000  N
  H206     1.0000 0.23850  0.27200  0.47239  Biso   1.000  H
  H207     1.0000 0.21700  0.33965  0.44530  Biso   1.000  H
  N132     1.0000 0.13876  0.08583  0.39956  Biso   1.000  N
  N133     1.0000 0.13876  0.08576  0.39956  Biso   1.000  N
  H208     1.0000 0.09791  0.00007  0.41049  Biso   1.000  H
  H209     1.0000 0.10760  0.00007  0.36970  Biso   1.000  H
  C217     1.0000 0.14294  0.13354  0.43347  Biso   1.000  C
  C218     1.0000 0.19651  0.13058  0.46790  Biso   1.000  C
  C219     1.0000 0.19651  0.13065  0.46790  Biso   1.000  C
  N134     1.0000 0.17047  0.21204  0.38681  Biso   1.000  N
  H210     1.0000 0.17791  0.27750  0.34099  Biso   1.000  H
  H211     1.0000 0.18510  0.34318  0.37479  Biso   1.000  H
  H212     1.0000 0.17791  0.27743  0.34099  Biso   1.000  H
  C220     1.0000 0.16603  0.22113  0.42438  Biso   1.000  C
  C221     1.0000 0.15444  0.13241  0.37321  Biso   1.000  C
  C222     1.0000 0.15444  0.13234  0.37321  Biso   1.000  C
  H213     1.0000 0.11922  0.15242  0.44279  Biso   1.000  H
  O76      1.0000 0.21877  0.10866  0.49069  Biso   1.000  O
  H214     1.0000 0.15351  0.28123  0.43030  Biso   1.000  H
  O77      1.0000 0.15260  0.11113  0.34192  Biso   1.000  O
  O78      1.0000 0.15260  0.11106  0.34192  Biso   1.000  O
  O79      1.0000 0.52685  0.39300  0.76672  Biso   1.000  O
  C223     1.0000 0.54619  0.37136  0.79210  Biso   1.000  C
  N135     1.0000 0.54176  0.29639  0.81412  Biso   1.000  N
  N136     1.0000 0.57828  0.41456  0.80150  Biso   1.000  N
  C224     1.0000 0.51405  0.22838  0.80789  Biso   1.000  C
  C225     1.0000 0.57346  0.28032  0.83715  Biso   1.000  C
  C226     1.0000 0.59723  0.36720  0.83005  Biso   1.000  C
  C227     1.0000 0.59011  0.49996  0.78452  Biso   1.000  C
  N137     1.0000 0.48431  0.23860  0.83142  Biso   1.000  N
  H215     1.0000 0.52441  0.16447  0.81080  Biso   1.000  H
  H216     1.0000 0.50482  0.23437  0.78320  Biso   1.000  H
  N138     1.0000 0.56702  0.28751  0.87457  Biso   1.000  N
  H217     1.0000 0.58592  0.22007  0.83129  Biso   1.000  H
  N139     1.0000 0.59897  0.41519  0.86377  Biso   1.000  N
  H218     1.0000 0.62170  0.34747  0.82289  Biso   1.000  H
  H219     1.0000 0.58101  0.49996  0.75970  Biso   1.000  H
  H220     1.0000 0.61671  0.49996  0.78439  Biso   1.000  H
  N140     1.0000 0.57828  0.58537  0.80150  Biso   1.000  N
  C228     1.0000 0.45295  0.28229  0.82173  Biso   1.000  C
  C229     1.0000 0.48318  0.19738  0.86617  Biso   1.000  C
  C230     1.0000 0.54669  0.21958  0.89393  Biso   1.000  C
  C231     1.0000 0.58232  0.36516  0.88941  Biso   1.000  C
  C232     1.0000 0.61881  0.49996  0.87156  Biso   1.000  C
  C233     1.0000 0.54619  0.62857  0.79210  Biso   1.000  C
  C234     1.0000 0.59723  0.63280  0.83005  Biso   1.000  C
  O80      1.0000 0.44619  0.31696  0.79229  Biso   1.000  O
  N141     1.0000 0.43092  0.28102  0.84903  Biso   1.000  N
  C235     1.0000 0.44593  0.23127  0.87945  Biso   1.000  C
  N142     1.0000 0.50824  0.23747  0.89231  Biso   1.000  N
  H221     1.0000 0.48481  0.12712  0.86530  Biso   1.000  H
  H222     1.0000 0.55531  0.22021  0.91891  Biso   1.000  H
  H223     1.0000 0.55121  0.15601  0.88431  Biso   1.000  H
  O81      1.0000 0.58225  0.38581  0.92083  Biso   1.000  O
  H224     1.0000 0.64090  0.49996  0.85780  Biso   1.000  H
  H225     1.0000 0.62621  0.49996  0.89691  Biso   1.000  H
  N143     1.0000 0.59897  0.58481  0.86377  Biso   1.000  N
  O82      1.0000 0.52685  0.60700  0.76672  Biso   1.000  O
  N144     1.0000 0.54176  0.70354  0.81412  Biso   1.000  N
  H226     1.0000 0.62170  0.65246  0.82289  Biso   1.000  H
  C236     1.0000 0.57346  0.71968  0.83715  Biso   1.000  C
  C237     1.0000 0.39606  0.32690  0.84726  Biso   1.000  C
  N145     1.0000 0.45526  0.28786  0.90924  Biso   1.000  N
  H227     1.0000 0.43051  0.17680  0.88600  Biso   1.000  H
  C238     1.0000 0.49133  0.28497  0.91809  Biso   1.000  C
  C239     1.0000 0.58232  0.63477  0.88941  Biso   1.000  C
  C240     1.0000 0.51405  0.77155  0.80789  Biso   1.000  C
  N146     1.0000 0.56702  0.71249  0.87457  Biso   1.000  N
  H228     1.0000 0.58592  0.77986  0.83129  Biso   1.000  H
  N147     1.0000 0.39690  0.42161  0.86176  Biso   1.000  N
  H229     1.0000 0.38731  0.32979  0.82231  Biso   1.000  H
  H230     1.0000 0.37881  0.28849  0.86039  Biso   1.000  H
  C241     1.0000 0.42945  0.32718  0.93314  Biso   1.000  C
  O83      1.0000 0.50535  0.31830  0.94460  Biso   1.000  O
  O84      1.0000 0.58225  0.61419  0.92083  Biso   1.000  O
  N148     1.0000 0.48431  0.76140  0.83142  Biso   1.000  N
  H231     1.0000 0.52441  0.83546  0.81080  Biso   1.000  H
  H232     1.0000 0.50482  0.76556  0.78320  Biso   1.000  H
  C242     1.0000 0.54669  0.78035  0.89393  Biso   1.000  C
  C243     1.0000 0.39773  0.49996  0.84056  Biso   1.000  C
  C244     1.0000 0.38965  0.44535  0.89805  Biso   1.000  C
  N149     1.0000 0.41816  0.42245  0.92316  Biso   1.000  N
  H233     1.0000 0.44032  0.32852  0.95730  Biso   1.000  H
  H234     1.0000 0.40803  0.28589  0.93330  Biso   1.000  H
  C245     1.0000 0.45295  0.71771  0.82173  Biso   1.000  C
  C246     1.0000 0.48318  0.80255  0.86617  Biso   1.000  C
  N150     1.0000 0.50824  0.76246  0.89231  Biso   1.000  N
  H235     1.0000 0.55531  0.77979  0.91891  Biso   1.000  H
  H236     1.0000 0.55121  0.84399  0.88431  Biso   1.000  H
  O85      1.0000 0.39991  0.49996  0.80813  Biso   1.000  O
  N151     1.0000 0.39690  0.57839  0.86176  Biso   1.000  N
  H237     1.0000 0.36601  0.41935  0.90531  Biso   1.000  H
  C247     1.0000 0.38965  0.55458  0.89805  Biso   1.000  C
  C248     1.0000 0.43360  0.49996  0.93892  Biso   1.000  C
  N152     1.0000 0.43092  0.71898  0.84903  Biso   1.000  N
  O86      1.0000 0.44619  0.68297  0.79229  Biso   1.000  O
  C249     1.0000 0.44593  0.76866  0.87945  Biso   1.000  C
  H238     1.0000 0.48481  0.87288  0.86530  Biso   1.000  H
  C250     1.0000 0.49133  0.71496  0.91809  Biso   1.000  C
  C251     1.0000 0.39606  0.67310  0.84726  Biso   1.000  C
  N153     1.0000 0.41816  0.57748  0.92316  Biso   1.000  N
  H239     1.0000 0.36601  0.58058  0.90531  Biso   1.000  H
  O87      1.0000 0.45650  0.49996  0.96232  Biso   1.000  O
  N154     1.0000 0.45526  0.71207  0.90924  Biso   1.000  N
  H240     1.0000 0.43051  0.82320  0.88600  Biso   1.000  H
  O88      1.0000 0.50535  0.68170  0.94460  Biso   1.000  O
  H241     1.0000 0.38731  0.67014  0.82231  Biso   1.000  H
  H242     1.0000 0.37881  0.71151  0.86039  Biso   1.000  H
  C252     1.0000 0.42945  0.67275  0.93314  Biso   1.000  C
  H243     1.0000 0.44032  0.67148  0.95730  Biso   1.000  H
  H244     1.0000 0.40803  0.71404  0.93330  Biso   1.000  H
  O89      1.0000 0.47317  0.39300  0.23328  Biso   1.000  O
  C253     1.0000 0.45382  0.37136  0.20790  Biso   1.000  C
  N155     1.0000 0.42173  0.41456  0.19850  Biso   1.000  N
  N156     1.0000 0.45827  0.29639  0.18588  Biso   1.000  N
  C254     1.0000 0.40278  0.36720  0.16995  Biso   1.000  C
  C255     1.0000 0.40990  0.49996  0.21548  Biso   1.000  C
  C256     1.0000 0.42656  0.28032  0.16285  Biso   1.000  C
  C257     1.0000 0.48596  0.22838  0.19211  Biso   1.000  C
  N157     1.0000 0.40107  0.41519  0.13623  Biso   1.000  N
  H245     1.0000 0.37831  0.34747  0.17711  Biso   1.000  H
  H246     1.0000 0.41900  0.49996  0.24030  Biso   1.000  H
  H247     1.0000 0.38330  0.49996  0.21561  Biso   1.000  H
  N158     1.0000 0.42173  0.58537  0.19850  Biso   1.000  N
  N159     1.0000 0.43299  0.28751  0.12543  Biso   1.000  N
  H248     1.0000 0.41409  0.22007  0.16869  Biso   1.000  H
  N160     1.0000 0.51570  0.23860  0.16858  Biso   1.000  N
  H249     1.0000 0.47560  0.16447  0.18921  Biso   1.000  H
  H250     1.0000 0.49521  0.23437  0.21680  Biso   1.000  H
  C258     1.0000 0.41769  0.36516  0.11059  Biso   1.000  C
  C259     1.0000 0.38122  0.49996  0.12844  Biso   1.000  C
  C260     1.0000 0.45382  0.62857  0.20790  Biso   1.000  C
  C261     1.0000 0.40278  0.63280  0.16995  Biso   1.000  C
  C262     1.0000 0.45332  0.21958  0.10608  Biso   1.000  C
  C263     1.0000 0.54706  0.28229  0.17827  Biso   1.000  C
  C264     1.0000 0.51683  0.19738  0.13383  Biso   1.000  C
  O90      1.0000 0.41776  0.38581  0.07917  Biso   1.000  O
  H251     1.0000 0.35911  0.49996  0.14220  Biso   1.000  H
  H252     1.0000 0.37380  0.49996  0.10309  Biso   1.000  H
  N161     1.0000 0.40107  0.58481  0.13623  Biso   1.000  N
  O91      1.0000 0.47317  0.60700  0.23328  Biso   1.000  O
  N162     1.0000 0.45827  0.70354  0.18588  Biso   1.000  N
  H253     1.0000 0.37831  0.65246  0.17711  Biso   1.000  H
  C265     1.0000 0.42656  0.71968  0.16285  Biso   1.000  C
  N163     1.0000 0.49177  0.23747  0.10769  Biso   1.000  N
  H254     1.0000 0.44470  0.22021  0.08110  Biso   1.000  H
  H255     1.0000 0.44880  0.15601  0.11569  Biso   1.000  H
  O92      1.0000 0.55382  0.31696  0.20772  Biso   1.000  O
  N164     1.0000 0.56909  0.28102  0.15097  Biso   1.000  N
  H256     1.0000 0.51520  0.12712  0.13470  Biso   1.000  H
  C266     1.0000 0.55408  0.23127  0.12055  Biso   1.000  C
  C267     1.0000 0.41769  0.63477  0.11059  Biso   1.000  C
  C268     1.0000 0.48596  0.77155  0.19211  Biso   1.000  C
  N165     1.0000 0.43299  0.71249  0.12543  Biso   1.000  N
  H257     1.0000 0.41409  0.77986  0.16869  Biso   1.000  H
  C269     1.0000 0.50868  0.28497  0.08191  Biso   1.000  C
  C270     1.0000 0.60395  0.32690  0.15274  Biso   1.000  C
  N166     1.0000 0.54478  0.28786  0.09076  Biso   1.000  N
  H258     1.0000 0.56950  0.17680  0.11400  Biso   1.000  H
  O93      1.0000 0.41776  0.61419  0.07917  Biso   1.000  O
  N167     1.0000 0.51570  0.76140  0.16858  Biso   1.000  N
  H259     1.0000 0.47560  0.83546  0.18921  Biso   1.000  H
  H260     1.0000 0.49521  0.76556  0.21680  Biso   1.000  H
  C271     1.0000 0.45332  0.78035  0.10608  Biso   1.000  C
  O94      1.0000 0.49466  0.31830  0.05540  Biso   1.000  O
  N168     1.0000 0.60311  0.42161  0.13824  Biso   1.000  N
  H261     1.0000 0.61270  0.32979  0.17769  Biso   1.000  H
  H262     1.0000 0.62120  0.28849  0.13961  Biso   1.000  H
  C272     1.0000 0.57059  0.32718  0.06686  Biso   1.000  C
  C273     1.0000 0.54706  0.71771  0.17827  Biso   1.000  C
  C274     1.0000 0.51683  0.80255  0.13383  Biso   1.000  C
  N169     1.0000 0.49177  0.76246  0.10769  Biso   1.000  N
  H263     1.0000 0.44470  0.77979  0.08110  Biso   1.000  H
  H264     1.0000 0.44880  0.84399  0.11569  Biso   1.000  H
  C275     1.0000 0.60231  0.49996  0.15942  Biso   1.000  C
  C276     1.0000 0.61039  0.44535  0.10196  Biso   1.000  C
  N170     1.0000 0.58185  0.42245  0.07682  Biso   1.000  N
  H265     1.0000 0.55969  0.32852  0.04270  Biso   1.000  H
  H266     1.0000 0.59201  0.28589  0.06670  Biso   1.000  H
  O95      1.0000 0.55382  0.68297  0.20772  Biso   1.000  O
  N171     1.0000 0.56909  0.71898  0.15097  Biso   1.000  N
  H267     1.0000 0.51520  0.87288  0.13470  Biso   1.000  H
  C277     1.0000 0.55408  0.76866  0.12055  Biso   1.000  C
  C278     1.0000 0.50868  0.71496  0.08191  Biso   1.000  C
  O96      1.0000 0.60011  0.49996  0.19187  Biso   1.000  O
  N172     1.0000 0.60311  0.57839  0.13824  Biso   1.000  N
  H268     1.0000 0.63400  0.41935  0.09470  Biso   1.000  H
  C279     1.0000 0.61039  0.55458  0.10196  Biso   1.000  C
  C280     1.0000 0.56641  0.49996  0.06108  Biso   1.000  C
  C281     1.0000 0.60395  0.67310  0.15274  Biso   1.000  C
  N173     1.0000 0.54478  0.71207  0.09076  Biso   1.000  N
  H269     1.0000 0.56950  0.82320  0.11400  Biso   1.000  H
  O97      1.0000 0.49466  0.68170  0.05540  Biso   1.000  O
  N174     1.0000 0.58185  0.57748  0.07682  Biso   1.000  N
  H270     1.0000 0.63400  0.58058  0.09470  Biso   1.000  H
  O98      1.0000 0.54351  0.49996  0.03768  Biso   1.000  O
  H271     1.0000 0.61270  0.67014  0.17769  Biso   1.000  H
  H272     1.0000 0.62120  0.71151  0.13961  Biso   1.000  H
  C282     1.0000 0.57059  0.67275  0.06686  Biso   1.000  C
  H273     1.0000 0.55969  0.67148  0.04270  Biso   1.000  H
  H274     1.0000 0.59201  0.71404  0.06670  Biso   1.000  H
  C283     1.0000 0.70691  0.17321  0.78859  Biso   1.000  C
  N175     1.0000 0.70814  0.21535  0.82339  Biso   1.000  N
  H275     1.0000 0.72092  0.21281  0.77261  Biso   1.000  H
  H276     1.0000 0.68172  0.17257  0.77940  Biso   1.000  H
  N176     1.0000 0.72098  0.07723  0.78811  Biso   1.000  N
  N177     1.0000 0.72098  0.07716  0.78811  Biso   1.000  N
  C284     1.0000 0.68010  0.21535  0.84491  Biso   1.000  C
  C285     1.0000 0.73812  0.27144  0.83810  Biso   1.000  C
  C286     1.0000 0.70691  0.17314  0.78859  Biso   1.000  C
  C287     1.0000 0.69997  0.00000  0.78896  Biso   1.000  C
  C288     1.0000 0.75860  0.05348  0.78376  Biso   1.000  C
  C289     1.0000 0.69997  0.00007  0.78896  Biso   1.000  C
  C290     1.0000 0.75860  0.05356  0.78376  Biso   1.000  C
  N178     1.0000 0.68859  0.26467  0.87449  Biso   1.000  N
  N179     1.0000 0.68859  0.26475  0.87449  Biso   1.000  N
  O99      1.0000 0.65051  0.18061  0.83739  Biso   1.000  O
  O100     1.0000 0.65051  0.18054  0.83739  Biso   1.000  O
  C291     1.0000 0.72396  0.30590  0.87333  Biso   1.000  C
  C292     1.0000 0.72396  0.30583  0.87333  Biso   1.000  C
  H277     1.0000 0.74392  0.32528  0.82231  Biso   1.000  H
  N180     1.0000 0.76986  0.21683  0.84753  Biso   1.000  N
  N181     1.0000 0.72098  0.92277  0.78811  Biso   1.000  N
  O101     1.0000 0.66709  0.00000  0.79083  Biso   1.000  O
  O102     1.0000 0.66709  0.00007  0.79083  Biso   1.000  O
  N182     1.0000 0.78199  0.07815  0.81323  Biso   1.000  N
  C293     1.0000 0.75860  0.94652  0.78376  Biso   1.000  C
  C294     1.0000 0.75860  0.94644  0.78376  Biso   1.000  C
  H278     1.0000 0.76762  0.07921  0.76110  Biso   1.000  H
  H279     1.0000 0.76762  0.07913  0.76110  Biso   1.000  H
  C295     1.0000 0.66501  0.27243  0.90325  Biso   1.000  C
  N183     1.0000 0.75001  0.26608  0.89931  Biso   1.000  N
  H280     1.0000 0.72311  0.37615  0.87460  Biso   1.000  H
  C296     1.0000 0.77775  0.22084  0.88283  Biso   1.000  C
  C297     1.0000 0.79298  0.17293  0.82334  Biso   1.000  C
  C298     1.0000 0.70691  0.82679  0.78859  Biso   1.000  C
  C299     1.0000 0.79502  0.00000  0.82960  Biso   1.000  C
  C300     1.0000 0.79502  0.00007  0.82960  Biso   1.000  C
  H281     1.0000 0.76762  0.92079  0.76110  Biso   1.000  H
  N184     1.0000 0.78199  0.92185  0.81323  Biso   1.000  N
  N185     1.0000 0.67207  0.20259  0.93119  Biso   1.000  N
  H282     1.0000 0.66742  0.33641  0.91360  Biso   1.000  H
  H283     1.0000 0.63991  0.26524  0.89419  Biso   1.000  H
  H284     1.0000 0.66742  0.33634  0.91360  Biso   1.000  H
  C301     1.0000 0.75127  0.28807  0.93631  Biso   1.000  C
  C302     1.0000 0.75127  0.28814  0.93631  Biso   1.000  C
  O103     1.0000 0.80541  0.19160  0.89762  Biso   1.000  O
  H285     1.0000 0.81752  0.17046  0.83409  Biso   1.000  H
  H286     1.0000 0.79382  0.21239  0.80179  Biso   1.000  H
  N186     1.0000 0.70814  0.78458  0.82339  Biso   1.000  N
  H287     1.0000 0.72092  0.78719  0.77261  Biso   1.000  H
  H288     1.0000 0.68172  0.82743  0.77940  Biso   1.000  H
  H289     1.0000 0.68172  0.82736  0.77940  Biso   1.000  H
  O104     1.0000 0.81574  0.00000  0.85587  Biso   1.000  O
  O105     1.0000 0.81574  0.00007  0.85587  Biso   1.000  O
  C303     1.0000 0.79298  0.82700  0.82334  Biso   1.000  C
  C304     1.0000 0.69471  0.22049  0.96224  Biso   1.000  C
  C305     1.0000 0.64925  0.13043  0.93639  Biso   1.000  C
  N187     1.0000 0.73247  0.22070  0.95730  Biso   1.000  N
  N188     1.0000 0.73247  0.22063  0.95730  Biso   1.000  N
  H290     1.0000 0.74062  0.35128  0.93969  Biso   1.000  H
  H291     1.0000 0.77672  0.29089  0.94481  Biso   1.000  H
  C306     1.0000 0.68010  0.78458  0.84491  Biso   1.000  C
  C307     1.0000 0.73812  0.72856  0.83810  Biso   1.000  C
  N189     1.0000 0.76986  0.78310  0.84753  Biso   1.000  N
  H292     1.0000 0.79382  0.78761  0.80179  Biso   1.000  H
  H293     1.0000 0.81752  0.82947  0.83409  Biso   1.000  H
  H294     1.0000 0.79382  0.78754  0.80179  Biso   1.000  H
  H295     1.0000 0.68702  0.27877  0.97470  Biso   1.000  H
  C308     1.0000 0.68989  0.13241  0.98535  Biso   1.000  C
  C309     1.0000 0.68989  0.13234  0.98535  Biso   1.000  C
  N190     1.0000 0.65996  0.08527  0.96744  Biso   1.000  N
  O106     1.0000 0.62325  0.10887  0.91716  Biso   1.000  O
  O107     1.0000 0.62325  0.10894  0.91716  Biso   1.000  O
  C310     1.0000 0.74920  0.14178  0.97185  Biso   1.000  C
  N191     1.0000 0.68859  0.73533  0.87449  Biso   1.000  N
  N192     1.0000 0.68859  0.73525  0.87449  Biso   1.000  N
  O108     1.0000 0.65051  0.81939  0.83739  Biso   1.000  O
  C311     1.0000 0.72396  0.69410  0.87333  Biso   1.000  C
  H296     1.0000 0.74392  0.67472  0.82231  Biso   1.000  H
  H297     1.0000 0.74392  0.67465  0.82231  Biso   1.000  H
  C312     1.0000 0.77775  0.77916  0.88283  Biso   1.000  C
  N193     1.0000 0.72352  0.08660  0.98519  Biso   1.000  N
  N194     1.0000 0.72352  0.08653  0.98519  Biso   1.000  N
  H298     1.0000 0.68373  0.15052  0.00990  Biso   1.000  H
  H299     1.0000 0.68373  0.15045  0.00990  Biso   1.000  H
  C313     1.0000 0.64320  0.00000  0.98009  Biso   1.000  C
  C314     1.0000 0.64320  0.00007  0.98009  Biso   1.000  C
  O109     1.0000 0.78178  0.12846  0.97296  Biso   1.000  O
  C315     1.0000 0.66501  0.72750  0.90325  Biso   1.000  C
  N195     1.0000 0.75001  0.73392  0.89931  Biso   1.000  N
  N196     1.0000 0.75001  0.73385  0.89931  Biso   1.000  N
  H300     1.0000 0.72311  0.62385  0.87460  Biso   1.000  H
  H301     1.0000 0.72311  0.62378  0.87460  Biso   1.000  H
  O110     1.0000 0.80541  0.80840  0.89762  Biso   1.000  O
  C316     1.0000 0.73162  0.00000  0.00531  Biso   1.000  C
  C317     1.0000 0.73162  0.00007  0.00531  Biso   1.000  C
  N197     1.0000 0.65996  0.91473  0.96744  Biso   1.000  N
  N198     1.0000 0.65996  0.91466  0.96744  Biso   1.000  N
  H302     1.0000 0.61751  0.00000  0.97251  Biso   1.000  H
  H303     1.0000 0.61751  0.00007  0.97251  Biso   1.000  H
  H304     1.0000 0.64451  0.00000  0.00621  Biso   1.000  H
  H305     1.0000 0.64451  0.00007  0.00621  Biso   1.000  H
  N199     1.0000 0.67207  0.79741  0.93119  Biso   1.000  N
  H306     1.0000 0.66742  0.66359  0.91360  Biso   1.000  H
  H307     1.0000 0.63991  0.73476  0.89419  Biso   1.000  H
  C318     1.0000 0.75127  0.71193  0.93631  Biso   1.000  C
  C319     1.0000 0.75127  0.71186  0.93631  Biso   1.000  C
  N200     1.0000 0.72352  0.91340  0.98519  Biso   1.000  N
  H308     1.0000 0.71741  0.00000  0.02699  Biso   1.000  H
  H309     1.0000 0.75731  0.00000  0.01270  Biso   1.000  H
  H310     1.0000 0.71741  0.00007  0.02699  Biso   1.000  H
  H311     1.0000 0.75731  0.00007  0.01270  Biso   1.000  H
  C320     1.0000 0.68989  0.86759  0.98535  Biso   1.000  C
  C321     1.0000 0.64925  0.86957  0.93639  Biso   1.000  C
  C322     1.0000 0.69471  0.77944  0.96224  Biso   1.000  C
  N201     1.0000 0.73247  0.77930  0.95730  Biso   1.000  N
  H312     1.0000 0.77672  0.70904  0.94481  Biso   1.000  H
  H313     1.0000 0.74062  0.64865  0.93969  Biso   1.000  H
  C323     1.0000 0.74920  0.85815  0.97185  Biso   1.000  C
  O111     1.0000 0.62325  0.89113  0.91716  Biso   1.000  O
  O112     1.0000 0.62325  0.89106  0.91716  Biso   1.000  O
  H314     1.0000 0.68373  0.84948  0.00990  Biso   1.000  H
  H315     1.0000 0.68702  0.72116  0.97470  Biso   1.000  H
  O113     1.0000 0.78178  0.87154  0.97296  Biso   1.000  O
  C324     1.0000 0.29311  0.17321  0.21141  Biso   1.000  C
  N202     1.0000 0.29187  0.21535  0.17661  Biso   1.000  N
  H316     1.0000 0.27909  0.21281  0.22739  Biso   1.000  H
  H317     1.0000 0.31829  0.17257  0.22060  Biso   1.000  H
  N203     1.0000 0.27903  0.07723  0.21189  Biso   1.000  N
  N204     1.0000 0.27903  0.07716  0.21189  Biso   1.000  N
  C325     1.0000 0.26190  0.27144  0.16190  Biso   1.000  C
  C326     1.0000 0.31991  0.21535  0.15509  Biso   1.000  C
  C327     1.0000 0.29311  0.17314  0.21141  Biso   1.000  C
  C328     1.0000 0.24143  0.05348  0.21625  Biso   1.000  C
  C329     1.0000 0.24143  0.05356  0.21625  Biso   1.000  C
  C330     1.0000 0.30007  0.00000  0.21104  Biso   1.000  C
  C331     1.0000 0.30007  0.00007  0.21104  Biso   1.000  C
  C332     1.0000 0.27606  0.30590  0.12667  Biso   1.000  C
  C333     1.0000 0.27606  0.30583  0.12667  Biso   1.000  C
  N205     1.0000 0.23015  0.21683  0.15245  Biso   1.000  N
  H318     1.0000 0.25609  0.32528  0.17769  Biso   1.000  H
  N206     1.0000 0.31143  0.26467  0.12551  Biso   1.000  N
  N207     1.0000 0.31143  0.26475  0.12551  Biso   1.000  N
  O114     1.0000 0.34952  0.18061  0.16261  Biso   1.000  O
  O115     1.0000 0.34952  0.18054  0.16261  Biso   1.000  O
  N208     1.0000 0.21802  0.07815  0.18678  Biso   1.000  N
  C334     1.0000 0.24143  0.94652  0.21625  Biso   1.000  C
  C335     1.0000 0.24143  0.94644  0.21625  Biso   1.000  C
  H319     1.0000 0.23241  0.07921  0.23890  Biso   1.000  H
  H320     1.0000 0.23241  0.07913  0.23890  Biso   1.000  H
  N209     1.0000 0.27903  0.92277  0.21189  Biso   1.000  N
  O116     1.0000 0.33295  0.00000  0.20917  Biso   1.000  O
  O117     1.0000 0.33295  0.00007  0.20917  Biso   1.000  O
  N210     1.0000 0.25000  0.26608  0.10069  Biso   1.000  N
  H321     1.0000 0.27690  0.37615  0.12541  Biso   1.000  H
  C336     1.0000 0.22229  0.22084  0.11717  Biso   1.000  C
  C337     1.0000 0.20706  0.17293  0.17666  Biso   1.000  C
  C338     1.0000 0.33500  0.27243  0.09673  Biso   1.000  C
  C339     1.0000 0.20499  0.00000  0.17040  Biso   1.000  C
  C340     1.0000 0.20499  0.00007  0.17040  Biso   1.000  C
  N211     1.0000 0.21802  0.92185  0.18678  Biso   1.000  N
  H322     1.0000 0.23241  0.92079  0.23890  Biso   1.000  H
  C341     1.0000 0.29311  0.82679  0.21141  Biso   1.000  C
  C342     1.0000 0.24874  0.28807  0.06369  Biso   1.000  C
  C343     1.0000 0.24874  0.28814  0.06369  Biso   1.000  C
  O118     1.0000 0.19460  0.19160  0.10238  Biso   1.000  O
  H323     1.0000 0.18249  0.17046  0.16589  Biso   1.000  H
  H324     1.0000 0.20622  0.21239  0.19821  Biso   1.000  H
  N212     1.0000 0.32794  0.20259  0.06882  Biso   1.000  N
  H325     1.0000 0.33259  0.33641  0.08640  Biso   1.000  H
  H326     1.0000 0.36010  0.26524  0.10581  Biso   1.000  H
  H327     1.0000 0.33259  0.33634  0.08640  Biso   1.000  H
  O119     1.0000 0.18429  0.00000  0.14413  Biso   1.000  O
  O120     1.0000 0.18429  0.00007  0.14413  Biso   1.000  O
  C344     1.0000 0.20706  0.82700  0.17666  Biso   1.000  C
  H328     1.0000 0.27909  0.78719  0.22739  Biso   1.000  H
  H329     1.0000 0.31829  0.82743  0.22060  Biso   1.000  H
  N213     1.0000 0.29187  0.78458  0.17661  Biso   1.000  N
  H330     1.0000 0.31829  0.82736  0.22060  Biso   1.000  H
  H331     1.0000 0.25939  0.35128  0.06029  Biso   1.000  H
  H332     1.0000 0.22331  0.29089  0.05519  Biso   1.000  H
  N214     1.0000 0.26754  0.22070  0.04270  Biso   1.000  N
  N215     1.0000 0.26754  0.22063  0.04270  Biso   1.000  N
  C345     1.0000 0.30530  0.22049  0.03776  Biso   1.000  C
  C346     1.0000 0.35076  0.13043  0.06361  Biso   1.000  C
  N216     1.0000 0.23015  0.78310  0.15245  Biso   1.000  N
  H333     1.0000 0.20622  0.78761  0.19821  Biso   1.000  H
  H334     1.0000 0.18249  0.82947  0.16589  Biso   1.000  H
  H335     1.0000 0.20622  0.78754  0.19821  Biso   1.000  H
  C347     1.0000 0.26190  0.72856  0.16190  Biso   1.000  C
  C348     1.0000 0.31991  0.78458  0.15509  Biso   1.000  C
  C349     1.0000 0.25081  0.14178  0.02815  Biso   1.000  C
  H336     1.0000 0.31300  0.27877  0.02530  Biso   1.000  H
  C350     1.0000 0.31015  0.13241  0.01466  Biso   1.000  C
  C351     1.0000 0.31015  0.13234  0.01466  Biso   1.000  C
  N217     1.0000 0.34007  0.08527  0.03256  Biso   1.000  N
  O121     1.0000 0.37676  0.10887  0.08284  Biso   1.000  O
  O122     1.0000 0.37676  0.10894  0.08284  Biso   1.000  O
  C352     1.0000 0.22229  0.77916  0.11717  Biso   1.000  C
  C353     1.0000 0.27606  0.69410  0.12667  Biso   1.000  C
  H337     1.0000 0.25609  0.67472  0.17769  Biso   1.000  H
  H338     1.0000 0.25609  0.67465  0.17769  Biso   1.000  H
  N218     1.0000 0.31143  0.73533  0.12551  Biso   1.000  N
  N219     1.0000 0.31143  0.73525  0.12551  Biso   1.000  N
  O123     1.0000 0.34952  0.81939  0.16261  Biso   1.000  O
  N220     1.0000 0.27649  0.08660  0.01481  Biso   1.000  N
  O124     1.0000 0.21823  0.12846  0.02704  Biso   1.000  O
  N221     1.0000 0.27649  0.08653  0.01481  Biso   1.000  N
  H339     1.0000 0.31631  0.15052  0.99010  Biso   1.000  H
  H340     1.0000 0.31631  0.15045  0.99010  Biso   1.000  H
  C354     1.0000 0.35681  0.00000  0.01991  Biso   1.000  C
  C355     1.0000 0.35681  0.00007  0.01991  Biso   1.000  C
  N222     1.0000 0.25000  0.73392  0.10069  Biso   1.000  N
  N223     1.0000 0.25000  0.73385  0.10069  Biso   1.000  N
  O125     1.0000 0.19460  0.80840  0.10238  Biso   1.000  O
  H341     1.0000 0.27690  0.62385  0.12541  Biso   1.000  H
  H342     1.0000 0.27690  0.62378  0.12541  Biso   1.000  H
  C356     1.0000 0.33500  0.72750  0.09673  Biso   1.000  C
  C357     1.0000 0.26839  0.00000  0.99469  Biso   1.000  C
  C358     1.0000 0.26839  0.00007  0.99469  Biso   1.000  C
  N224     1.0000 0.34007  0.91473  0.03256  Biso   1.000  N
  N225     1.0000 0.34007  0.91466  0.03256  Biso   1.000  N
  H343     1.0000 0.35550  0.00000  0.99379  Biso   1.000  H
  H344     1.0000 0.35550  0.00007  0.99379  Biso   1.000  H
  H345     1.0000 0.38250  0.00000  0.02749  Biso   1.000  H
  H346     1.0000 0.38250  0.00007  0.02749  Biso   1.000  H
  C359     1.0000 0.24874  0.71193  0.06369  Biso   1.000  C
  C360     1.0000 0.24874  0.71186  0.06369  Biso   1.000  C
  N226     1.0000 0.32794  0.79741  0.06882  Biso   1.000  N
  H347     1.0000 0.33259  0.66359  0.08640  Biso   1.000  H
  H348     1.0000 0.36010  0.73476  0.10581  Biso   1.000  H
  N227     1.0000 0.27649  0.91340  0.01481  Biso   1.000  N
  H349     1.0000 0.28260  0.00000  0.97301  Biso   1.000  H
  H350     1.0000 0.24270  0.00000  0.98730  Biso   1.000  H
  H351     1.0000 0.28260  0.00007  0.97301  Biso   1.000  H
  H352     1.0000 0.24270  0.00007  0.98730  Biso   1.000  H
  C361     1.0000 0.31015  0.86759  0.01466  Biso   1.000  C
  C362     1.0000 0.35076  0.86957  0.06361  Biso   1.000  C
  N228     1.0000 0.26754  0.77930  0.04270  Biso   1.000  N
  H353     1.0000 0.22331  0.70904  0.05519  Biso   1.000  H
  H354     1.0000 0.25939  0.64865  0.06029  Biso   1.000  H
  C363     1.0000 0.30530  0.77944  0.03776  Biso   1.000  C
  C364     1.0000 0.25081  0.85815  0.02815  Biso   1.000  C
  H355     1.0000 0.31631  0.84948  0.99010  Biso   1.000  H
  O126     1.0000 0.37676  0.89113  0.08284  Biso   1.000  O
  O127     1.0000 0.37676  0.89106  0.08284  Biso   1.000  O
  H356     1.0000 0.31300  0.72116  0.02530  Biso   1.000  H
  O128     1.0000 0.21823  0.87154  0.02704  Biso   1.000  O
  C365     1.0000 0.74143  0.44648  0.21625  Biso   1.000  C
  N229     1.0000 0.71802  0.42189  0.18678  Biso   1.000  N
  C366     1.0000 0.74143  0.55345  0.21625  Biso   1.000  C
  N230     1.0000 0.77903  0.42280  0.21189  Biso   1.000  N
  H357     1.0000 0.73241  0.42076  0.23890  Biso   1.000  H
  C367     1.0000 0.70499  0.49996  0.17040  Biso   1.000  C
  C368     1.0000 0.70706  0.32697  0.17666  Biso   1.000  C
  N231     1.0000 0.71802  0.57811  0.18678  Biso   1.000  N
  N232     1.0000 0.77903  0.57720  0.21189  Biso   1.000  N
  H358     1.0000 0.73241  0.57917  0.23890  Biso   1.000  H
  C369     1.0000 0.80007  0.49996  0.21104  Biso   1.000  C
  C370     1.0000 0.79311  0.32676  0.21141  Biso   1.000  C
  O129     1.0000 0.68429  0.49996  0.14413  Biso   1.000  O
  N233     1.0000 0.73015  0.28307  0.15245  Biso   1.000  N
  H359     1.0000 0.68249  0.32950  0.16589  Biso   1.000  H
  H360     1.0000 0.70622  0.28758  0.19821  Biso   1.000  H
  C371     1.0000 0.70706  0.67296  0.17666  Biso   1.000  C
  C372     1.0000 0.79311  0.67317  0.21141  Biso   1.000  C
  O130     1.0000 0.83295  0.49996  0.20917  Biso   1.000  O
  N234     1.0000 0.79187  0.28462  0.17661  Biso   1.000  N
  H361     1.0000 0.77909  0.28722  0.22739  Biso   1.000  H
  H362     1.0000 0.81829  0.32739  0.22060  Biso   1.000  H
  C373     1.0000 0.76190  0.22860  0.16190  Biso   1.000  C
  C374     1.0000 0.72229  0.27919  0.11717  Biso   1.000  C
  N235     1.0000 0.73015  0.71686  0.15245  Biso   1.000  N
  H363     1.0000 0.68249  0.67050  0.16589  Biso   1.000  H
  H364     1.0000 0.70622  0.71235  0.19821  Biso   1.000  H
  N236     1.0000 0.79187  0.71538  0.17661  Biso   1.000  N
  H365     1.0000 0.77909  0.71278  0.22739  Biso   1.000  H
  H366     1.0000 0.81829  0.67261  0.22060  Biso   1.000  H
  C375     1.0000 0.81991  0.28462  0.15509  Biso   1.000  C
  C376     1.0000 0.77606  0.19407  0.12667  Biso   1.000  C
  H367     1.0000 0.75609  0.17469  0.17769  Biso   1.000  H
  O131     1.0000 0.69460  0.30836  0.10238  Biso   1.000  O
  N237     1.0000 0.75000  0.23388  0.10069  Biso   1.000  N
  C377     1.0000 0.76190  0.77140  0.16190  Biso   1.000  C
  C378     1.0000 0.72229  0.72081  0.11717  Biso   1.000  C
  C379     1.0000 0.81991  0.71538  0.15509  Biso   1.000  C
  N238     1.0000 0.81143  0.23529  0.12551  Biso   1.000  N
  O132     1.0000 0.84952  0.31936  0.16261  Biso   1.000  O
  H368     1.0000 0.77690  0.12381  0.12541  Biso   1.000  H
  C380     1.0000 0.74874  0.21189  0.06369  Biso   1.000  C
  C381     1.0000 0.77606  0.80586  0.12667  Biso   1.000  C
  H369     1.0000 0.75609  0.82524  0.17769  Biso   1.000  H
  O133     1.0000 0.69460  0.69157  0.10238  Biso   1.000  O
  N239     1.0000 0.75000  0.76605  0.10069  Biso   1.000  N
  N240     1.0000 0.81143  0.76464  0.12551  Biso   1.000  N
  O134     1.0000 0.84952  0.68057  0.16261  Biso   1.000  O
  C382     1.0000 0.83500  0.22747  0.09673  Biso   1.000  C
  N241     1.0000 0.76754  0.27926  0.04270  Biso   1.000  N
  H370     1.0000 0.75939  0.14869  0.06029  Biso   1.000  H
  H371     1.0000 0.72331  0.20908  0.05519  Biso   1.000  H
  H372     1.0000 0.77690  0.87619  0.12541  Biso   1.000  H
  C383     1.0000 0.74874  0.78811  0.06369  Biso   1.000  C
  C384     1.0000 0.83500  0.77246  0.09673  Biso   1.000  C
  N242     1.0000 0.82794  0.29737  0.06882  Biso   1.000  N
  H373     1.0000 0.86010  0.23480  0.10581  Biso   1.000  H
  H374     1.0000 0.83259  0.16362  0.08640  Biso   1.000  H
  C385     1.0000 0.80530  0.27947  0.03776  Biso   1.000  C
  C386     1.0000 0.75081  0.35818  0.02815  Biso   1.000  C
  N243     1.0000 0.76754  0.72067  0.04270  Biso   1.000  N
  H375     1.0000 0.75939  0.85124  0.06029  Biso   1.000  H
  H376     1.0000 0.72331  0.79085  0.05519  Biso   1.000  H
  N244     1.0000 0.82794  0.70256  0.06882  Biso   1.000  N
  H377     1.0000 0.86010  0.76520  0.10581  Biso   1.000  H
  H378     1.0000 0.83259  0.83638  0.08640  Biso   1.000  H
  C387     1.0000 0.85076  0.36960  0.06361  Biso   1.000  C
  C388     1.0000 0.81015  0.36756  0.01466  Biso   1.000  C
  H379     1.0000 0.81300  0.22120  0.02530  Biso   1.000  H
  O135     1.0000 0.71823  0.37157  0.02704  Biso   1.000  O
  N245     1.0000 0.77649  0.41336  0.01481  Biso   1.000  N
  C389     1.0000 0.80530  0.72046  0.03776  Biso   1.000  C
  C390     1.0000 0.75081  0.64174  0.02815  Biso   1.000  C
  C391     1.0000 0.85076  0.63040  0.06361  Biso   1.000  C
  O136     1.0000 0.87676  0.39109  0.08284  Biso   1.000  O
  N246     1.0000 0.84007  0.41470  0.03256  Biso   1.000  N
  H380     1.0000 0.81631  0.34952  0.99010  Biso   1.000  H
  C392     1.0000 0.76839  0.49996  0.99469  Biso   1.000  C
  C393     1.0000 0.81015  0.63237  0.01466  Biso   1.000  C
  H381     1.0000 0.81300  0.77880  0.02530  Biso   1.000  H
  O137     1.0000 0.71823  0.62836  0.02704  Biso   1.000  O
  N247     1.0000 0.77649  0.58657  0.01481  Biso   1.000  N
  O138     1.0000 0.87676  0.60891  0.08284  Biso   1.000  O
  N248     1.0000 0.84007  0.58530  0.03256  Biso   1.000  N
  C394     1.0000 0.85681  0.49996  0.01991  Biso   1.000  C
  H382     1.0000 0.78260  0.49996  0.97301  Biso   1.000  H
  H383     1.0000 0.74270  0.49996  0.98730  Biso   1.000  H
  H384     1.0000 0.81631  0.65048  0.99010  Biso   1.000  H
  H385     1.0000 0.88250  0.49996  0.02749  Biso   1.000  H
  H386     1.0000 0.85550  0.49996  0.99379  Biso   1.000  H
  C395     1.0000 0.25860  0.44648  0.78376  Biso   1.000  C
  C396     1.0000 0.25860  0.55345  0.78376  Biso   1.000  C
  N249     1.0000 0.22098  0.42280  0.78811  Biso   1.000  N
  N250     1.0000 0.28199  0.42189  0.81323  Biso   1.000  N
  H387     1.0000 0.26762  0.42076  0.76110  Biso   1.000  H
  N251     1.0000 0.22098  0.57720  0.78811  Biso   1.000  N
  N252     1.0000 0.28199  0.57811  0.81323  Biso   1.000  N
  H388     1.0000 0.26762  0.57917  0.76110  Biso   1.000  H
  C397     1.0000 0.19997  0.49996  0.78896  Biso   1.000  C
  C398     1.0000 0.20691  0.32676  0.78859  Biso   1.000  C
  C399     1.0000 0.29502  0.49996  0.82960  Biso   1.000  C
  C400     1.0000 0.29298  0.32697  0.82334  Biso   1.000  C
  C401     1.0000 0.20691  0.67317  0.78859  Biso   1.000  C
  C402     1.0000 0.29298  0.67296  0.82334  Biso   1.000  C
  O139     1.0000 0.16709  0.49996  0.79083  Biso   1.000  O
  N253     1.0000 0.20814  0.28462  0.82339  Biso   1.000  N
  H389     1.0000 0.22092  0.28722  0.77261  Biso   1.000  H
  H390     1.0000 0.18172  0.32739  0.77940  Biso   1.000  H
  O140     1.0000 0.31574  0.49996  0.85587  Biso   1.000  O
  N254     1.0000 0.26986  0.28307  0.84753  Biso   1.000  N
  H391     1.0000 0.31752  0.32950  0.83409  Biso   1.000  H
  H392     1.0000 0.29382  0.28758  0.80179  Biso   1.000  H
  N255     1.0000 0.20814  0.71538  0.82339  Biso   1.000  N
  H393     1.0000 0.22092  0.71278  0.77261  Biso   1.000  H
  H394     1.0000 0.18172  0.67261  0.77940  Biso   1.000  H
  N256     1.0000 0.26986  0.71686  0.84753  Biso   1.000  N
  H395     1.0000 0.31752  0.67050  0.83409  Biso   1.000  H
  H396     1.0000 0.29382  0.71235  0.80179  Biso   1.000  H
  C403     1.0000 0.18010  0.28462  0.84491  Biso   1.000  C
  C404     1.0000 0.23812  0.22860  0.83810  Biso   1.000  C
  C405     1.0000 0.27775  0.27919  0.88283  Biso   1.000  C
  C406     1.0000 0.18010  0.71538  0.84491  Biso   1.000  C
  C407     1.0000 0.23812  0.77140  0.83810  Biso   1.000  C
  C408     1.0000 0.27775  0.72081  0.88283  Biso   1.000  C
  O141     1.0000 0.15051  0.31936  0.83739  Biso   1.000  O
  N257     1.0000 0.18859  0.23529  0.87449  Biso   1.000  N
  C409     1.0000 0.22396  0.19407  0.87333  Biso   1.000  C
  H397     1.0000 0.24392  0.17469  0.82231  Biso   1.000  H
  O142     1.0000 0.30541  0.30836  0.89762  Biso   1.000  O
  N258     1.0000 0.25001  0.23388  0.89931  Biso   1.000  N
  O143     1.0000 0.15051  0.68057  0.83739  Biso   1.000  O
  N259     1.0000 0.18859  0.76464  0.87449  Biso   1.000  N
  C410     1.0000 0.22396  0.80586  0.87333  Biso   1.000  C
  H398     1.0000 0.24392  0.82524  0.82231  Biso   1.000  H
  O144     1.0000 0.30541  0.69157  0.89762  Biso   1.000  O
  N260     1.0000 0.25001  0.76605  0.89931  Biso   1.000  N
  C411     1.0000 0.16501  0.22747  0.90325  Biso   1.000  C
  H399     1.0000 0.22311  0.12381  0.87460  Biso   1.000  H
  C412     1.0000 0.25127  0.21189  0.93631  Biso   1.000  C
  C413     1.0000 0.16501  0.77246  0.90325  Biso   1.000  C
  H400     1.0000 0.22311  0.87619  0.87460  Biso   1.000  H
  C414     1.0000 0.25127  0.78811  0.93631  Biso   1.000  C
  N261     1.0000 0.17207  0.29737  0.93119  Biso   1.000  N
  H401     1.0000 0.13991  0.23480  0.89419  Biso   1.000  H
  H402     1.0000 0.16742  0.16362  0.91360  Biso   1.000  H
  N262     1.0000 0.23247  0.27926  0.95730  Biso   1.000  N
  H403     1.0000 0.24062  0.14869  0.93969  Biso   1.000  H
  H404     1.0000 0.27672  0.20908  0.94481  Biso   1.000  H
  N263     1.0000 0.17207  0.70256  0.93119  Biso   1.000  N
  H405     1.0000 0.13991  0.76520  0.89419  Biso   1.000  H
  H406     1.0000 0.16742  0.83638  0.91360  Biso   1.000  H
  N264     1.0000 0.23247  0.72067  0.95730  Biso   1.000  N
  H407     1.0000 0.24062  0.85124  0.93969  Biso   1.000  H
  H408     1.0000 0.27672  0.79085  0.94481  Biso   1.000  H
  C415     1.0000 0.14925  0.36960  0.93639  Biso   1.000  C
  C416     1.0000 0.19471  0.27947  0.96224  Biso   1.000  C
  C417     1.0000 0.24920  0.35818  0.97185  Biso   1.000  C
  C418     1.0000 0.14925  0.63040  0.93639  Biso   1.000  C
  C419     1.0000 0.19471  0.72046  0.96224  Biso   1.000  C
  C420     1.0000 0.24920  0.64174  0.97185  Biso   1.000  C
  O145     1.0000 0.12325  0.39109  0.91716  Biso   1.000  O
  N265     1.0000 0.15996  0.41470  0.96744  Biso   1.000  N
  C421     1.0000 0.18989  0.36756  0.98535  Biso   1.000  C
  H409     1.0000 0.18702  0.22120  0.97470  Biso   1.000  H
  O146     1.0000 0.28178  0.37157  0.97296  Biso   1.000  O
  N266     1.0000 0.22352  0.41336  0.98519  Biso   1.000  N
  O147     1.0000 0.12325  0.60891  0.91716  Biso   1.000  O
  N267     1.0000 0.15996  0.58530  0.96744  Biso   1.000  N
  C422     1.0000 0.18989  0.63237  0.98535  Biso   1.000  C
  H410     1.0000 0.18702  0.77880  0.97470  Biso   1.000  H
  O148     1.0000 0.28178  0.62836  0.97296  Biso   1.000  O
  N268     1.0000 0.22352  0.58657  0.98519  Biso   1.000  N
  C423     1.0000 0.14320  0.49996  0.98009  Biso   1.000  C
  H411     1.0000 0.18373  0.34952  0.00990  Biso   1.000  H
  C424     1.0000 0.23162  0.49996  0.00531  Biso   1.000  C
  H412     1.0000 0.18373  0.65048  0.00990  Biso   1.000  H
  H413     1.0000 0.11751  0.49996  0.97251  Biso   1.000  H
  H414     1.0000 0.14451  0.49996  0.00621  Biso   1.000  H
  H415     1.0000 0.21741  0.49996  0.02699  Biso   1.000  H
  H416     1.0000 0.25731  0.49996  0.01270  Biso   1.000  H
  O149     1.0000 0.87963  0.39222  0.66046  Biso   1.000  O
  C425     1.0000 0.90149  0.37038  0.68341  Biso   1.000  C
  N269     1.0000 0.92444  0.29469  0.68238  Biso   1.000  N
  N270     1.0000 0.90755  0.41442  0.71494  Biso   1.000  N
  C426     1.0000 0.92226  0.22740  0.65354  Biso   1.000  C
  C427     1.0000 0.94336  0.27926  0.71571  Biso   1.000  C
  C428     1.0000 0.93322  0.36587  0.73773  Biso   1.000  C
  C429     1.0000 0.88895  0.49996  0.72487  Biso   1.000  C
  N271     1.0000 0.95038  0.23860  0.62827  Biso   1.000  N
  H417     1.0000 0.89862  0.23430  0.64100  Biso   1.000  H
  H418     1.0000 0.92360  0.16292  0.66339  Biso   1.000  H
  N272     1.0000 0.98252  0.28666  0.71441  Biso   1.000  N
  H419     1.0000 0.93582  0.21908  0.72711  Biso   1.000  H
  N273     1.0000 0.96760  0.41385  0.74359  Biso   1.000  N
  H420     1.0000 0.92251  0.34712  0.76049  Biso   1.000  H
  H421     1.0000 0.86462  0.49996  0.71349  Biso   1.000  H
  H422     1.0000 0.88611  0.49996  0.75080  Biso   1.000  H
  N274     1.0000 0.90755  0.58558  0.71494  Biso   1.000  N
  C430     1.0000 0.94512  0.28659  0.59727  Biso   1.000  C
  C431     1.0000 0.98623  0.19886  0.63213  Biso   1.000  C
  C432     1.0000 0.00515  0.21922  0.69717  Biso   1.000  C
  C433     1.0000 0.99541  0.36685  0.73060  Biso   1.000  C
  C434     1.0000 0.97233  0.49996  0.76411  Biso   1.000  C
  C435     1.0000 0.90149  0.62955  0.68341  Biso   1.000  C
  C436     1.0000 0.93322  0.63406  0.73773  Biso   1.000  C
  O150     1.0000 0.91642  0.31830  0.58602  Biso   1.000  O
  N275     1.0000 0.97715  0.28892  0.58056  Biso   1.000  N
  C437     1.0000 0.00413  0.23106  0.59798  Biso   1.000  C
  H423     1.0000 0.98531  0.12860  0.63361  Biso   1.000  H
  N276     1.0000 0.00887  0.23719  0.65972  Biso   1.000  N
  H424     1.0000 0.99501  0.15538  0.70020  Biso   1.000  H
  H425     1.0000 0.02931  0.22000  0.70900  Biso   1.000  H
  O151     1.0000 0.02710  0.38757  0.73395  Biso   1.000  O
  H426     1.0000 0.95492  0.49996  0.78331  Biso   1.000  H
  H427     1.0000 0.99671  0.49996  0.77531  Biso   1.000  H
  N277     1.0000 0.96760  0.58608  0.74359  Biso   1.000  N
  O152     1.0000 0.87963  0.60778  0.66046  Biso   1.000  O
  N278     1.0000 0.92444  0.70531  0.68238  Biso   1.000  N
  C438     1.0000 0.94336  0.72067  0.71571  Biso   1.000  C
  H428     1.0000 0.92251  0.65288  0.76049  Biso   1.000  H
  C439     1.0000 0.97968  0.32690  0.54530  Biso   1.000  C
  N279     1.0000 0.03546  0.28131  0.61084  Biso   1.000  N
  H429     1.0000 0.01071  0.17610  0.58301  Biso   1.000  H
  C440     1.0000 0.03845  0.28250  0.64758  Biso   1.000  C
  C441     1.0000 0.99541  0.63308  0.73060  Biso   1.000  C
  C442     1.0000 0.92226  0.77260  0.65354  Biso   1.000  C
  N280     1.0000 0.98252  0.71327  0.71441  Biso   1.000  N
  H430     1.0000 0.93582  0.78085  0.72711  Biso   1.000  H
  N281     1.0000 0.99389  0.42217  0.54477  Biso   1.000  N
  H431     1.0000 0.95550  0.32662  0.53360  Biso   1.000  H
  H432     1.0000 0.99530  0.28539  0.53149  Biso   1.000  H
  C443     1.0000 0.06027  0.32669  0.59043  Biso   1.000  C
  O153     1.0000 0.06399  0.31316  0.66519  Biso   1.000  O
  O154     1.0000 0.02710  0.61236  0.73395  Biso   1.000  O
  N282     1.0000 0.95038  0.76140  0.62827  Biso   1.000  N
  H433     1.0000 0.89862  0.76570  0.64100  Biso   1.000  H
  H434     1.0000 0.92360  0.83708  0.66339  Biso   1.000  H
  C444     1.0000 0.00515  0.78078  0.69717  Biso   1.000  C
  C445     1.0000 0.97218  0.49996  0.54353  Biso   1.000  C
  C446     1.0000 0.03131  0.44620  0.54607  Biso   1.000  C
  N283     1.0000 0.05019  0.42182  0.57873  Biso   1.000  N
  H435     1.0000 0.06440  0.28772  0.56931  Biso   1.000  H
  H436     1.0000 0.08331  0.33070  0.60419  Biso   1.000  H
  C447     1.0000 0.94512  0.71341  0.59727  Biso   1.000  C
  C448     1.0000 0.98623  0.80107  0.63213  Biso   1.000  C
  N284     1.0000 0.00887  0.76281  0.65972  Biso   1.000  N
  H437     1.0000 0.99501  0.84455  0.70020  Biso   1.000  H
  H438     1.0000 0.02931  0.78000  0.70900  Biso   1.000  H
  O155     1.0000 0.93906  0.49996  0.54145  Biso   1.000  O
  N285     1.0000 0.99389  0.57776  0.54477  Biso   1.000  N
  H439     1.0000 0.04380  0.42048  0.52521  Biso   1.000  H
  C449     1.0000 0.03131  0.55380  0.54607  Biso   1.000  C
  C450     1.0000 0.06317  0.49996  0.59658  Biso   1.000  C
  N286     1.0000 0.97715  0.71108  0.58056  Biso   1.000  N
  O156     1.0000 0.91642  0.68170  0.58602  Biso   1.000  O
  C451     1.0000 0.00413  0.76887  0.59798  Biso   1.000  C
  H440     1.0000 0.98531  0.87140  0.63361  Biso   1.000  H
  C452     1.0000 0.03845  0.71750  0.64758  Biso   1.000  C
  C453     1.0000 0.97968  0.67310  0.54530  Biso   1.000  C
  N287     1.0000 0.05019  0.57818  0.57873  Biso   1.000  N
  H441     1.0000 0.04380  0.57945  0.52521  Biso   1.000  H
  O157     1.0000 0.08304  0.49996  0.62315  Biso   1.000  O
  N288     1.0000 0.03546  0.71869  0.61084  Biso   1.000  N
  H442     1.0000 0.01071  0.82390  0.58301  Biso   1.000  H
  O158     1.0000 0.06399  0.68677  0.66519  Biso   1.000  O
  H443     1.0000 0.95550  0.67338  0.53360  Biso   1.000  H
  H444     1.0000 0.99530  0.71461  0.53149  Biso   1.000  H
  C454     1.0000 0.06027  0.67324  0.59043  Biso   1.000  C
  H445     1.0000 0.06440  0.71228  0.56931  Biso   1.000  H
  H446     1.0000 0.08331  0.66930  0.60419  Biso   1.000  H
  O159     1.0000 0.12038  0.39222  0.33954  Biso   1.000  O
  C455     1.0000 0.09852  0.37038  0.31659  Biso   1.000  C
  N289     1.0000 0.07558  0.29469  0.31762  Biso   1.000  N
  N290     1.0000 0.09249  0.41442  0.28506  Biso   1.000  N
  C456     1.0000 0.07775  0.22740  0.34646  Biso   1.000  C
  C457     1.0000 0.05665  0.27926  0.28430  Biso   1.000  C
  C458     1.0000 0.06679  0.36587  0.26227  Biso   1.000  C
  C459     1.0000 0.11106  0.49996  0.27513  Biso   1.000  C
  N291     1.0000 0.04963  0.23860  0.37173  Biso   1.000  N
  H447     1.0000 0.10139  0.23430  0.35900  Biso   1.000  H
  H448     1.0000 0.07641  0.16292  0.33661  Biso   1.000  H
  N292     1.0000 0.01752  0.28666  0.28559  Biso   1.000  N
  H449     1.0000 0.06421  0.21908  0.27289  Biso   1.000  H
  N293     1.0000 0.03243  0.41385  0.25641  Biso   1.000  N
  H450     1.0000 0.07750  0.34712  0.23951  Biso   1.000  H
  H451     1.0000 0.13541  0.49996  0.28649  Biso   1.000  H
  H452     1.0000 0.11390  0.49996  0.24920  Biso   1.000  H
  N294     1.0000 0.09249  0.58558  0.28506  Biso   1.000  N
  C460     1.0000 0.05489  0.28659  0.40273  Biso   1.000  C
  C461     1.0000 0.01378  0.19886  0.36785  Biso   1.000  C
  C462     1.0000 0.00462  0.36685  0.26940  Biso   1.000  C
  C463     1.0000 0.99488  0.21922  0.30281  Biso   1.000  C
  C464     1.0000 0.02768  0.49996  0.23589  Biso   1.000  C
  C465     1.0000 0.09852  0.62955  0.31659  Biso   1.000  C
  C466     1.0000 0.06679  0.63406  0.26227  Biso   1.000  C
  O160     1.0000 0.08359  0.31830  0.41398  Biso   1.000  O
  N295     1.0000 0.02287  0.28892  0.41945  Biso   1.000  N
  H453     1.0000 0.01470  0.12860  0.36640  Biso   1.000  H
  N296     1.0000 0.99114  0.23719  0.34028  Biso   1.000  N
  C467     1.0000 0.99591  0.23106  0.40202  Biso   1.000  C
  O161     1.0000 0.97293  0.38757  0.26605  Biso   1.000  O
  H454     1.0000 0.00501  0.15538  0.29980  Biso   1.000  H
  H455     1.0000 0.97071  0.22000  0.29100  Biso   1.000  H
  H456     1.0000 0.04509  0.49996  0.21669  Biso   1.000  H
  H457     1.0000 0.00331  0.49996  0.22470  Biso   1.000  H
  N297     1.0000 0.03243  0.58608  0.25641  Biso   1.000  N
  O162     1.0000 0.12038  0.60778  0.33954  Biso   1.000  O
  N298     1.0000 0.07558  0.70531  0.31762  Biso   1.000  N
  C468     1.0000 0.05665  0.72067  0.28430  Biso   1.000  C
  H458     1.0000 0.07750  0.65288  0.23951  Biso   1.000  H
  C469     1.0000 0.02036  0.32690  0.45470  Biso   1.000  C
  C470     1.0000 0.96158  0.28250  0.35243  Biso   1.000  C
  N299     1.0000 0.96455  0.28131  0.38916  Biso   1.000  N
  H459     1.0000 0.98930  0.17610  0.41699  Biso   1.000  H
  C471     1.0000 0.00462  0.63308  0.26940  Biso   1.000  C
  C472     1.0000 0.07775  0.77260  0.34646  Biso   1.000  C
  N300     1.0000 0.01752  0.71327  0.28559  Biso   1.000  N
  H460     1.0000 0.06421  0.78085  0.27289  Biso   1.000  H
  N301     1.0000 0.00612  0.42217  0.45523  Biso   1.000  N
  H461     1.0000 0.04451  0.32662  0.46640  Biso   1.000  H
  H462     1.0000 0.00471  0.28539  0.46851  Biso   1.000  H
  O163     1.0000 0.93604  0.31316  0.33481  Biso   1.000  O
  C473     1.0000 0.93974  0.32669  0.40957  Biso   1.000  C
  O164     1.0000 0.97293  0.61236  0.26605  Biso   1.000  O
  N302     1.0000 0.04963  0.76140  0.37173  Biso   1.000  N
  H463     1.0000 0.10139  0.76570  0.35900  Biso   1.000  H
  H464     1.0000 0.07641  0.83708  0.33661  Biso   1.000  H
  C474     1.0000 0.99488  0.78078  0.30281  Biso   1.000  C
  C475     1.0000 0.02783  0.49996  0.45647  Biso   1.000  C
  C476     1.0000 0.96873  0.44620  0.45393  Biso   1.000  C
  N303     1.0000 0.94983  0.42182  0.42127  Biso   1.000  N
  H465     1.0000 0.93561  0.28772  0.43070  Biso   1.000  H
  H466     1.0000 0.91670  0.33070  0.39581  Biso   1.000  H
  C477     1.0000 0.05489  0.71341  0.40273  Biso   1.000  C
  C478     1.0000 0.01378  0.80107  0.36785  Biso   1.000  C
  H467     1.0000 0.00501  0.84455  0.29980  Biso   1.000  H
  N304     1.0000 0.99114  0.76281  0.34028  Biso   1.000  N
  H468     1.0000 0.97071  0.78000  0.29100  Biso   1.000  H
  O165     1.0000 0.06095  0.49996  0.45856  Biso   1.000  O
  N305     1.0000 0.00612  0.57776  0.45523  Biso   1.000  N
  H469     1.0000 0.95621  0.42048  0.47480  Biso   1.000  H
  C479     1.0000 0.96873  0.55380  0.45393  Biso   1.000  C
  C480     1.0000 0.93684  0.49996  0.40342  Biso   1.000  C
  O166     1.0000 0.08359  0.68170  0.41398  Biso   1.000  O
  N306     1.0000 0.02287  0.71108  0.41945  Biso   1.000  N
  H470     1.0000 0.01470  0.87140  0.36640  Biso   1.000  H
  C481     1.0000 0.99591  0.76887  0.40202  Biso   1.000  C
  C482     1.0000 0.96158  0.71750  0.35243  Biso   1.000  C
  C483     1.0000 0.02036  0.67310  0.45470  Biso   1.000  C
  N307     1.0000 0.94983  0.57818  0.42127  Biso   1.000  N
  H471     1.0000 0.95621  0.57945  0.47480  Biso   1.000  H
  O167     1.0000 0.91697  0.49996  0.37685  Biso   1.000  O
  N308     1.0000 0.96455  0.71869  0.38916  Biso   1.000  N
  H472     1.0000 0.98930  0.82390  0.41699  Biso   1.000  H
  O168     1.0000 0.93604  0.68677  0.33481  Biso   1.000  O
  H473     1.0000 0.04451  0.67338  0.46640  Biso   1.000  H
  H474     1.0000 0.00471  0.71461  0.46851  Biso   1.000  H
  C484     1.0000 0.93974  0.67324  0.40957  Biso   1.000  C
  H475     1.0000 0.93561  0.71228  0.43070  Biso   1.000  H
  H476     1.0000 0.91670  0.66930  0.39581  Biso   1.000  H
  N309     1.0000 0.92173  0.91459  0.19850  Biso   1.000  N
  N310     1.0000 0.92173  0.08541  0.19850  Biso   1.000  N
  H477     1.0000 0.91900  0.00007  0.24030  Biso   1.000  H
  H478     1.0000 0.88330  0.00007  0.21561  Biso   1.000  H
  C485     1.0000 0.95382  0.87140  0.20790  Biso   1.000  C
  C486     1.0000 0.90278  0.86724  0.16995  Biso   1.000  C
  C487     1.0000 0.90278  0.86717  0.16995  Biso   1.000  C
  C488     1.0000 0.90990  0.00007  0.21548  Biso   1.000  C
  C489     1.0000 0.95382  0.12860  0.20790  Biso   1.000  C
  C490     1.0000 0.90278  0.13276  0.16995  Biso   1.000  C
  C491     1.0000 0.90278  0.13283  0.16995  Biso   1.000  C
  O169     1.0000 0.97317  0.89296  0.23328  Biso   1.000  O
  N311     1.0000 0.95827  0.79635  0.18588  Biso   1.000  N
  C492     1.0000 0.92656  0.78021  0.16285  Biso   1.000  C
  N312     1.0000 0.90107  0.91516  0.13623  Biso   1.000  N
  H479     1.0000 0.87831  0.84744  0.17711  Biso   1.000  H
  C493     1.0000 0.92656  0.78028  0.16285  Biso   1.000  C
  O170     1.0000 0.97317  0.10697  0.23328  Biso   1.000  O
  N313     1.0000 0.95827  0.20358  0.18588  Biso   1.000  N
  O171     1.0000 0.97317  0.10704  0.23328  Biso   1.000  O
  N314     1.0000 0.90107  0.08477  0.13623  Biso   1.000  N
  H480     1.0000 0.87831  0.15249  0.17711  Biso   1.000  H
  C494     1.0000 0.92656  0.21972  0.16285  Biso   1.000  C
  H481     1.0000 0.87831  0.15256  0.17711  Biso   1.000  H
  C495     1.0000 0.92656  0.21965  0.16285  Biso   1.000  C
  C496     1.0000 0.98596  0.72835  0.19211  Biso   1.000  C
  C497     1.0000 0.91769  0.86520  0.11059  Biso   1.000  C
  C498     1.0000 0.88122  0.00007  0.12844  Biso   1.000  C
  H482     1.0000 0.91409  0.72010  0.16869  Biso   1.000  H
  N315     1.0000 0.93299  0.78747  0.12543  Biso   1.000  N
  C499     1.0000 0.98596  0.27165  0.19211  Biso   1.000  C
  C500     1.0000 0.91769  0.13480  0.11059  Biso   1.000  C
  N316     1.0000 0.93299  0.21246  0.12543  Biso   1.000  N
  H483     1.0000 0.91409  0.27990  0.16869  Biso   1.000  H
  N317     1.0000 0.93299  0.21253  0.12543  Biso   1.000  N
  H484     1.0000 0.91409  0.27983  0.16869  Biso   1.000  H
  H485     1.0000 0.97560  0.66451  0.18921  Biso   1.000  H
  H486     1.0000 0.99521  0.73434  0.21680  Biso   1.000  H
  H487     1.0000 0.99521  0.73441  0.21680  Biso   1.000  H
  N318     1.0000 0.01570  0.73857  0.16858  Biso   1.000  N
  O172     1.0000 0.91776  0.88577  0.07917  Biso   1.000  O
  H488     1.0000 0.85911  0.00007  0.14220  Biso   1.000  H
  H489     1.0000 0.87380  0.00007  0.10309  Biso   1.000  H
  C501     1.0000 0.95332  0.71954  0.10608  Biso   1.000  C
  H490     1.0000 0.97560  0.33549  0.18921  Biso   1.000  H
  H491     1.0000 0.99521  0.26559  0.21680  Biso   1.000  H
  H492     1.0000 0.99521  0.26552  0.21680  Biso   1.000  H
  N319     1.0000 0.01570  0.26136  0.16858  Biso   1.000  N
  O173     1.0000 0.91776  0.11416  0.07917  Biso   1.000  O
  C502     1.0000 0.95332  0.28046  0.10608  Biso   1.000  C
  C503     1.0000 0.04706  0.78226  0.17827  Biso   1.000  C
  C504     1.0000 0.01683  0.69734  0.13383  Biso   1.000  C
  H493     1.0000 0.94470  0.72017  0.08110  Biso   1.000  H
  H494     1.0000 0.94880  0.65598  0.11569  Biso   1.000  H
  N320     1.0000 0.99177  0.73744  0.10769  Biso   1.000  N
  C505     1.0000 0.01683  0.30259  0.13383  Biso   1.000  C
  C506     1.0000 0.04706  0.21774  0.17827  Biso   1.000  C
  N321     1.0000 0.99177  0.26249  0.10769  Biso   1.000  N
  H495     1.0000 0.94470  0.27983  0.08110  Biso   1.000  H
  H496     1.0000 0.94880  0.34402  0.11569  Biso   1.000  H
  N322     1.0000 0.99177  0.26256  0.10769  Biso   1.000  N
  H497     1.0000 0.94880  0.34395  0.11569  Biso   1.000  H
  O174     1.0000 0.05382  0.81700  0.20772  Biso   1.000  O
  N323     1.0000 0.06909  0.78099  0.15097  Biso   1.000  N
  H498     1.0000 0.01520  0.62709  0.13470  Biso   1.000  H
  C507     1.0000 0.05408  0.73131  0.12055  Biso   1.000  C
  C508     1.0000 0.00868  0.78493  0.08191  Biso   1.000  C
  C509     1.0000 0.00868  0.78500  0.08191  Biso   1.000  C
  O175     1.0000 0.05382  0.18300  0.20772  Biso   1.000  O
  N324     1.0000 0.06909  0.21901  0.15097  Biso   1.000  N
  N325     1.0000 0.06909  0.21894  0.15097  Biso   1.000  N
  H499     1.0000 0.01520  0.37291  0.13470  Biso   1.000  H
  C510     1.0000 0.05408  0.26869  0.12055  Biso   1.000  C
  C511     1.0000 0.00868  0.21500  0.08191  Biso   1.000  C
  C512     1.0000 0.00868  0.21492  0.08191  Biso   1.000  C
  C513     1.0000 0.10395  0.82686  0.15274  Biso   1.000  C
  N326     1.0000 0.04478  0.78789  0.09076  Biso   1.000  N
  H500     1.0000 0.06950  0.67677  0.11400  Biso   1.000  H
  O176     1.0000 0.99466  0.81827  0.05540  Biso   1.000  O
  C514     1.0000 0.10395  0.17307  0.15274  Biso   1.000  C
  N327     1.0000 0.04478  0.21211  0.09076  Biso   1.000  N
  N328     1.0000 0.04478  0.21204  0.09076  Biso   1.000  N
  H501     1.0000 0.06950  0.32323  0.11400  Biso   1.000  H
  O177     1.0000 0.99466  0.18166  0.05540  Biso   1.000  O
  N329     1.0000 0.10311  0.92157  0.13824  Biso   1.000  N
  H502     1.0000 0.11270  0.82975  0.17769  Biso   1.000  H
  H503     1.0000 0.12120  0.78846  0.13961  Biso   1.000  H
  C515     1.0000 0.07059  0.82721  0.06686  Biso   1.000  C
  C516     1.0000 0.07059  0.82714  0.06686  Biso   1.000  C
  N330     1.0000 0.10311  0.07843  0.13824  Biso   1.000  N
  H504     1.0000 0.12120  0.21147  0.13961  Biso   1.000  H
  H505     1.0000 0.11270  0.17025  0.17769  Biso   1.000  H
  H506     1.0000 0.12120  0.21154  0.13961  Biso   1.000  H
  C517     1.0000 0.07059  0.17286  0.06686  Biso   1.000  C
  C518     1.0000 0.11039  0.94539  0.10196  Biso   1.000  C
  C519     1.0000 0.10231  0.00007  0.15942  Biso   1.000  C
  N331     1.0000 0.08185  0.92249  0.07682  Biso   1.000  N
  H507     1.0000 0.05969  0.82848  0.04270  Biso   1.000  H
  H508     1.0000 0.09201  0.78592  0.06670  Biso   1.000  H
  H509     1.0000 0.09201  0.78585  0.06670  Biso   1.000  H
  C520     1.0000 0.11039  0.05454  0.10196  Biso   1.000  C
  N332     1.0000 0.08185  0.07751  0.07682  Biso   1.000  N
  H510     1.0000 0.05969  0.17152  0.04270  Biso   1.000  H
  H511     1.0000 0.09201  0.21408  0.06670  Biso   1.000  H
  H512     1.0000 0.05969  0.17145  0.04270  Biso   1.000  H
  H513     1.0000 0.13400  0.91932  0.09470  Biso   1.000  H
  H514     1.0000 0.13400  0.91939  0.09470  Biso   1.000  H
  O178     1.0000 0.10011  0.00007  0.19187  Biso   1.000  O
  C521     1.0000 0.06641  0.00007  0.06108  Biso   1.000  C
  H515     1.0000 0.13400  0.08061  0.09470  Biso   1.000  H
  O179     1.0000 0.04351  0.00007  0.03768  Biso   1.000  O
  N333     1.0000 0.07828  0.91459  0.80150  Biso   1.000  N
  N334     1.0000 0.07828  0.08541  0.80150  Biso   1.000  N
  H516     1.0000 0.08101  0.00007  0.75970  Biso   1.000  H
  H517     1.0000 0.11671  0.00007  0.78439  Biso   1.000  H
  C522     1.0000 0.04619  0.87140  0.79210  Biso   1.000  C
  C523     1.0000 0.09723  0.86724  0.83005  Biso   1.000  C
  C524     1.0000 0.09723  0.86717  0.83005  Biso   1.000  C
  C525     1.0000 0.09011  0.00007  0.78452  Biso   1.000  C
  C526     1.0000 0.04619  0.12860  0.79210  Biso   1.000  C
  C527     1.0000 0.09723  0.13276  0.83005  Biso   1.000  C
  C528     1.0000 0.09723  0.13283  0.83005  Biso   1.000  C
  O180     1.0000 0.02685  0.89296  0.76672  Biso   1.000  O
  N335     1.0000 0.04176  0.79635  0.81412  Biso   1.000  N
  C529     1.0000 0.07346  0.78021  0.83715  Biso   1.000  C
  C530     1.0000 0.07346  0.78028  0.83715  Biso   1.000  C
  N336     1.0000 0.09897  0.91516  0.86377  Biso   1.000  N
  H518     1.0000 0.12170  0.84744  0.82289  Biso   1.000  H
  O181     1.0000 0.02685  0.10697  0.76672  Biso   1.000  O
  N337     1.0000 0.04176  0.20358  0.81412  Biso   1.000  N
  O182     1.0000 0.02685  0.10704  0.76672  Biso   1.000  O
  N338     1.0000 0.09897  0.08477  0.86377  Biso   1.000  N
  H519     1.0000 0.12170  0.15249  0.82289  Biso   1.000  H
  C531     1.0000 0.07346  0.21972  0.83715  Biso   1.000  C
  H520     1.0000 0.12170  0.15256  0.82289  Biso   1.000  H
  C532     1.0000 0.07346  0.21965  0.83715  Biso   1.000  C
  C533     1.0000 0.01405  0.72835  0.80789  Biso   1.000  C
  H521     1.0000 0.08592  0.72010  0.83129  Biso   1.000  H
  N339     1.0000 0.06702  0.78747  0.87457  Biso   1.000  N
  C534     1.0000 0.08232  0.86520  0.88941  Biso   1.000  C
  C535     1.0000 0.11881  0.00007  0.87156  Biso   1.000  C
  C536     1.0000 0.01405  0.27165  0.80789  Biso   1.000  C
  C537     1.0000 0.08232  0.13480  0.88941  Biso   1.000  C
  N340     1.0000 0.06702  0.21246  0.87457  Biso   1.000  N
  H522     1.0000 0.08592  0.27990  0.83129  Biso   1.000  H
  N341     1.0000 0.06702  0.21253  0.87457  Biso   1.000  N
  H523     1.0000 0.08592  0.27983  0.83129  Biso   1.000  H
  H524     1.0000 0.02441  0.66451  0.81080  Biso   1.000  H
  N342     1.0000 0.98431  0.73857  0.83142  Biso   1.000  N
  H525     1.0000 0.00482  0.73434  0.78320  Biso   1.000  H
  H526     1.0000 0.00482  0.73441  0.78320  Biso   1.000  H
  C538     1.0000 0.04669  0.71954  0.89393  Biso   1.000  C
  O183     1.0000 0.08225  0.88577  0.92083  Biso   1.000  O
  H527     1.0000 0.14090  0.00007  0.85780  Biso   1.000  H
  H528     1.0000 0.12621  0.00007  0.89691  Biso   1.000  H
  N343     1.0000 0.98431  0.26136  0.83142  Biso   1.000  N
  H529     1.0000 0.02441  0.33549  0.81080  Biso   1.000  H
  H530     1.0000 0.00482  0.26559  0.78320  Biso   1.000  H
  H531     1.0000 0.00482  0.26552  0.78320  Biso   1.000  H
  O184     1.0000 0.08225  0.11416  0.92083  Biso   1.000  O
  C539     1.0000 0.04669  0.28046  0.89393  Biso   1.000  C
  C540     1.0000 0.95295  0.78226  0.82173  Biso   1.000  C
  C541     1.0000 0.98318  0.69734  0.86617  Biso   1.000  C
  H532     1.0000 0.05531  0.72017  0.91891  Biso   1.000  H
  H533     1.0000 0.05121  0.65598  0.88431  Biso   1.000  H
  N344     1.0000 0.00824  0.73744  0.89231  Biso   1.000  N
  C542     1.0000 0.98318  0.30259  0.86617  Biso   1.000  C
  C543     1.0000 0.95295  0.21774  0.82173  Biso   1.000  C
  N345     1.0000 0.00824  0.26249  0.89231  Biso   1.000  N
  H534     1.0000 0.05531  0.27983  0.91891  Biso   1.000  H
  H535     1.0000 0.05121  0.34402  0.88431  Biso   1.000  H
  N346     1.0000 0.00824  0.26256  0.89231  Biso   1.000  N
  H536     1.0000 0.05121  0.34395  0.88431  Biso   1.000  H
  O185     1.0000 0.94619  0.81700  0.79229  Biso   1.000  O
  N347     1.0000 0.93092  0.78099  0.84903  Biso   1.000  N
  H537     1.0000 0.98481  0.62709  0.86530  Biso   1.000  H
  C544     1.0000 0.94593  0.73131  0.87945  Biso   1.000  C
  C545     1.0000 0.99133  0.78493  0.91809  Biso   1.000  C
  C546     1.0000 0.99133  0.78500  0.91809  Biso   1.000  C
  O186     1.0000 0.94619  0.18300  0.79229  Biso   1.000  O
  N348     1.0000 0.93092  0.21901  0.84903  Biso   1.000  N
  N349     1.0000 0.93092  0.21894  0.84903  Biso   1.000  N
  H538     1.0000 0.98481  0.37291  0.86530  Biso   1.000  H
  C547     1.0000 0.94593  0.26869  0.87945  Biso   1.000  C
  C548     1.0000 0.99133  0.21500  0.91809  Biso   1.000  C
  C549     1.0000 0.99133  0.21492  0.91809  Biso   1.000  C
  C550     1.0000 0.89606  0.82686  0.84726  Biso   1.000  C
  N350     1.0000 0.95526  0.78789  0.90924  Biso   1.000  N
  H539     1.0000 0.93051  0.67677  0.88600  Biso   1.000  H
  O187     1.0000 0.00535  0.81827  0.94460  Biso   1.000  O
  C551     1.0000 0.89606  0.17307  0.84726  Biso   1.000  C
  N351     1.0000 0.95526  0.21211  0.90924  Biso   1.000  N
  N352     1.0000 0.95526  0.21204  0.90924  Biso   1.000  N
  H540     1.0000 0.93051  0.32323  0.88600  Biso   1.000  H
  O188     1.0000 0.00535  0.18166  0.94460  Biso   1.000  O
  N353     1.0000 0.89690  0.92157  0.86176  Biso   1.000  N
  H541     1.0000 0.88731  0.82975  0.82231  Biso   1.000  H
  H542     1.0000 0.87881  0.78846  0.86039  Biso   1.000  H
  C552     1.0000 0.92945  0.82721  0.93314  Biso   1.000  C
  C553     1.0000 0.92945  0.82714  0.93314  Biso   1.000  C
  N354     1.0000 0.89690  0.07843  0.86176  Biso   1.000  N
  H543     1.0000 0.87881  0.21147  0.86039  Biso   1.000  H
  H544     1.0000 0.88731  0.17025  0.82231  Biso   1.000  H
  H545     1.0000 0.87881  0.21154  0.86039  Biso   1.000  H
  C554     1.0000 0.92945  0.17286  0.93314  Biso   1.000  C
  C555     1.0000 0.88965  0.94539  0.89805  Biso   1.000  C
  C556     1.0000 0.89773  0.00007  0.84056  Biso   1.000  C
  N355     1.0000 0.91816  0.92249  0.92316  Biso   1.000  N
  H546     1.0000 0.94032  0.82848  0.95730  Biso   1.000  H
  H547     1.0000 0.90803  0.78592  0.93330  Biso   1.000  H
  H548     1.0000 0.90803  0.78585  0.93330  Biso   1.000  H
  C557     1.0000 0.88965  0.05454  0.89805  Biso   1.000  C
  N356     1.0000 0.91816  0.07751  0.92316  Biso   1.000  N
  H549     1.0000 0.94032  0.17152  0.95730  Biso   1.000  H
  H550     1.0000 0.90803  0.21408  0.93330  Biso   1.000  H
  H551     1.0000 0.94032  0.17145  0.95730  Biso   1.000  H
  H552     1.0000 0.86601  0.91932  0.90531  Biso   1.000  H
  H553     1.0000 0.86601  0.91939  0.90531  Biso   1.000  H
  O189     1.0000 0.89991  0.00007  0.80813  Biso   1.000  O
  C558     1.0000 0.93360  0.00007  0.93892  Biso   1.000  C
  H554     1.0000 0.86601  0.08061  0.90531  Biso   1.000  H
  O190     1.0000 0.95650  0.00007  0.96232  Biso   1.000  O
