data_image0
_cell_length_a       37.248
_cell_length_b       14.191
_cell_length_c       37.892
_cell_angle_alpha    90
_cell_angle_beta     92
_cell_angle_gamma    90

_symmetry_space_group_name_H-M    "P 1"
_symmetry_int_tables_number       1

loop_
  _symmetry_equiv_pos_as_xyz
  'x, y, z'

loop_
  _atom_site_label
  _atom_site_occupancy
  _atom_site_fract_x
  _atom_site_fract_y
  _atom_site_fract_z
  _atom_site_thermal_displace_type
  _atom_site_B_iso_or_equiv
  _atom_site_type_symbol
  C1       1.0000 0.52036  0.17307  0.45470  Biso   1.000  C
  N1       1.0000 0.52287  0.21112  0.41945  Biso   1.000  N
  N2       1.0000 0.52287  0.21105  0.41945  Biso   1.000  N
  N3       1.0000 0.50612  0.07780  0.45523  Biso   1.000  N
  H1       1.0000 0.54451  0.17342  0.46640  Biso   1.000  H
  H2       1.0000 0.50471  0.21457  0.46851  Biso   1.000  H
  H3       1.0000 0.50471  0.21464  0.46851  Biso   1.000  H
  C2       1.0000 0.49591  0.26890  0.40202  Biso   1.000  C
  C3       1.0000 0.49591  0.26883  0.40202  Biso   1.000  C
  C4       1.0000 0.55489  0.21337  0.40273  Biso   1.000  C
  C5       1.0000 0.55489  0.21345  0.40273  Biso   1.000  C
  C6       1.0000 0.46873  0.05377  0.45393  Biso   1.000  C
  C7       1.0000 0.46873  0.05384  0.45393  Biso   1.000  C
  C8       1.0000 0.52783  0.00000  0.45647  Biso   1.000  C
  C9       1.0000 0.52783  0.00007  0.45647  Biso   1.000  C
  N4       1.0000 0.46455  0.21866  0.38916  Biso   1.000  N
  C10      1.0000 0.51378  0.30111  0.36785  Biso   1.000  C
  C11      1.0000 0.51378  0.30104  0.36785  Biso   1.000  C
  H4       1.0000 0.48930  0.32387  0.41699  Biso   1.000  H
  N5       1.0000 0.54963  0.26136  0.37173  Biso   1.000  N
  O1       1.0000 0.58359  0.18166  0.41398  Biso   1.000  O
  N6       1.0000 0.44983  0.07822  0.42127  Biso   1.000  N
  H5       1.0000 0.45621  0.07949  0.47480  Biso   1.000  H
  H6       1.0000 0.45621  0.07956  0.47480  Biso   1.000  H
  C12      1.0000 0.46873  0.94623  0.45393  Biso   1.000  C
  C13      1.0000 0.46873  0.94616  0.45393  Biso   1.000  C
  N7       1.0000 0.50612  0.92220  0.45523  Biso   1.000  N
  N8       1.0000 0.50612  0.92213  0.45523  Biso   1.000  N
  O2       1.0000 0.56095  0.00000  0.45856  Biso   1.000  O
  O3       1.0000 0.56095  0.00007  0.45856  Biso   1.000  O
  C14      1.0000 0.46158  0.21746  0.35243  Biso   1.000  C
  C15      1.0000 0.46158  0.21753  0.35243  Biso   1.000  C
  C16      1.0000 0.43974  0.17328  0.40957  Biso   1.000  C
  N9       1.0000 0.49114  0.26277  0.34028  Biso   1.000  N
  N10      1.0000 0.49114  0.26284  0.34028  Biso   1.000  N
  H7       1.0000 0.51470  0.37136  0.36640  Biso   1.000  H
  H8       1.0000 0.51470  0.37143  0.36640  Biso   1.000  H
  C17      1.0000 0.57775  0.27257  0.34646  Biso   1.000  C
  C18      1.0000 0.57775  0.27264  0.34646  Biso   1.000  C
  C19      1.0000 0.43684  0.00000  0.40342  Biso   1.000  C
  C20      1.0000 0.43684  0.00007  0.40342  Biso   1.000  C
  N11      1.0000 0.44983  0.92178  0.42127  Biso   1.000  N
  H9       1.0000 0.45621  0.92051  0.47480  Biso   1.000  H
  H10      1.0000 0.45621  0.92044  0.47480  Biso   1.000  H
  C21      1.0000 0.52036  0.82693  0.45470  Biso   1.000  C
  C22      1.0000 0.52036  0.82686  0.45470  Biso   1.000  C
  O4       1.0000 0.43604  0.18681  0.33481  Biso   1.000  O
  H11      1.0000 0.43561  0.21232  0.43070  Biso   1.000  H
  H12      1.0000 0.41670  0.16926  0.39581  Biso   1.000  H
  H13      1.0000 0.43561  0.21225  0.43070  Biso   1.000  H
  C23      1.0000 0.49488  0.28081  0.30281  Biso   1.000  C
  C24      1.0000 0.49488  0.28074  0.30281  Biso   1.000  C
  N12      1.0000 0.57558  0.20527  0.31762  Biso   1.000  N
  H14      1.0000 0.60139  0.26566  0.35900  Biso   1.000  H
  H15      1.0000 0.57641  0.33712  0.33661  Biso   1.000  H
  H16      1.0000 0.57641  0.33704  0.33661  Biso   1.000  H
  O5       1.0000 0.41697  0.00000  0.37685  Biso   1.000  O
  O6       1.0000 0.41697  0.00007  0.37685  Biso   1.000  O
  C25      1.0000 0.43974  0.82672  0.40957  Biso   1.000  C
  C26      1.0000 0.43974  0.82665  0.40957  Biso   1.000  C
  N13      1.0000 0.52287  0.78881  0.41945  Biso   1.000  N
  H17      1.0000 0.54451  0.82658  0.46640  Biso   1.000  H
  H18      1.0000 0.50471  0.78543  0.46851  Biso   1.000  H
  N14      1.0000 0.52287  0.78888  0.41945  Biso   1.000  N
  H19      1.0000 0.50471  0.78536  0.46851  Biso   1.000  H
  N15      1.0000 0.51752  0.21330  0.28559  Biso   1.000  N
  H20      1.0000 0.50501  0.34458  0.29980  Biso   1.000  H
  H21      1.0000 0.47071  0.27997  0.29100  Biso   1.000  H
  N16      1.0000 0.51752  0.21323  0.28559  Biso   1.000  N
  H22      1.0000 0.50501  0.34466  0.29980  Biso   1.000  H
  H23      1.0000 0.47071  0.28004  0.29100  Biso   1.000  H
  C27      1.0000 0.55665  0.22070  0.28430  Biso   1.000  C
  C28      1.0000 0.55665  0.22063  0.28430  Biso   1.000  C
  C29      1.0000 0.59852  0.12959  0.31659  Biso   1.000  C
  C30      1.0000 0.59852  0.12966  0.31659  Biso   1.000  C
  N17      1.0000 0.46455  0.78134  0.38916  Biso   1.000  N
  H24      1.0000 0.43561  0.78768  0.43070  Biso   1.000  H
  H25      1.0000 0.41670  0.83074  0.39581  Biso   1.000  H
  N18      1.0000 0.46455  0.78127  0.38916  Biso   1.000  N
  H26      1.0000 0.41670  0.83067  0.39581  Biso   1.000  H
  C31      1.0000 0.49591  0.73103  0.40202  Biso   1.000  C
  C32      1.0000 0.49591  0.73110  0.40202  Biso   1.000  C
  C33      1.0000 0.55489  0.78663  0.40273  Biso   1.000  C
  C34      1.0000 0.55489  0.78655  0.40273  Biso   1.000  C
  C35      1.0000 0.50462  0.13311  0.26940  Biso   1.000  C
  H27      1.0000 0.56421  0.28088  0.27289  Biso   1.000  H
  C36      1.0000 0.56679  0.13410  0.26227  Biso   1.000  C
  N19      1.0000 0.59249  0.08562  0.28506  Biso   1.000  N
  N20      1.0000 0.59249  0.08555  0.28506  Biso   1.000  N
  O7       1.0000 0.62038  0.10781  0.33954  Biso   1.000  O
  C37      1.0000 0.46158  0.78254  0.35243  Biso   1.000  C
  C38      1.0000 0.46158  0.78247  0.35243  Biso   1.000  C
  H28      1.0000 0.48930  0.67613  0.41699  Biso   1.000  H
  C39      1.0000 0.51378  0.69889  0.36785  Biso   1.000  C
  H29      1.0000 0.48930  0.67606  0.41699  Biso   1.000  H
  N21      1.0000 0.54963  0.73864  0.37173  Biso   1.000  N
  N22      1.0000 0.54963  0.73857  0.37173  Biso   1.000  N
  O8       1.0000 0.58359  0.81834  0.41398  Biso   1.000  O
  O9       1.0000 0.58359  0.81827  0.41398  Biso   1.000  O
  O10      1.0000 0.47293  0.11240  0.26605  Biso   1.000  O
  N23      1.0000 0.53243  0.08611  0.25641  Biso   1.000  N
  O11      1.0000 0.47293  0.11247  0.26605  Biso   1.000  O
  N24      1.0000 0.53243  0.08604  0.25641  Biso   1.000  N
  H30      1.0000 0.57750  0.15291  0.23951  Biso   1.000  H
  H31      1.0000 0.57750  0.15284  0.23951  Biso   1.000  H
  C40      1.0000 0.61106  0.00000  0.27513  Biso   1.000  C
  C41      1.0000 0.61106  0.00007  0.27513  Biso   1.000  C
  O12      1.0000 0.43604  0.81319  0.33481  Biso   1.000  O
  N25      1.0000 0.49114  0.73716  0.34028  Biso   1.000  N
  H32      1.0000 0.51470  0.62864  0.36640  Biso   1.000  H
  H33      1.0000 0.51470  0.62857  0.36640  Biso   1.000  H
  C42      1.0000 0.57775  0.72743  0.34646  Biso   1.000  C
  C43      1.0000 0.57775  0.72736  0.34646  Biso   1.000  C
  C44      1.0000 0.52768  0.00000  0.23589  Biso   1.000  C
  C45      1.0000 0.52768  0.00007  0.23589  Biso   1.000  C
  H34      1.0000 0.63541  0.00000  0.28649  Biso   1.000  H
  H35      1.0000 0.61390  0.00000  0.24920  Biso   1.000  H
  H36      1.0000 0.63541  0.00007  0.28649  Biso   1.000  H
  H37      1.0000 0.61390  0.00007  0.24920  Biso   1.000  H
  N26      1.0000 0.59249  0.91438  0.28506  Biso   1.000  N
  C46      1.0000 0.49488  0.71919  0.30281  Biso   1.000  C
  N27      1.0000 0.57558  0.79466  0.31762  Biso   1.000  N
  H38      1.0000 0.60139  0.73434  0.35900  Biso   1.000  H
  H39      1.0000 0.57641  0.66288  0.33661  Biso   1.000  H
  H40      1.0000 0.60139  0.73427  0.35900  Biso   1.000  H
  H41      1.0000 0.54509  0.00000  0.21669  Biso   1.000  H
  H42      1.0000 0.50331  0.00000  0.22470  Biso   1.000  H
  H43      1.0000 0.54509  0.00007  0.21669  Biso   1.000  H
  H44      1.0000 0.50331  0.00007  0.22470  Biso   1.000  H
  N28      1.0000 0.53243  0.91389  0.25641  Biso   1.000  N
  C47      1.0000 0.56679  0.86583  0.26227  Biso   1.000  C
  C48      1.0000 0.56679  0.86590  0.26227  Biso   1.000  C
  C49      1.0000 0.59852  0.87041  0.31659  Biso   1.000  C
  C50      1.0000 0.59852  0.87034  0.31659  Biso   1.000  C
  N29      1.0000 0.51752  0.78670  0.28559  Biso   1.000  N
  H45      1.0000 0.50501  0.65542  0.29980  Biso   1.000  H
  H46      1.0000 0.47071  0.71996  0.29100  Biso   1.000  H
  H47      1.0000 0.50501  0.65534  0.29980  Biso   1.000  H
  C51      1.0000 0.55665  0.77930  0.28430  Biso   1.000  C
  C52      1.0000 0.50462  0.86689  0.26940  Biso   1.000  C
  H48      1.0000 0.57750  0.84709  0.23951  Biso   1.000  H
  O13      1.0000 0.62038  0.89219  0.33954  Biso   1.000  O
  H49      1.0000 0.56421  0.71912  0.27289  Biso   1.000  H
  H50      1.0000 0.56421  0.71905  0.27289  Biso   1.000  H
  O14      1.0000 0.47293  0.88760  0.26605  Biso   1.000  O
  O15      1.0000 0.47293  0.88753  0.26605  Biso   1.000  O
  C53      1.0000 0.52036  0.17307  0.45470  Biso   1.000  C
  N30      1.0000 0.52287  0.21112  0.41945  Biso   1.000  N
  N31      1.0000 0.52287  0.21105  0.41945  Biso   1.000  N
  N32      1.0000 0.50612  0.07780  0.45523  Biso   1.000  N
  H51      1.0000 0.54451  0.17342  0.46640  Biso   1.000  H
  H52      1.0000 0.50471  0.21457  0.46851  Biso   1.000  H
  H53      1.0000 0.50471  0.21464  0.46851  Biso   1.000  H
  C54      1.0000 0.49591  0.26890  0.40202  Biso   1.000  C
  C55      1.0000 0.49591  0.26883  0.40202  Biso   1.000  C
  C56      1.0000 0.55489  0.21337  0.40273  Biso   1.000  C
  C57      1.0000 0.55489  0.21345  0.40273  Biso   1.000  C
  C58      1.0000 0.46873  0.05377  0.45393  Biso   1.000  C
  C59      1.0000 0.46873  0.05384  0.45393  Biso   1.000  C
  C60      1.0000 0.52783  0.00000  0.45647  Biso   1.000  C
  C61      1.0000 0.52783  0.00007  0.45647  Biso   1.000  C
  N33      1.0000 0.46455  0.21866  0.38916  Biso   1.000  N
  C62      1.0000 0.51378  0.30111  0.36785  Biso   1.000  C
  C63      1.0000 0.51378  0.30104  0.36785  Biso   1.000  C
  H54      1.0000 0.48930  0.32387  0.41699  Biso   1.000  H
  N34      1.0000 0.54963  0.26136  0.37173  Biso   1.000  N
  O16      1.0000 0.58359  0.18166  0.41398  Biso   1.000  O
  N35      1.0000 0.44983  0.07822  0.42127  Biso   1.000  N
  C64      1.0000 0.46873  0.94623  0.45393  Biso   1.000  C
  C65      1.0000 0.46873  0.94616  0.45393  Biso   1.000  C
  H55      1.0000 0.45621  0.07949  0.47480  Biso   1.000  H
  H56      1.0000 0.45621  0.07956  0.47480  Biso   1.000  H
  N36      1.0000 0.50612  0.92220  0.45523  Biso   1.000  N
  N37      1.0000 0.50612  0.92213  0.45523  Biso   1.000  N
  O17      1.0000 0.56095  0.00000  0.45856  Biso   1.000  O
  O18      1.0000 0.56095  0.00007  0.45856  Biso   1.000  O
  C66      1.0000 0.46158  0.21746  0.35243  Biso   1.000  C
  C67      1.0000 0.46158  0.21753  0.35243  Biso   1.000  C
  C68      1.0000 0.43974  0.17328  0.40957  Biso   1.000  C
  N38      1.0000 0.49114  0.26277  0.34028  Biso   1.000  N
  N39      1.0000 0.49114  0.26284  0.34028  Biso   1.000  N
  H57      1.0000 0.51470  0.37136  0.36640  Biso   1.000  H
  H58      1.0000 0.51470  0.37143  0.36640  Biso   1.000  H
  C69      1.0000 0.57775  0.27257  0.34646  Biso   1.000  C
  C70      1.0000 0.57775  0.27264  0.34646  Biso   1.000  C
  C71      1.0000 0.43684  0.00000  0.40342  Biso   1.000  C
  C72      1.0000 0.43684  0.00007  0.40342  Biso   1.000  C
  N40      1.0000 0.44983  0.92178  0.42127  Biso   1.000  N
  H59      1.0000 0.45621  0.92051  0.47480  Biso   1.000  H
  H60      1.0000 0.45621  0.92044  0.47480  Biso   1.000  H
  C73      1.0000 0.52036  0.82693  0.45470  Biso   1.000  C
  C74      1.0000 0.52036  0.82686  0.45470  Biso   1.000  C
  O19      1.0000 0.43604  0.18681  0.33481  Biso   1.000  O
  H61      1.0000 0.41670  0.16926  0.39581  Biso   1.000  H
  H62      1.0000 0.43561  0.21232  0.43070  Biso   1.000  H
  H63      1.0000 0.43561  0.21225  0.43070  Biso   1.000  H
  C75      1.0000 0.49488  0.28081  0.30281  Biso   1.000  C
  C76      1.0000 0.49488  0.28074  0.30281  Biso   1.000  C
  N41      1.0000 0.57558  0.20527  0.31762  Biso   1.000  N
  H64      1.0000 0.60139  0.26566  0.35900  Biso   1.000  H
  H65      1.0000 0.57641  0.33712  0.33661  Biso   1.000  H
  H66      1.0000 0.57641  0.33704  0.33661  Biso   1.000  H
  O20      1.0000 0.41697  0.00000  0.37685  Biso   1.000  O
  O21      1.0000 0.41697  0.00007  0.37685  Biso   1.000  O
  C77      1.0000 0.43974  0.82672  0.40957  Biso   1.000  C
  C78      1.0000 0.43974  0.82665  0.40957  Biso   1.000  C
  N42      1.0000 0.52287  0.78881  0.41945  Biso   1.000  N
  H67      1.0000 0.54451  0.82658  0.46640  Biso   1.000  H
  H68      1.0000 0.50471  0.78543  0.46851  Biso   1.000  H
  N43      1.0000 0.52287  0.78888  0.41945  Biso   1.000  N
  H69      1.0000 0.50471  0.78536  0.46851  Biso   1.000  H
  N44      1.0000 0.51752  0.21330  0.28559  Biso   1.000  N
  H70      1.0000 0.50501  0.34458  0.29980  Biso   1.000  H
  H71      1.0000 0.47071  0.27997  0.29100  Biso   1.000  H
  N45      1.0000 0.51752  0.21323  0.28559  Biso   1.000  N
  H72      1.0000 0.50501  0.34466  0.29980  Biso   1.000  H
  H73      1.0000 0.47071  0.28004  0.29100  Biso   1.000  H
  C79      1.0000 0.55665  0.22070  0.28430  Biso   1.000  C
  C80      1.0000 0.55665  0.22063  0.28430  Biso   1.000  C
  C81      1.0000 0.59852  0.12959  0.31659  Biso   1.000  C
  C82      1.0000 0.59852  0.12966  0.31659  Biso   1.000  C
  N46      1.0000 0.46455  0.78134  0.38916  Biso   1.000  N
  H74      1.0000 0.43561  0.78768  0.43070  Biso   1.000  H
  H75      1.0000 0.41670  0.83074  0.39581  Biso   1.000  H
  N47      1.0000 0.46455  0.78127  0.38916  Biso   1.000  N
  H76      1.0000 0.41670  0.83067  0.39581  Biso   1.000  H
  C83      1.0000 0.49591  0.73103  0.40202  Biso   1.000  C
  C84      1.0000 0.49591  0.73110  0.40202  Biso   1.000  C
  C85      1.0000 0.55489  0.78663  0.40273  Biso   1.000  C
  C86      1.0000 0.55489  0.78655  0.40273  Biso   1.000  C
  C87      1.0000 0.50462  0.13311  0.26940  Biso   1.000  C
  H77      1.0000 0.56421  0.28088  0.27289  Biso   1.000  H
  C88      1.0000 0.56679  0.13410  0.26227  Biso   1.000  C
  N48      1.0000 0.59249  0.08562  0.28506  Biso   1.000  N
  N49      1.0000 0.59249  0.08555  0.28506  Biso   1.000  N
  O22      1.0000 0.62038  0.10781  0.33954  Biso   1.000  O
  C89      1.0000 0.46158  0.78254  0.35243  Biso   1.000  C
  C90      1.0000 0.46158  0.78247  0.35243  Biso   1.000  C
  H78      1.0000 0.48930  0.67613  0.41699  Biso   1.000  H
  C91      1.0000 0.51378  0.69889  0.36785  Biso   1.000  C
  H79      1.0000 0.48930  0.67606  0.41699  Biso   1.000  H
  N50      1.0000 0.54963  0.73864  0.37173  Biso   1.000  N
  N51      1.0000 0.54963  0.73857  0.37173  Biso   1.000  N
  O23      1.0000 0.58359  0.81834  0.41398  Biso   1.000  O
  O24      1.0000 0.58359  0.81827  0.41398  Biso   1.000  O
  O25      1.0000 0.47293  0.11240  0.26605  Biso   1.000  O
  N52      1.0000 0.53243  0.08611  0.25641  Biso   1.000  N
  O26      1.0000 0.47293  0.11247  0.26605  Biso   1.000  O
  N53      1.0000 0.53243  0.08604  0.25641  Biso   1.000  N
  H80      1.0000 0.57750  0.15291  0.23951  Biso   1.000  H
  H81      1.0000 0.57750  0.15284  0.23951  Biso   1.000  H
  C92      1.0000 0.61106  0.00000  0.27513  Biso   1.000  C
  C93      1.0000 0.61106  0.00007  0.27513  Biso   1.000  C
  O27      1.0000 0.43604  0.81319  0.33481  Biso   1.000  O
  N54      1.0000 0.49114  0.73716  0.34028  Biso   1.000  N
  H82      1.0000 0.51470  0.62864  0.36640  Biso   1.000  H
  H83      1.0000 0.51470  0.62857  0.36640  Biso   1.000  H
  C94      1.0000 0.57775  0.72743  0.34646  Biso   1.000  C
  C95      1.0000 0.57775  0.72736  0.34646  Biso   1.000  C
  C96      1.0000 0.52768  0.00000  0.23589  Biso   1.000  C
  C97      1.0000 0.52768  0.00007  0.23589  Biso   1.000  C
  N55      1.0000 0.59249  0.91438  0.28506  Biso   1.000  N
  H84      1.0000 0.63541  0.00000  0.28649  Biso   1.000  H
  H85      1.0000 0.61390  0.00000  0.24920  Biso   1.000  H
  H86      1.0000 0.63541  0.00007  0.28649  Biso   1.000  H
  H87      1.0000 0.61390  0.00007  0.24920  Biso   1.000  H
  C98      1.0000 0.49488  0.71919  0.30281  Biso   1.000  C
  N56      1.0000 0.57558  0.79466  0.31762  Biso   1.000  N
  H88      1.0000 0.60139  0.73434  0.35900  Biso   1.000  H
  H89      1.0000 0.57641  0.66288  0.33661  Biso   1.000  H
  H90      1.0000 0.60139  0.73427  0.35900  Biso   1.000  H
  N57      1.0000 0.53243  0.91389  0.25641  Biso   1.000  N
  H91      1.0000 0.54509  0.00000  0.21669  Biso   1.000  H
  H92      1.0000 0.50331  0.00000  0.22470  Biso   1.000  H
  H93      1.0000 0.54509  0.00007  0.21669  Biso   1.000  H
  H94      1.0000 0.50331  0.00007  0.22470  Biso   1.000  H
  C99      1.0000 0.56679  0.86583  0.26227  Biso   1.000  C
  C100     1.0000 0.56679  0.86590  0.26227  Biso   1.000  C
  C101     1.0000 0.59852  0.87041  0.31659  Biso   1.000  C
  C102     1.0000 0.59852  0.87034  0.31659  Biso   1.000  C
  N58      1.0000 0.51752  0.78670  0.28559  Biso   1.000  N
  H95      1.0000 0.50501  0.65542  0.29980  Biso   1.000  H
  H96      1.0000 0.47071  0.71996  0.29100  Biso   1.000  H
  H97      1.0000 0.50501  0.65534  0.29980  Biso   1.000  H
  C103     1.0000 0.55665  0.77930  0.28430  Biso   1.000  C
  C104     1.0000 0.50462  0.86689  0.26940  Biso   1.000  C
  H98      1.0000 0.57750  0.84709  0.23951  Biso   1.000  H
  O28      1.0000 0.62038  0.89219  0.33954  Biso   1.000  O
  H99      1.0000 0.56421  0.71912  0.27289  Biso   1.000  H
  H100     1.0000 0.56421  0.71905  0.27289  Biso   1.000  H
  O29      1.0000 0.47293  0.88760  0.26605  Biso   1.000  O
  O30      1.0000 0.47293  0.88753  0.26605  Biso   1.000  O
  C105     1.0000 0.47968  0.17307  0.54530  Biso   1.000  C
  N59      1.0000 0.49389  0.07780  0.54477  Biso   1.000  N
  N60      1.0000 0.47715  0.21112  0.58056  Biso   1.000  N
  H101     1.0000 0.45550  0.17342  0.53360  Biso   1.000  H
  H102     1.0000 0.49530  0.21457  0.53149  Biso   1.000  H
  N61      1.0000 0.47715  0.21105  0.58056  Biso   1.000  N
  H103     1.0000 0.49530  0.21464  0.53149  Biso   1.000  H
  C106     1.0000 0.47218  0.00000  0.54353  Biso   1.000  C
  C107     1.0000 0.47218  0.00007  0.54353  Biso   1.000  C
  C108     1.0000 0.53131  0.05377  0.54607  Biso   1.000  C
  C109     1.0000 0.53131  0.05384  0.54607  Biso   1.000  C
  C110     1.0000 0.50413  0.26890  0.59798  Biso   1.000  C
  C111     1.0000 0.44512  0.21337  0.59727  Biso   1.000  C
  C112     1.0000 0.50413  0.26883  0.59798  Biso   1.000  C
  C113     1.0000 0.44512  0.21345  0.59727  Biso   1.000  C
  O31      1.0000 0.43906  0.00007  0.54145  Biso   1.000  O
  O32      1.0000 0.43906  0.00000  0.54145  Biso   1.000  O
  N62      1.0000 0.49389  0.92220  0.54477  Biso   1.000  N
  N63      1.0000 0.49389  0.92213  0.54477  Biso   1.000  N
  C114     1.0000 0.53131  0.94623  0.54607  Biso   1.000  C
  C115     1.0000 0.53131  0.94616  0.54607  Biso   1.000  C
  N64      1.0000 0.55019  0.07822  0.57873  Biso   1.000  N
  H104     1.0000 0.54380  0.07949  0.52521  Biso   1.000  H
  H105     1.0000 0.54380  0.07956  0.52521  Biso   1.000  H
  N65      1.0000 0.53546  0.21866  0.61084  Biso   1.000  N
  H106     1.0000 0.51071  0.32387  0.58301  Biso   1.000  H
  C116     1.0000 0.48623  0.30111  0.63213  Biso   1.000  C
  C117     1.0000 0.48623  0.30104  0.63213  Biso   1.000  C
  O33      1.0000 0.41642  0.18166  0.58602  Biso   1.000  O
  N66      1.0000 0.45038  0.26136  0.62827  Biso   1.000  N
  C118     1.0000 0.47968  0.82693  0.54530  Biso   1.000  C
  C119     1.0000 0.47968  0.82686  0.54530  Biso   1.000  C
  N67      1.0000 0.55019  0.92178  0.57873  Biso   1.000  N
  H107     1.0000 0.54380  0.92051  0.52521  Biso   1.000  H
  H108     1.0000 0.54380  0.92044  0.52521  Biso   1.000  H
  C120     1.0000 0.56317  0.00000  0.59658  Biso   1.000  C
  C121     1.0000 0.56027  0.17328  0.59043  Biso   1.000  C
  C122     1.0000 0.56317  0.00007  0.59658  Biso   1.000  C
  C123     1.0000 0.53845  0.21746  0.64758  Biso   1.000  C
  C124     1.0000 0.53845  0.21753  0.64758  Biso   1.000  C
  N68      1.0000 0.50887  0.26277  0.65972  Biso   1.000  N
  H109     1.0000 0.48531  0.37136  0.63361  Biso   1.000  H
  N69      1.0000 0.50887  0.26284  0.65972  Biso   1.000  N
  H110     1.0000 0.48531  0.37143  0.63361  Biso   1.000  H
  C125     1.0000 0.42226  0.27257  0.65354  Biso   1.000  C
  C126     1.0000 0.42226  0.27264  0.65354  Biso   1.000  C
  N70      1.0000 0.47715  0.78881  0.58056  Biso   1.000  N
  H111     1.0000 0.45550  0.82658  0.53360  Biso   1.000  H
  H112     1.0000 0.49530  0.78543  0.53149  Biso   1.000  H
  N71      1.0000 0.47715  0.78888  0.58056  Biso   1.000  N
  H113     1.0000 0.49530  0.78536  0.53149  Biso   1.000  H
  C127     1.0000 0.56027  0.82672  0.59043  Biso   1.000  C
  C128     1.0000 0.56027  0.82665  0.59043  Biso   1.000  C
  O34      1.0000 0.58304  0.00000  0.62315  Biso   1.000  O
  O35      1.0000 0.58304  0.00007  0.62315  Biso   1.000  O
  H114     1.0000 0.56440  0.21232  0.56931  Biso   1.000  H
  H115     1.0000 0.58331  0.16926  0.60419  Biso   1.000  H
  H116     1.0000 0.56440  0.21225  0.56931  Biso   1.000  H
  O36      1.0000 0.56399  0.18681  0.66519  Biso   1.000  O
  C129     1.0000 0.50515  0.28081  0.69717  Biso   1.000  C
  C130     1.0000 0.50515  0.28074  0.69717  Biso   1.000  C
  N72      1.0000 0.42444  0.20527  0.68238  Biso   1.000  N
  H117     1.0000 0.39862  0.26566  0.64100  Biso   1.000  H
  H118     1.0000 0.42360  0.33712  0.66339  Biso   1.000  H
  H119     1.0000 0.42360  0.33704  0.66339  Biso   1.000  H
  C131     1.0000 0.50413  0.73103  0.59798  Biso   1.000  C
  C132     1.0000 0.44512  0.78663  0.59727  Biso   1.000  C
  C133     1.0000 0.50413  0.73110  0.59798  Biso   1.000  C
  C134     1.0000 0.44512  0.78655  0.59727  Biso   1.000  C
  N73      1.0000 0.53546  0.78134  0.61084  Biso   1.000  N
  N74      1.0000 0.53546  0.78127  0.61084  Biso   1.000  N
  H120     1.0000 0.56440  0.78768  0.56931  Biso   1.000  H
  H121     1.0000 0.58331  0.83074  0.60419  Biso   1.000  H
  H122     1.0000 0.58331  0.83067  0.60419  Biso   1.000  H
  N75      1.0000 0.48252  0.21330  0.71441  Biso   1.000  N
  H123     1.0000 0.49501  0.34458  0.70020  Biso   1.000  H
  H124     1.0000 0.52931  0.27997  0.70900  Biso   1.000  H
  N76      1.0000 0.48252  0.21323  0.71441  Biso   1.000  N
  H125     1.0000 0.49501  0.34466  0.70020  Biso   1.000  H
  H126     1.0000 0.52931  0.28004  0.70900  Biso   1.000  H
  C135     1.0000 0.40149  0.12959  0.68341  Biso   1.000  C
  C136     1.0000 0.44336  0.22070  0.71571  Biso   1.000  C
  C137     1.0000 0.40149  0.12966  0.68341  Biso   1.000  C
  C138     1.0000 0.44336  0.22063  0.71571  Biso   1.000  C
  H127     1.0000 0.51071  0.67613  0.58301  Biso   1.000  H
  C139     1.0000 0.48623  0.69889  0.63213  Biso   1.000  C
  H128     1.0000 0.51071  0.67606  0.58301  Biso   1.000  H
  O37      1.0000 0.41642  0.81834  0.58602  Biso   1.000  O
  N77      1.0000 0.45038  0.73864  0.62827  Biso   1.000  N
  O38      1.0000 0.41642  0.81827  0.58602  Biso   1.000  O
  N78      1.0000 0.45038  0.73857  0.62827  Biso   1.000  N
  C140     1.0000 0.53845  0.78254  0.64758  Biso   1.000  C
  C141     1.0000 0.53845  0.78247  0.64758  Biso   1.000  C
  C142     1.0000 0.49541  0.13311  0.73060  Biso   1.000  C
  O39      1.0000 0.37963  0.10781  0.66046  Biso   1.000  O
  N79      1.0000 0.40755  0.08562  0.71494  Biso   1.000  N
  N80      1.0000 0.40755  0.08555  0.71494  Biso   1.000  N
  H129     1.0000 0.43582  0.28088  0.72711  Biso   1.000  H
  C143     1.0000 0.43322  0.13410  0.73773  Biso   1.000  C
  N81      1.0000 0.50887  0.73716  0.65972  Biso   1.000  N
  H130     1.0000 0.48531  0.62864  0.63361  Biso   1.000  H
  H131     1.0000 0.48531  0.62857  0.63361  Biso   1.000  H
  C144     1.0000 0.42226  0.72743  0.65354  Biso   1.000  C
  C145     1.0000 0.42226  0.72736  0.65354  Biso   1.000  C
  O40      1.0000 0.56399  0.81319  0.66519  Biso   1.000  O
  O41      1.0000 0.52710  0.11240  0.73395  Biso   1.000  O
  N82      1.0000 0.46760  0.08611  0.74359  Biso   1.000  N
  O42      1.0000 0.52710  0.11247  0.73395  Biso   1.000  O
  N83      1.0000 0.46760  0.08604  0.74359  Biso   1.000  N
  C146     1.0000 0.38895  0.00000  0.72487  Biso   1.000  C
  C147     1.0000 0.38895  0.00007  0.72487  Biso   1.000  C
  H132     1.0000 0.42251  0.15291  0.76049  Biso   1.000  H
  H133     1.0000 0.42251  0.15284  0.76049  Biso   1.000  H
  C148     1.0000 0.50515  0.71919  0.69717  Biso   1.000  C
  N84      1.0000 0.42444  0.79466  0.68238  Biso   1.000  N
  H134     1.0000 0.39862  0.73434  0.64100  Biso   1.000  H
  H135     1.0000 0.42360  0.66288  0.66339  Biso   1.000  H
  H136     1.0000 0.39862  0.73427  0.64100  Biso   1.000  H
  C149     1.0000 0.47233  0.00000  0.76411  Biso   1.000  C
  C150     1.0000 0.47233  0.00007  0.76411  Biso   1.000  C
  N85      1.0000 0.40755  0.91438  0.71494  Biso   1.000  N
  H137     1.0000 0.36462  0.00000  0.71349  Biso   1.000  H
  H138     1.0000 0.38611  0.00000  0.75080  Biso   1.000  H
  H139     1.0000 0.36462  0.00007  0.71349  Biso   1.000  H
  H140     1.0000 0.38611  0.00007  0.75080  Biso   1.000  H
  N86      1.0000 0.48252  0.78670  0.71441  Biso   1.000  N
  H141     1.0000 0.49501  0.65542  0.70020  Biso   1.000  H
  H142     1.0000 0.52931  0.71996  0.70900  Biso   1.000  H
  H143     1.0000 0.49501  0.65534  0.70020  Biso   1.000  H
  C151     1.0000 0.40149  0.87041  0.68341  Biso   1.000  C
  C152     1.0000 0.44336  0.77930  0.71571  Biso   1.000  C
  C153     1.0000 0.40149  0.87034  0.68341  Biso   1.000  C
  N87      1.0000 0.46760  0.91389  0.74359  Biso   1.000  N
  H144     1.0000 0.45492  0.00000  0.78331  Biso   1.000  H
  H145     1.0000 0.49671  0.00000  0.77531  Biso   1.000  H
  H146     1.0000 0.45492  0.00007  0.78331  Biso   1.000  H
  H147     1.0000 0.49671  0.00007  0.77531  Biso   1.000  H
  C154     1.0000 0.43322  0.86583  0.73773  Biso   1.000  C
  C155     1.0000 0.43322  0.86590  0.73773  Biso   1.000  C
  C156     1.0000 0.49541  0.86689  0.73060  Biso   1.000  C
  O43      1.0000 0.37963  0.89219  0.66046  Biso   1.000  O
  H148     1.0000 0.43582  0.71912  0.72711  Biso   1.000  H
  H149     1.0000 0.43582  0.71905  0.72711  Biso   1.000  H
  H150     1.0000 0.42251  0.84709  0.76049  Biso   1.000  H
  O44      1.0000 0.52710  0.88760  0.73395  Biso   1.000  O
  O45      1.0000 0.52710  0.88753  0.73395  Biso   1.000  O
  C157     1.0000 0.47968  0.17307  0.54530  Biso   1.000  C
  N88      1.0000 0.49389  0.07780  0.54477  Biso   1.000  N
  H151     1.0000 0.45550  0.17342  0.53360  Biso   1.000  H
  N89      1.0000 0.47715  0.21112  0.58056  Biso   1.000  N
  H152     1.0000 0.49530  0.21457  0.53149  Biso   1.000  H
  N90      1.0000 0.47715  0.21105  0.58056  Biso   1.000  N
  H153     1.0000 0.49530  0.21464  0.53149  Biso   1.000  H
  C158     1.0000 0.47218  0.00000  0.54353  Biso   1.000  C
  C159     1.0000 0.53131  0.05377  0.54607  Biso   1.000  C
  C160     1.0000 0.47218  0.00007  0.54353  Biso   1.000  C
  C161     1.0000 0.53131  0.05384  0.54607  Biso   1.000  C
  C162     1.0000 0.50413  0.26890  0.59798  Biso   1.000  C
  C163     1.0000 0.44512  0.21337  0.59727  Biso   1.000  C
  C164     1.0000 0.50413  0.26883  0.59798  Biso   1.000  C
  C165     1.0000 0.44512  0.21345  0.59727  Biso   1.000  C
  N91      1.0000 0.49389  0.92220  0.54477  Biso   1.000  N
  N92      1.0000 0.49389  0.92213  0.54477  Biso   1.000  N
  O46      1.0000 0.43906  0.00000  0.54145  Biso   1.000  O
  O47      1.0000 0.43906  0.00007  0.54145  Biso   1.000  O
  N93      1.0000 0.55019  0.07822  0.57873  Biso   1.000  N
  C166     1.0000 0.53131  0.94623  0.54607  Biso   1.000  C
  C167     1.0000 0.53131  0.94616  0.54607  Biso   1.000  C
  H154     1.0000 0.54380  0.07949  0.52521  Biso   1.000  H
  H155     1.0000 0.54380  0.07956  0.52521  Biso   1.000  H
  N94      1.0000 0.53546  0.21866  0.61084  Biso   1.000  N
  H156     1.0000 0.51071  0.32387  0.58301  Biso   1.000  H
  C168     1.0000 0.48623  0.30111  0.63213  Biso   1.000  C
  C169     1.0000 0.48623  0.30104  0.63213  Biso   1.000  C
  O48      1.0000 0.41642  0.18166  0.58602  Biso   1.000  O
  N95      1.0000 0.45038  0.26136  0.62827  Biso   1.000  N
  C170     1.0000 0.47968  0.82693  0.54530  Biso   1.000  C
  C171     1.0000 0.47968  0.82686  0.54530  Biso   1.000  C
  C172     1.0000 0.56027  0.17328  0.59043  Biso   1.000  C
  C173     1.0000 0.56317  0.00000  0.59658  Biso   1.000  C
  C174     1.0000 0.56317  0.00007  0.59658  Biso   1.000  C
  N96      1.0000 0.55019  0.92178  0.57873  Biso   1.000  N
  H157     1.0000 0.54380  0.92051  0.52521  Biso   1.000  H
  H158     1.0000 0.54380  0.92044  0.52521  Biso   1.000  H
  C175     1.0000 0.53845  0.21746  0.64758  Biso   1.000  C
  C176     1.0000 0.53845  0.21753  0.64758  Biso   1.000  C
  N97      1.0000 0.50887  0.26277  0.65972  Biso   1.000  N
  H159     1.0000 0.48531  0.37136  0.63361  Biso   1.000  H
  N98      1.0000 0.50887  0.26284  0.65972  Biso   1.000  N
  H160     1.0000 0.48531  0.37143  0.63361  Biso   1.000  H
  C177     1.0000 0.42226  0.27257  0.65354  Biso   1.000  C
  C178     1.0000 0.42226  0.27264  0.65354  Biso   1.000  C
  N99      1.0000 0.47715  0.78881  0.58056  Biso   1.000  N
  H161     1.0000 0.45550  0.82658  0.53360  Biso   1.000  H
  H162     1.0000 0.49530  0.78543  0.53149  Biso   1.000  H
  N100     1.0000 0.47715  0.78888  0.58056  Biso   1.000  N
  H163     1.0000 0.49530  0.78536  0.53149  Biso   1.000  H
  H164     1.0000 0.58331  0.16926  0.60419  Biso   1.000  H
  H165     1.0000 0.56440  0.21232  0.56931  Biso   1.000  H
  H166     1.0000 0.56440  0.21225  0.56931  Biso   1.000  H
  O49      1.0000 0.58304  0.00000  0.62315  Biso   1.000  O
  O50      1.0000 0.58304  0.00007  0.62315  Biso   1.000  O
  C179     1.0000 0.56027  0.82672  0.59043  Biso   1.000  C
  C180     1.0000 0.56027  0.82665  0.59043  Biso   1.000  C
  O51      1.0000 0.56399  0.18681  0.66519  Biso   1.000  O
  C181     1.0000 0.50515  0.28081  0.69717  Biso   1.000  C
  C182     1.0000 0.50515  0.28074  0.69717  Biso   1.000  C
  N101     1.0000 0.42444  0.20527  0.68238  Biso   1.000  N
  H167     1.0000 0.39862  0.26566  0.64100  Biso   1.000  H
  H168     1.0000 0.42360  0.33712  0.66339  Biso   1.000  H
  H169     1.0000 0.42360  0.33704  0.66339  Biso   1.000  H
  C183     1.0000 0.50413  0.73103  0.59798  Biso   1.000  C
  C184     1.0000 0.44512  0.78663  0.59727  Biso   1.000  C
  C185     1.0000 0.50413  0.73110  0.59798  Biso   1.000  C
  C186     1.0000 0.44512  0.78655  0.59727  Biso   1.000  C
  N102     1.0000 0.53546  0.78134  0.61084  Biso   1.000  N
  H170     1.0000 0.56440  0.78768  0.56931  Biso   1.000  H
  H171     1.0000 0.58331  0.83074  0.60419  Biso   1.000  H
  N103     1.0000 0.53546  0.78127  0.61084  Biso   1.000  N
  H172     1.0000 0.58331  0.83067  0.60419  Biso   1.000  H
  N104     1.0000 0.48252  0.21330  0.71441  Biso   1.000  N
  H173     1.0000 0.49501  0.34458  0.70020  Biso   1.000  H
  H174     1.0000 0.52931  0.27997  0.70900  Biso   1.000  H
  N105     1.0000 0.48252  0.21323  0.71441  Biso   1.000  N
  H175     1.0000 0.49501  0.34466  0.70020  Biso   1.000  H
  H176     1.0000 0.52931  0.28004  0.70900  Biso   1.000  H
  C187     1.0000 0.40149  0.12959  0.68341  Biso   1.000  C
  C188     1.0000 0.44336  0.22070  0.71571  Biso   1.000  C
  C189     1.0000 0.40149  0.12966  0.68341  Biso   1.000  C
  C190     1.0000 0.44336  0.22063  0.71571  Biso   1.000  C
  H177     1.0000 0.51071  0.67613  0.58301  Biso   1.000  H
  C191     1.0000 0.48623  0.69889  0.63213  Biso   1.000  C
  H178     1.0000 0.51071  0.67606  0.58301  Biso   1.000  H
  O52      1.0000 0.41642  0.81834  0.58602  Biso   1.000  O
  N106     1.0000 0.45038  0.73864  0.62827  Biso   1.000  N
  O53      1.0000 0.41642  0.81827  0.58602  Biso   1.000  O
  N107     1.0000 0.45038  0.73857  0.62827  Biso   1.000  N
  C192     1.0000 0.53845  0.78254  0.64758  Biso   1.000  C
  C193     1.0000 0.53845  0.78247  0.64758  Biso   1.000  C
  C194     1.0000 0.49541  0.13311  0.73060  Biso   1.000  C
  O54      1.0000 0.37963  0.10781  0.66046  Biso   1.000  O
  N108     1.0000 0.40755  0.08562  0.71494  Biso   1.000  N
  N109     1.0000 0.40755  0.08555  0.71494  Biso   1.000  N
  H179     1.0000 0.43582  0.28088  0.72711  Biso   1.000  H
  C195     1.0000 0.43322  0.13410  0.73773  Biso   1.000  C
  N110     1.0000 0.50887  0.73716  0.65972  Biso   1.000  N
  H180     1.0000 0.48531  0.62864  0.63361  Biso   1.000  H
  H181     1.0000 0.48531  0.62857  0.63361  Biso   1.000  H
  C196     1.0000 0.42226  0.72743  0.65354  Biso   1.000  C
  C197     1.0000 0.42226  0.72736  0.65354  Biso   1.000  C
  O55      1.0000 0.56399  0.81319  0.66519  Biso   1.000  O
  O56      1.0000 0.52710  0.11240  0.73395  Biso   1.000  O
  N111     1.0000 0.46760  0.08611  0.74359  Biso   1.000  N
  O57      1.0000 0.52710  0.11247  0.73395  Biso   1.000  O
  N112     1.0000 0.46760  0.08604  0.74359  Biso   1.000  N
  C198     1.0000 0.38895  0.00000  0.72487  Biso   1.000  C
  C199     1.0000 0.38895  0.00007  0.72487  Biso   1.000  C
  H182     1.0000 0.42251  0.15291  0.76049  Biso   1.000  H
  H183     1.0000 0.42251  0.15284  0.76049  Biso   1.000  H
  C200     1.0000 0.50515  0.71919  0.69717  Biso   1.000  C
  N113     1.0000 0.42444  0.79466  0.68238  Biso   1.000  N
  H184     1.0000 0.39862  0.73434  0.64100  Biso   1.000  H
  H185     1.0000 0.42360  0.66288  0.66339  Biso   1.000  H
  H186     1.0000 0.39862  0.73427  0.64100  Biso   1.000  H
  C201     1.0000 0.47233  0.00000  0.76411  Biso   1.000  C
  C202     1.0000 0.47233  0.00007  0.76411  Biso   1.000  C
  N114     1.0000 0.40755  0.91438  0.71494  Biso   1.000  N
  H187     1.0000 0.36462  0.00000  0.71349  Biso   1.000  H
  H188     1.0000 0.38611  0.00000  0.75080  Biso   1.000  H
  H189     1.0000 0.36462  0.00007  0.71349  Biso   1.000  H
  H190     1.0000 0.38611  0.00007  0.75080  Biso   1.000  H
  N115     1.0000 0.48252  0.78670  0.71441  Biso   1.000  N
  H191     1.0000 0.49501  0.65542  0.70020  Biso   1.000  H
  H192     1.0000 0.52931  0.71996  0.70900  Biso   1.000  H
  H193     1.0000 0.49501  0.65534  0.70020  Biso   1.000  H
  C203     1.0000 0.40149  0.87041  0.68341  Biso   1.000  C
  C204     1.0000 0.44336  0.77930  0.71571  Biso   1.000  C
  C205     1.0000 0.40149  0.87034  0.68341  Biso   1.000  C
  N116     1.0000 0.46760  0.91389  0.74359  Biso   1.000  N
  H194     1.0000 0.45492  0.00000  0.78331  Biso   1.000  H
  H195     1.0000 0.49671  0.00000  0.77531  Biso   1.000  H
  H196     1.0000 0.45492  0.00007  0.78331  Biso   1.000  H
  H197     1.0000 0.49671  0.00007  0.77531  Biso   1.000  H
  C206     1.0000 0.43322  0.86583  0.73773  Biso   1.000  C
  C207     1.0000 0.43322  0.86590  0.73773  Biso   1.000  C
  C208     1.0000 0.49541  0.86689  0.73060  Biso   1.000  C
  O58      1.0000 0.37963  0.89219  0.66046  Biso   1.000  O
  H198     1.0000 0.43582  0.71912  0.72711  Biso   1.000  H
  H199     1.0000 0.43582  0.71905  0.72711  Biso   1.000  H
  H200     1.0000 0.42251  0.84709  0.76049  Biso   1.000  H
  O59      1.0000 0.52710  0.88760  0.73395  Biso   1.000  O
  O60      1.0000 0.52710  0.88753  0.73395  Biso   1.000  O
  C209     1.0000 0.65480  0.49996  0.47794  Biso   1.000  C
  N117     1.0000 0.66491  0.58579  0.46014  Biso   1.000  N
  N118     1.0000 0.66491  0.41421  0.46014  Biso   1.000  N
  H201     1.0000 0.62842  0.49996  0.48050  Biso   1.000  H
  H202     1.0000 0.66610  0.49996  0.50199  Biso   1.000  H
  C210     1.0000 0.64294  0.63350  0.43347  Biso   1.000  C
  C211     1.0000 0.69651  0.63061  0.46790  Biso   1.000  C
  C212     1.0000 0.64294  0.36650  0.43347  Biso   1.000  C
  C213     1.0000 0.69651  0.36939  0.46790  Biso   1.000  C
  N119     1.0000 0.63876  0.58579  0.39956  Biso   1.000  N
  C214     1.0000 0.66603  0.72116  0.42438  Biso   1.000  C
  H203     1.0000 0.61922  0.65239  0.44279  Biso   1.000  H
  N120     1.0000 0.69821  0.70841  0.44596  Biso   1.000  N
  O61      1.0000 0.71877  0.60870  0.49069  Biso   1.000  O
  N121     1.0000 0.63876  0.41421  0.39956  Biso   1.000  N
  C215     1.0000 0.66603  0.27877  0.42438  Biso   1.000  C
  H204     1.0000 0.61922  0.34761  0.44279  Biso   1.000  H
  N122     1.0000 0.69821  0.29159  0.44596  Biso   1.000  N
  O62      1.0000 0.71877  0.39130  0.49069  Biso   1.000  O
  C216     1.0000 0.61800  0.49996  0.39412  Biso   1.000  C
  C217     1.0000 0.65444  0.63237  0.37321  Biso   1.000  C
  N123     1.0000 0.67047  0.71200  0.38681  Biso   1.000  N
  H205     1.0000 0.65351  0.78120  0.43030  Biso   1.000  H
  C218     1.0000 0.72713  0.77549  0.44839  Biso   1.000  C
  C219     1.0000 0.65444  0.36756  0.37321  Biso   1.000  C
  N124     1.0000 0.67047  0.28800  0.38681  Biso   1.000  N
  H206     1.0000 0.65351  0.21880  0.43030  Biso   1.000  H
  C220     1.0000 0.72713  0.22451  0.44839  Biso   1.000  C
  H207     1.0000 0.59791  0.49996  0.41049  Biso   1.000  H
  H208     1.0000 0.60760  0.49996  0.36970  Biso   1.000  H
  O63      1.0000 0.65260  0.61109  0.34192  Biso   1.000  O
  C221     1.0000 0.68892  0.77916  0.36518  Biso   1.000  C
  N125     1.0000 0.75399  0.76140  0.42320  Biso   1.000  N
  H209     1.0000 0.71700  0.83955  0.44530  Biso   1.000  H
  H210     1.0000 0.73850  0.77197  0.47239  Biso   1.000  H
  O64      1.0000 0.65260  0.38891  0.34192  Biso   1.000  O
  C222     1.0000 0.68892  0.22077  0.36518  Biso   1.000  C
  N126     1.0000 0.75399  0.23860  0.42320  Biso   1.000  N
  H211     1.0000 0.71700  0.16038  0.44530  Biso   1.000  H
  H212     1.0000 0.73850  0.22796  0.47239  Biso   1.000  H
  N127     1.0000 0.72662  0.76358  0.36302  Biso   1.000  N
  H213     1.0000 0.67791  0.77746  0.34099  Biso   1.000  H
  H214     1.0000 0.68510  0.84314  0.37479  Biso   1.000  H
  C223     1.0000 0.75325  0.80319  0.38805  Biso   1.000  C
  C224     1.0000 0.78556  0.71545  0.43006  Biso   1.000  C
  N128     1.0000 0.72662  0.23642  0.36302  Biso   1.000  N
  H215     1.0000 0.67791  0.22246  0.34099  Biso   1.000  H
  H216     1.0000 0.68510  0.15679  0.37479  Biso   1.000  H
  C225     1.0000 0.75325  0.19681  0.38805  Biso   1.000  C
  C226     1.0000 0.78556  0.28448  0.43006  Biso   1.000  C
  C227     1.0000 0.74182  0.71757  0.33592  Biso   1.000  C
  C228     1.0000 0.78952  0.76915  0.37213  Biso   1.000  C
  H217     1.0000 0.75170  0.87344  0.38900  Biso   1.000  H
  O65      1.0000 0.79479  0.68064  0.45940  Biso   1.000  O
  N129     1.0000 0.80572  0.71510  0.40107  Biso   1.000  N
  C229     1.0000 0.74182  0.28236  0.33592  Biso   1.000  C
  C230     1.0000 0.78952  0.23078  0.37213  Biso   1.000  C
  H218     1.0000 0.75170  0.12649  0.38900  Biso   1.000  H
  O66      1.0000 0.79479  0.31929  0.45940  Biso   1.000  O
  N130     1.0000 0.80572  0.28490  0.40107  Biso   1.000  N
  O67      1.0000 0.72535  0.68480  0.30999  Biso   1.000  O
  N131     1.0000 0.77801  0.71538  0.34128  Biso   1.000  N
  H219     1.0000 0.80500  0.82355  0.36560  Biso   1.000  H
  C231     1.0000 0.84067  0.67261  0.40017  Biso   1.000  C
  O68      1.0000 0.72535  0.31520  0.30999  Biso   1.000  O
  N132     1.0000 0.77801  0.28462  0.34128  Biso   1.000  N
  H220     1.0000 0.80500  0.17638  0.36560  Biso   1.000  H
  C232     1.0000 0.84067  0.32739  0.40017  Biso   1.000  C
  C233     1.0000 0.80196  0.67346  0.31701  Biso   1.000  C
  N133     1.0000 0.83990  0.57776  0.38604  Biso   1.000  N
  H221     1.0000 0.85141  0.67106  0.42441  Biso   1.000  H
  H222     1.0000 0.85620  0.71214  0.38559  Biso   1.000  H
  C234     1.0000 0.80196  0.32647  0.31701  Biso   1.000  C
  N134     1.0000 0.83990  0.42217  0.38604  Biso   1.000  N
  H223     1.0000 0.85141  0.32887  0.42441  Biso   1.000  H
  H224     1.0000 0.85620  0.28779  0.38559  Biso   1.000  H
  N135     1.0000 0.81233  0.57755  0.32655  Biso   1.000  N
  H225     1.0000 0.82380  0.71285  0.31601  Biso   1.000  H
  H226     1.0000 0.79021  0.67296  0.29320  Biso   1.000  H
  C235     1.0000 0.84348  0.55500  0.34928  Biso   1.000  C
  C236     1.0000 0.84001  0.49996  0.40727  Biso   1.000  C
  N136     1.0000 0.81233  0.42238  0.32655  Biso   1.000  N
  H227     1.0000 0.82380  0.28708  0.31601  Biso   1.000  H
  H228     1.0000 0.79021  0.32697  0.29320  Biso   1.000  H
  C237     1.0000 0.84348  0.44500  0.34928  Biso   1.000  C
  C238     1.0000 0.79619  0.49996  0.31271  Biso   1.000  C
  H229     1.0000 0.86610  0.58107  0.33980  Biso   1.000  H
  O69      1.0000 0.84027  0.49996  0.43957  Biso   1.000  O
  H230     1.0000 0.86610  0.41886  0.33980  Biso   1.000  H
  O70      1.0000 0.77106  0.49996  0.29082  Biso   1.000  O
  C239     1.0000 0.34524  0.49996  0.52206  Biso   1.000  C
  N137     1.0000 0.33510  0.41421  0.53986  Biso   1.000  N
  N138     1.0000 0.33510  0.58579  0.53986  Biso   1.000  N
  H231     1.0000 0.37162  0.49996  0.51950  Biso   1.000  H
  H232     1.0000 0.33391  0.49996  0.49801  Biso   1.000  H
  C240     1.0000 0.30350  0.36939  0.53210  Biso   1.000  C
  C241     1.0000 0.35710  0.36650  0.56653  Biso   1.000  C
  C242     1.0000 0.30350  0.63061  0.53210  Biso   1.000  C
  C243     1.0000 0.35710  0.63350  0.56653  Biso   1.000  C
  O71      1.0000 0.28124  0.39130  0.50931  Biso   1.000  O
  N139     1.0000 0.30181  0.29159  0.55404  Biso   1.000  N
  C244     1.0000 0.33401  0.27877  0.57562  Biso   1.000  C
  N140     1.0000 0.36128  0.41421  0.60044  Biso   1.000  N
  H233     1.0000 0.38082  0.34761  0.55721  Biso   1.000  H
  O72      1.0000 0.28124  0.60870  0.50931  Biso   1.000  O
  N141     1.0000 0.30181  0.70841  0.55404  Biso   1.000  N
  N142     1.0000 0.36128  0.58579  0.60044  Biso   1.000  N
  C245     1.0000 0.33401  0.72116  0.57562  Biso   1.000  C
  H234     1.0000 0.38082  0.65239  0.55721  Biso   1.000  H
  C246     1.0000 0.27291  0.22451  0.55161  Biso   1.000  C
  N143     1.0000 0.32957  0.28800  0.61317  Biso   1.000  N
  H235     1.0000 0.34650  0.21880  0.56970  Biso   1.000  H
  C247     1.0000 0.34560  0.36756  0.62679  Biso   1.000  C
  C248     1.0000 0.38201  0.49996  0.60588  Biso   1.000  C
  C249     1.0000 0.27291  0.77549  0.55161  Biso   1.000  C
  C250     1.0000 0.34560  0.63237  0.62679  Biso   1.000  C
  N144     1.0000 0.32957  0.71200  0.61317  Biso   1.000  N
  H236     1.0000 0.34650  0.78120  0.56970  Biso   1.000  H
  N145     1.0000 0.24602  0.23860  0.57681  Biso   1.000  N
  H237     1.0000 0.28301  0.16038  0.55470  Biso   1.000  H
  H238     1.0000 0.26151  0.22796  0.52761  Biso   1.000  H
  C251     1.0000 0.31109  0.22077  0.63482  Biso   1.000  C
  O73      1.0000 0.34741  0.38891  0.65809  Biso   1.000  O
  H239     1.0000 0.40210  0.49996  0.58951  Biso   1.000  H
  H240     1.0000 0.39241  0.49996  0.63031  Biso   1.000  H
  N146     1.0000 0.24602  0.76140  0.57681  Biso   1.000  N
  H241     1.0000 0.28301  0.83955  0.55470  Biso   1.000  H
  H242     1.0000 0.26151  0.77197  0.52761  Biso   1.000  H
  O74      1.0000 0.34741  0.61109  0.65809  Biso   1.000  O
  C252     1.0000 0.31109  0.77916  0.63482  Biso   1.000  C
  C253     1.0000 0.21445  0.28448  0.56994  Biso   1.000  C
  C254     1.0000 0.24676  0.19681  0.61195  Biso   1.000  C
  N147     1.0000 0.27339  0.23642  0.63699  Biso   1.000  N
  H243     1.0000 0.32212  0.22246  0.65901  Biso   1.000  H
  H244     1.0000 0.31491  0.15679  0.62521  Biso   1.000  H
  C255     1.0000 0.21445  0.71545  0.56994  Biso   1.000  C
  C256     1.0000 0.24676  0.80319  0.61195  Biso   1.000  C
  N148     1.0000 0.27339  0.76358  0.63699  Biso   1.000  N
  H245     1.0000 0.32212  0.77746  0.65901  Biso   1.000  H
  H246     1.0000 0.31491  0.84314  0.62521  Biso   1.000  H
  O75      1.0000 0.20524  0.31929  0.54060  Biso   1.000  O
  N149     1.0000 0.19429  0.28490  0.59893  Biso   1.000  N
  C257     1.0000 0.21049  0.23078  0.62788  Biso   1.000  C
  H247     1.0000 0.24831  0.12649  0.61100  Biso   1.000  H
  C258     1.0000 0.25819  0.28236  0.66408  Biso   1.000  C
  O76      1.0000 0.20524  0.68064  0.54060  Biso   1.000  O
  N150     1.0000 0.19429  0.71510  0.59893  Biso   1.000  N
  C259     1.0000 0.21049  0.76915  0.62788  Biso   1.000  C
  H248     1.0000 0.24831  0.87344  0.61100  Biso   1.000  H
  C260     1.0000 0.25819  0.71757  0.66408  Biso   1.000  C
  C261     1.0000 0.15934  0.32739  0.59983  Biso   1.000  C
  N151     1.0000 0.22200  0.28462  0.65872  Biso   1.000  N
  H249     1.0000 0.19502  0.17638  0.63440  Biso   1.000  H
  O77      1.0000 0.27466  0.31520  0.69001  Biso   1.000  O
  C262     1.0000 0.15934  0.67261  0.59983  Biso   1.000  C
  N152     1.0000 0.22200  0.71538  0.65872  Biso   1.000  N
  H250     1.0000 0.19502  0.82355  0.63440  Biso   1.000  H
  O78      1.0000 0.27466  0.68480  0.69001  Biso   1.000  O
  N153     1.0000 0.16011  0.42217  0.61396  Biso   1.000  N
  H251     1.0000 0.14860  0.32887  0.57559  Biso   1.000  H
  H252     1.0000 0.14381  0.28779  0.61441  Biso   1.000  H
  C263     1.0000 0.19806  0.32647  0.68299  Biso   1.000  C
  N154     1.0000 0.16011  0.57776  0.61396  Biso   1.000  N
  H253     1.0000 0.14860  0.67106  0.57559  Biso   1.000  H
  H254     1.0000 0.14381  0.71214  0.61441  Biso   1.000  H
  C264     1.0000 0.19806  0.67346  0.68299  Biso   1.000  C
  C265     1.0000 0.16000  0.49996  0.59273  Biso   1.000  C
  C266     1.0000 0.15653  0.44500  0.65072  Biso   1.000  C
  N155     1.0000 0.18768  0.42238  0.67343  Biso   1.000  N
  H255     1.0000 0.17621  0.28708  0.68399  Biso   1.000  H
  H256     1.0000 0.20980  0.32697  0.70681  Biso   1.000  H
  C267     1.0000 0.15653  0.55500  0.65072  Biso   1.000  C
  N156     1.0000 0.18768  0.57755  0.67343  Biso   1.000  N
  H257     1.0000 0.17621  0.71285  0.68399  Biso   1.000  H
  H258     1.0000 0.20980  0.67296  0.70681  Biso   1.000  H
  O79      1.0000 0.15974  0.49996  0.56043  Biso   1.000  O
  H259     1.0000 0.13391  0.41886  0.66020  Biso   1.000  H
  C268     1.0000 0.20382  0.49996  0.68729  Biso   1.000  C
  H260     1.0000 0.13391  0.58107  0.66020  Biso   1.000  H
  O80      1.0000 0.22895  0.49996  0.70918  Biso   1.000  O
  C269     1.0000 0.65934  0.82736  0.59983  Biso   1.000  C
  N157     1.0000 0.69429  0.78493  0.59893  Biso   1.000  N
  N158     1.0000 0.69429  0.78486  0.59893  Biso   1.000  N
  N159     1.0000 0.66011  0.92220  0.61396  Biso   1.000  N
  H261     1.0000 0.64860  0.82891  0.57559  Biso   1.000  H
  H262     1.0000 0.64381  0.78782  0.61441  Biso   1.000  H
  N160     1.0000 0.66011  0.92213  0.61396  Biso   1.000  N
  H263     1.0000 0.64381  0.78775  0.61441  Biso   1.000  H
  C270     1.0000 0.71445  0.78451  0.56994  Biso   1.000  C
  C271     1.0000 0.71445  0.78444  0.56994  Biso   1.000  C
  C272     1.0000 0.65934  0.82743  0.59983  Biso   1.000  C
  C273     1.0000 0.71049  0.73082  0.62788  Biso   1.000  C
  C274     1.0000 0.71049  0.73074  0.62788  Biso   1.000  C
  C275     1.0000 0.65653  0.94504  0.65072  Biso   1.000  C
  C276     1.0000 0.65653  0.94497  0.65072  Biso   1.000  C
  C277     1.0000 0.66000  0.00000  0.59273  Biso   1.000  C
  C278     1.0000 0.66000  0.00007  0.59273  Biso   1.000  C
  O81      1.0000 0.70524  0.81925  0.54060  Biso   1.000  O
  O82      1.0000 0.70524  0.81932  0.54060  Biso   1.000  O
  N161     1.0000 0.74602  0.73864  0.57681  Biso   1.000  N
  N162     1.0000 0.74602  0.73857  0.57681  Biso   1.000  N
  C279     1.0000 0.74676  0.69678  0.61195  Biso   1.000  C
  N163     1.0000 0.72200  0.78451  0.65872  Biso   1.000  N
  H264     1.0000 0.69502  0.67641  0.63440  Biso   1.000  H
  N164     1.0000 0.72200  0.78458  0.65872  Biso   1.000  N
  H265     1.0000 0.69502  0.67634  0.63440  Biso   1.000  H
  N165     1.0000 0.68768  0.92242  0.67343  Biso   1.000  N
  H266     1.0000 0.63391  0.91889  0.66020  Biso   1.000  H
  N166     1.0000 0.68768  0.92235  0.67343  Biso   1.000  N
  C280     1.0000 0.65653  0.05496  0.65072  Biso   1.000  C
  C281     1.0000 0.65653  0.05503  0.65072  Biso   1.000  C
  O83      1.0000 0.65974  0.00000  0.56043  Biso   1.000  O
  N167     1.0000 0.66011  0.07780  0.61396  Biso   1.000  N
  O84      1.0000 0.65974  0.00007  0.56043  Biso   1.000  O
  C282     1.0000 0.77291  0.72454  0.55161  Biso   1.000  C
  C283     1.0000 0.77291  0.72447  0.55161  Biso   1.000  C
  N168     1.0000 0.77339  0.73638  0.63699  Biso   1.000  N
  H267     1.0000 0.74831  0.62652  0.61100  Biso   1.000  H
  H268     1.0000 0.74831  0.62645  0.61100  Biso   1.000  H
  C284     1.0000 0.69806  0.82651  0.68299  Biso   1.000  C
  C285     1.0000 0.75819  0.78240  0.66408  Biso   1.000  C
  C286     1.0000 0.69806  0.82644  0.68299  Biso   1.000  C
  C287     1.0000 0.70382  0.00000  0.68729  Biso   1.000  C
  C288     1.0000 0.70382  0.00007  0.68729  Biso   1.000  C
  N169     1.0000 0.68768  0.07758  0.67343  Biso   1.000  N
  H269     1.0000 0.63391  0.08111  0.66020  Biso   1.000  H
  N170     1.0000 0.68768  0.07765  0.67343  Biso   1.000  N
  C289     1.0000 0.65934  0.17257  0.59983  Biso   1.000  C
  N171     1.0000 0.80181  0.79163  0.55404  Biso   1.000  N
  H270     1.0000 0.78301  0.66042  0.55470  Biso   1.000  H
  H271     1.0000 0.76151  0.72800  0.52761  Biso   1.000  H
  N172     1.0000 0.80181  0.79156  0.55404  Biso   1.000  N
  H272     1.0000 0.78301  0.66035  0.55470  Biso   1.000  H
  C290     1.0000 0.81109  0.72081  0.63482  Biso   1.000  C
  H273     1.0000 0.67621  0.78712  0.68399  Biso   1.000  H
  H274     1.0000 0.70980  0.82700  0.70681  Biso   1.000  H
  H275     1.0000 0.67621  0.78705  0.68399  Biso   1.000  H
  O85      1.0000 0.77466  0.81524  0.69001  Biso   1.000  O
  O86      1.0000 0.77466  0.81516  0.69001  Biso   1.000  O
  O87      1.0000 0.72895  0.00000  0.70918  Biso   1.000  O
  O88      1.0000 0.72895  0.00007  0.70918  Biso   1.000  O
  C291     1.0000 0.69806  0.17349  0.68299  Biso   1.000  C
  N173     1.0000 0.69429  0.21507  0.59893  Biso   1.000  N
  H276     1.0000 0.64860  0.17109  0.57559  Biso   1.000  H
  H277     1.0000 0.64381  0.21218  0.61441  Biso   1.000  H
  H278     1.0000 0.64860  0.17102  0.57559  Biso   1.000  H
  H279     1.0000 0.64381  0.21225  0.61441  Biso   1.000  H
  C292     1.0000 0.83401  0.77880  0.57562  Biso   1.000  C
  C293     1.0000 0.80350  0.86942  0.53210  Biso   1.000  C
  C294     1.0000 0.80350  0.86935  0.53210  Biso   1.000  C
  N174     1.0000 0.82957  0.78803  0.61317  Biso   1.000  N
  H280     1.0000 0.82212  0.72250  0.65901  Biso   1.000  H
  H281     1.0000 0.81491  0.65682  0.62521  Biso   1.000  H
  N175     1.0000 0.82957  0.78796  0.61317  Biso   1.000  N
  H282     1.0000 0.81491  0.65675  0.62521  Biso   1.000  H
  N176     1.0000 0.72200  0.21542  0.65872  Biso   1.000  N
  H283     1.0000 0.67621  0.21288  0.68399  Biso   1.000  H
  H284     1.0000 0.70980  0.17300  0.70681  Biso   1.000  H
  N177     1.0000 0.72200  0.21535  0.65872  Biso   1.000  N
  H285     1.0000 0.70980  0.17293  0.70681  Biso   1.000  H
  C295     1.0000 0.71049  0.26918  0.62788  Biso   1.000  C
  C296     1.0000 0.71445  0.21549  0.56994  Biso   1.000  C
  H286     1.0000 0.84650  0.71884  0.56970  Biso   1.000  H
  C297     1.0000 0.85710  0.86654  0.56653  Biso   1.000  C
  H287     1.0000 0.84650  0.71877  0.56970  Biso   1.000  H
  C298     1.0000 0.85710  0.86646  0.56653  Biso   1.000  C
  O89      1.0000 0.78124  0.89127  0.50931  Biso   1.000  O
  N178     1.0000 0.83510  0.91417  0.53986  Biso   1.000  N
  C299     1.0000 0.84560  0.86759  0.62679  Biso   1.000  C
  C300     1.0000 0.75819  0.21760  0.66408  Biso   1.000  C
  C301     1.0000 0.75819  0.21753  0.66408  Biso   1.000  C
  H288     1.0000 0.69502  0.32359  0.63440  Biso   1.000  H
  C302     1.0000 0.74676  0.30322  0.61195  Biso   1.000  C
  H289     1.0000 0.69502  0.32366  0.63440  Biso   1.000  H
  C303     1.0000 0.74676  0.30315  0.61195  Biso   1.000  C
  O90      1.0000 0.70524  0.18068  0.54060  Biso   1.000  O
  N179     1.0000 0.74602  0.26136  0.57681  Biso   1.000  N
  N180     1.0000 0.86128  0.91417  0.60044  Biso   1.000  N
  H290     1.0000 0.88082  0.84758  0.55721  Biso   1.000  H
  C304     1.0000 0.84524  0.00000  0.52206  Biso   1.000  C
  C305     1.0000 0.84524  0.00007  0.52206  Biso   1.000  C
  O91      1.0000 0.84741  0.88887  0.65809  Biso   1.000  O
  O92      1.0000 0.77466  0.18476  0.69001  Biso   1.000  O
  N181     1.0000 0.77339  0.26362  0.63699  Biso   1.000  N
  O93      1.0000 0.77466  0.18484  0.69001  Biso   1.000  O
  N182     1.0000 0.77339  0.26355  0.63699  Biso   1.000  N
  H291     1.0000 0.74831  0.37348  0.61100  Biso   1.000  H
  H292     1.0000 0.74831  0.37355  0.61100  Biso   1.000  H
  C306     1.0000 0.77291  0.27546  0.55161  Biso   1.000  C
  C307     1.0000 0.77291  0.27553  0.55161  Biso   1.000  C
  C308     1.0000 0.88201  0.00000  0.60588  Biso   1.000  C
  C309     1.0000 0.88201  0.00007  0.60588  Biso   1.000  C
  N183     1.0000 0.83510  0.08583  0.53986  Biso   1.000  N
  H293     1.0000 0.87162  0.00000  0.51950  Biso   1.000  H
  H294     1.0000 0.83391  0.00000  0.49801  Biso   1.000  H
  N184     1.0000 0.83510  0.08576  0.53986  Biso   1.000  N
  H295     1.0000 0.87162  0.00007  0.51950  Biso   1.000  H
  H296     1.0000 0.83391  0.00007  0.49801  Biso   1.000  H
  C310     1.0000 0.81109  0.27919  0.63482  Biso   1.000  C
  N185     1.0000 0.80181  0.20837  0.55404  Biso   1.000  N
  N186     1.0000 0.80181  0.20844  0.55404  Biso   1.000  N
  H297     1.0000 0.78301  0.33958  0.55470  Biso   1.000  H
  H298     1.0000 0.76151  0.27200  0.52761  Biso   1.000  H
  H299     1.0000 0.78301  0.33965  0.55470  Biso   1.000  H
  N187     1.0000 0.86128  0.08583  0.60044  Biso   1.000  N
  H300     1.0000 0.90210  0.00000  0.58951  Biso   1.000  H
  H301     1.0000 0.89241  0.00000  0.63031  Biso   1.000  H
  N188     1.0000 0.86128  0.08576  0.60044  Biso   1.000  N
  H302     1.0000 0.90210  0.00007  0.58951  Biso   1.000  H
  H303     1.0000 0.89241  0.00007  0.63031  Biso   1.000  H
  C311     1.0000 0.80350  0.13058  0.53210  Biso   1.000  C
  C312     1.0000 0.85710  0.13346  0.56653  Biso   1.000  C
  C313     1.0000 0.80350  0.13065  0.53210  Biso   1.000  C
  C314     1.0000 0.85710  0.13354  0.56653  Biso   1.000  C
  N189     1.0000 0.82957  0.21197  0.61317  Biso   1.000  N
  N190     1.0000 0.82957  0.21204  0.61317  Biso   1.000  N
  H304     1.0000 0.82212  0.27750  0.65901  Biso   1.000  H
  H305     1.0000 0.81491  0.34318  0.62521  Biso   1.000  H
  H306     1.0000 0.82212  0.27743  0.65901  Biso   1.000  H
  C315     1.0000 0.83401  0.22120  0.57562  Biso   1.000  C
  C316     1.0000 0.83401  0.22113  0.57562  Biso   1.000  C
  C317     1.0000 0.84560  0.13241  0.62679  Biso   1.000  C
  C318     1.0000 0.84560  0.13234  0.62679  Biso   1.000  C
  O94      1.0000 0.78124  0.10873  0.50931  Biso   1.000  O
  O95      1.0000 0.78124  0.10866  0.50931  Biso   1.000  O
  H307     1.0000 0.88082  0.15242  0.55721  Biso   1.000  H
  H308     1.0000 0.84650  0.28116  0.56970  Biso   1.000  H
  H309     1.0000 0.84650  0.28123  0.56970  Biso   1.000  H
  O96      1.0000 0.84741  0.11113  0.65809  Biso   1.000  O
  O97      1.0000 0.84741  0.11106  0.65809  Biso   1.000  O
  C319     1.0000 0.65934  0.82736  0.59983  Biso   1.000  C
  N191     1.0000 0.69429  0.78493  0.59893  Biso   1.000  N
  N192     1.0000 0.69429  0.78486  0.59893  Biso   1.000  N
  H310     1.0000 0.64860  0.82891  0.57559  Biso   1.000  H
  N193     1.0000 0.66011  0.92220  0.61396  Biso   1.000  N
  H311     1.0000 0.64381  0.78782  0.61441  Biso   1.000  H
  N194     1.0000 0.66011  0.92213  0.61396  Biso   1.000  N
  H312     1.0000 0.64381  0.78775  0.61441  Biso   1.000  H
  C320     1.0000 0.71049  0.73082  0.62788  Biso   1.000  C
  C321     1.0000 0.71049  0.73074  0.62788  Biso   1.000  C
  C322     1.0000 0.71445  0.78451  0.56994  Biso   1.000  C
  C323     1.0000 0.71445  0.78444  0.56994  Biso   1.000  C
  C324     1.0000 0.65934  0.82743  0.59983  Biso   1.000  C
  C325     1.0000 0.65653  0.94504  0.65072  Biso   1.000  C
  C326     1.0000 0.65653  0.94497  0.65072  Biso   1.000  C
  C327     1.0000 0.66000  0.00000  0.59273  Biso   1.000  C
  C328     1.0000 0.66000  0.00007  0.59273  Biso   1.000  C
  C329     1.0000 0.74676  0.69678  0.61195  Biso   1.000  C
  N195     1.0000 0.72200  0.78451  0.65872  Biso   1.000  N
  H313     1.0000 0.69502  0.67641  0.63440  Biso   1.000  H
  N196     1.0000 0.72200  0.78458  0.65872  Biso   1.000  N
  H314     1.0000 0.69502  0.67634  0.63440  Biso   1.000  H
  N197     1.0000 0.74602  0.73864  0.57681  Biso   1.000  N
  N198     1.0000 0.74602  0.73857  0.57681  Biso   1.000  N
  O98      1.0000 0.70524  0.81932  0.54060  Biso   1.000  O
  O99      1.0000 0.70524  0.81925  0.54060  Biso   1.000  O
  N199     1.0000 0.68768  0.92242  0.67343  Biso   1.000  N
  N200     1.0000 0.68768  0.92235  0.67343  Biso   1.000  N
  H315     1.0000 0.63391  0.91889  0.66020  Biso   1.000  H
  C330     1.0000 0.65653  0.05496  0.65072  Biso   1.000  C
  C331     1.0000 0.65653  0.05503  0.65072  Biso   1.000  C
  O100     1.0000 0.65974  0.00000  0.56043  Biso   1.000  O
  N201     1.0000 0.66011  0.07780  0.61396  Biso   1.000  N
  O101     1.0000 0.65974  0.00007  0.56043  Biso   1.000  O
  N202     1.0000 0.77339  0.73638  0.63699  Biso   1.000  N
  H316     1.0000 0.74831  0.62652  0.61100  Biso   1.000  H
  H317     1.0000 0.74831  0.62645  0.61100  Biso   1.000  H
  C332     1.0000 0.75819  0.78240  0.66408  Biso   1.000  C
  C333     1.0000 0.69806  0.82651  0.68299  Biso   1.000  C
  C334     1.0000 0.69806  0.82644  0.68299  Biso   1.000  C
  C335     1.0000 0.77291  0.72454  0.55161  Biso   1.000  C
  C336     1.0000 0.77291  0.72447  0.55161  Biso   1.000  C
  C337     1.0000 0.70382  0.00000  0.68729  Biso   1.000  C
  C338     1.0000 0.70382  0.00007  0.68729  Biso   1.000  C
  N203     1.0000 0.68768  0.07758  0.67343  Biso   1.000  N
  N204     1.0000 0.68768  0.07765  0.67343  Biso   1.000  N
  H318     1.0000 0.63391  0.08111  0.66020  Biso   1.000  H
  C339     1.0000 0.65934  0.17257  0.59983  Biso   1.000  C
  C340     1.0000 0.81109  0.72081  0.63482  Biso   1.000  C
  O102     1.0000 0.77466  0.81524  0.69001  Biso   1.000  O
  O103     1.0000 0.77466  0.81516  0.69001  Biso   1.000  O
  H319     1.0000 0.70980  0.82700  0.70681  Biso   1.000  H
  H320     1.0000 0.67621  0.78712  0.68399  Biso   1.000  H
  H321     1.0000 0.67621  0.78705  0.68399  Biso   1.000  H
  H322     1.0000 0.76151  0.72800  0.52761  Biso   1.000  H
  N205     1.0000 0.80181  0.79163  0.55404  Biso   1.000  N
  H323     1.0000 0.78301  0.66042  0.55470  Biso   1.000  H
  N206     1.0000 0.80181  0.79156  0.55404  Biso   1.000  N
  H324     1.0000 0.78301  0.66035  0.55470  Biso   1.000  H
  O104     1.0000 0.72895  0.00000  0.70918  Biso   1.000  O
  O105     1.0000 0.72895  0.00007  0.70918  Biso   1.000  O
  C341     1.0000 0.69806  0.17349  0.68299  Biso   1.000  C
  N207     1.0000 0.69429  0.21507  0.59893  Biso   1.000  N
  H325     1.0000 0.64860  0.17109  0.57559  Biso   1.000  H
  H326     1.0000 0.64381  0.21218  0.61441  Biso   1.000  H
  H327     1.0000 0.64860  0.17102  0.57559  Biso   1.000  H
  H328     1.0000 0.64381  0.21225  0.61441  Biso   1.000  H
  H329     1.0000 0.82212  0.72250  0.65901  Biso   1.000  H
  N208     1.0000 0.82957  0.78803  0.61317  Biso   1.000  N
  H330     1.0000 0.81491  0.65682  0.62521  Biso   1.000  H
  N209     1.0000 0.82957  0.78796  0.61317  Biso   1.000  N
  H331     1.0000 0.81491  0.65675  0.62521  Biso   1.000  H
  C342     1.0000 0.83401  0.77880  0.57562  Biso   1.000  C
  C343     1.0000 0.80350  0.86942  0.53210  Biso   1.000  C
  C344     1.0000 0.80350  0.86935  0.53210  Biso   1.000  C
  N210     1.0000 0.72200  0.21542  0.65872  Biso   1.000  N
  H332     1.0000 0.67621  0.21288  0.68399  Biso   1.000  H
  H333     1.0000 0.70980  0.17300  0.70681  Biso   1.000  H
  N211     1.0000 0.72200  0.21535  0.65872  Biso   1.000  N
  H334     1.0000 0.70980  0.17293  0.70681  Biso   1.000  H
  C345     1.0000 0.71049  0.26918  0.62788  Biso   1.000  C
  C346     1.0000 0.71445  0.21549  0.56994  Biso   1.000  C
  C347     1.0000 0.84560  0.86759  0.62679  Biso   1.000  C
  H335     1.0000 0.84650  0.71884  0.56970  Biso   1.000  H
  C348     1.0000 0.85710  0.86654  0.56653  Biso   1.000  C
  H336     1.0000 0.84650  0.71877  0.56970  Biso   1.000  H
  C349     1.0000 0.85710  0.86646  0.56653  Biso   1.000  C
  O106     1.0000 0.78124  0.89127  0.50931  Biso   1.000  O
  N212     1.0000 0.83510  0.91417  0.53986  Biso   1.000  N
  C350     1.0000 0.75819  0.21760  0.66408  Biso   1.000  C
  C351     1.0000 0.75819  0.21753  0.66408  Biso   1.000  C
  H337     1.0000 0.69502  0.32359  0.63440  Biso   1.000  H
  C352     1.0000 0.74676  0.30322  0.61195  Biso   1.000  C
  H338     1.0000 0.69502  0.32366  0.63440  Biso   1.000  H
  C353     1.0000 0.74676  0.30315  0.61195  Biso   1.000  C
  O107     1.0000 0.70524  0.18068  0.54060  Biso   1.000  O
  N213     1.0000 0.74602  0.26136  0.57681  Biso   1.000  N
  O108     1.0000 0.84741  0.88887  0.65809  Biso   1.000  O
  N214     1.0000 0.86128  0.91417  0.60044  Biso   1.000  N
  H339     1.0000 0.88082  0.84758  0.55721  Biso   1.000  H
  C354     1.0000 0.84524  0.00000  0.52206  Biso   1.000  C
  C355     1.0000 0.84524  0.00007  0.52206  Biso   1.000  C
  O109     1.0000 0.77466  0.18476  0.69001  Biso   1.000  O
  N215     1.0000 0.77339  0.26362  0.63699  Biso   1.000  N
  O110     1.0000 0.77466  0.18484  0.69001  Biso   1.000  O
  N216     1.0000 0.77339  0.26355  0.63699  Biso   1.000  N
  H340     1.0000 0.74831  0.37348  0.61100  Biso   1.000  H
  H341     1.0000 0.74831  0.37355  0.61100  Biso   1.000  H
  C356     1.0000 0.77291  0.27546  0.55161  Biso   1.000  C
  C357     1.0000 0.77291  0.27553  0.55161  Biso   1.000  C
  C358     1.0000 0.88201  0.00000  0.60588  Biso   1.000  C
  C359     1.0000 0.88201  0.00007  0.60588  Biso   1.000  C
  N217     1.0000 0.83510  0.08583  0.53986  Biso   1.000  N
  H342     1.0000 0.87162  0.00000  0.51950  Biso   1.000  H
  H343     1.0000 0.83391  0.00000  0.49801  Biso   1.000  H
  N218     1.0000 0.83510  0.08576  0.53986  Biso   1.000  N
  H344     1.0000 0.87162  0.00007  0.51950  Biso   1.000  H
  H345     1.0000 0.83391  0.00007  0.49801  Biso   1.000  H
  C360     1.0000 0.81109  0.27919  0.63482  Biso   1.000  C
  N219     1.0000 0.80181  0.20837  0.55404  Biso   1.000  N
  N220     1.0000 0.80181  0.20844  0.55404  Biso   1.000  N
  H346     1.0000 0.78301  0.33958  0.55470  Biso   1.000  H
  H347     1.0000 0.76151  0.27200  0.52761  Biso   1.000  H
  H348     1.0000 0.78301  0.33965  0.55470  Biso   1.000  H
  N221     1.0000 0.86128  0.08583  0.60044  Biso   1.000  N
  H349     1.0000 0.90210  0.00000  0.58951  Biso   1.000  H
  H350     1.0000 0.89241  0.00000  0.63031  Biso   1.000  H
  N222     1.0000 0.86128  0.08576  0.60044  Biso   1.000  N
  H351     1.0000 0.90210  0.00007  0.58951  Biso   1.000  H
  H352     1.0000 0.89241  0.00007  0.63031  Biso   1.000  H
  C361     1.0000 0.85710  0.13346  0.56653  Biso   1.000  C
  C362     1.0000 0.85710  0.13354  0.56653  Biso   1.000  C
  C363     1.0000 0.80350  0.13058  0.53210  Biso   1.000  C
  C364     1.0000 0.80350  0.13065  0.53210  Biso   1.000  C
  N223     1.0000 0.82957  0.21197  0.61317  Biso   1.000  N
  N224     1.0000 0.82957  0.21204  0.61317  Biso   1.000  N
  H353     1.0000 0.82212  0.27750  0.65901  Biso   1.000  H
  H354     1.0000 0.81491  0.34318  0.62521  Biso   1.000  H
  H355     1.0000 0.82212  0.27743  0.65901  Biso   1.000  H
  C365     1.0000 0.83401  0.22120  0.57562  Biso   1.000  C
  C366     1.0000 0.83401  0.22113  0.57562  Biso   1.000  C
  C367     1.0000 0.84560  0.13241  0.62679  Biso   1.000  C
  C368     1.0000 0.84560  0.13234  0.62679  Biso   1.000  C
  H356     1.0000 0.88082  0.15242  0.55721  Biso   1.000  H
  O111     1.0000 0.78124  0.10873  0.50931  Biso   1.000  O
  O112     1.0000 0.78124  0.10866  0.50931  Biso   1.000  O
  H357     1.0000 0.84650  0.28116  0.56970  Biso   1.000  H
  H358     1.0000 0.84650  0.28123  0.56970  Biso   1.000  H
  O113     1.0000 0.84741  0.11113  0.65809  Biso   1.000  O
  O114     1.0000 0.84741  0.11106  0.65809  Biso   1.000  O
  C369     1.0000 0.34067  0.82736  0.40017  Biso   1.000  C
  N225     1.0000 0.30572  0.78493  0.40107  Biso   1.000  N
  N226     1.0000 0.30572  0.78486  0.40107  Biso   1.000  N
  N227     1.0000 0.33990  0.92220  0.38604  Biso   1.000  N
  H359     1.0000 0.35141  0.82891  0.42441  Biso   1.000  H
  H360     1.0000 0.35620  0.78782  0.38559  Biso   1.000  H
  N228     1.0000 0.33990  0.92213  0.38604  Biso   1.000  N
  H361     1.0000 0.35620  0.78775  0.38559  Biso   1.000  H
  C370     1.0000 0.28952  0.73082  0.37213  Biso   1.000  C
  C371     1.0000 0.28952  0.73074  0.37213  Biso   1.000  C
  C372     1.0000 0.28556  0.78451  0.43006  Biso   1.000  C
  C373     1.0000 0.28556  0.78444  0.43006  Biso   1.000  C
  C374     1.0000 0.34067  0.82743  0.40017  Biso   1.000  C
  C375     1.0000 0.34348  0.94504  0.34928  Biso   1.000  C
  C376     1.0000 0.34348  0.94497  0.34928  Biso   1.000  C
  C377     1.0000 0.34001  0.00000  0.40727  Biso   1.000  C
  C378     1.0000 0.34001  0.00007  0.40727  Biso   1.000  C
  C379     1.0000 0.25325  0.69678  0.38805  Biso   1.000  C
  N229     1.0000 0.27801  0.78451  0.34128  Biso   1.000  N
  H362     1.0000 0.30500  0.67641  0.36560  Biso   1.000  H
  N230     1.0000 0.27801  0.78458  0.34128  Biso   1.000  N
  H363     1.0000 0.30500  0.67634  0.36560  Biso   1.000  H
  N231     1.0000 0.25399  0.73864  0.42320  Biso   1.000  N
  N232     1.0000 0.25399  0.73857  0.42320  Biso   1.000  N
  O115     1.0000 0.29479  0.81932  0.45940  Biso   1.000  O
  O116     1.0000 0.29479  0.81925  0.45940  Biso   1.000  O
  N233     1.0000 0.31233  0.92242  0.32655  Biso   1.000  N
  N234     1.0000 0.31233  0.92235  0.32655  Biso   1.000  N
  H364     1.0000 0.36610  0.91889  0.33980  Biso   1.000  H
  C380     1.0000 0.34348  0.05496  0.34928  Biso   1.000  C
  C381     1.0000 0.34348  0.05503  0.34928  Biso   1.000  C
  O117     1.0000 0.34027  0.00000  0.43957  Biso   1.000  O
  N235     1.0000 0.33990  0.07780  0.38604  Biso   1.000  N
  O118     1.0000 0.34027  0.00007  0.43957  Biso   1.000  O
  N236     1.0000 0.22662  0.73638  0.36302  Biso   1.000  N
  H365     1.0000 0.25170  0.62652  0.38900  Biso   1.000  H
  H366     1.0000 0.25170  0.62645  0.38900  Biso   1.000  H
  C382     1.0000 0.24182  0.78240  0.33592  Biso   1.000  C
  C383     1.0000 0.30196  0.82651  0.31701  Biso   1.000  C
  C384     1.0000 0.30196  0.82644  0.31701  Biso   1.000  C
  C385     1.0000 0.22713  0.72454  0.44839  Biso   1.000  C
  C386     1.0000 0.22713  0.72447  0.44839  Biso   1.000  C
  C387     1.0000 0.29619  0.00000  0.31271  Biso   1.000  C
  C388     1.0000 0.29619  0.00007  0.31271  Biso   1.000  C
  N237     1.0000 0.31233  0.07758  0.32655  Biso   1.000  N
  N238     1.0000 0.31233  0.07765  0.32655  Biso   1.000  N
  H367     1.0000 0.36610  0.08111  0.33980  Biso   1.000  H
  C389     1.0000 0.34067  0.17257  0.40017  Biso   1.000  C
  C390     1.0000 0.18892  0.72081  0.36518  Biso   1.000  C
  O119     1.0000 0.22535  0.81524  0.30999  Biso   1.000  O
  O120     1.0000 0.22535  0.81516  0.30999  Biso   1.000  O
  H368     1.0000 0.32380  0.78712  0.31601  Biso   1.000  H
  H369     1.0000 0.29021  0.82700  0.29320  Biso   1.000  H
  H370     1.0000 0.32380  0.78705  0.31601  Biso   1.000  H
  N239     1.0000 0.19821  0.79163  0.44596  Biso   1.000  N
  H371     1.0000 0.21700  0.66042  0.44530  Biso   1.000  H
  H372     1.0000 0.23850  0.72800  0.47239  Biso   1.000  H
  N240     1.0000 0.19821  0.79156  0.44596  Biso   1.000  N
  H373     1.0000 0.21700  0.66035  0.44530  Biso   1.000  H
  O121     1.0000 0.27106  0.00000  0.29082  Biso   1.000  O
  O122     1.0000 0.27106  0.00007  0.29082  Biso   1.000  O
  C391     1.0000 0.30196  0.17349  0.31701  Biso   1.000  C
  N241     1.0000 0.30572  0.21507  0.40107  Biso   1.000  N
  H374     1.0000 0.35141  0.17109  0.42441  Biso   1.000  H
  H375     1.0000 0.35620  0.21218  0.38559  Biso   1.000  H
  H376     1.0000 0.35141  0.17102  0.42441  Biso   1.000  H
  H377     1.0000 0.35620  0.21225  0.38559  Biso   1.000  H
  N242     1.0000 0.17047  0.78803  0.38681  Biso   1.000  N
  H378     1.0000 0.17791  0.72250  0.34099  Biso   1.000  H
  H379     1.0000 0.18510  0.65682  0.37479  Biso   1.000  H
  N243     1.0000 0.17047  0.78796  0.38681  Biso   1.000  N
  H380     1.0000 0.18510  0.65675  0.37479  Biso   1.000  H
  C392     1.0000 0.16603  0.77880  0.42438  Biso   1.000  C
  C393     1.0000 0.19651  0.86942  0.46790  Biso   1.000  C
  C394     1.0000 0.19651  0.86935  0.46790  Biso   1.000  C
  N244     1.0000 0.27801  0.21542  0.34128  Biso   1.000  N
  H381     1.0000 0.32380  0.21288  0.31601  Biso   1.000  H
  H382     1.0000 0.29021  0.17300  0.29320  Biso   1.000  H
  N245     1.0000 0.27801  0.21535  0.34128  Biso   1.000  N
  H383     1.0000 0.29021  0.17293  0.29320  Biso   1.000  H
  C395     1.0000 0.28952  0.26918  0.37213  Biso   1.000  C
  C396     1.0000 0.28556  0.21549  0.43006  Biso   1.000  C
  C397     1.0000 0.15444  0.86759  0.37321  Biso   1.000  C
  H384     1.0000 0.15351  0.71884  0.43030  Biso   1.000  H
  C398     1.0000 0.14294  0.86654  0.43347  Biso   1.000  C
  H385     1.0000 0.15351  0.71877  0.43030  Biso   1.000  H
  C399     1.0000 0.14294  0.86646  0.43347  Biso   1.000  C
  O123     1.0000 0.21877  0.89127  0.49069  Biso   1.000  O
  N246     1.0000 0.16491  0.91417  0.46014  Biso   1.000  N
  C400     1.0000 0.24182  0.21760  0.33592  Biso   1.000  C
  C401     1.0000 0.24182  0.21753  0.33592  Biso   1.000  C
  H386     1.0000 0.30500  0.32359  0.36560  Biso   1.000  H
  C402     1.0000 0.25325  0.30322  0.38805  Biso   1.000  C
  H387     1.0000 0.30500  0.32366  0.36560  Biso   1.000  H
  C403     1.0000 0.25325  0.30315  0.38805  Biso   1.000  C
  O124     1.0000 0.29479  0.18068  0.45940  Biso   1.000  O
  N247     1.0000 0.25399  0.26136  0.42320  Biso   1.000  N
  O125     1.0000 0.15260  0.88887  0.34192  Biso   1.000  O
  N248     1.0000 0.13876  0.91417  0.39956  Biso   1.000  N
  H388     1.0000 0.11922  0.84758  0.44279  Biso   1.000  H
  C404     1.0000 0.15480  0.00000  0.47794  Biso   1.000  C
  C405     1.0000 0.15480  0.00007  0.47794  Biso   1.000  C
  O126     1.0000 0.22535  0.18476  0.30999  Biso   1.000  O
  N249     1.0000 0.22662  0.26362  0.36302  Biso   1.000  N
  O127     1.0000 0.22535  0.18484  0.30999  Biso   1.000  O
  N250     1.0000 0.22662  0.26355  0.36302  Biso   1.000  N
  H389     1.0000 0.25170  0.37348  0.38900  Biso   1.000  H
  H390     1.0000 0.25170  0.37355  0.38900  Biso   1.000  H
  C406     1.0000 0.22713  0.27546  0.44839  Biso   1.000  C
  C407     1.0000 0.22713  0.27553  0.44839  Biso   1.000  C
  C408     1.0000 0.11800  0.00000  0.39412  Biso   1.000  C
  C409     1.0000 0.11800  0.00007  0.39412  Biso   1.000  C
  N251     1.0000 0.16491  0.08583  0.46014  Biso   1.000  N
  H391     1.0000 0.12842  0.00000  0.48050  Biso   1.000  H
  H392     1.0000 0.16610  0.00000  0.50199  Biso   1.000  H
  N252     1.0000 0.16491  0.08576  0.46014  Biso   1.000  N
  H393     1.0000 0.12842  0.00007  0.48050  Biso   1.000  H
  H394     1.0000 0.16610  0.00007  0.50199  Biso   1.000  H
  C410     1.0000 0.18892  0.27919  0.36518  Biso   1.000  C
  N253     1.0000 0.19821  0.20837  0.44596  Biso   1.000  N
  N254     1.0000 0.19821  0.20844  0.44596  Biso   1.000  N
  H395     1.0000 0.21700  0.33958  0.44530  Biso   1.000  H
  H396     1.0000 0.23850  0.27200  0.47239  Biso   1.000  H
  H397     1.0000 0.21700  0.33965  0.44530  Biso   1.000  H
  N255     1.0000 0.13876  0.08583  0.39956  Biso   1.000  N
  H398     1.0000 0.09791  0.00000  0.41049  Biso   1.000  H
  H399     1.0000 0.10760  0.00000  0.36970  Biso   1.000  H
  N256     1.0000 0.13876  0.08576  0.39956  Biso   1.000  N
  H400     1.0000 0.09791  0.00007  0.41049  Biso   1.000  H
  H401     1.0000 0.10760  0.00007  0.36970  Biso   1.000  H
  C411     1.0000 0.19651  0.13058  0.46790  Biso   1.000  C
  C412     1.0000 0.14294  0.13346  0.43347  Biso   1.000  C
  C413     1.0000 0.19651  0.13065  0.46790  Biso   1.000  C
  C414     1.0000 0.14294  0.13354  0.43347  Biso   1.000  C
  N257     1.0000 0.17047  0.21197  0.38681  Biso   1.000  N
  N258     1.0000 0.17047  0.21204  0.38681  Biso   1.000  N
  H402     1.0000 0.17791  0.27750  0.34099  Biso   1.000  H
  H403     1.0000 0.18510  0.34318  0.37479  Biso   1.000  H
  H404     1.0000 0.17791  0.27743  0.34099  Biso   1.000  H
  C415     1.0000 0.16603  0.22120  0.42438  Biso   1.000  C
  C416     1.0000 0.16603  0.22113  0.42438  Biso   1.000  C
  C417     1.0000 0.15444  0.13241  0.37321  Biso   1.000  C
  C418     1.0000 0.15444  0.13234  0.37321  Biso   1.000  C
  O128     1.0000 0.21877  0.10873  0.49069  Biso   1.000  O
  O129     1.0000 0.21877  0.10866  0.49069  Biso   1.000  O
  H405     1.0000 0.11922  0.15242  0.44279  Biso   1.000  H
  H406     1.0000 0.15351  0.28116  0.43030  Biso   1.000  H
  H407     1.0000 0.15351  0.28123  0.43030  Biso   1.000  H
  O130     1.0000 0.15260  0.11113  0.34192  Biso   1.000  O
  O131     1.0000 0.15260  0.11106  0.34192  Biso   1.000  O
  C419     1.0000 0.34067  0.82736  0.40017  Biso   1.000  C
  N259     1.0000 0.30572  0.78493  0.40107  Biso   1.000  N
  N260     1.0000 0.30572  0.78486  0.40107  Biso   1.000  N
  H408     1.0000 0.35141  0.82891  0.42441  Biso   1.000  H
  N261     1.0000 0.33990  0.92220  0.38604  Biso   1.000  N
  H409     1.0000 0.35620  0.78782  0.38559  Biso   1.000  H
  N262     1.0000 0.33990  0.92213  0.38604  Biso   1.000  N
  H410     1.0000 0.35620  0.78775  0.38559  Biso   1.000  H
  C420     1.0000 0.28952  0.73082  0.37213  Biso   1.000  C
  C421     1.0000 0.28952  0.73074  0.37213  Biso   1.000  C
  C422     1.0000 0.28556  0.78451  0.43006  Biso   1.000  C
  C423     1.0000 0.28556  0.78444  0.43006  Biso   1.000  C
  C424     1.0000 0.34067  0.82743  0.40017  Biso   1.000  C
  C425     1.0000 0.34348  0.94504  0.34928  Biso   1.000  C
  C426     1.0000 0.34348  0.94497  0.34928  Biso   1.000  C
  C427     1.0000 0.34001  0.00000  0.40727  Biso   1.000  C
  C428     1.0000 0.34001  0.00007  0.40727  Biso   1.000  C
  C429     1.0000 0.25325  0.69678  0.38805  Biso   1.000  C
  N263     1.0000 0.27801  0.78451  0.34128  Biso   1.000  N
  H411     1.0000 0.30500  0.67641  0.36560  Biso   1.000  H
  N264     1.0000 0.27801  0.78458  0.34128  Biso   1.000  N
  H412     1.0000 0.30500  0.67634  0.36560  Biso   1.000  H
  N265     1.0000 0.25399  0.73864  0.42320  Biso   1.000  N
  N266     1.0000 0.25399  0.73857  0.42320  Biso   1.000  N
  O132     1.0000 0.29479  0.81932  0.45940  Biso   1.000  O
  O133     1.0000 0.29479  0.81925  0.45940  Biso   1.000  O
  N267     1.0000 0.31233  0.92242  0.32655  Biso   1.000  N
  N268     1.0000 0.31233  0.92235  0.32655  Biso   1.000  N
  H413     1.0000 0.36610  0.91889  0.33980  Biso   1.000  H
  C430     1.0000 0.34348  0.05496  0.34928  Biso   1.000  C
  C431     1.0000 0.34348  0.05503  0.34928  Biso   1.000  C
  O134     1.0000 0.34027  0.00000  0.43957  Biso   1.000  O
  N269     1.0000 0.33990  0.07780  0.38604  Biso   1.000  N
  O135     1.0000 0.34027  0.00007  0.43957  Biso   1.000  O
  N270     1.0000 0.22662  0.73638  0.36302  Biso   1.000  N
  H414     1.0000 0.25170  0.62652  0.38900  Biso   1.000  H
  H415     1.0000 0.25170  0.62645  0.38900  Biso   1.000  H
  C432     1.0000 0.24182  0.78240  0.33592  Biso   1.000  C
  C433     1.0000 0.30196  0.82651  0.31701  Biso   1.000  C
  C434     1.0000 0.30196  0.82644  0.31701  Biso   1.000  C
  C435     1.0000 0.22713  0.72454  0.44839  Biso   1.000  C
  C436     1.0000 0.22713  0.72447  0.44839  Biso   1.000  C
  C437     1.0000 0.29619  0.00000  0.31271  Biso   1.000  C
  C438     1.0000 0.29619  0.00007  0.31271  Biso   1.000  C
  N271     1.0000 0.31233  0.07758  0.32655  Biso   1.000  N
  N272     1.0000 0.31233  0.07765  0.32655  Biso   1.000  N
  H416     1.0000 0.36610  0.08111  0.33980  Biso   1.000  H
  C439     1.0000 0.34067  0.17257  0.40017  Biso   1.000  C
  C440     1.0000 0.18892  0.72081  0.36518  Biso   1.000  C
  O136     1.0000 0.22535  0.81524  0.30999  Biso   1.000  O
  O137     1.0000 0.22535  0.81516  0.30999  Biso   1.000  O
  H417     1.0000 0.29021  0.82700  0.29320  Biso   1.000  H
  H418     1.0000 0.32380  0.78712  0.31601  Biso   1.000  H
  H419     1.0000 0.32380  0.78705  0.31601  Biso   1.000  H
  H420     1.0000 0.23850  0.72800  0.47239  Biso   1.000  H
  N273     1.0000 0.19821  0.79163  0.44596  Biso   1.000  N
  H421     1.0000 0.21700  0.66042  0.44530  Biso   1.000  H
  N274     1.0000 0.19821  0.79156  0.44596  Biso   1.000  N
  H422     1.0000 0.21700  0.66035  0.44530  Biso   1.000  H
  O138     1.0000 0.27106  0.00000  0.29082  Biso   1.000  O
  O139     1.0000 0.27106  0.00007  0.29082  Biso   1.000  O
  C441     1.0000 0.30196  0.17349  0.31701  Biso   1.000  C
  N275     1.0000 0.30572  0.21507  0.40107  Biso   1.000  N
  H423     1.0000 0.35141  0.17109  0.42441  Biso   1.000  H
  H424     1.0000 0.35620  0.21218  0.38559  Biso   1.000  H
  H425     1.0000 0.35141  0.17102  0.42441  Biso   1.000  H
  H426     1.0000 0.35620  0.21225  0.38559  Biso   1.000  H
  H427     1.0000 0.17791  0.72250  0.34099  Biso   1.000  H
  N276     1.0000 0.17047  0.78803  0.38681  Biso   1.000  N
  H428     1.0000 0.18510  0.65682  0.37479  Biso   1.000  H
  N277     1.0000 0.17047  0.78796  0.38681  Biso   1.000  N
  H429     1.0000 0.18510  0.65675  0.37479  Biso   1.000  H
  C442     1.0000 0.16603  0.77880  0.42438  Biso   1.000  C
  C443     1.0000 0.19651  0.86942  0.46790  Biso   1.000  C
  C444     1.0000 0.19651  0.86935  0.46790  Biso   1.000  C
  N278     1.0000 0.27801  0.21542  0.34128  Biso   1.000  N
  H430     1.0000 0.32380  0.21288  0.31601  Biso   1.000  H
  H431     1.0000 0.29021  0.17300  0.29320  Biso   1.000  H
  N279     1.0000 0.27801  0.21535  0.34128  Biso   1.000  N
  H432     1.0000 0.29021  0.17293  0.29320  Biso   1.000  H
  C445     1.0000 0.28952  0.26918  0.37213  Biso   1.000  C
  C446     1.0000 0.28556  0.21549  0.43006  Biso   1.000  C
  C447     1.0000 0.15444  0.86759  0.37321  Biso   1.000  C
  H433     1.0000 0.15351  0.71884  0.43030  Biso   1.000  H
  C448     1.0000 0.14294  0.86654  0.43347  Biso   1.000  C
  H434     1.0000 0.15351  0.71877  0.43030  Biso   1.000  H
  C449     1.0000 0.14294  0.86646  0.43347  Biso   1.000  C
  O140     1.0000 0.21877  0.89127  0.49069  Biso   1.000  O
  N280     1.0000 0.16491  0.91417  0.46014  Biso   1.000  N
  C450     1.0000 0.24182  0.21760  0.33592  Biso   1.000  C
  C451     1.0000 0.24182  0.21753  0.33592  Biso   1.000  C
  H435     1.0000 0.30500  0.32359  0.36560  Biso   1.000  H
  C452     1.0000 0.25325  0.30322  0.38805  Biso   1.000  C
  H436     1.0000 0.30500  0.32366  0.36560  Biso   1.000  H
  C453     1.0000 0.25325  0.30315  0.38805  Biso   1.000  C
  O141     1.0000 0.29479  0.18068  0.45940  Biso   1.000  O
  N281     1.0000 0.25399  0.26136  0.42320  Biso   1.000  N
  O142     1.0000 0.15260  0.88887  0.34192  Biso   1.000  O
  N282     1.0000 0.13876  0.91417  0.39956  Biso   1.000  N
  H437     1.0000 0.11922  0.84758  0.44279  Biso   1.000  H
  C454     1.0000 0.15480  0.00000  0.47794  Biso   1.000  C
  C455     1.0000 0.15480  0.00007  0.47794  Biso   1.000  C
  O143     1.0000 0.22535  0.18476  0.30999  Biso   1.000  O
  N283     1.0000 0.22662  0.26362  0.36302  Biso   1.000  N
  O144     1.0000 0.22535  0.18484  0.30999  Biso   1.000  O
  N284     1.0000 0.22662  0.26355  0.36302  Biso   1.000  N
  H438     1.0000 0.25170  0.37348  0.38900  Biso   1.000  H
  H439     1.0000 0.25170  0.37355  0.38900  Biso   1.000  H
  C456     1.0000 0.22713  0.27546  0.44839  Biso   1.000  C
  C457     1.0000 0.22713  0.27553  0.44839  Biso   1.000  C
  C458     1.0000 0.11800  0.00000  0.39412  Biso   1.000  C
  C459     1.0000 0.11800  0.00007  0.39412  Biso   1.000  C
  N285     1.0000 0.16491  0.08583  0.46014  Biso   1.000  N
  H440     1.0000 0.12842  0.00000  0.48050  Biso   1.000  H
  H441     1.0000 0.16610  0.00000  0.50199  Biso   1.000  H
  N286     1.0000 0.16491  0.08576  0.46014  Biso   1.000  N
  H442     1.0000 0.12842  0.00007  0.48050  Biso   1.000  H
  H443     1.0000 0.16610  0.00007  0.50199  Biso   1.000  H
  C460     1.0000 0.18892  0.27919  0.36518  Biso   1.000  C
  N287     1.0000 0.19821  0.20837  0.44596  Biso   1.000  N
  N288     1.0000 0.19821  0.20844  0.44596  Biso   1.000  N
  H444     1.0000 0.21700  0.33958  0.44530  Biso   1.000  H
  H445     1.0000 0.23850  0.27200  0.47239  Biso   1.000  H
  H446     1.0000 0.21700  0.33965  0.44530  Biso   1.000  H
  N289     1.0000 0.13876  0.08583  0.39956  Biso   1.000  N
  H447     1.0000 0.09791  0.00000  0.41049  Biso   1.000  H
  H448     1.0000 0.10760  0.00000  0.36970  Biso   1.000  H
  N290     1.0000 0.13876  0.08576  0.39956  Biso   1.000  N
  H449     1.0000 0.09791  0.00007  0.41049  Biso   1.000  H
  H450     1.0000 0.10760  0.00007  0.36970  Biso   1.000  H
  C461     1.0000 0.14294  0.13346  0.43347  Biso   1.000  C
  C462     1.0000 0.14294  0.13354  0.43347  Biso   1.000  C
  C463     1.0000 0.19651  0.13058  0.46790  Biso   1.000  C
  C464     1.0000 0.19651  0.13065  0.46790  Biso   1.000  C
  N291     1.0000 0.17047  0.21197  0.38681  Biso   1.000  N
  N292     1.0000 0.17047  0.21204  0.38681  Biso   1.000  N
  H451     1.0000 0.17791  0.27750  0.34099  Biso   1.000  H
  H452     1.0000 0.18510  0.34318  0.37479  Biso   1.000  H
  H453     1.0000 0.17791  0.27743  0.34099  Biso   1.000  H
  C465     1.0000 0.16603  0.22120  0.42438  Biso   1.000  C
  C466     1.0000 0.16603  0.22113  0.42438  Biso   1.000  C
  C467     1.0000 0.15444  0.13241  0.37321  Biso   1.000  C
  C468     1.0000 0.15444  0.13234  0.37321  Biso   1.000  C
  H454     1.0000 0.11922  0.15242  0.44279  Biso   1.000  H
  O145     1.0000 0.21877  0.10873  0.49069  Biso   1.000  O
  O146     1.0000 0.21877  0.10866  0.49069  Biso   1.000  O
  H455     1.0000 0.15351  0.28116  0.43030  Biso   1.000  H
  H456     1.0000 0.15351  0.28123  0.43030  Biso   1.000  H
  O147     1.0000 0.15260  0.11113  0.34192  Biso   1.000  O
  O148     1.0000 0.15260  0.11106  0.34192  Biso   1.000  O
  O149     1.0000 0.52685  0.39300  0.76672  Biso   1.000  O
  C469     1.0000 0.54619  0.37136  0.79210  Biso   1.000  C
  N293     1.0000 0.54176  0.29639  0.81412  Biso   1.000  N
  N294     1.0000 0.57828  0.41456  0.80150  Biso   1.000  N
  C470     1.0000 0.51405  0.22838  0.80789  Biso   1.000  C
  C471     1.0000 0.57346  0.28032  0.83715  Biso   1.000  C
  C472     1.0000 0.59723  0.36720  0.83005  Biso   1.000  C
  C473     1.0000 0.59011  0.49996  0.78452  Biso   1.000  C
  N295     1.0000 0.48431  0.23860  0.83142  Biso   1.000  N
  H457     1.0000 0.52441  0.16447  0.81080  Biso   1.000  H
  H458     1.0000 0.50482  0.23437  0.78320  Biso   1.000  H
  N296     1.0000 0.56702  0.28751  0.87457  Biso   1.000  N
  H459     1.0000 0.58592  0.22007  0.83129  Biso   1.000  H
  N297     1.0000 0.59897  0.41519  0.86377  Biso   1.000  N
  H460     1.0000 0.62170  0.34747  0.82289  Biso   1.000  H
  H461     1.0000 0.58101  0.49996  0.75970  Biso   1.000  H
  H462     1.0000 0.61671  0.49996  0.78439  Biso   1.000  H
  N298     1.0000 0.57828  0.58537  0.80150  Biso   1.000  N
  C474     1.0000 0.45295  0.28229  0.82173  Biso   1.000  C
  C475     1.0000 0.48318  0.19738  0.86617  Biso   1.000  C
  C476     1.0000 0.54669  0.21958  0.89393  Biso   1.000  C
  C477     1.0000 0.58232  0.36516  0.88941  Biso   1.000  C
  C478     1.0000 0.61881  0.49996  0.87156  Biso   1.000  C
  C479     1.0000 0.54619  0.62857  0.79210  Biso   1.000  C
  C480     1.0000 0.59723  0.63280  0.83005  Biso   1.000  C
  O150     1.0000 0.44619  0.31696  0.79229  Biso   1.000  O
  N299     1.0000 0.43092  0.28102  0.84903  Biso   1.000  N
  C481     1.0000 0.44593  0.23127  0.87945  Biso   1.000  C
  N300     1.0000 0.50824  0.23747  0.89231  Biso   1.000  N
  H463     1.0000 0.48481  0.12712  0.86530  Biso   1.000  H
  H464     1.0000 0.55531  0.22021  0.91891  Biso   1.000  H
  H465     1.0000 0.55121  0.15601  0.88431  Biso   1.000  H
  O151     1.0000 0.58225  0.38581  0.92083  Biso   1.000  O
  H466     1.0000 0.64090  0.49996  0.85780  Biso   1.000  H
  H467     1.0000 0.62621  0.49996  0.89691  Biso   1.000  H
  N301     1.0000 0.59897  0.58481  0.86377  Biso   1.000  N
  O152     1.0000 0.52685  0.60700  0.76672  Biso   1.000  O
  N302     1.0000 0.54176  0.70354  0.81412  Biso   1.000  N
  H468     1.0000 0.62170  0.65246  0.82289  Biso   1.000  H
  C482     1.0000 0.57346  0.71968  0.83715  Biso   1.000  C
  C483     1.0000 0.39606  0.32690  0.84726  Biso   1.000  C
  N303     1.0000 0.45526  0.28786  0.90924  Biso   1.000  N
  H469     1.0000 0.43051  0.17680  0.88600  Biso   1.000  H
  C484     1.0000 0.49133  0.28497  0.91809  Biso   1.000  C
  C485     1.0000 0.58232  0.63477  0.88941  Biso   1.000  C
  C486     1.0000 0.51405  0.77155  0.80789  Biso   1.000  C
  N304     1.0000 0.56702  0.71249  0.87457  Biso   1.000  N
  H470     1.0000 0.58592  0.77986  0.83129  Biso   1.000  H
  N305     1.0000 0.39690  0.42161  0.86176  Biso   1.000  N
  H471     1.0000 0.38731  0.32979  0.82231  Biso   1.000  H
  H472     1.0000 0.37881  0.28849  0.86039  Biso   1.000  H
  C487     1.0000 0.42945  0.32718  0.93314  Biso   1.000  C
  O153     1.0000 0.50535  0.31830  0.94460  Biso   1.000  O
  O154     1.0000 0.58225  0.61419  0.92083  Biso   1.000  O
  N306     1.0000 0.48431  0.76140  0.83142  Biso   1.000  N
  H473     1.0000 0.52441  0.83546  0.81080  Biso   1.000  H
  H474     1.0000 0.50482  0.76556  0.78320  Biso   1.000  H
  C488     1.0000 0.54669  0.78035  0.89393  Biso   1.000  C
  C489     1.0000 0.39773  0.49996  0.84056  Biso   1.000  C
  C490     1.0000 0.38965  0.44535  0.89805  Biso   1.000  C
  N307     1.0000 0.41816  0.42245  0.92316  Biso   1.000  N
  H475     1.0000 0.44032  0.32852  0.95730  Biso   1.000  H
  H476     1.0000 0.40803  0.28589  0.93330  Biso   1.000  H
  C491     1.0000 0.45295  0.71771  0.82173  Biso   1.000  C
  C492     1.0000 0.48318  0.80255  0.86617  Biso   1.000  C
  N308     1.0000 0.50824  0.76246  0.89231  Biso   1.000  N
  H477     1.0000 0.55531  0.77979  0.91891  Biso   1.000  H
  H478     1.0000 0.55121  0.84399  0.88431  Biso   1.000  H
  O155     1.0000 0.39991  0.49996  0.80813  Biso   1.000  O
  N309     1.0000 0.39690  0.57839  0.86176  Biso   1.000  N
  H479     1.0000 0.36601  0.41935  0.90531  Biso   1.000  H
  C493     1.0000 0.38965  0.55458  0.89805  Biso   1.000  C
  C494     1.0000 0.43360  0.49996  0.93892  Biso   1.000  C
  N310     1.0000 0.43092  0.71898  0.84903  Biso   1.000  N
  O156     1.0000 0.44619  0.68297  0.79229  Biso   1.000  O
  C495     1.0000 0.44593  0.76866  0.87945  Biso   1.000  C
  H480     1.0000 0.48481  0.87288  0.86530  Biso   1.000  H
  C496     1.0000 0.49133  0.71496  0.91809  Biso   1.000  C
  C497     1.0000 0.39606  0.67310  0.84726  Biso   1.000  C
  N311     1.0000 0.41816  0.57748  0.92316  Biso   1.000  N
  H481     1.0000 0.36601  0.58058  0.90531  Biso   1.000  H
  O157     1.0000 0.45650  0.49996  0.96232  Biso   1.000  O
  N312     1.0000 0.45526  0.71207  0.90924  Biso   1.000  N
  H482     1.0000 0.43051  0.82320  0.88600  Biso   1.000  H
  O158     1.0000 0.50535  0.68170  0.94460  Biso   1.000  O
  H483     1.0000 0.38731  0.67014  0.82231  Biso   1.000  H
  H484     1.0000 0.37881  0.71151  0.86039  Biso   1.000  H
  C498     1.0000 0.42945  0.67275  0.93314  Biso   1.000  C
  H485     1.0000 0.44032  0.67148  0.95730  Biso   1.000  H
  H486     1.0000 0.40803  0.71404  0.93330  Biso   1.000  H
  O159     1.0000 0.47317  0.39300  0.23328  Biso   1.000  O
  C499     1.0000 0.45382  0.37136  0.20790  Biso   1.000  C
  N313     1.0000 0.42173  0.41456  0.19850  Biso   1.000  N
  N314     1.0000 0.45827  0.29639  0.18588  Biso   1.000  N
  C500     1.0000 0.40278  0.36720  0.16995  Biso   1.000  C
  C501     1.0000 0.40990  0.49996  0.21548  Biso   1.000  C
  C502     1.0000 0.42656  0.28032  0.16285  Biso   1.000  C
  C503     1.0000 0.48596  0.22838  0.19211  Biso   1.000  C
  N315     1.0000 0.40107  0.41519  0.13623  Biso   1.000  N
  H487     1.0000 0.37831  0.34747  0.17711  Biso   1.000  H
  H488     1.0000 0.41900  0.49996  0.24030  Biso   1.000  H
  H489     1.0000 0.38330  0.49996  0.21561  Biso   1.000  H
  N316     1.0000 0.42173  0.58537  0.19850  Biso   1.000  N
  N317     1.0000 0.43299  0.28751  0.12543  Biso   1.000  N
  H490     1.0000 0.41409  0.22007  0.16869  Biso   1.000  H
  N318     1.0000 0.51570  0.23860  0.16858  Biso   1.000  N
  H491     1.0000 0.47560  0.16447  0.18921  Biso   1.000  H
  H492     1.0000 0.49521  0.23437  0.21680  Biso   1.000  H
  C504     1.0000 0.41769  0.36516  0.11059  Biso   1.000  C
  C505     1.0000 0.38122  0.49996  0.12844  Biso   1.000  C
  C506     1.0000 0.45382  0.62857  0.20790  Biso   1.000  C
  C507     1.0000 0.40278  0.63280  0.16995  Biso   1.000  C
  C508     1.0000 0.45332  0.21958  0.10608  Biso   1.000  C
  C509     1.0000 0.54706  0.28229  0.17827  Biso   1.000  C
  C510     1.0000 0.51683  0.19738  0.13383  Biso   1.000  C
  O160     1.0000 0.41776  0.38581  0.07917  Biso   1.000  O
  H493     1.0000 0.35911  0.49996  0.14220  Biso   1.000  H
  H494     1.0000 0.37380  0.49996  0.10309  Biso   1.000  H
  N319     1.0000 0.40107  0.58481  0.13623  Biso   1.000  N
  O161     1.0000 0.47317  0.60700  0.23328  Biso   1.000  O
  N320     1.0000 0.45827  0.70354  0.18588  Biso   1.000  N
  H495     1.0000 0.37831  0.65246  0.17711  Biso   1.000  H
  C511     1.0000 0.42656  0.71968  0.16285  Biso   1.000  C
  N321     1.0000 0.49177  0.23747  0.10769  Biso   1.000  N
  H496     1.0000 0.44470  0.22021  0.08110  Biso   1.000  H
  H497     1.0000 0.44880  0.15601  0.11569  Biso   1.000  H
  O162     1.0000 0.55382  0.31696  0.20772  Biso   1.000  O
  N322     1.0000 0.56909  0.28102  0.15097  Biso   1.000  N
  H498     1.0000 0.51520  0.12712  0.13470  Biso   1.000  H
  C512     1.0000 0.55408  0.23127  0.12055  Biso   1.000  C
  C513     1.0000 0.41769  0.63477  0.11059  Biso   1.000  C
  C514     1.0000 0.48596  0.77155  0.19211  Biso   1.000  C
  N323     1.0000 0.43299  0.71249  0.12543  Biso   1.000  N
  H499     1.0000 0.41409  0.77986  0.16869  Biso   1.000  H
  C515     1.0000 0.50868  0.28497  0.08191  Biso   1.000  C
  C516     1.0000 0.60395  0.32690  0.15274  Biso   1.000  C
  N324     1.0000 0.54478  0.28786  0.09076  Biso   1.000  N
  H500     1.0000 0.56950  0.17680  0.11400  Biso   1.000  H
  O163     1.0000 0.41776  0.61419  0.07917  Biso   1.000  O
  N325     1.0000 0.51570  0.76140  0.16858  Biso   1.000  N
  H501     1.0000 0.47560  0.83546  0.18921  Biso   1.000  H
  H502     1.0000 0.49521  0.76556  0.21680  Biso   1.000  H
  C517     1.0000 0.45332  0.78035  0.10608  Biso   1.000  C
  O164     1.0000 0.49466  0.31830  0.05540  Biso   1.000  O
  N326     1.0000 0.60311  0.42161  0.13824  Biso   1.000  N
  H503     1.0000 0.61270  0.32979  0.17769  Biso   1.000  H
  H504     1.0000 0.62120  0.28849  0.13961  Biso   1.000  H
  C518     1.0000 0.57059  0.32718  0.06686  Biso   1.000  C
  C519     1.0000 0.54706  0.71771  0.17827  Biso   1.000  C
  C520     1.0000 0.51683  0.80255  0.13383  Biso   1.000  C
  N327     1.0000 0.49177  0.76246  0.10769  Biso   1.000  N
  H505     1.0000 0.44470  0.77979  0.08110  Biso   1.000  H
  H506     1.0000 0.44880  0.84399  0.11569  Biso   1.000  H
  C521     1.0000 0.60231  0.49996  0.15942  Biso   1.000  C
  C522     1.0000 0.61039  0.44535  0.10196  Biso   1.000  C
  N328     1.0000 0.58185  0.42245  0.07682  Biso   1.000  N
  H507     1.0000 0.55969  0.32852  0.04270  Biso   1.000  H
  H508     1.0000 0.59201  0.28589  0.06670  Biso   1.000  H
  O165     1.0000 0.55382  0.68297  0.20772  Biso   1.000  O
  N329     1.0000 0.56909  0.71898  0.15097  Biso   1.000  N
  H509     1.0000 0.51520  0.87288  0.13470  Biso   1.000  H
  C523     1.0000 0.55408  0.76866  0.12055  Biso   1.000  C
  C524     1.0000 0.50868  0.71496  0.08191  Biso   1.000  C
  O166     1.0000 0.60011  0.49996  0.19187  Biso   1.000  O
  N330     1.0000 0.60311  0.57839  0.13824  Biso   1.000  N
  H510     1.0000 0.63400  0.41935  0.09470  Biso   1.000  H
  C525     1.0000 0.61039  0.55458  0.10196  Biso   1.000  C
  C526     1.0000 0.56641  0.49996  0.06108  Biso   1.000  C
  C527     1.0000 0.60395  0.67310  0.15274  Biso   1.000  C
  N331     1.0000 0.54478  0.71207  0.09076  Biso   1.000  N
  H511     1.0000 0.56950  0.82320  0.11400  Biso   1.000  H
  O167     1.0000 0.49466  0.68170  0.05540  Biso   1.000  O
  N332     1.0000 0.58185  0.57748  0.07682  Biso   1.000  N
  H512     1.0000 0.63400  0.58058  0.09470  Biso   1.000  H
  O168     1.0000 0.54351  0.49996  0.03768  Biso   1.000  O
  H513     1.0000 0.61270  0.67014  0.17769  Biso   1.000  H
  H514     1.0000 0.62120  0.71151  0.13961  Biso   1.000  H
  C528     1.0000 0.57059  0.67275  0.06686  Biso   1.000  C
  H515     1.0000 0.55969  0.67148  0.04270  Biso   1.000  H
  H516     1.0000 0.59201  0.71404  0.06670  Biso   1.000  H
  C529     1.0000 0.70691  0.17321  0.78859  Biso   1.000  C
  N333     1.0000 0.72098  0.07723  0.78811  Biso   1.000  N
  N334     1.0000 0.72098  0.07716  0.78811  Biso   1.000  N
  N335     1.0000 0.70814  0.21542  0.82339  Biso   1.000  N
  H517     1.0000 0.72092  0.21281  0.77261  Biso   1.000  H
  H518     1.0000 0.68172  0.17257  0.77940  Biso   1.000  H
  N336     1.0000 0.70814  0.21535  0.82339  Biso   1.000  N
  C530     1.0000 0.69997  0.00000  0.78896  Biso   1.000  C
  C531     1.0000 0.69997  0.00007  0.78896  Biso   1.000  C
  C532     1.0000 0.75860  0.05348  0.78376  Biso   1.000  C
  C533     1.0000 0.70691  0.17314  0.78859  Biso   1.000  C
  C534     1.0000 0.75860  0.05356  0.78376  Biso   1.000  C
  C535     1.0000 0.68010  0.21542  0.84491  Biso   1.000  C
  C536     1.0000 0.73812  0.27137  0.83810  Biso   1.000  C
  C537     1.0000 0.68010  0.21535  0.84491  Biso   1.000  C
  C538     1.0000 0.73812  0.27144  0.83810  Biso   1.000  C
  O169     1.0000 0.66709  0.00007  0.79083  Biso   1.000  O
  O170     1.0000 0.66709  0.00000  0.79083  Biso   1.000  O
  N337     1.0000 0.72098  0.92277  0.78811  Biso   1.000  N
  C539     1.0000 0.75860  0.94652  0.78376  Biso   1.000  C
  C540     1.0000 0.75860  0.94644  0.78376  Biso   1.000  C
  N338     1.0000 0.78199  0.07808  0.81323  Biso   1.000  N
  H519     1.0000 0.76762  0.07921  0.76110  Biso   1.000  H
  N339     1.0000 0.78199  0.07815  0.81323  Biso   1.000  N
  H520     1.0000 0.76762  0.07913  0.76110  Biso   1.000  H
  O171     1.0000 0.65051  0.18061  0.83739  Biso   1.000  O
  N340     1.0000 0.68859  0.26467  0.87449  Biso   1.000  N
  O172     1.0000 0.65051  0.18054  0.83739  Biso   1.000  O
  N341     1.0000 0.68859  0.26475  0.87449  Biso   1.000  N
  N342     1.0000 0.76986  0.21690  0.84753  Biso   1.000  N
  C541     1.0000 0.72396  0.30590  0.87333  Biso   1.000  C
  H521     1.0000 0.74392  0.32528  0.82231  Biso   1.000  H
  N343     1.0000 0.76986  0.21683  0.84753  Biso   1.000  N
  C542     1.0000 0.72396  0.30583  0.87333  Biso   1.000  C
  C543     1.0000 0.70691  0.82679  0.78859  Biso   1.000  C
  N344     1.0000 0.78199  0.92192  0.81323  Biso   1.000  N
  H522     1.0000 0.76762  0.92079  0.76110  Biso   1.000  H
  N345     1.0000 0.78199  0.92185  0.81323  Biso   1.000  N
  C544     1.0000 0.79298  0.17300  0.82334  Biso   1.000  C
  C545     1.0000 0.79502  0.00000  0.82960  Biso   1.000  C
  C546     1.0000 0.79298  0.17293  0.82334  Biso   1.000  C
  C547     1.0000 0.79502  0.00007  0.82960  Biso   1.000  C
  C548     1.0000 0.66501  0.27250  0.90325  Biso   1.000  C
  C549     1.0000 0.66501  0.27243  0.90325  Biso   1.000  C
  C550     1.0000 0.77775  0.22077  0.88283  Biso   1.000  C
  C551     1.0000 0.77775  0.22084  0.88283  Biso   1.000  C
  N346     1.0000 0.75001  0.26608  0.89931  Biso   1.000  N
  H523     1.0000 0.72311  0.37615  0.87460  Biso   1.000  H
  N347     1.0000 0.70814  0.78451  0.82339  Biso   1.000  N
  H524     1.0000 0.72092  0.78719  0.77261  Biso   1.000  H
  H525     1.0000 0.68172  0.82743  0.77940  Biso   1.000  H
  N348     1.0000 0.70814  0.78458  0.82339  Biso   1.000  N
  H526     1.0000 0.68172  0.82736  0.77940  Biso   1.000  H
  C552     1.0000 0.79298  0.82700  0.82334  Biso   1.000  C
  H527     1.0000 0.81752  0.17046  0.83409  Biso   1.000  H
  H528     1.0000 0.79382  0.21239  0.80179  Biso   1.000  H
  O173     1.0000 0.81574  0.00000  0.85587  Biso   1.000  O
  O174     1.0000 0.81574  0.00007  0.85587  Biso   1.000  O
  N349     1.0000 0.67207  0.20259  0.93119  Biso   1.000  N
  H529     1.0000 0.63991  0.26517  0.89419  Biso   1.000  H
  H530     1.0000 0.66742  0.33641  0.91360  Biso   1.000  H
  H531     1.0000 0.63991  0.26524  0.89419  Biso   1.000  H
  H532     1.0000 0.66742  0.33634  0.91360  Biso   1.000  H
  O175     1.0000 0.80541  0.19160  0.89762  Biso   1.000  O
  C553     1.0000 0.75127  0.28807  0.93631  Biso   1.000  C
  C554     1.0000 0.75127  0.28814  0.93631  Biso   1.000  C
  C555     1.0000 0.68010  0.78451  0.84491  Biso   1.000  C
  C556     1.0000 0.73812  0.72856  0.83810  Biso   1.000  C
  C557     1.0000 0.68010  0.78458  0.84491  Biso   1.000  C
  N350     1.0000 0.76986  0.78310  0.84753  Biso   1.000  N
  H533     1.0000 0.81752  0.82954  0.83409  Biso   1.000  H
  H534     1.0000 0.79382  0.78761  0.80179  Biso   1.000  H
  H535     1.0000 0.81752  0.82947  0.83409  Biso   1.000  H
  H536     1.0000 0.79382  0.78754  0.80179  Biso   1.000  H
  C558     1.0000 0.64925  0.13036  0.93639  Biso   1.000  C
  C559     1.0000 0.69471  0.22049  0.96224  Biso   1.000  C
  C560     1.0000 0.64925  0.13043  0.93639  Biso   1.000  C
  N351     1.0000 0.73247  0.22070  0.95730  Biso   1.000  N
  H537     1.0000 0.74062  0.35128  0.93969  Biso   1.000  H
  H538     1.0000 0.77672  0.29089  0.94481  Biso   1.000  H
  N352     1.0000 0.73247  0.22063  0.95730  Biso   1.000  N
  O176     1.0000 0.65051  0.81939  0.83739  Biso   1.000  O
  N353     1.0000 0.68859  0.73533  0.87449  Biso   1.000  N
  N354     1.0000 0.68859  0.73525  0.87449  Biso   1.000  N
  C561     1.0000 0.72396  0.69410  0.87333  Biso   1.000  C
  H539     1.0000 0.74392  0.67472  0.82231  Biso   1.000  H
  H540     1.0000 0.74392  0.67465  0.82231  Biso   1.000  H
  C562     1.0000 0.77775  0.77923  0.88283  Biso   1.000  C
  C563     1.0000 0.77775  0.77916  0.88283  Biso   1.000  C
  O177     1.0000 0.62325  0.10887  0.91716  Biso   1.000  O
  N355     1.0000 0.65996  0.08527  0.96744  Biso   1.000  N
  O178     1.0000 0.62325  0.10894  0.91716  Biso   1.000  O
  C564     1.0000 0.68989  0.13241  0.98535  Biso   1.000  C
  H541     1.0000 0.68702  0.27877  0.97470  Biso   1.000  H
  C565     1.0000 0.68989  0.13234  0.98535  Biso   1.000  C
  C566     1.0000 0.74920  0.14178  0.97185  Biso   1.000  C
  C567     1.0000 0.66501  0.72750  0.90325  Biso   1.000  C
  N356     1.0000 0.75001  0.73392  0.89931  Biso   1.000  N
  H542     1.0000 0.72311  0.62385  0.87460  Biso   1.000  H
  N357     1.0000 0.75001  0.73385  0.89931  Biso   1.000  N
  H543     1.0000 0.72311  0.62378  0.87460  Biso   1.000  H
  O179     1.0000 0.80541  0.80840  0.89762  Biso   1.000  O
  C568     1.0000 0.64320  0.00000  0.98009  Biso   1.000  C
  C569     1.0000 0.64320  0.00007  0.98009  Biso   1.000  C
  N358     1.0000 0.72352  0.08660  0.98519  Biso   1.000  N
  N359     1.0000 0.72352  0.08653  0.98519  Biso   1.000  N
  H544     1.0000 0.68373  0.15052  0.00990  Biso   1.000  H
  H545     1.0000 0.68373  0.15045  0.00990  Biso   1.000  H
  O180     1.0000 0.78178  0.12839  0.97296  Biso   1.000  O
  O181     1.0000 0.78178  0.12846  0.97296  Biso   1.000  O
  N360     1.0000 0.67207  0.79741  0.93119  Biso   1.000  N
  H546     1.0000 0.63991  0.73483  0.89419  Biso   1.000  H
  H547     1.0000 0.66742  0.66359  0.91360  Biso   1.000  H
  H548     1.0000 0.63991  0.73476  0.89419  Biso   1.000  H
  C570     1.0000 0.75127  0.71193  0.93631  Biso   1.000  C
  C571     1.0000 0.75127  0.71186  0.93631  Biso   1.000  C
  N361     1.0000 0.65996  0.91473  0.96744  Biso   1.000  N
  N362     1.0000 0.65996  0.91466  0.96744  Biso   1.000  N
  H549     1.0000 0.61751  0.00000  0.97251  Biso   1.000  H
  H550     1.0000 0.61751  0.00007  0.97251  Biso   1.000  H
  H551     1.0000 0.64451  0.00000  0.00621  Biso   1.000  H
  H552     1.0000 0.64451  0.00007  0.00621  Biso   1.000  H
  C572     1.0000 0.73162  0.00000  0.00531  Biso   1.000  C
  C573     1.0000 0.73162  0.00007  0.00531  Biso   1.000  C
  C574     1.0000 0.64925  0.86964  0.93639  Biso   1.000  C
  C575     1.0000 0.69471  0.77951  0.96224  Biso   1.000  C
  C576     1.0000 0.64925  0.86957  0.93639  Biso   1.000  C
  C577     1.0000 0.69471  0.77944  0.96224  Biso   1.000  C
  N363     1.0000 0.73247  0.77930  0.95730  Biso   1.000  N
  H553     1.0000 0.74062  0.64872  0.93969  Biso   1.000  H
  H554     1.0000 0.77672  0.70904  0.94481  Biso   1.000  H
  H555     1.0000 0.74062  0.64865  0.93969  Biso   1.000  H
  C578     1.0000 0.68989  0.86759  0.98535  Biso   1.000  C
  N364     1.0000 0.72352  0.91340  0.98519  Biso   1.000  N
  H556     1.0000 0.71741  0.00000  0.02699  Biso   1.000  H
  H557     1.0000 0.75731  0.00000  0.01270  Biso   1.000  H
  H558     1.0000 0.71741  0.00007  0.02699  Biso   1.000  H
  H559     1.0000 0.75731  0.00007  0.01270  Biso   1.000  H
  O182     1.0000 0.62325  0.89113  0.91716  Biso   1.000  O
  O183     1.0000 0.62325  0.89106  0.91716  Biso   1.000  O
  H560     1.0000 0.68702  0.72123  0.97470  Biso   1.000  H
  H561     1.0000 0.68702  0.72116  0.97470  Biso   1.000  H
  C579     1.0000 0.74920  0.85822  0.97185  Biso   1.000  C
  C580     1.0000 0.74920  0.85815  0.97185  Biso   1.000  C
  H562     1.0000 0.68373  0.84948  0.00990  Biso   1.000  H
  O184     1.0000 0.78178  0.87161  0.97296  Biso   1.000  O
  O185     1.0000 0.78178  0.87154  0.97296  Biso   1.000  O
  C581     1.0000 0.70691  0.17321  0.78859  Biso   1.000  C
  N365     1.0000 0.70814  0.21542  0.82339  Biso   1.000  N
  N366     1.0000 0.70814  0.21535  0.82339  Biso   1.000  N
  H563     1.0000 0.72092  0.21281  0.77261  Biso   1.000  H
  H564     1.0000 0.68172  0.17257  0.77940  Biso   1.000  H
  N367     1.0000 0.72098  0.07723  0.78811  Biso   1.000  N
  N368     1.0000 0.72098  0.07716  0.78811  Biso   1.000  N
  C582     1.0000 0.68010  0.21542  0.84491  Biso   1.000  C
  C583     1.0000 0.68010  0.21535  0.84491  Biso   1.000  C
  C584     1.0000 0.73812  0.27137  0.83810  Biso   1.000  C
  C585     1.0000 0.73812  0.27144  0.83810  Biso   1.000  C
  C586     1.0000 0.70691  0.17314  0.78859  Biso   1.000  C
  C587     1.0000 0.69997  0.00000  0.78896  Biso   1.000  C
  C588     1.0000 0.75860  0.05348  0.78376  Biso   1.000  C
  C589     1.0000 0.69997  0.00007  0.78896  Biso   1.000  C
  C590     1.0000 0.75860  0.05356  0.78376  Biso   1.000  C
  N369     1.0000 0.68859  0.26467  0.87449  Biso   1.000  N
  N370     1.0000 0.68859  0.26475  0.87449  Biso   1.000  N
  O186     1.0000 0.65051  0.18061  0.83739  Biso   1.000  O
  O187     1.0000 0.65051  0.18054  0.83739  Biso   1.000  O
  C591     1.0000 0.72396  0.30590  0.87333  Biso   1.000  C
  C592     1.0000 0.72396  0.30583  0.87333  Biso   1.000  C
  H565     1.0000 0.74392  0.32528  0.82231  Biso   1.000  H
  N371     1.0000 0.76986  0.21690  0.84753  Biso   1.000  N
  N372     1.0000 0.76986  0.21683  0.84753  Biso   1.000  N
  N373     1.0000 0.72098  0.92277  0.78811  Biso   1.000  N
  O188     1.0000 0.66709  0.00000  0.79083  Biso   1.000  O
  O189     1.0000 0.66709  0.00007  0.79083  Biso   1.000  O
  N374     1.0000 0.78199  0.07808  0.81323  Biso   1.000  N
  N375     1.0000 0.78199  0.07815  0.81323  Biso   1.000  N
  C593     1.0000 0.75860  0.94652  0.78376  Biso   1.000  C
  C594     1.0000 0.75860  0.94644  0.78376  Biso   1.000  C
  H566     1.0000 0.76762  0.07921  0.76110  Biso   1.000  H
  H567     1.0000 0.76762  0.07913  0.76110  Biso   1.000  H
  C595     1.0000 0.66501  0.27250  0.90325  Biso   1.000  C
  C596     1.0000 0.66501  0.27243  0.90325  Biso   1.000  C
  N376     1.0000 0.75001  0.26608  0.89931  Biso   1.000  N
  H568     1.0000 0.72311  0.37615  0.87460  Biso   1.000  H
  C597     1.0000 0.77775  0.22077  0.88283  Biso   1.000  C
  C598     1.0000 0.77775  0.22084  0.88283  Biso   1.000  C
  C599     1.0000 0.79298  0.17300  0.82334  Biso   1.000  C
  C600     1.0000 0.79298  0.17293  0.82334  Biso   1.000  C
  C601     1.0000 0.70691  0.82679  0.78859  Biso   1.000  C
  C602     1.0000 0.79502  0.00000  0.82960  Biso   1.000  C
  C603     1.0000 0.79502  0.00007  0.82960  Biso   1.000  C
  N377     1.0000 0.78199  0.92192  0.81323  Biso   1.000  N
  H569     1.0000 0.76762  0.92079  0.76110  Biso   1.000  H
  N378     1.0000 0.78199  0.92185  0.81323  Biso   1.000  N
  N379     1.0000 0.67207  0.20259  0.93119  Biso   1.000  N
  H570     1.0000 0.63991  0.26517  0.89419  Biso   1.000  H
  H571     1.0000 0.66742  0.33641  0.91360  Biso   1.000  H
  H572     1.0000 0.63991  0.26524  0.89419  Biso   1.000  H
  H573     1.0000 0.66742  0.33634  0.91360  Biso   1.000  H
  C604     1.0000 0.75127  0.28807  0.93631  Biso   1.000  C
  C605     1.0000 0.75127  0.28814  0.93631  Biso   1.000  C
  O190     1.0000 0.80541  0.19160  0.89762  Biso   1.000  O
  H574     1.0000 0.81752  0.17046  0.83409  Biso   1.000  H
  H575     1.0000 0.79382  0.21239  0.80179  Biso   1.000  H
  N380     1.0000 0.70814  0.78451  0.82339  Biso   1.000  N
  N381     1.0000 0.70814  0.78458  0.82339  Biso   1.000  N
  H576     1.0000 0.72092  0.78719  0.77261  Biso   1.000  H
  H577     1.0000 0.68172  0.82743  0.77940  Biso   1.000  H
  H578     1.0000 0.68172  0.82736  0.77940  Biso   1.000  H
  O191     1.0000 0.81574  0.00000  0.85587  Biso   1.000  O
  O192     1.0000 0.81574  0.00007  0.85587  Biso   1.000  O
  C606     1.0000 0.79298  0.82700  0.82334  Biso   1.000  C
  C607     1.0000 0.69471  0.22049  0.96224  Biso   1.000  C
  C608     1.0000 0.64925  0.13036  0.93639  Biso   1.000  C
  C609     1.0000 0.64925  0.13043  0.93639  Biso   1.000  C
  N382     1.0000 0.73247  0.22070  0.95730  Biso   1.000  N
  N383     1.0000 0.73247  0.22063  0.95730  Biso   1.000  N
  H579     1.0000 0.74062  0.35128  0.93969  Biso   1.000  H
  H580     1.0000 0.77672  0.29089  0.94481  Biso   1.000  H
  C610     1.0000 0.68010  0.78451  0.84491  Biso   1.000  C
  C611     1.0000 0.68010  0.78458  0.84491  Biso   1.000  C
  C612     1.0000 0.73812  0.72856  0.83810  Biso   1.000  C
  N384     1.0000 0.76986  0.78310  0.84753  Biso   1.000  N
  H581     1.0000 0.81752  0.82954  0.83409  Biso   1.000  H
  H582     1.0000 0.79382  0.78761  0.80179  Biso   1.000  H
  H583     1.0000 0.81752  0.82947  0.83409  Biso   1.000  H
  H584     1.0000 0.79382  0.78754  0.80179  Biso   1.000  H
  H585     1.0000 0.68702  0.27877  0.97470  Biso   1.000  H
  C613     1.0000 0.68989  0.13241  0.98535  Biso   1.000  C
  C614     1.0000 0.68989  0.13234  0.98535  Biso   1.000  C
  N385     1.0000 0.65996  0.08527  0.96744  Biso   1.000  N
  O193     1.0000 0.62325  0.10887  0.91716  Biso   1.000  O
  O194     1.0000 0.62325  0.10894  0.91716  Biso   1.000  O
  C615     1.0000 0.74920  0.14178  0.97185  Biso   1.000  C
  N386     1.0000 0.68859  0.73533  0.87449  Biso   1.000  N
  N387     1.0000 0.68859  0.73525  0.87449  Biso   1.000  N
  O195     1.0000 0.65051  0.81939  0.83739  Biso   1.000  O
  C616     1.0000 0.72396  0.69410  0.87333  Biso   1.000  C
  H586     1.0000 0.74392  0.67472  0.82231  Biso   1.000  H
  H587     1.0000 0.74392  0.67465  0.82231  Biso   1.000  H
  C617     1.0000 0.77775  0.77923  0.88283  Biso   1.000  C
  C618     1.0000 0.77775  0.77916  0.88283  Biso   1.000  C
  N388     1.0000 0.72352  0.08660  0.98519  Biso   1.000  N
  N389     1.0000 0.72352  0.08653  0.98519  Biso   1.000  N
  H588     1.0000 0.68373  0.15052  0.00990  Biso   1.000  H
  H589     1.0000 0.68373  0.15045  0.00990  Biso   1.000  H
  C619     1.0000 0.64320  0.00000  0.98009  Biso   1.000  C
  C620     1.0000 0.64320  0.00007  0.98009  Biso   1.000  C
  O196     1.0000 0.78178  0.12839  0.97296  Biso   1.000  O
  O197     1.0000 0.78178  0.12846  0.97296  Biso   1.000  O
  C621     1.0000 0.66501  0.72750  0.90325  Biso   1.000  C
  N390     1.0000 0.75001  0.73392  0.89931  Biso   1.000  N
  N391     1.0000 0.75001  0.73385  0.89931  Biso   1.000  N
  H590     1.0000 0.72311  0.62385  0.87460  Biso   1.000  H
  H591     1.0000 0.72311  0.62378  0.87460  Biso   1.000  H
  O198     1.0000 0.80541  0.80840  0.89762  Biso   1.000  O
  C622     1.0000 0.73162  0.00000  0.00531  Biso   1.000  C
  C623     1.0000 0.73162  0.00007  0.00531  Biso   1.000  C
  N392     1.0000 0.65996  0.91473  0.96744  Biso   1.000  N
  N393     1.0000 0.65996  0.91466  0.96744  Biso   1.000  N
  H592     1.0000 0.61751  0.00000  0.97251  Biso   1.000  H
  H593     1.0000 0.61751  0.00007  0.97251  Biso   1.000  H
  H594     1.0000 0.64451  0.00000  0.00621  Biso   1.000  H
  H595     1.0000 0.64451  0.00007  0.00621  Biso   1.000  H
  N394     1.0000 0.67207  0.79741  0.93119  Biso   1.000  N
  H596     1.0000 0.63991  0.73483  0.89419  Biso   1.000  H
  H597     1.0000 0.66742  0.66359  0.91360  Biso   1.000  H
  H598     1.0000 0.63991  0.73476  0.89419  Biso   1.000  H
  C624     1.0000 0.75127  0.71193  0.93631  Biso   1.000  C
  C625     1.0000 0.75127  0.71186  0.93631  Biso   1.000  C
  N395     1.0000 0.72352  0.91340  0.98519  Biso   1.000  N
  H599     1.0000 0.71741  0.00000  0.02699  Biso   1.000  H
  H600     1.0000 0.75731  0.00000  0.01270  Biso   1.000  H
  H601     1.0000 0.71741  0.00007  0.02699  Biso   1.000  H
  H602     1.0000 0.75731  0.00007  0.01270  Biso   1.000  H
  C626     1.0000 0.64925  0.86964  0.93639  Biso   1.000  C
  C627     1.0000 0.68989  0.86759  0.98535  Biso   1.000  C
  C628     1.0000 0.64925  0.86957  0.93639  Biso   1.000  C
  C629     1.0000 0.69471  0.77951  0.96224  Biso   1.000  C
  C630     1.0000 0.69471  0.77944  0.96224  Biso   1.000  C
  N396     1.0000 0.73247  0.77930  0.95730  Biso   1.000  N
  H603     1.0000 0.74062  0.64872  0.93969  Biso   1.000  H
  H604     1.0000 0.77672  0.70904  0.94481  Biso   1.000  H
  H605     1.0000 0.74062  0.64865  0.93969  Biso   1.000  H
  C631     1.0000 0.74920  0.85822  0.97185  Biso   1.000  C
  C632     1.0000 0.74920  0.85815  0.97185  Biso   1.000  C
  O199     1.0000 0.62325  0.89113  0.91716  Biso   1.000  O
  O200     1.0000 0.62325  0.89106  0.91716  Biso   1.000  O
  H606     1.0000 0.68373  0.84948  0.00990  Biso   1.000  H
  H607     1.0000 0.68702  0.72123  0.97470  Biso   1.000  H
  H608     1.0000 0.68702  0.72116  0.97470  Biso   1.000  H
  O201     1.0000 0.78178  0.87161  0.97296  Biso   1.000  O
  O202     1.0000 0.78178  0.87154  0.97296  Biso   1.000  O
  C633     1.0000 0.29311  0.17321  0.21141  Biso   1.000  C
  N397     1.0000 0.29187  0.21542  0.17661  Biso   1.000  N
  N398     1.0000 0.27903  0.07723  0.21189  Biso   1.000  N
  H609     1.0000 0.27909  0.21281  0.22739  Biso   1.000  H
  H610     1.0000 0.31829  0.17257  0.22060  Biso   1.000  H
  N399     1.0000 0.29187  0.21535  0.17661  Biso   1.000  N
  N400     1.0000 0.27903  0.07716  0.21189  Biso   1.000  N
  C634     1.0000 0.31991  0.21542  0.15509  Biso   1.000  C
  C635     1.0000 0.26190  0.27137  0.16190  Biso   1.000  C
  C636     1.0000 0.31991  0.21535  0.15509  Biso   1.000  C
  C637     1.0000 0.26190  0.27144  0.16190  Biso   1.000  C
  C638     1.0000 0.29311  0.17314  0.21141  Biso   1.000  C
  C639     1.0000 0.30007  0.00000  0.21104  Biso   1.000  C
  C640     1.0000 0.24143  0.05348  0.21625  Biso   1.000  C
  C641     1.0000 0.30007  0.00007  0.21104  Biso   1.000  C
  C642     1.0000 0.24143  0.05356  0.21625  Biso   1.000  C
  O203     1.0000 0.34952  0.18061  0.16261  Biso   1.000  O
  N401     1.0000 0.31143  0.26467  0.12551  Biso   1.000  N
  O204     1.0000 0.34952  0.18054  0.16261  Biso   1.000  O
  N402     1.0000 0.31143  0.26475  0.12551  Biso   1.000  N
  N403     1.0000 0.23015  0.21690  0.15245  Biso   1.000  N
  C643     1.0000 0.27606  0.30590  0.12667  Biso   1.000  C
  H611     1.0000 0.25609  0.32528  0.17769  Biso   1.000  H
  N404     1.0000 0.23015  0.21683  0.15245  Biso   1.000  N
  C644     1.0000 0.27606  0.30583  0.12667  Biso   1.000  C
  O205     1.0000 0.33295  0.00000  0.20917  Biso   1.000  O
  O206     1.0000 0.33295  0.00007  0.20917  Biso   1.000  O
  N405     1.0000 0.27903  0.92277  0.21189  Biso   1.000  N
  N406     1.0000 0.21802  0.07808  0.18678  Biso   1.000  N
  H612     1.0000 0.23241  0.07921  0.23890  Biso   1.000  H
  N407     1.0000 0.21802  0.07815  0.18678  Biso   1.000  N
  H613     1.0000 0.23241  0.07913  0.23890  Biso   1.000  H
  C645     1.0000 0.24143  0.94652  0.21625  Biso   1.000  C
  C646     1.0000 0.24143  0.94644  0.21625  Biso   1.000  C
  C647     1.0000 0.33500  0.27250  0.09673  Biso   1.000  C
  C648     1.0000 0.33500  0.27243  0.09673  Biso   1.000  C
  C649     1.0000 0.22229  0.22077  0.11717  Biso   1.000  C
  C650     1.0000 0.20706  0.17300  0.17666  Biso   1.000  C
  C651     1.0000 0.22229  0.22084  0.11717  Biso   1.000  C
  C652     1.0000 0.20706  0.17293  0.17666  Biso   1.000  C
  N408     1.0000 0.25000  0.26608  0.10069  Biso   1.000  N
  H614     1.0000 0.27690  0.37615  0.12541  Biso   1.000  H
  C653     1.0000 0.29311  0.82679  0.21141  Biso   1.000  C
  C654     1.0000 0.20499  0.00000  0.17040  Biso   1.000  C
  C655     1.0000 0.20499  0.00007  0.17040  Biso   1.000  C
  N409     1.0000 0.21802  0.92192  0.18678  Biso   1.000  N
  H615     1.0000 0.23241  0.92079  0.23890  Biso   1.000  H
  N410     1.0000 0.21802  0.92185  0.18678  Biso   1.000  N
  N411     1.0000 0.32794  0.20259  0.06882  Biso   1.000  N
  H616     1.0000 0.36010  0.26517  0.10581  Biso   1.000  H
  H617     1.0000 0.33259  0.33641  0.08640  Biso   1.000  H
  H618     1.0000 0.36010  0.26524  0.10581  Biso   1.000  H
  H619     1.0000 0.33259  0.33634  0.08640  Biso   1.000  H
  O207     1.0000 0.19460  0.19160  0.10238  Biso   1.000  O
  H620     1.0000 0.18249  0.17046  0.16589  Biso   1.000  H
  H621     1.0000 0.20622  0.21239  0.19821  Biso   1.000  H
  C656     1.0000 0.24874  0.28807  0.06369  Biso   1.000  C
  C657     1.0000 0.24874  0.28814  0.06369  Biso   1.000  C
  N412     1.0000 0.29187  0.78451  0.17661  Biso   1.000  N
  H622     1.0000 0.27909  0.78719  0.22739  Biso   1.000  H
  H623     1.0000 0.31829  0.82743  0.22060  Biso   1.000  H
  N413     1.0000 0.29187  0.78458  0.17661  Biso   1.000  N
  H624     1.0000 0.31829  0.82736  0.22060  Biso   1.000  H
  O208     1.0000 0.18429  0.00000  0.14413  Biso   1.000  O
  O209     1.0000 0.18429  0.00007  0.14413  Biso   1.000  O
  C658     1.0000 0.20706  0.82700  0.17666  Biso   1.000  C
  C659     1.0000 0.35076  0.13036  0.06361  Biso   1.000  C
  C660     1.0000 0.30530  0.22049  0.03776  Biso   1.000  C
  C661     1.0000 0.35076  0.13043  0.06361  Biso   1.000  C
  N414     1.0000 0.26754  0.22070  0.04270  Biso   1.000  N
  H625     1.0000 0.25939  0.35128  0.06029  Biso   1.000  H
  H626     1.0000 0.22331  0.29089  0.05519  Biso   1.000  H
  N415     1.0000 0.26754  0.22063  0.04270  Biso   1.000  N
  C662     1.0000 0.31991  0.78451  0.15509  Biso   1.000  C
  C663     1.0000 0.26190  0.72856  0.16190  Biso   1.000  C
  C664     1.0000 0.31991  0.78458  0.15509  Biso   1.000  C
  N416     1.0000 0.23015  0.78310  0.15245  Biso   1.000  N
  H627     1.0000 0.18249  0.82954  0.16589  Biso   1.000  H
  H628     1.0000 0.20622  0.78761  0.19821  Biso   1.000  H
  H629     1.0000 0.18249  0.82947  0.16589  Biso   1.000  H
  H630     1.0000 0.20622  0.78754  0.19821  Biso   1.000  H
  O210     1.0000 0.37676  0.10887  0.08284  Biso   1.000  O
  N417     1.0000 0.34007  0.08527  0.03256  Biso   1.000  N
  O211     1.0000 0.37676  0.10894  0.08284  Biso   1.000  O
  C665     1.0000 0.31015  0.13241  0.01466  Biso   1.000  C
  H631     1.0000 0.31300  0.27877  0.02530  Biso   1.000  H
  C666     1.0000 0.31015  0.13234  0.01466  Biso   1.000  C
  C667     1.0000 0.25081  0.14178  0.02815  Biso   1.000  C
  O212     1.0000 0.34952  0.81939  0.16261  Biso   1.000  O
  N418     1.0000 0.31143  0.73533  0.12551  Biso   1.000  N
  N419     1.0000 0.31143  0.73525  0.12551  Biso   1.000  N
  C668     1.0000 0.27606  0.69410  0.12667  Biso   1.000  C
  H632     1.0000 0.25609  0.67472  0.17769  Biso   1.000  H
  H633     1.0000 0.25609  0.67465  0.17769  Biso   1.000  H
  C669     1.0000 0.22229  0.77923  0.11717  Biso   1.000  C
  C670     1.0000 0.22229  0.77916  0.11717  Biso   1.000  C
  C671     1.0000 0.35681  0.00000  0.01991  Biso   1.000  C
  C672     1.0000 0.35681  0.00007  0.01991  Biso   1.000  C
  N420     1.0000 0.27649  0.08660  0.01481  Biso   1.000  N
  N421     1.0000 0.27649  0.08653  0.01481  Biso   1.000  N
  H634     1.0000 0.31631  0.15052  0.99010  Biso   1.000  H
  H635     1.0000 0.31631  0.15045  0.99010  Biso   1.000  H
  O213     1.0000 0.21823  0.12839  0.02704  Biso   1.000  O
  O214     1.0000 0.21823  0.12846  0.02704  Biso   1.000  O
  C673     1.0000 0.33500  0.72750  0.09673  Biso   1.000  C
  N422     1.0000 0.25000  0.73392  0.10069  Biso   1.000  N
  H636     1.0000 0.27690  0.62385  0.12541  Biso   1.000  H
  N423     1.0000 0.25000  0.73385  0.10069  Biso   1.000  N
  H637     1.0000 0.27690  0.62378  0.12541  Biso   1.000  H
  O215     1.0000 0.19460  0.80840  0.10238  Biso   1.000  O
  H638     1.0000 0.38250  0.00000  0.02749  Biso   1.000  H
  H639     1.0000 0.38250  0.00007  0.02749  Biso   1.000  H
  N424     1.0000 0.34007  0.91473  0.03256  Biso   1.000  N
  N425     1.0000 0.34007  0.91466  0.03256  Biso   1.000  N
  H640     1.0000 0.35550  0.00000  0.99379  Biso   1.000  H
  H641     1.0000 0.35550  0.00007  0.99379  Biso   1.000  H
  C674     1.0000 0.26839  0.00000  0.99469  Biso   1.000  C
  C675     1.0000 0.26839  0.00007  0.99469  Biso   1.000  C
  N426     1.0000 0.32794  0.79741  0.06882  Biso   1.000  N
  H642     1.0000 0.36010  0.73483  0.10581  Biso   1.000  H
  H643     1.0000 0.33259  0.66359  0.08640  Biso   1.000  H
  H644     1.0000 0.36010  0.73476  0.10581  Biso   1.000  H
  C676     1.0000 0.24874  0.71193  0.06369  Biso   1.000  C
  C677     1.0000 0.24874  0.71186  0.06369  Biso   1.000  C
  C678     1.0000 0.35076  0.86964  0.06361  Biso   1.000  C
  C679     1.0000 0.31015  0.86759  0.01466  Biso   1.000  C
  C680     1.0000 0.35076  0.86957  0.06361  Biso   1.000  C
  N427     1.0000 0.27649  0.91340  0.01481  Biso   1.000  N
  H645     1.0000 0.28260  0.00000  0.97301  Biso   1.000  H
  H646     1.0000 0.24270  0.00000  0.98730  Biso   1.000  H
  H647     1.0000 0.28260  0.00007  0.97301  Biso   1.000  H
  H648     1.0000 0.24270  0.00007  0.98730  Biso   1.000  H
  C681     1.0000 0.30530  0.77951  0.03776  Biso   1.000  C
  C682     1.0000 0.30530  0.77944  0.03776  Biso   1.000  C
  N428     1.0000 0.26754  0.77930  0.04270  Biso   1.000  N
  H649     1.0000 0.25939  0.64872  0.06029  Biso   1.000  H
  H650     1.0000 0.22331  0.70904  0.05519  Biso   1.000  H
  H651     1.0000 0.25939  0.64865  0.06029  Biso   1.000  H
  O216     1.0000 0.37676  0.89113  0.08284  Biso   1.000  O
  O217     1.0000 0.37676  0.89106  0.08284  Biso   1.000  O
  H652     1.0000 0.31631  0.84948  0.99010  Biso   1.000  H
  C683     1.0000 0.25081  0.85822  0.02815  Biso   1.000  C
  C684     1.0000 0.25081  0.85815  0.02815  Biso   1.000  C
  H653     1.0000 0.31300  0.72123  0.02530  Biso   1.000  H
  H654     1.0000 0.31300  0.72116  0.02530  Biso   1.000  H
  O218     1.0000 0.21823  0.87161  0.02704  Biso   1.000  O
  O219     1.0000 0.21823  0.87154  0.02704  Biso   1.000  O
  C685     1.0000 0.29311  0.17321  0.21141  Biso   1.000  C
  N429     1.0000 0.29187  0.21542  0.17661  Biso   1.000  N
  N430     1.0000 0.29187  0.21535  0.17661  Biso   1.000  N
  H655     1.0000 0.27909  0.21281  0.22739  Biso   1.000  H
  H656     1.0000 0.31829  0.17257  0.22060  Biso   1.000  H
  N431     1.0000 0.27903  0.07723  0.21189  Biso   1.000  N
  N432     1.0000 0.27903  0.07716  0.21189  Biso   1.000  N
  C686     1.0000 0.26190  0.27137  0.16190  Biso   1.000  C
  C687     1.0000 0.26190  0.27144  0.16190  Biso   1.000  C
  C688     1.0000 0.31991  0.21542  0.15509  Biso   1.000  C
  C689     1.0000 0.31991  0.21535  0.15509  Biso   1.000  C
  C690     1.0000 0.29311  0.17314  0.21141  Biso   1.000  C
  C691     1.0000 0.24143  0.05348  0.21625  Biso   1.000  C
  C692     1.0000 0.24143  0.05356  0.21625  Biso   1.000  C
  C693     1.0000 0.30007  0.00000  0.21104  Biso   1.000  C
  C694     1.0000 0.30007  0.00007  0.21104  Biso   1.000  C
  C695     1.0000 0.27606  0.30590  0.12667  Biso   1.000  C
  C696     1.0000 0.27606  0.30583  0.12667  Biso   1.000  C
  N433     1.0000 0.23015  0.21690  0.15245  Biso   1.000  N
  N434     1.0000 0.23015  0.21683  0.15245  Biso   1.000  N
  H657     1.0000 0.25609  0.32528  0.17769  Biso   1.000  H
  N435     1.0000 0.31143  0.26467  0.12551  Biso   1.000  N
  N436     1.0000 0.31143  0.26475  0.12551  Biso   1.000  N
  O220     1.0000 0.34952  0.18061  0.16261  Biso   1.000  O
  O221     1.0000 0.34952  0.18054  0.16261  Biso   1.000  O
  N437     1.0000 0.21802  0.07808  0.18678  Biso   1.000  N
  N438     1.0000 0.21802  0.07815  0.18678  Biso   1.000  N
  C697     1.0000 0.24143  0.94652  0.21625  Biso   1.000  C
  C698     1.0000 0.24143  0.94644  0.21625  Biso   1.000  C
  H658     1.0000 0.23241  0.07921  0.23890  Biso   1.000  H
  H659     1.0000 0.23241  0.07913  0.23890  Biso   1.000  H
  N439     1.0000 0.27903  0.92277  0.21189  Biso   1.000  N
  O222     1.0000 0.33295  0.00000  0.20917  Biso   1.000  O
  O223     1.0000 0.33295  0.00007  0.20917  Biso   1.000  O
  N440     1.0000 0.25000  0.26608  0.10069  Biso   1.000  N
  H660     1.0000 0.27690  0.37615  0.12541  Biso   1.000  H
  C699     1.0000 0.22229  0.22077  0.11717  Biso   1.000  C
  C700     1.0000 0.22229  0.22084  0.11717  Biso   1.000  C
  C701     1.0000 0.20706  0.17300  0.17666  Biso   1.000  C
  C702     1.0000 0.20706  0.17293  0.17666  Biso   1.000  C
  C703     1.0000 0.33500  0.27250  0.09673  Biso   1.000  C
  C704     1.0000 0.33500  0.27243  0.09673  Biso   1.000  C
  C705     1.0000 0.20499  0.00000  0.17040  Biso   1.000  C
  C706     1.0000 0.20499  0.00007  0.17040  Biso   1.000  C
  N441     1.0000 0.21802  0.92192  0.18678  Biso   1.000  N
  N442     1.0000 0.21802  0.92185  0.18678  Biso   1.000  N
  H661     1.0000 0.23241  0.92079  0.23890  Biso   1.000  H
  C707     1.0000 0.29311  0.82679  0.21141  Biso   1.000  C
  C708     1.0000 0.24874  0.28807  0.06369  Biso   1.000  C
  C709     1.0000 0.24874  0.28814  0.06369  Biso   1.000  C
  O224     1.0000 0.19460  0.19160  0.10238  Biso   1.000  O
  H662     1.0000 0.18249  0.17046  0.16589  Biso   1.000  H
  H663     1.0000 0.20622  0.21239  0.19821  Biso   1.000  H
  N443     1.0000 0.32794  0.20259  0.06882  Biso   1.000  N
  H664     1.0000 0.36010  0.26517  0.10581  Biso   1.000  H
  H665     1.0000 0.33259  0.33641  0.08640  Biso   1.000  H
  H666     1.0000 0.36010  0.26524  0.10581  Biso   1.000  H
  H667     1.0000 0.33259  0.33634  0.08640  Biso   1.000  H
  O225     1.0000 0.18429  0.00000  0.14413  Biso   1.000  O
  O226     1.0000 0.18429  0.00007  0.14413  Biso   1.000  O
  C710     1.0000 0.20706  0.82700  0.17666  Biso   1.000  C
  N444     1.0000 0.29187  0.78451  0.17661  Biso   1.000  N
  H668     1.0000 0.27909  0.78719  0.22739  Biso   1.000  H
  H669     1.0000 0.31829  0.82743  0.22060  Biso   1.000  H
  N445     1.0000 0.29187  0.78458  0.17661  Biso   1.000  N
  H670     1.0000 0.31829  0.82736  0.22060  Biso   1.000  H
  H671     1.0000 0.25939  0.35128  0.06029  Biso   1.000  H
  H672     1.0000 0.22331  0.29089  0.05519  Biso   1.000  H
  N446     1.0000 0.26754  0.22070  0.04270  Biso   1.000  N
  N447     1.0000 0.26754  0.22063  0.04270  Biso   1.000  N
  C711     1.0000 0.30530  0.22049  0.03776  Biso   1.000  C
  C712     1.0000 0.35076  0.13036  0.06361  Biso   1.000  C
  C713     1.0000 0.35076  0.13043  0.06361  Biso   1.000  C
  N448     1.0000 0.23015  0.78310  0.15245  Biso   1.000  N
  H673     1.0000 0.18249  0.82954  0.16589  Biso   1.000  H
  H674     1.0000 0.20622  0.78761  0.19821  Biso   1.000  H
  H675     1.0000 0.18249  0.82947  0.16589  Biso   1.000  H
  H676     1.0000 0.20622  0.78754  0.19821  Biso   1.000  H
  C714     1.0000 0.26190  0.72856  0.16190  Biso   1.000  C
  C715     1.0000 0.31991  0.78451  0.15509  Biso   1.000  C
  C716     1.0000 0.31991  0.78458  0.15509  Biso   1.000  C
  C717     1.0000 0.25081  0.14178  0.02815  Biso   1.000  C
  H677     1.0000 0.31300  0.27877  0.02530  Biso   1.000  H
  C718     1.0000 0.31015  0.13241  0.01466  Biso   1.000  C
  C719     1.0000 0.31015  0.13234  0.01466  Biso   1.000  C
  N449     1.0000 0.34007  0.08527  0.03256  Biso   1.000  N
  O227     1.0000 0.37676  0.10887  0.08284  Biso   1.000  O
  O228     1.0000 0.37676  0.10894  0.08284  Biso   1.000  O
  C720     1.0000 0.22229  0.77923  0.11717  Biso   1.000  C
  C721     1.0000 0.22229  0.77916  0.11717  Biso   1.000  C
  C722     1.0000 0.27606  0.69410  0.12667  Biso   1.000  C
  H678     1.0000 0.25609  0.67472  0.17769  Biso   1.000  H
  H679     1.0000 0.25609  0.67465  0.17769  Biso   1.000  H
  N450     1.0000 0.31143  0.73533  0.12551  Biso   1.000  N
  N451     1.0000 0.31143  0.73525  0.12551  Biso   1.000  N
  O229     1.0000 0.34952  0.81939  0.16261  Biso   1.000  O
  O230     1.0000 0.21823  0.12839  0.02704  Biso   1.000  O
  N452     1.0000 0.27649  0.08660  0.01481  Biso   1.000  N
  O231     1.0000 0.21823  0.12846  0.02704  Biso   1.000  O
  N453     1.0000 0.27649  0.08653  0.01481  Biso   1.000  N
  H680     1.0000 0.31631  0.15052  0.99010  Biso   1.000  H
  H681     1.0000 0.31631  0.15045  0.99010  Biso   1.000  H
  C723     1.0000 0.35681  0.00000  0.01991  Biso   1.000  C
  C724     1.0000 0.35681  0.00007  0.01991  Biso   1.000  C
  N454     1.0000 0.25000  0.73392  0.10069  Biso   1.000  N
  N455     1.0000 0.25000  0.73385  0.10069  Biso   1.000  N
  O232     1.0000 0.19460  0.80840  0.10238  Biso   1.000  O
  H682     1.0000 0.27690  0.62385  0.12541  Biso   1.000  H
  H683     1.0000 0.27690  0.62378  0.12541  Biso   1.000  H
  C725     1.0000 0.33500  0.72750  0.09673  Biso   1.000  C
  C726     1.0000 0.26839  0.00000  0.99469  Biso   1.000  C
  C727     1.0000 0.26839  0.00007  0.99469  Biso   1.000  C
  N456     1.0000 0.34007  0.91473  0.03256  Biso   1.000  N
  N457     1.0000 0.34007  0.91466  0.03256  Biso   1.000  N
  H684     1.0000 0.35550  0.00000  0.99379  Biso   1.000  H
  H685     1.0000 0.35550  0.00007  0.99379  Biso   1.000  H
  H686     1.0000 0.38250  0.00000  0.02749  Biso   1.000  H
  H687     1.0000 0.38250  0.00007  0.02749  Biso   1.000  H
  C728     1.0000 0.24874  0.71193  0.06369  Biso   1.000  C
  C729     1.0000 0.24874  0.71186  0.06369  Biso   1.000  C
  N458     1.0000 0.32794  0.79741  0.06882  Biso   1.000  N
  H688     1.0000 0.36010  0.73483  0.10581  Biso   1.000  H
  H689     1.0000 0.33259  0.66359  0.08640  Biso   1.000  H
  H690     1.0000 0.36010  0.73476  0.10581  Biso   1.000  H
  N459     1.0000 0.27649  0.91340  0.01481  Biso   1.000  N
  H691     1.0000 0.28260  0.00000  0.97301  Biso   1.000  H
  H692     1.0000 0.24270  0.00000  0.98730  Biso   1.000  H
  H693     1.0000 0.28260  0.00007  0.97301  Biso   1.000  H
  H694     1.0000 0.24270  0.00007  0.98730  Biso   1.000  H
  C730     1.0000 0.31015  0.86759  0.01466  Biso   1.000  C
  C731     1.0000 0.35076  0.86964  0.06361  Biso   1.000  C
  C732     1.0000 0.35076  0.86957  0.06361  Biso   1.000  C
  N460     1.0000 0.26754  0.77930  0.04270  Biso   1.000  N
  H695     1.0000 0.25939  0.64872  0.06029  Biso   1.000  H
  H696     1.0000 0.22331  0.70904  0.05519  Biso   1.000  H
  H697     1.0000 0.25939  0.64865  0.06029  Biso   1.000  H
  C733     1.0000 0.30530  0.77951  0.03776  Biso   1.000  C
  C734     1.0000 0.30530  0.77944  0.03776  Biso   1.000  C
  C735     1.0000 0.25081  0.85822  0.02815  Biso   1.000  C
  C736     1.0000 0.25081  0.85815  0.02815  Biso   1.000  C
  H698     1.0000 0.31631  0.84948  0.99010  Biso   1.000  H
  O233     1.0000 0.37676  0.89113  0.08284  Biso   1.000  O
  O234     1.0000 0.37676  0.89106  0.08284  Biso   1.000  O
  H699     1.0000 0.31300  0.72123  0.02530  Biso   1.000  H
  H700     1.0000 0.31300  0.72116  0.02530  Biso   1.000  H
  O235     1.0000 0.21823  0.87161  0.02704  Biso   1.000  O
  O236     1.0000 0.21823  0.87154  0.02704  Biso   1.000  O
  C737     1.0000 0.74143  0.44648  0.21625  Biso   1.000  C
  N461     1.0000 0.71802  0.42189  0.18678  Biso   1.000  N
  C738     1.0000 0.74143  0.55345  0.21625  Biso   1.000  C
  N462     1.0000 0.77903  0.42280  0.21189  Biso   1.000  N
  H701     1.0000 0.73241  0.42076  0.23890  Biso   1.000  H
  C739     1.0000 0.70499  0.49996  0.17040  Biso   1.000  C
  C740     1.0000 0.70706  0.32697  0.17666  Biso   1.000  C
  N463     1.0000 0.71802  0.57811  0.18678  Biso   1.000  N
  N464     1.0000 0.77903  0.57720  0.21189  Biso   1.000  N
  H702     1.0000 0.73241  0.57917  0.23890  Biso   1.000  H
  C741     1.0000 0.80007  0.49996  0.21104  Biso   1.000  C
  C742     1.0000 0.79311  0.32676  0.21141  Biso   1.000  C
  O237     1.0000 0.68429  0.49996  0.14413  Biso   1.000  O
  N465     1.0000 0.73015  0.28307  0.15245  Biso   1.000  N
  H703     1.0000 0.68249  0.32950  0.16589  Biso   1.000  H
  H704     1.0000 0.70622  0.28758  0.19821  Biso   1.000  H
  C743     1.0000 0.70706  0.67296  0.17666  Biso   1.000  C
  C744     1.0000 0.79311  0.67317  0.21141  Biso   1.000  C
  O238     1.0000 0.83295  0.49996  0.20917  Biso   1.000  O
  N466     1.0000 0.79187  0.28462  0.17661  Biso   1.000  N
  H705     1.0000 0.77909  0.28722  0.22739  Biso   1.000  H
  H706     1.0000 0.81829  0.32739  0.22060  Biso   1.000  H
  C745     1.0000 0.76190  0.22860  0.16190  Biso   1.000  C
  C746     1.0000 0.72229  0.27919  0.11717  Biso   1.000  C
  N467     1.0000 0.73015  0.71686  0.15245  Biso   1.000  N
  H707     1.0000 0.68249  0.67050  0.16589  Biso   1.000  H
  H708     1.0000 0.70622  0.71235  0.19821  Biso   1.000  H
  N468     1.0000 0.79187  0.71538  0.17661  Biso   1.000  N
  H709     1.0000 0.77909  0.71278  0.22739  Biso   1.000  H
  H710     1.0000 0.81829  0.67261  0.22060  Biso   1.000  H
  C747     1.0000 0.81991  0.28462  0.15509  Biso   1.000  C
  C748     1.0000 0.77606  0.19407  0.12667  Biso   1.000  C
  H711     1.0000 0.75609  0.17469  0.17769  Biso   1.000  H
  O239     1.0000 0.69460  0.30836  0.10238  Biso   1.000  O
  N469     1.0000 0.75000  0.23388  0.10069  Biso   1.000  N
  C749     1.0000 0.76190  0.77140  0.16190  Biso   1.000  C
  C750     1.0000 0.72229  0.72081  0.11717  Biso   1.000  C
  C751     1.0000 0.81991  0.71538  0.15509  Biso   1.000  C
  N470     1.0000 0.81143  0.23529  0.12551  Biso   1.000  N
  O240     1.0000 0.84952  0.31936  0.16261  Biso   1.000  O
  H712     1.0000 0.77690  0.12381  0.12541  Biso   1.000  H
  C752     1.0000 0.74874  0.21189  0.06369  Biso   1.000  C
  C753     1.0000 0.77606  0.80586  0.12667  Biso   1.000  C
  H713     1.0000 0.75609  0.82524  0.17769  Biso   1.000  H
  O241     1.0000 0.69460  0.69157  0.10238  Biso   1.000  O
  N471     1.0000 0.75000  0.76605  0.10069  Biso   1.000  N
  N472     1.0000 0.81143  0.76464  0.12551  Biso   1.000  N
  O242     1.0000 0.84952  0.68057  0.16261  Biso   1.000  O
  C754     1.0000 0.83500  0.22747  0.09673  Biso   1.000  C
  N473     1.0000 0.76754  0.27926  0.04270  Biso   1.000  N
  H714     1.0000 0.75939  0.14869  0.06029  Biso   1.000  H
  H715     1.0000 0.72331  0.20908  0.05519  Biso   1.000  H
  H716     1.0000 0.77690  0.87619  0.12541  Biso   1.000  H
  C755     1.0000 0.74874  0.78811  0.06369  Biso   1.000  C
  C756     1.0000 0.83500  0.77246  0.09673  Biso   1.000  C
  N474     1.0000 0.82794  0.29737  0.06882  Biso   1.000  N
  H717     1.0000 0.86010  0.23480  0.10581  Biso   1.000  H
  H718     1.0000 0.83259  0.16362  0.08640  Biso   1.000  H
  C757     1.0000 0.80530  0.27947  0.03776  Biso   1.000  C
  C758     1.0000 0.75081  0.35818  0.02815  Biso   1.000  C
  N475     1.0000 0.76754  0.72067  0.04270  Biso   1.000  N
  H719     1.0000 0.75939  0.85124  0.06029  Biso   1.000  H
  H720     1.0000 0.72331  0.79085  0.05519  Biso   1.000  H
  N476     1.0000 0.82794  0.70256  0.06882  Biso   1.000  N
  H721     1.0000 0.86010  0.76520  0.10581  Biso   1.000  H
  H722     1.0000 0.83259  0.83638  0.08640  Biso   1.000  H
  C759     1.0000 0.85076  0.36960  0.06361  Biso   1.000  C
  C760     1.0000 0.81015  0.36756  0.01466  Biso   1.000  C
  H723     1.0000 0.81300  0.22120  0.02530  Biso   1.000  H
  O243     1.0000 0.71823  0.37157  0.02704  Biso   1.000  O
  N477     1.0000 0.77649  0.41336  0.01481  Biso   1.000  N
  C761     1.0000 0.80530  0.72046  0.03776  Biso   1.000  C
  C762     1.0000 0.75081  0.64174  0.02815  Biso   1.000  C
  C763     1.0000 0.85076  0.63040  0.06361  Biso   1.000  C
  O244     1.0000 0.87676  0.39109  0.08284  Biso   1.000  O
  N478     1.0000 0.84007  0.41470  0.03256  Biso   1.000  N
  H724     1.0000 0.81631  0.34952  0.99010  Biso   1.000  H
  C764     1.0000 0.76839  0.49996  0.99469  Biso   1.000  C
  C765     1.0000 0.81015  0.63237  0.01466  Biso   1.000  C
  H725     1.0000 0.81300  0.77880  0.02530  Biso   1.000  H
  O245     1.0000 0.71823  0.62836  0.02704  Biso   1.000  O
  N479     1.0000 0.77649  0.58657  0.01481  Biso   1.000  N
  O246     1.0000 0.87676  0.60891  0.08284  Biso   1.000  O
  N480     1.0000 0.84007  0.58530  0.03256  Biso   1.000  N
  C766     1.0000 0.85681  0.49996  0.01991  Biso   1.000  C
  H726     1.0000 0.78260  0.49996  0.97301  Biso   1.000  H
  H727     1.0000 0.74270  0.49996  0.98730  Biso   1.000  H
  H728     1.0000 0.81631  0.65048  0.99010  Biso   1.000  H
  H729     1.0000 0.88250  0.49996  0.02749  Biso   1.000  H
  H730     1.0000 0.85550  0.49996  0.99379  Biso   1.000  H
  C767     1.0000 0.25860  0.44648  0.78376  Biso   1.000  C
  C768     1.0000 0.25860  0.55345  0.78376  Biso   1.000  C
  N481     1.0000 0.22098  0.42280  0.78811  Biso   1.000  N
  N482     1.0000 0.28199  0.42189  0.81323  Biso   1.000  N
  H731     1.0000 0.26762  0.42076  0.76110  Biso   1.000  H
  N483     1.0000 0.22098  0.57720  0.78811  Biso   1.000  N
  N484     1.0000 0.28199  0.57811  0.81323  Biso   1.000  N
  H732     1.0000 0.26762  0.57917  0.76110  Biso   1.000  H
  C769     1.0000 0.19997  0.49996  0.78896  Biso   1.000  C
  C770     1.0000 0.20691  0.32676  0.78859  Biso   1.000  C
  C771     1.0000 0.29502  0.49996  0.82960  Biso   1.000  C
  C772     1.0000 0.29298  0.32697  0.82334  Biso   1.000  C
  C773     1.0000 0.20691  0.67317  0.78859  Biso   1.000  C
  C774     1.0000 0.29298  0.67296  0.82334  Biso   1.000  C
  O247     1.0000 0.16709  0.49996  0.79083  Biso   1.000  O
  N485     1.0000 0.20814  0.28462  0.82339  Biso   1.000  N
  H733     1.0000 0.22092  0.28722  0.77261  Biso   1.000  H
  H734     1.0000 0.18172  0.32739  0.77940  Biso   1.000  H
  O248     1.0000 0.31574  0.49996  0.85587  Biso   1.000  O
  N486     1.0000 0.26986  0.28307  0.84753  Biso   1.000  N
  H735     1.0000 0.31752  0.32950  0.83409  Biso   1.000  H
  H736     1.0000 0.29382  0.28758  0.80179  Biso   1.000  H
  N487     1.0000 0.20814  0.71538  0.82339  Biso   1.000  N
  H737     1.0000 0.22092  0.71278  0.77261  Biso   1.000  H
  H738     1.0000 0.18172  0.67261  0.77940  Biso   1.000  H
  N488     1.0000 0.26986  0.71686  0.84753  Biso   1.000  N
  H739     1.0000 0.31752  0.67050  0.83409  Biso   1.000  H
  H740     1.0000 0.29382  0.71235  0.80179  Biso   1.000  H
  C775     1.0000 0.18010  0.28462  0.84491  Biso   1.000  C
  C776     1.0000 0.23812  0.22860  0.83810  Biso   1.000  C
  C777     1.0000 0.27775  0.27919  0.88283  Biso   1.000  C
  C778     1.0000 0.18010  0.71538  0.84491  Biso   1.000  C
  C779     1.0000 0.23812  0.77140  0.83810  Biso   1.000  C
  C780     1.0000 0.27775  0.72081  0.88283  Biso   1.000  C
  O249     1.0000 0.15051  0.31936  0.83739  Biso   1.000  O
  N489     1.0000 0.18859  0.23529  0.87449  Biso   1.000  N
  C781     1.0000 0.22396  0.19407  0.87333  Biso   1.000  C
  H741     1.0000 0.24392  0.17469  0.82231  Biso   1.000  H
  O250     1.0000 0.30541  0.30836  0.89762  Biso   1.000  O
  N490     1.0000 0.25001  0.23388  0.89931  Biso   1.000  N
  O251     1.0000 0.15051  0.68057  0.83739  Biso   1.000  O
  N491     1.0000 0.18859  0.76464  0.87449  Biso   1.000  N
  C782     1.0000 0.22396  0.80586  0.87333  Biso   1.000  C
  H742     1.0000 0.24392  0.82524  0.82231  Biso   1.000  H
  O252     1.0000 0.30541  0.69157  0.89762  Biso   1.000  O
  N492     1.0000 0.25001  0.76605  0.89931  Biso   1.000  N
  C783     1.0000 0.16501  0.22747  0.90325  Biso   1.000  C
  H743     1.0000 0.22311  0.12381  0.87460  Biso   1.000  H
  C784     1.0000 0.25127  0.21189  0.93631  Biso   1.000  C
  C785     1.0000 0.16501  0.77246  0.90325  Biso   1.000  C
  H744     1.0000 0.22311  0.87619  0.87460  Biso   1.000  H
  C786     1.0000 0.25127  0.78811  0.93631  Biso   1.000  C
  N493     1.0000 0.17207  0.29737  0.93119  Biso   1.000  N
  H745     1.0000 0.13991  0.23480  0.89419  Biso   1.000  H
  H746     1.0000 0.16742  0.16362  0.91360  Biso   1.000  H
  N494     1.0000 0.23247  0.27926  0.95730  Biso   1.000  N
  H747     1.0000 0.24062  0.14869  0.93969  Biso   1.000  H
  H748     1.0000 0.27672  0.20908  0.94481  Biso   1.000  H
  N495     1.0000 0.17207  0.70256  0.93119  Biso   1.000  N
  H749     1.0000 0.13991  0.76520  0.89419  Biso   1.000  H
  H750     1.0000 0.16742  0.83638  0.91360  Biso   1.000  H
  N496     1.0000 0.23247  0.72067  0.95730  Biso   1.000  N
  H751     1.0000 0.24062  0.85124  0.93969  Biso   1.000  H
  H752     1.0000 0.27672  0.79085  0.94481  Biso   1.000  H
  C787     1.0000 0.14925  0.36960  0.93639  Biso   1.000  C
  C788     1.0000 0.19471  0.27947  0.96224  Biso   1.000  C
  C789     1.0000 0.24920  0.35818  0.97185  Biso   1.000  C
  C790     1.0000 0.14925  0.63040  0.93639  Biso   1.000  C
  C791     1.0000 0.19471  0.72046  0.96224  Biso   1.000  C
  C792     1.0000 0.24920  0.64174  0.97185  Biso   1.000  C
  O253     1.0000 0.12325  0.39109  0.91716  Biso   1.000  O
  N497     1.0000 0.15996  0.41470  0.96744  Biso   1.000  N
  C793     1.0000 0.18989  0.36756  0.98535  Biso   1.000  C
  H753     1.0000 0.18702  0.22120  0.97470  Biso   1.000  H
  O254     1.0000 0.28178  0.37157  0.97296  Biso   1.000  O
  N498     1.0000 0.22352  0.41336  0.98519  Biso   1.000  N
  O255     1.0000 0.12325  0.60891  0.91716  Biso   1.000  O
  N499     1.0000 0.15996  0.58530  0.96744  Biso   1.000  N
  C794     1.0000 0.18989  0.63237  0.98535  Biso   1.000  C
  H754     1.0000 0.18702  0.77880  0.97470  Biso   1.000  H
  O256     1.0000 0.28178  0.62836  0.97296  Biso   1.000  O
  N500     1.0000 0.22352  0.58657  0.98519  Biso   1.000  N
  C795     1.0000 0.14320  0.49996  0.98009  Biso   1.000  C
  H755     1.0000 0.18373  0.34952  0.00990  Biso   1.000  H
  C796     1.0000 0.23162  0.49996  0.00531  Biso   1.000  C
  H756     1.0000 0.18373  0.65048  0.00990  Biso   1.000  H
  H757     1.0000 0.11751  0.49996  0.97251  Biso   1.000  H
  H758     1.0000 0.14451  0.49996  0.00621  Biso   1.000  H
  H759     1.0000 0.21741  0.49996  0.02699  Biso   1.000  H
  H760     1.0000 0.25731  0.49996  0.01270  Biso   1.000  H
  O257     1.0000 0.87963  0.39222  0.66046  Biso   1.000  O
  C797     1.0000 0.90149  0.37038  0.68341  Biso   1.000  C
  N501     1.0000 0.92444  0.29469  0.68238  Biso   1.000  N
  N502     1.0000 0.90755  0.41442  0.71494  Biso   1.000  N
  C798     1.0000 0.92226  0.22740  0.65354  Biso   1.000  C
  C799     1.0000 0.94336  0.27926  0.71571  Biso   1.000  C
  C800     1.0000 0.93322  0.36587  0.73773  Biso   1.000  C
  C801     1.0000 0.88895  0.49996  0.72487  Biso   1.000  C
  N503     1.0000 0.95038  0.23860  0.62827  Biso   1.000  N
  H761     1.0000 0.89862  0.23430  0.64100  Biso   1.000  H
  H762     1.0000 0.92360  0.16292  0.66339  Biso   1.000  H
  N504     1.0000 0.98252  0.28666  0.71441  Biso   1.000  N
  H763     1.0000 0.93582  0.21908  0.72711  Biso   1.000  H
  N505     1.0000 0.96760  0.41385  0.74359  Biso   1.000  N
  H764     1.0000 0.92251  0.34712  0.76049  Biso   1.000  H
  H765     1.0000 0.86462  0.49996  0.71349  Biso   1.000  H
  H766     1.0000 0.88611  0.49996  0.75080  Biso   1.000  H
  N506     1.0000 0.90755  0.58558  0.71494  Biso   1.000  N
  C802     1.0000 0.94512  0.28659  0.59727  Biso   1.000  C
  C803     1.0000 0.98623  0.19886  0.63213  Biso   1.000  C
  C804     1.0000 0.00515  0.21922  0.69717  Biso   1.000  C
  C805     1.0000 0.99541  0.36685  0.73060  Biso   1.000  C
  C806     1.0000 0.97233  0.49996  0.76411  Biso   1.000  C
  C807     1.0000 0.90149  0.62955  0.68341  Biso   1.000  C
  C808     1.0000 0.93322  0.63406  0.73773  Biso   1.000  C
  O258     1.0000 0.91642  0.31830  0.58602  Biso   1.000  O
  N507     1.0000 0.97715  0.28892  0.58056  Biso   1.000  N
  C809     1.0000 0.00413  0.23106  0.59798  Biso   1.000  C
  H767     1.0000 0.98531  0.12860  0.63361  Biso   1.000  H
  N508     1.0000 0.00887  0.23719  0.65972  Biso   1.000  N
  H768     1.0000 0.99501  0.15538  0.70020  Biso   1.000  H
  H769     1.0000 0.02931  0.22000  0.70900  Biso   1.000  H
  O259     1.0000 0.02710  0.38757  0.73395  Biso   1.000  O
  H770     1.0000 0.95492  0.49996  0.78331  Biso   1.000  H
  H771     1.0000 0.99671  0.49996  0.77531  Biso   1.000  H
  N509     1.0000 0.96760  0.58608  0.74359  Biso   1.000  N
  O260     1.0000 0.87963  0.60778  0.66046  Biso   1.000  O
  N510     1.0000 0.92444  0.70531  0.68238  Biso   1.000  N
  C810     1.0000 0.94336  0.72067  0.71571  Biso   1.000  C
  H772     1.0000 0.92251  0.65288  0.76049  Biso   1.000  H
  C811     1.0000 0.97968  0.32690  0.54530  Biso   1.000  C
  N511     1.0000 0.03546  0.28131  0.61084  Biso   1.000  N
  H773     1.0000 0.01071  0.17610  0.58301  Biso   1.000  H
  C812     1.0000 0.03845  0.28250  0.64758  Biso   1.000  C
  C813     1.0000 0.99541  0.63308  0.73060  Biso   1.000  C
  C814     1.0000 0.92226  0.77260  0.65354  Biso   1.000  C
  N512     1.0000 0.98252  0.71327  0.71441  Biso   1.000  N
  H774     1.0000 0.93582  0.78085  0.72711  Biso   1.000  H
  N513     1.0000 0.99389  0.42217  0.54477  Biso   1.000  N
  H775     1.0000 0.95550  0.32662  0.53360  Biso   1.000  H
  H776     1.0000 0.99530  0.28539  0.53149  Biso   1.000  H
  C815     1.0000 0.06027  0.32669  0.59043  Biso   1.000  C
  O261     1.0000 0.06399  0.31316  0.66519  Biso   1.000  O
  O262     1.0000 0.02710  0.61236  0.73395  Biso   1.000  O
  N514     1.0000 0.95038  0.76140  0.62827  Biso   1.000  N
  H777     1.0000 0.89862  0.76570  0.64100  Biso   1.000  H
  H778     1.0000 0.92360  0.83708  0.66339  Biso   1.000  H
  C816     1.0000 0.00515  0.78078  0.69717  Biso   1.000  C
  C817     1.0000 0.97218  0.49996  0.54353  Biso   1.000  C
  C818     1.0000 0.03131  0.44620  0.54607  Biso   1.000  C
  N515     1.0000 0.05019  0.42182  0.57873  Biso   1.000  N
  H779     1.0000 0.06440  0.28772  0.56931  Biso   1.000  H
  H780     1.0000 0.08331  0.33070  0.60419  Biso   1.000  H
  C819     1.0000 0.94512  0.71341  0.59727  Biso   1.000  C
  C820     1.0000 0.98623  0.80107  0.63213  Biso   1.000  C
  N516     1.0000 0.00887  0.76281  0.65972  Biso   1.000  N
  H781     1.0000 0.99501  0.84455  0.70020  Biso   1.000  H
  H782     1.0000 0.02931  0.78000  0.70900  Biso   1.000  H
  O263     1.0000 0.93906  0.49996  0.54145  Biso   1.000  O
  N517     1.0000 0.99389  0.57776  0.54477  Biso   1.000  N
  H783     1.0000 0.04380  0.42048  0.52521  Biso   1.000  H
  C821     1.0000 0.03131  0.55380  0.54607  Biso   1.000  C
  C822     1.0000 0.06317  0.49996  0.59658  Biso   1.000  C
  N518     1.0000 0.97715  0.71108  0.58056  Biso   1.000  N
  O264     1.0000 0.91642  0.68170  0.58602  Biso   1.000  O
  C823     1.0000 0.00413  0.76887  0.59798  Biso   1.000  C
  H784     1.0000 0.98531  0.87140  0.63361  Biso   1.000  H
  C824     1.0000 0.03845  0.71750  0.64758  Biso   1.000  C
  C825     1.0000 0.97968  0.67310  0.54530  Biso   1.000  C
  N519     1.0000 0.05019  0.57818  0.57873  Biso   1.000  N
  H785     1.0000 0.04380  0.57945  0.52521  Biso   1.000  H
  O265     1.0000 0.08304  0.49996  0.62315  Biso   1.000  O
  N520     1.0000 0.03546  0.71869  0.61084  Biso   1.000  N
  H786     1.0000 0.01071  0.82390  0.58301  Biso   1.000  H
  O266     1.0000 0.06399  0.68677  0.66519  Biso   1.000  O
  H787     1.0000 0.95550  0.67338  0.53360  Biso   1.000  H
  H788     1.0000 0.99530  0.71461  0.53149  Biso   1.000  H
  C826     1.0000 0.06027  0.67324  0.59043  Biso   1.000  C
  H789     1.0000 0.06440  0.71228  0.56931  Biso   1.000  H
  H790     1.0000 0.08331  0.66930  0.60419  Biso   1.000  H
  O267     1.0000 0.12038  0.39222  0.33954  Biso   1.000  O
  C827     1.0000 0.09852  0.37038  0.31659  Biso   1.000  C
  N521     1.0000 0.07558  0.29469  0.31762  Biso   1.000  N
  N522     1.0000 0.09249  0.41442  0.28506  Biso   1.000  N
  C828     1.0000 0.07775  0.22740  0.34646  Biso   1.000  C
  C829     1.0000 0.05665  0.27926  0.28430  Biso   1.000  C
  C830     1.0000 0.06679  0.36587  0.26227  Biso   1.000  C
  C831     1.0000 0.11106  0.49996  0.27513  Biso   1.000  C
  N523     1.0000 0.04963  0.23860  0.37173  Biso   1.000  N
  H791     1.0000 0.10139  0.23430  0.35900  Biso   1.000  H
  H792     1.0000 0.07641  0.16292  0.33661  Biso   1.000  H
  N524     1.0000 0.01752  0.28666  0.28559  Biso   1.000  N
  H793     1.0000 0.06421  0.21908  0.27289  Biso   1.000  H
  N525     1.0000 0.03243  0.41385  0.25641  Biso   1.000  N
  H794     1.0000 0.07750  0.34712  0.23951  Biso   1.000  H
  H795     1.0000 0.13541  0.49996  0.28649  Biso   1.000  H
  H796     1.0000 0.11390  0.49996  0.24920  Biso   1.000  H
  N526     1.0000 0.09249  0.58558  0.28506  Biso   1.000  N
  C832     1.0000 0.05489  0.28659  0.40273  Biso   1.000  C
  C833     1.0000 0.01378  0.19886  0.36785  Biso   1.000  C
  C834     1.0000 0.00462  0.36685  0.26940  Biso   1.000  C
  C835     1.0000 0.99488  0.21922  0.30281  Biso   1.000  C
  C836     1.0000 0.02768  0.49996  0.23589  Biso   1.000  C
  C837     1.0000 0.09852  0.62955  0.31659  Biso   1.000  C
  C838     1.0000 0.06679  0.63406  0.26227  Biso   1.000  C
  O268     1.0000 0.08359  0.31830  0.41398  Biso   1.000  O
  N527     1.0000 0.02287  0.28892  0.41945  Biso   1.000  N
  H797     1.0000 0.01470  0.12860  0.36640  Biso   1.000  H
  N528     1.0000 0.99114  0.23719  0.34028  Biso   1.000  N
  C839     1.0000 0.99591  0.23106  0.40202  Biso   1.000  C
  O269     1.0000 0.97293  0.38757  0.26605  Biso   1.000  O
  H798     1.0000 0.00501  0.15538  0.29980  Biso   1.000  H
  H799     1.0000 0.97071  0.22000  0.29100  Biso   1.000  H
  H800     1.0000 0.04509  0.49996  0.21669  Biso   1.000  H
  H801     1.0000 0.00331  0.49996  0.22470  Biso   1.000  H
  N529     1.0000 0.03243  0.58608  0.25641  Biso   1.000  N
  O270     1.0000 0.12038  0.60778  0.33954  Biso   1.000  O
  N530     1.0000 0.07558  0.70531  0.31762  Biso   1.000  N
  C840     1.0000 0.05665  0.72067  0.28430  Biso   1.000  C
  H802     1.0000 0.07750  0.65288  0.23951  Biso   1.000  H
  C841     1.0000 0.02036  0.32690  0.45470  Biso   1.000  C
  C842     1.0000 0.96158  0.28250  0.35243  Biso   1.000  C
  N531     1.0000 0.96455  0.28131  0.38916  Biso   1.000  N
  H803     1.0000 0.98930  0.17610  0.41699  Biso   1.000  H
  C843     1.0000 0.00462  0.63308  0.26940  Biso   1.000  C
  C844     1.0000 0.07775  0.77260  0.34646  Biso   1.000  C
  N532     1.0000 0.01752  0.71327  0.28559  Biso   1.000  N
  H804     1.0000 0.06421  0.78085  0.27289  Biso   1.000  H
  N533     1.0000 0.00612  0.42217  0.45523  Biso   1.000  N
  H805     1.0000 0.04451  0.32662  0.46640  Biso   1.000  H
  H806     1.0000 0.00471  0.28539  0.46851  Biso   1.000  H
  O271     1.0000 0.93604  0.31316  0.33481  Biso   1.000  O
  C845     1.0000 0.93974  0.32669  0.40957  Biso   1.000  C
  O272     1.0000 0.97293  0.61236  0.26605  Biso   1.000  O
  N534     1.0000 0.04963  0.76140  0.37173  Biso   1.000  N
  H807     1.0000 0.10139  0.76570  0.35900  Biso   1.000  H
  H808     1.0000 0.07641  0.83708  0.33661  Biso   1.000  H
  C846     1.0000 0.99488  0.78078  0.30281  Biso   1.000  C
  C847     1.0000 0.02783  0.49996  0.45647  Biso   1.000  C
  C848     1.0000 0.96873  0.44620  0.45393  Biso   1.000  C
  N535     1.0000 0.94983  0.42182  0.42127  Biso   1.000  N
  H809     1.0000 0.93561  0.28772  0.43070  Biso   1.000  H
  H810     1.0000 0.91670  0.33070  0.39581  Biso   1.000  H
  C849     1.0000 0.05489  0.71341  0.40273  Biso   1.000  C
  C850     1.0000 0.01378  0.80107  0.36785  Biso   1.000  C
  H811     1.0000 0.00501  0.84455  0.29980  Biso   1.000  H
  N536     1.0000 0.99114  0.76281  0.34028  Biso   1.000  N
  H812     1.0000 0.97071  0.78000  0.29100  Biso   1.000  H
  O273     1.0000 0.06095  0.49996  0.45856  Biso   1.000  O
  N537     1.0000 0.00612  0.57776  0.45523  Biso   1.000  N
  H813     1.0000 0.95621  0.42048  0.47480  Biso   1.000  H
  C851     1.0000 0.96873  0.55380  0.45393  Biso   1.000  C
  C852     1.0000 0.93684  0.49996  0.40342  Biso   1.000  C
  O274     1.0000 0.08359  0.68170  0.41398  Biso   1.000  O
  N538     1.0000 0.02287  0.71108  0.41945  Biso   1.000  N
  H814     1.0000 0.01470  0.87140  0.36640  Biso   1.000  H
  C853     1.0000 0.99591  0.76887  0.40202  Biso   1.000  C
  C854     1.0000 0.96158  0.71750  0.35243  Biso   1.000  C
  C855     1.0000 0.02036  0.67310  0.45470  Biso   1.000  C
  N539     1.0000 0.94983  0.57818  0.42127  Biso   1.000  N
  H815     1.0000 0.95621  0.57945  0.47480  Biso   1.000  H
  O275     1.0000 0.91697  0.49996  0.37685  Biso   1.000  O
  N540     1.0000 0.96455  0.71869  0.38916  Biso   1.000  N
  H816     1.0000 0.98930  0.82390  0.41699  Biso   1.000  H
  O276     1.0000 0.93604  0.68677  0.33481  Biso   1.000  O
  H817     1.0000 0.04451  0.67338  0.46640  Biso   1.000  H
  H818     1.0000 0.00471  0.71461  0.46851  Biso   1.000  H
  C856     1.0000 0.93974  0.67324  0.40957  Biso   1.000  C
  H819     1.0000 0.93561  0.71228  0.43070  Biso   1.000  H
  H820     1.0000 0.91670  0.66930  0.39581  Biso   1.000  H
  C857     1.0000 0.90990  0.00000  0.21548  Biso   1.000  C
  N541     1.0000 0.92173  0.91459  0.19850  Biso   1.000  N
  H821     1.0000 0.91900  0.00000  0.24030  Biso   1.000  H
  H822     1.0000 0.88330  0.00000  0.21561  Biso   1.000  H
  N542     1.0000 0.92173  0.08541  0.19850  Biso   1.000  N
  H823     1.0000 0.91900  0.00007  0.24030  Biso   1.000  H
  H824     1.0000 0.88330  0.00007  0.21561  Biso   1.000  H
  C858     1.0000 0.90278  0.86717  0.16995  Biso   1.000  C
  C859     1.0000 0.95382  0.87140  0.20790  Biso   1.000  C
  C860     1.0000 0.90278  0.86724  0.16995  Biso   1.000  C
  C861     1.0000 0.90990  0.00007  0.21548  Biso   1.000  C
  C862     1.0000 0.95382  0.12860  0.20790  Biso   1.000  C
  C863     1.0000 0.90278  0.13276  0.16995  Biso   1.000  C
  C864     1.0000 0.90278  0.13283  0.16995  Biso   1.000  C
  N543     1.0000 0.90107  0.91523  0.13623  Biso   1.000  N
  H825     1.0000 0.87831  0.84751  0.17711  Biso   1.000  H
  C865     1.0000 0.92656  0.78021  0.16285  Biso   1.000  C
  N544     1.0000 0.90107  0.91516  0.13623  Biso   1.000  N
  H826     1.0000 0.87831  0.84744  0.17711  Biso   1.000  H
  C866     1.0000 0.92656  0.78028  0.16285  Biso   1.000  C
  N545     1.0000 0.95827  0.79642  0.18588  Biso   1.000  N
  N546     1.0000 0.95827  0.79635  0.18588  Biso   1.000  N
  O277     1.0000 0.97317  0.89303  0.23328  Biso   1.000  O
  O278     1.0000 0.97317  0.89296  0.23328  Biso   1.000  O
  O279     1.0000 0.97317  0.10697  0.23328  Biso   1.000  O
  N547     1.0000 0.95827  0.20358  0.18588  Biso   1.000  N
  O280     1.0000 0.97317  0.10704  0.23328  Biso   1.000  O
  N548     1.0000 0.90107  0.08477  0.13623  Biso   1.000  N
  H827     1.0000 0.87831  0.15249  0.17711  Biso   1.000  H
  C867     1.0000 0.92656  0.21972  0.16285  Biso   1.000  C
  H828     1.0000 0.87831  0.15256  0.17711  Biso   1.000  H
  C868     1.0000 0.92656  0.21965  0.16285  Biso   1.000  C
  C869     1.0000 0.91769  0.86520  0.11059  Biso   1.000  C
  C870     1.0000 0.88122  0.00000  0.12844  Biso   1.000  C
  C871     1.0000 0.88122  0.00007  0.12844  Biso   1.000  C
  N549     1.0000 0.93299  0.78754  0.12543  Biso   1.000  N
  H829     1.0000 0.91409  0.72010  0.16869  Biso   1.000  H
  N550     1.0000 0.93299  0.78747  0.12543  Biso   1.000  N
  C872     1.0000 0.98596  0.72842  0.19211  Biso   1.000  C
  C873     1.0000 0.98596  0.72835  0.19211  Biso   1.000  C
  C874     1.0000 0.98596  0.27158  0.19211  Biso   1.000  C
  C875     1.0000 0.98596  0.27165  0.19211  Biso   1.000  C
  C876     1.0000 0.91769  0.13480  0.11059  Biso   1.000  C
  N551     1.0000 0.93299  0.21246  0.12543  Biso   1.000  N
  N552     1.0000 0.93299  0.21253  0.12543  Biso   1.000  N
  H830     1.0000 0.91409  0.27990  0.16869  Biso   1.000  H
  H831     1.0000 0.91409  0.27983  0.16869  Biso   1.000  H
  O281     1.0000 0.91776  0.88577  0.07917  Biso   1.000  O
  H832     1.0000 0.85911  0.00000  0.14220  Biso   1.000  H
  H833     1.0000 0.87380  0.00000  0.10309  Biso   1.000  H
  H834     1.0000 0.85911  0.00007  0.14220  Biso   1.000  H
  H835     1.0000 0.87380  0.00007  0.10309  Biso   1.000  H
  C877     1.0000 0.95332  0.71961  0.10608  Biso   1.000  C
  C878     1.0000 0.95332  0.71954  0.10608  Biso   1.000  C
  H836     1.0000 0.97560  0.66451  0.18921  Biso   1.000  H
  H837     1.0000 0.99521  0.73434  0.21680  Biso   1.000  H
  H838     1.0000 0.99521  0.73441  0.21680  Biso   1.000  H
  N553     1.0000 0.01570  0.73864  0.16858  Biso   1.000  N
  N554     1.0000 0.01570  0.73857  0.16858  Biso   1.000  N
  H839     1.0000 0.97560  0.33549  0.18921  Biso   1.000  H
  H840     1.0000 0.99521  0.26559  0.21680  Biso   1.000  H
  H841     1.0000 0.99521  0.26552  0.21680  Biso   1.000  H
  N555     1.0000 0.01570  0.26136  0.16858  Biso   1.000  N
  O282     1.0000 0.91776  0.11423  0.07917  Biso   1.000  O
  O283     1.0000 0.91776  0.11416  0.07917  Biso   1.000  O
  C879     1.0000 0.95332  0.28039  0.10608  Biso   1.000  C
  C880     1.0000 0.95332  0.28046  0.10608  Biso   1.000  C
  N556     1.0000 0.99177  0.73751  0.10769  Biso   1.000  N
  H842     1.0000 0.94470  0.72017  0.08110  Biso   1.000  H
  H843     1.0000 0.94880  0.65598  0.11569  Biso   1.000  H
  N557     1.0000 0.99177  0.73744  0.10769  Biso   1.000  N
  C881     1.0000 0.04706  0.78233  0.17827  Biso   1.000  C
  C882     1.0000 0.01683  0.69741  0.13383  Biso   1.000  C
  C883     1.0000 0.04706  0.78226  0.17827  Biso   1.000  C
  C884     1.0000 0.01683  0.69734  0.13383  Biso   1.000  C
  C885     1.0000 0.04706  0.21767  0.17827  Biso   1.000  C
  C886     1.0000 0.01683  0.30259  0.13383  Biso   1.000  C
  C887     1.0000 0.04706  0.21774  0.17827  Biso   1.000  C
  N558     1.0000 0.99177  0.26249  0.10769  Biso   1.000  N
  H844     1.0000 0.94470  0.27983  0.08110  Biso   1.000  H
  H845     1.0000 0.94880  0.34402  0.11569  Biso   1.000  H
  N559     1.0000 0.99177  0.26256  0.10769  Biso   1.000  N
  H846     1.0000 0.94880  0.34395  0.11569  Biso   1.000  H
  C888     1.0000 0.00868  0.78493  0.08191  Biso   1.000  C
  C889     1.0000 0.00868  0.78500  0.08191  Biso   1.000  C
  O284     1.0000 0.05382  0.81700  0.20772  Biso   1.000  O
  N560     1.0000 0.06909  0.78099  0.15097  Biso   1.000  N
  H847     1.0000 0.01520  0.62709  0.13470  Biso   1.000  H
  C890     1.0000 0.05408  0.73131  0.12055  Biso   1.000  C
  O285     1.0000 0.05382  0.18300  0.20772  Biso   1.000  O
  N561     1.0000 0.06909  0.21901  0.15097  Biso   1.000  N
  N562     1.0000 0.06909  0.21894  0.15097  Biso   1.000  N
  H848     1.0000 0.01520  0.37291  0.13470  Biso   1.000  H
  C891     1.0000 0.05408  0.26869  0.12055  Biso   1.000  C
  C892     1.0000 0.00868  0.21500  0.08191  Biso   1.000  C
  C893     1.0000 0.00868  0.21492  0.08191  Biso   1.000  C
  O286     1.0000 0.99466  0.81834  0.05540  Biso   1.000  O
  O287     1.0000 0.99466  0.81827  0.05540  Biso   1.000  O
  N563     1.0000 0.04478  0.78789  0.09076  Biso   1.000  N
  C894     1.0000 0.10395  0.82693  0.15274  Biso   1.000  C
  C895     1.0000 0.10395  0.82686  0.15274  Biso   1.000  C
  H849     1.0000 0.06950  0.67677  0.11400  Biso   1.000  H
  C896     1.0000 0.10395  0.17307  0.15274  Biso   1.000  C
  N564     1.0000 0.04478  0.21211  0.09076  Biso   1.000  N
  N565     1.0000 0.04478  0.21204  0.09076  Biso   1.000  N
  H850     1.0000 0.06950  0.32316  0.11400  Biso   1.000  H
  H851     1.0000 0.06950  0.32323  0.11400  Biso   1.000  H
  O288     1.0000 0.99466  0.18166  0.05540  Biso   1.000  O
  C897     1.0000 0.07059  0.82721  0.06686  Biso   1.000  C
  C898     1.0000 0.07059  0.82714  0.06686  Biso   1.000  C
  N566     1.0000 0.10311  0.92157  0.13824  Biso   1.000  N
  H852     1.0000 0.11270  0.82982  0.17769  Biso   1.000  H
  H853     1.0000 0.12120  0.78853  0.13961  Biso   1.000  H
  H854     1.0000 0.11270  0.82975  0.17769  Biso   1.000  H
  H855     1.0000 0.12120  0.78846  0.13961  Biso   1.000  H
  N567     1.0000 0.10311  0.07843  0.13824  Biso   1.000  N
  H856     1.0000 0.11270  0.17018  0.17769  Biso   1.000  H
  H857     1.0000 0.12120  0.21147  0.13961  Biso   1.000  H
  H858     1.0000 0.11270  0.17025  0.17769  Biso   1.000  H
  H859     1.0000 0.12120  0.21154  0.13961  Biso   1.000  H
  C899     1.0000 0.07059  0.17279  0.06686  Biso   1.000  C
  C900     1.0000 0.07059  0.17286  0.06686  Biso   1.000  C
  N568     1.0000 0.08185  0.92249  0.07682  Biso   1.000  N
  H860     1.0000 0.05969  0.82848  0.04270  Biso   1.000  H
  H861     1.0000 0.09201  0.78592  0.06670  Biso   1.000  H
  H862     1.0000 0.09201  0.78585  0.06670  Biso   1.000  H
  C901     1.0000 0.11039  0.94539  0.10196  Biso   1.000  C
  C902     1.0000 0.10231  0.00000  0.15942  Biso   1.000  C
  C903     1.0000 0.10231  0.00007  0.15942  Biso   1.000  C
  C904     1.0000 0.11039  0.05461  0.10196  Biso   1.000  C
  C905     1.0000 0.11039  0.05454  0.10196  Biso   1.000  C
  N569     1.0000 0.08185  0.07751  0.07682  Biso   1.000  N
  H863     1.0000 0.05969  0.17152  0.04270  Biso   1.000  H
  H864     1.0000 0.09201  0.21408  0.06670  Biso   1.000  H
  H865     1.0000 0.05969  0.17145  0.04270  Biso   1.000  H
  C906     1.0000 0.06641  0.00000  0.06108  Biso   1.000  C
  C907     1.0000 0.06641  0.00007  0.06108  Biso   1.000  C
  H866     1.0000 0.13400  0.91932  0.09470  Biso   1.000  H
  H867     1.0000 0.13400  0.91939  0.09470  Biso   1.000  H
  O289     1.0000 0.10011  0.00000  0.19187  Biso   1.000  O
  O290     1.0000 0.10011  0.00007  0.19187  Biso   1.000  O
  H868     1.0000 0.13400  0.08061  0.09470  Biso   1.000  H
  O291     1.0000 0.04351  0.00000  0.03768  Biso   1.000  O
  O292     1.0000 0.04351  0.00007  0.03768  Biso   1.000  O
  C908     1.0000 0.90990  0.00000  0.21548  Biso   1.000  C
  N570     1.0000 0.92173  0.91459  0.19850  Biso   1.000  N
  H869     1.0000 0.91900  0.00000  0.24030  Biso   1.000  H
  H870     1.0000 0.88330  0.00000  0.21561  Biso   1.000  H
  N571     1.0000 0.92173  0.08541  0.19850  Biso   1.000  N
  H871     1.0000 0.91900  0.00007  0.24030  Biso   1.000  H
  H872     1.0000 0.88330  0.00007  0.21561  Biso   1.000  H
  C909     1.0000 0.95382  0.87140  0.20790  Biso   1.000  C
  C910     1.0000 0.90278  0.86724  0.16995  Biso   1.000  C
  C911     1.0000 0.90278  0.86717  0.16995  Biso   1.000  C
  C912     1.0000 0.90990  0.00007  0.21548  Biso   1.000  C
  C913     1.0000 0.95382  0.12860  0.20790  Biso   1.000  C
  C914     1.0000 0.90278  0.13276  0.16995  Biso   1.000  C
  C915     1.0000 0.90278  0.13283  0.16995  Biso   1.000  C
  O293     1.0000 0.97317  0.89303  0.23328  Biso   1.000  O
  N572     1.0000 0.95827  0.79642  0.18588  Biso   1.000  N
  O294     1.0000 0.97317  0.89296  0.23328  Biso   1.000  O
  N573     1.0000 0.95827  0.79635  0.18588  Biso   1.000  N
  N574     1.0000 0.90107  0.91523  0.13623  Biso   1.000  N
  H873     1.0000 0.87831  0.84751  0.17711  Biso   1.000  H
  C916     1.0000 0.92656  0.78021  0.16285  Biso   1.000  C
  N575     1.0000 0.90107  0.91516  0.13623  Biso   1.000  N
  H874     1.0000 0.87831  0.84744  0.17711  Biso   1.000  H
  C917     1.0000 0.92656  0.78028  0.16285  Biso   1.000  C
  O295     1.0000 0.97317  0.10697  0.23328  Biso   1.000  O
  N576     1.0000 0.95827  0.20358  0.18588  Biso   1.000  N
  O296     1.0000 0.97317  0.10704  0.23328  Biso   1.000  O
  N577     1.0000 0.90107  0.08477  0.13623  Biso   1.000  N
  H875     1.0000 0.87831  0.15249  0.17711  Biso   1.000  H
  C918     1.0000 0.92656  0.21972  0.16285  Biso   1.000  C
  H876     1.0000 0.87831  0.15256  0.17711  Biso   1.000  H
  C919     1.0000 0.92656  0.21965  0.16285  Biso   1.000  C
  C920     1.0000 0.98596  0.72842  0.19211  Biso   1.000  C
  C921     1.0000 0.98596  0.72835  0.19211  Biso   1.000  C
  C922     1.0000 0.91769  0.86520  0.11059  Biso   1.000  C
  C923     1.0000 0.88122  0.00000  0.12844  Biso   1.000  C
  C924     1.0000 0.88122  0.00007  0.12844  Biso   1.000  C
  H877     1.0000 0.91409  0.72010  0.16869  Biso   1.000  H
  N578     1.0000 0.93299  0.78754  0.12543  Biso   1.000  N
  N579     1.0000 0.93299  0.78747  0.12543  Biso   1.000  N
  C925     1.0000 0.98596  0.27158  0.19211  Biso   1.000  C
  C926     1.0000 0.98596  0.27165  0.19211  Biso   1.000  C
  C927     1.0000 0.91769  0.13480  0.11059  Biso   1.000  C
  N580     1.0000 0.93299  0.21246  0.12543  Biso   1.000  N
  H878     1.0000 0.91409  0.27990  0.16869  Biso   1.000  H
  N581     1.0000 0.93299  0.21253  0.12543  Biso   1.000  N
  H879     1.0000 0.91409  0.27983  0.16869  Biso   1.000  H
  H880     1.0000 0.97560  0.66451  0.18921  Biso   1.000  H
  H881     1.0000 0.99521  0.73434  0.21680  Biso   1.000  H
  H882     1.0000 0.99521  0.73441  0.21680  Biso   1.000  H
  N582     1.0000 0.01570  0.73864  0.16858  Biso   1.000  N
  N583     1.0000 0.01570  0.73857  0.16858  Biso   1.000  N
  O297     1.0000 0.91776  0.88577  0.07917  Biso   1.000  O
  H883     1.0000 0.85911  0.00000  0.14220  Biso   1.000  H
  H884     1.0000 0.87380  0.00000  0.10309  Biso   1.000  H
  H885     1.0000 0.85911  0.00007  0.14220  Biso   1.000  H
  H886     1.0000 0.87380  0.00007  0.10309  Biso   1.000  H
  C928     1.0000 0.95332  0.71961  0.10608  Biso   1.000  C
  C929     1.0000 0.95332  0.71954  0.10608  Biso   1.000  C
  H887     1.0000 0.97560  0.33549  0.18921  Biso   1.000  H
  H888     1.0000 0.99521  0.26559  0.21680  Biso   1.000  H
  H889     1.0000 0.99521  0.26552  0.21680  Biso   1.000  H
  N584     1.0000 0.01570  0.26136  0.16858  Biso   1.000  N
  O298     1.0000 0.91776  0.11423  0.07917  Biso   1.000  O
  O299     1.0000 0.91776  0.11416  0.07917  Biso   1.000  O
  C930     1.0000 0.95332  0.28039  0.10608  Biso   1.000  C
  C931     1.0000 0.95332  0.28046  0.10608  Biso   1.000  C
  C932     1.0000 0.04706  0.78233  0.17827  Biso   1.000  C
  C933     1.0000 0.01683  0.69741  0.13383  Biso   1.000  C
  C934     1.0000 0.04706  0.78226  0.17827  Biso   1.000  C
  C935     1.0000 0.01683  0.69734  0.13383  Biso   1.000  C
  H890     1.0000 0.94470  0.72017  0.08110  Biso   1.000  H
  H891     1.0000 0.94880  0.65598  0.11569  Biso   1.000  H
  N585     1.0000 0.99177  0.73751  0.10769  Biso   1.000  N
  N586     1.0000 0.99177  0.73744  0.10769  Biso   1.000  N
  C936     1.0000 0.04706  0.21767  0.17827  Biso   1.000  C
  C937     1.0000 0.01683  0.30259  0.13383  Biso   1.000  C
  C938     1.0000 0.04706  0.21774  0.17827  Biso   1.000  C
  N587     1.0000 0.99177  0.26249  0.10769  Biso   1.000  N
  H892     1.0000 0.94470  0.27983  0.08110  Biso   1.000  H
  H893     1.0000 0.94880  0.34402  0.11569  Biso   1.000  H
  N588     1.0000 0.99177  0.26256  0.10769  Biso   1.000  N
  H894     1.0000 0.94880  0.34395  0.11569  Biso   1.000  H
  O300     1.0000 0.05382  0.81700  0.20772  Biso   1.000  O
  N589     1.0000 0.06909  0.78099  0.15097  Biso   1.000  N
  H895     1.0000 0.01520  0.62709  0.13470  Biso   1.000  H
  C939     1.0000 0.05408  0.73131  0.12055  Biso   1.000  C
  C940     1.0000 0.00868  0.78493  0.08191  Biso   1.000  C
  C941     1.0000 0.00868  0.78500  0.08191  Biso   1.000  C
  O301     1.0000 0.05382  0.18300  0.20772  Biso   1.000  O
  N590     1.0000 0.06909  0.21901  0.15097  Biso   1.000  N
  N591     1.0000 0.06909  0.21894  0.15097  Biso   1.000  N
  H896     1.0000 0.01520  0.37291  0.13470  Biso   1.000  H
  C942     1.0000 0.05408  0.26869  0.12055  Biso   1.000  C
  C943     1.0000 0.00868  0.21500  0.08191  Biso   1.000  C
  C944     1.0000 0.00868  0.21492  0.08191  Biso   1.000  C
  C945     1.0000 0.10395  0.82693  0.15274  Biso   1.000  C
  C946     1.0000 0.10395  0.82686  0.15274  Biso   1.000  C
  N592     1.0000 0.04478  0.78789  0.09076  Biso   1.000  N
  H897     1.0000 0.06950  0.67677  0.11400  Biso   1.000  H
  O302     1.0000 0.99466  0.81834  0.05540  Biso   1.000  O
  O303     1.0000 0.99466  0.81827  0.05540  Biso   1.000  O
  C947     1.0000 0.10395  0.17307  0.15274  Biso   1.000  C
  N593     1.0000 0.04478  0.21211  0.09076  Biso   1.000  N
  H898     1.0000 0.06950  0.32316  0.11400  Biso   1.000  H
  N594     1.0000 0.04478  0.21204  0.09076  Biso   1.000  N
  H899     1.0000 0.06950  0.32323  0.11400  Biso   1.000  H
  O304     1.0000 0.99466  0.18166  0.05540  Biso   1.000  O
  N595     1.0000 0.10311  0.92157  0.13824  Biso   1.000  N
  H900     1.0000 0.11270  0.82982  0.17769  Biso   1.000  H
  H901     1.0000 0.12120  0.78853  0.13961  Biso   1.000  H
  H902     1.0000 0.11270  0.82975  0.17769  Biso   1.000  H
  H903     1.0000 0.12120  0.78846  0.13961  Biso   1.000  H
  C948     1.0000 0.07059  0.82721  0.06686  Biso   1.000  C
  C949     1.0000 0.07059  0.82714  0.06686  Biso   1.000  C
  N596     1.0000 0.10311  0.07843  0.13824  Biso   1.000  N
  H904     1.0000 0.11270  0.17018  0.17769  Biso   1.000  H
  H905     1.0000 0.12120  0.21147  0.13961  Biso   1.000  H
  H906     1.0000 0.11270  0.17025  0.17769  Biso   1.000  H
  H907     1.0000 0.12120  0.21154  0.13961  Biso   1.000  H
  C950     1.0000 0.07059  0.17279  0.06686  Biso   1.000  C
  C951     1.0000 0.07059  0.17286  0.06686  Biso   1.000  C
  C952     1.0000 0.11039  0.94539  0.10196  Biso   1.000  C
  C953     1.0000 0.10231  0.00000  0.15942  Biso   1.000  C
  C954     1.0000 0.10231  0.00007  0.15942  Biso   1.000  C
  N597     1.0000 0.08185  0.92249  0.07682  Biso   1.000  N
  H908     1.0000 0.05969  0.82848  0.04270  Biso   1.000  H
  H909     1.0000 0.09201  0.78592  0.06670  Biso   1.000  H
  H910     1.0000 0.09201  0.78585  0.06670  Biso   1.000  H
  C955     1.0000 0.11039  0.05461  0.10196  Biso   1.000  C
  C956     1.0000 0.11039  0.05454  0.10196  Biso   1.000  C
  N598     1.0000 0.08185  0.07751  0.07682  Biso   1.000  N
  H911     1.0000 0.05969  0.17152  0.04270  Biso   1.000  H
  H912     1.0000 0.09201  0.21408  0.06670  Biso   1.000  H
  H913     1.0000 0.05969  0.17145  0.04270  Biso   1.000  H
  H914     1.0000 0.13400  0.91932  0.09470  Biso   1.000  H
  H915     1.0000 0.13400  0.91939  0.09470  Biso   1.000  H
  O305     1.0000 0.10011  0.00000  0.19187  Biso   1.000  O
  O306     1.0000 0.10011  0.00007  0.19187  Biso   1.000  O
  C957     1.0000 0.06641  0.00000  0.06108  Biso   1.000  C
  C958     1.0000 0.06641  0.00007  0.06108  Biso   1.000  C
  H916     1.0000 0.13400  0.08061  0.09470  Biso   1.000  H
  O307     1.0000 0.04351  0.00000  0.03768  Biso   1.000  O
  O308     1.0000 0.04351  0.00007  0.03768  Biso   1.000  O
  C959     1.0000 0.09011  0.00000  0.78452  Biso   1.000  C
  N599     1.0000 0.07828  0.91459  0.80150  Biso   1.000  N
  H917     1.0000 0.08101  0.00000  0.75970  Biso   1.000  H
  H918     1.0000 0.11671  0.00000  0.78439  Biso   1.000  H
  N600     1.0000 0.07828  0.08541  0.80150  Biso   1.000  N
  H919     1.0000 0.08101  0.00007  0.75970  Biso   1.000  H
  H920     1.0000 0.11671  0.00007  0.78439  Biso   1.000  H
  C960     1.0000 0.04619  0.87140  0.79210  Biso   1.000  C
  C961     1.0000 0.09723  0.86724  0.83005  Biso   1.000  C
  C962     1.0000 0.09723  0.86717  0.83005  Biso   1.000  C
  C963     1.0000 0.09011  0.00007  0.78452  Biso   1.000  C
  C964     1.0000 0.04619  0.12860  0.79210  Biso   1.000  C
  C965     1.0000 0.09723  0.13276  0.83005  Biso   1.000  C
  C966     1.0000 0.09723  0.13283  0.83005  Biso   1.000  C
  O309     1.0000 0.02685  0.89296  0.76672  Biso   1.000  O
  O310     1.0000 0.02685  0.89303  0.76672  Biso   1.000  O
  N601     1.0000 0.04176  0.79642  0.81412  Biso   1.000  N
  N602     1.0000 0.04176  0.79635  0.81412  Biso   1.000  N
  C967     1.0000 0.07346  0.78021  0.83715  Biso   1.000  C
  C968     1.0000 0.07346  0.78028  0.83715  Biso   1.000  C
  N603     1.0000 0.09897  0.91523  0.86377  Biso   1.000  N
  H921     1.0000 0.12170  0.84751  0.82289  Biso   1.000  H
  N604     1.0000 0.09897  0.91516  0.86377  Biso   1.000  N
  H922     1.0000 0.12170  0.84744  0.82289  Biso   1.000  H
  O311     1.0000 0.02685  0.10697  0.76672  Biso   1.000  O
  N605     1.0000 0.04176  0.20358  0.81412  Biso   1.000  N
  O312     1.0000 0.02685  0.10704  0.76672  Biso   1.000  O
  N606     1.0000 0.09897  0.08477  0.86377  Biso   1.000  N
  H923     1.0000 0.12170  0.15249  0.82289  Biso   1.000  H
  C969     1.0000 0.07346  0.21972  0.83715  Biso   1.000  C
  H924     1.0000 0.12170  0.15256  0.82289  Biso   1.000  H
  C970     1.0000 0.07346  0.21965  0.83715  Biso   1.000  C
  C971     1.0000 0.01405  0.72842  0.80789  Biso   1.000  C
  C972     1.0000 0.01405  0.72835  0.80789  Biso   1.000  C
  N607     1.0000 0.06702  0.78754  0.87457  Biso   1.000  N
  H925     1.0000 0.08592  0.72010  0.83129  Biso   1.000  H
  N608     1.0000 0.06702  0.78747  0.87457  Biso   1.000  N
  C973     1.0000 0.08232  0.86520  0.88941  Biso   1.000  C
  C974     1.0000 0.11881  0.00000  0.87156  Biso   1.000  C
  C975     1.0000 0.11881  0.00007  0.87156  Biso   1.000  C
  C976     1.0000 0.01405  0.27158  0.80789  Biso   1.000  C
  C977     1.0000 0.01405  0.27165  0.80789  Biso   1.000  C
  C978     1.0000 0.08232  0.13480  0.88941  Biso   1.000  C
  N609     1.0000 0.06702  0.21246  0.87457  Biso   1.000  N
  H926     1.0000 0.08592  0.27990  0.83129  Biso   1.000  H
  N610     1.0000 0.06702  0.21253  0.87457  Biso   1.000  N
  H927     1.0000 0.08592  0.27983  0.83129  Biso   1.000  H
  H928     1.0000 0.02441  0.66451  0.81080  Biso   1.000  H
  H929     1.0000 0.00482  0.73434  0.78320  Biso   1.000  H
  H930     1.0000 0.00482  0.73441  0.78320  Biso   1.000  H
  N611     1.0000 0.98431  0.73864  0.83142  Biso   1.000  N
  N612     1.0000 0.98431  0.73857  0.83142  Biso   1.000  N
  C979     1.0000 0.04669  0.71961  0.89393  Biso   1.000  C
  C980     1.0000 0.04669  0.71954  0.89393  Biso   1.000  C
  O313     1.0000 0.08225  0.88577  0.92083  Biso   1.000  O
  H931     1.0000 0.14090  0.00000  0.85780  Biso   1.000  H
  H932     1.0000 0.12621  0.00000  0.89691  Biso   1.000  H
  H933     1.0000 0.14090  0.00007  0.85780  Biso   1.000  H
  H934     1.0000 0.12621  0.00007  0.89691  Biso   1.000  H
  N613     1.0000 0.98431  0.26136  0.83142  Biso   1.000  N
  H935     1.0000 0.02441  0.33549  0.81080  Biso   1.000  H
  H936     1.0000 0.00482  0.26559  0.78320  Biso   1.000  H
  H937     1.0000 0.00482  0.26552  0.78320  Biso   1.000  H
  O314     1.0000 0.08225  0.11423  0.92083  Biso   1.000  O
  O315     1.0000 0.08225  0.11416  0.92083  Biso   1.000  O
  C981     1.0000 0.04669  0.28039  0.89393  Biso   1.000  C
  C982     1.0000 0.04669  0.28046  0.89393  Biso   1.000  C
  C983     1.0000 0.95295  0.78233  0.82173  Biso   1.000  C
  C984     1.0000 0.98318  0.69741  0.86617  Biso   1.000  C
  C985     1.0000 0.95295  0.78226  0.82173  Biso   1.000  C
  C986     1.0000 0.98318  0.69734  0.86617  Biso   1.000  C
  N614     1.0000 0.00824  0.73751  0.89231  Biso   1.000  N
  H938     1.0000 0.05531  0.72017  0.91891  Biso   1.000  H
  H939     1.0000 0.05121  0.65598  0.88431  Biso   1.000  H
  N615     1.0000 0.00824  0.73744  0.89231  Biso   1.000  N
  C987     1.0000 0.95295  0.21767  0.82173  Biso   1.000  C
  C988     1.0000 0.98318  0.30259  0.86617  Biso   1.000  C
  C989     1.0000 0.95295  0.21774  0.82173  Biso   1.000  C
  N616     1.0000 0.00824  0.26249  0.89231  Biso   1.000  N
  H940     1.0000 0.05531  0.27983  0.91891  Biso   1.000  H
  H941     1.0000 0.05121  0.34402  0.88431  Biso   1.000  H
  N617     1.0000 0.00824  0.26256  0.89231  Biso   1.000  N
  H942     1.0000 0.05121  0.34395  0.88431  Biso   1.000  H
  O316     1.0000 0.94619  0.81700  0.79229  Biso   1.000  O
  N618     1.0000 0.93092  0.78099  0.84903  Biso   1.000  N
  H943     1.0000 0.98481  0.62709  0.86530  Biso   1.000  H
  C990     1.0000 0.94593  0.73131  0.87945  Biso   1.000  C
  C991     1.0000 0.99133  0.78493  0.91809  Biso   1.000  C
  C992     1.0000 0.99133  0.78500  0.91809  Biso   1.000  C
  O317     1.0000 0.94619  0.18300  0.79229  Biso   1.000  O
  N619     1.0000 0.93092  0.21901  0.84903  Biso   1.000  N
  N620     1.0000 0.93092  0.21894  0.84903  Biso   1.000  N
  H944     1.0000 0.98481  0.37291  0.86530  Biso   1.000  H
  C993     1.0000 0.94593  0.26869  0.87945  Biso   1.000  C
  C994     1.0000 0.99133  0.21500  0.91809  Biso   1.000  C
  C995     1.0000 0.99133  0.21492  0.91809  Biso   1.000  C
  C996     1.0000 0.89606  0.82693  0.84726  Biso   1.000  C
  C997     1.0000 0.89606  0.82686  0.84726  Biso   1.000  C
  N621     1.0000 0.95526  0.78789  0.90924  Biso   1.000  N
  H945     1.0000 0.93051  0.67677  0.88600  Biso   1.000  H
  O318     1.0000 0.00535  0.81834  0.94460  Biso   1.000  O
  O319     1.0000 0.00535  0.81827  0.94460  Biso   1.000  O
  C998     1.0000 0.89606  0.17307  0.84726  Biso   1.000  C
  N622     1.0000 0.95526  0.21211  0.90924  Biso   1.000  N
  H946     1.0000 0.93051  0.32316  0.88600  Biso   1.000  H
  N623     1.0000 0.95526  0.21204  0.90924  Biso   1.000  N
  H947     1.0000 0.93051  0.32323  0.88600  Biso   1.000  H
  O320     1.0000 0.00535  0.18166  0.94460  Biso   1.000  O
  N624     1.0000 0.89690  0.92157  0.86176  Biso   1.000  N
  H948     1.0000 0.88731  0.82982  0.82231  Biso   1.000  H
  H949     1.0000 0.87881  0.78853  0.86039  Biso   1.000  H
  H950     1.0000 0.88731  0.82975  0.82231  Biso   1.000  H
  H951     1.0000 0.87881  0.78846  0.86039  Biso   1.000  H
  C999     1.0000 0.92945  0.82721  0.93314  Biso   1.000  C
  C1000    1.0000 0.92945  0.82714  0.93314  Biso   1.000  C
  N625     1.0000 0.89690  0.07843  0.86176  Biso   1.000  N
  H952     1.0000 0.88731  0.17018  0.82231  Biso   1.000  H
  H953     1.0000 0.87881  0.21147  0.86039  Biso   1.000  H
  H954     1.0000 0.88731  0.17025  0.82231  Biso   1.000  H
  H955     1.0000 0.87881  0.21154  0.86039  Biso   1.000  H
  C1001    1.0000 0.92945  0.17279  0.93314  Biso   1.000  C
  C1002    1.0000 0.92945  0.17286  0.93314  Biso   1.000  C
  C1003    1.0000 0.88965  0.94539  0.89805  Biso   1.000  C
  C1004    1.0000 0.89773  0.00000  0.84056  Biso   1.000  C
  C1005    1.0000 0.89773  0.00007  0.84056  Biso   1.000  C
  N626     1.0000 0.91816  0.92249  0.92316  Biso   1.000  N
  H956     1.0000 0.94032  0.82848  0.95730  Biso   1.000  H
  H957     1.0000 0.90803  0.78592  0.93330  Biso   1.000  H
  H958     1.0000 0.90803  0.78585  0.93330  Biso   1.000  H
  C1006    1.0000 0.88965  0.05461  0.89805  Biso   1.000  C
  C1007    1.0000 0.88965  0.05454  0.89805  Biso   1.000  C
  N627     1.0000 0.91816  0.07751  0.92316  Biso   1.000  N
  H959     1.0000 0.94032  0.17152  0.95730  Biso   1.000  H
  H960     1.0000 0.90803  0.21408  0.93330  Biso   1.000  H
  H961     1.0000 0.94032  0.17145  0.95730  Biso   1.000  H
  H962     1.0000 0.86601  0.91932  0.90531  Biso   1.000  H
  H963     1.0000 0.86601  0.91939  0.90531  Biso   1.000  H
  O321     1.0000 0.89991  0.00000  0.80813  Biso   1.000  O
  O322     1.0000 0.89991  0.00007  0.80813  Biso   1.000  O
  C1008    1.0000 0.93360  0.00000  0.93892  Biso   1.000  C
  C1009    1.0000 0.93360  0.00007  0.93892  Biso   1.000  C
  H964     1.0000 0.86601  0.08061  0.90531  Biso   1.000  H
  O323     1.0000 0.95650  0.00000  0.96232  Biso   1.000  O
  O324     1.0000 0.95650  0.00007  0.96232  Biso   1.000  O
  C1010    1.0000 0.09011  0.00000  0.78452  Biso   1.000  C
  N628     1.0000 0.07828  0.91459  0.80150  Biso   1.000  N
  H965     1.0000 0.08101  0.00000  0.75970  Biso   1.000  H
  H966     1.0000 0.11671  0.00000  0.78439  Biso   1.000  H
  N629     1.0000 0.07828  0.08541  0.80150  Biso   1.000  N
  H967     1.0000 0.08101  0.00007  0.75970  Biso   1.000  H
  H968     1.0000 0.11671  0.00007  0.78439  Biso   1.000  H
  C1011    1.0000 0.04619  0.87140  0.79210  Biso   1.000  C
  C1012    1.0000 0.09723  0.86724  0.83005  Biso   1.000  C
  C1013    1.0000 0.09723  0.86717  0.83005  Biso   1.000  C
  C1014    1.0000 0.09011  0.00007  0.78452  Biso   1.000  C
  C1015    1.0000 0.04619  0.12860  0.79210  Biso   1.000  C
  C1016    1.0000 0.09723  0.13276  0.83005  Biso   1.000  C
  C1017    1.0000 0.09723  0.13283  0.83005  Biso   1.000  C
  O325     1.0000 0.02685  0.89303  0.76672  Biso   1.000  O
  N630     1.0000 0.04176  0.79642  0.81412  Biso   1.000  N
  O326     1.0000 0.02685  0.89296  0.76672  Biso   1.000  O
  N631     1.0000 0.04176  0.79635  0.81412  Biso   1.000  N
  C1018    1.0000 0.07346  0.78021  0.83715  Biso   1.000  C
  C1019    1.0000 0.07346  0.78028  0.83715  Biso   1.000  C
  N632     1.0000 0.09897  0.91523  0.86377  Biso   1.000  N
  H969     1.0000 0.12170  0.84751  0.82289  Biso   1.000  H
  N633     1.0000 0.09897  0.91516  0.86377  Biso   1.000  N
  H970     1.0000 0.12170  0.84744  0.82289  Biso   1.000  H
  O327     1.0000 0.02685  0.10697  0.76672  Biso   1.000  O
  N634     1.0000 0.04176  0.20358  0.81412  Biso   1.000  N
  O328     1.0000 0.02685  0.10704  0.76672  Biso   1.000  O
  N635     1.0000 0.09897  0.08477  0.86377  Biso   1.000  N
  H971     1.0000 0.12170  0.15249  0.82289  Biso   1.000  H
  C1020    1.0000 0.07346  0.21972  0.83715  Biso   1.000  C
  H972     1.0000 0.12170  0.15256  0.82289  Biso   1.000  H
  C1021    1.0000 0.07346  0.21965  0.83715  Biso   1.000  C
  C1022    1.0000 0.01405  0.72842  0.80789  Biso   1.000  C
  C1023    1.0000 0.01405  0.72835  0.80789  Biso   1.000  C
  H973     1.0000 0.08592  0.72010  0.83129  Biso   1.000  H
  N636     1.0000 0.06702  0.78754  0.87457  Biso   1.000  N
  N637     1.0000 0.06702  0.78747  0.87457  Biso   1.000  N
  C1024    1.0000 0.08232  0.86520  0.88941  Biso   1.000  C
  C1025    1.0000 0.11881  0.00000  0.87156  Biso   1.000  C
  C1026    1.0000 0.11881  0.00007  0.87156  Biso   1.000  C
  C1027    1.0000 0.01405  0.27158  0.80789  Biso   1.000  C
  C1028    1.0000 0.01405  0.27165  0.80789  Biso   1.000  C
  C1029    1.0000 0.08232  0.13480  0.88941  Biso   1.000  C
  N638     1.0000 0.06702  0.21246  0.87457  Biso   1.000  N
  H974     1.0000 0.08592  0.27990  0.83129  Biso   1.000  H
  N639     1.0000 0.06702  0.21253  0.87457  Biso   1.000  N
  H975     1.0000 0.08592  0.27983  0.83129  Biso   1.000  H
  H976     1.0000 0.02441  0.66451  0.81080  Biso   1.000  H
  N640     1.0000 0.98431  0.73864  0.83142  Biso   1.000  N
  N641     1.0000 0.98431  0.73857  0.83142  Biso   1.000  N
  H977     1.0000 0.00482  0.73434  0.78320  Biso   1.000  H
  H978     1.0000 0.00482  0.73441  0.78320  Biso   1.000  H
  C1030    1.0000 0.04669  0.71961  0.89393  Biso   1.000  C
  C1031    1.0000 0.04669  0.71954  0.89393  Biso   1.000  C
  O329     1.0000 0.08225  0.88577  0.92083  Biso   1.000  O
  H979     1.0000 0.14090  0.00000  0.85780  Biso   1.000  H
  H980     1.0000 0.12621  0.00000  0.89691  Biso   1.000  H
  H981     1.0000 0.14090  0.00007  0.85780  Biso   1.000  H
  H982     1.0000 0.12621  0.00007  0.89691  Biso   1.000  H
  N642     1.0000 0.98431  0.26136  0.83142  Biso   1.000  N
  H983     1.0000 0.02441  0.33549  0.81080  Biso   1.000  H
  H984     1.0000 0.00482  0.26559  0.78320  Biso   1.000  H
  H985     1.0000 0.00482  0.26552  0.78320  Biso   1.000  H
  O330     1.0000 0.08225  0.11423  0.92083  Biso   1.000  O
  O331     1.0000 0.08225  0.11416  0.92083  Biso   1.000  O
  C1032    1.0000 0.04669  0.28039  0.89393  Biso   1.000  C
  C1033    1.0000 0.04669  0.28046  0.89393  Biso   1.000  C
  C1034    1.0000 0.95295  0.78233  0.82173  Biso   1.000  C
  C1035    1.0000 0.98318  0.69741  0.86617  Biso   1.000  C
  C1036    1.0000 0.95295  0.78226  0.82173  Biso   1.000  C
  C1037    1.0000 0.98318  0.69734  0.86617  Biso   1.000  C
  H986     1.0000 0.05531  0.72017  0.91891  Biso   1.000  H
  H987     1.0000 0.05121  0.65598  0.88431  Biso   1.000  H
  N643     1.0000 0.00824  0.73751  0.89231  Biso   1.000  N
  N644     1.0000 0.00824  0.73744  0.89231  Biso   1.000  N
  C1038    1.0000 0.95295  0.21767  0.82173  Biso   1.000  C
  C1039    1.0000 0.98318  0.30259  0.86617  Biso   1.000  C
  C1040    1.0000 0.95295  0.21774  0.82173  Biso   1.000  C
  N645     1.0000 0.00824  0.26249  0.89231  Biso   1.000  N
  H988     1.0000 0.05531  0.27983  0.91891  Biso   1.000  H
  H989     1.0000 0.05121  0.34402  0.88431  Biso   1.000  H
  N646     1.0000 0.00824  0.26256  0.89231  Biso   1.000  N
  H990     1.0000 0.05121  0.34395  0.88431  Biso   1.000  H
  O332     1.0000 0.94619  0.81700  0.79229  Biso   1.000  O
  N647     1.0000 0.93092  0.78099  0.84903  Biso   1.000  N
  H991     1.0000 0.98481  0.62709  0.86530  Biso   1.000  H
  C1041    1.0000 0.94593  0.73131  0.87945  Biso   1.000  C
  C1042    1.0000 0.99133  0.78493  0.91809  Biso   1.000  C
  C1043    1.0000 0.99133  0.78500  0.91809  Biso   1.000  C
  O333     1.0000 0.94619  0.18300  0.79229  Biso   1.000  O
  N648     1.0000 0.93092  0.21901  0.84903  Biso   1.000  N
  N649     1.0000 0.93092  0.21894  0.84903  Biso   1.000  N
  H992     1.0000 0.98481  0.37291  0.86530  Biso   1.000  H
  C1044    1.0000 0.94593  0.26869  0.87945  Biso   1.000  C
  C1045    1.0000 0.99133  0.21500  0.91809  Biso   1.000  C
  C1046    1.0000 0.99133  0.21492  0.91809  Biso   1.000  C
  C1047    1.0000 0.89606  0.82693  0.84726  Biso   1.000  C
  C1048    1.0000 0.89606  0.82686  0.84726  Biso   1.000  C
  N650     1.0000 0.95526  0.78789  0.90924  Biso   1.000  N
  H993     1.0000 0.93051  0.67677  0.88600  Biso   1.000  H
  O334     1.0000 0.00535  0.81834  0.94460  Biso   1.000  O
  O335     1.0000 0.00535  0.81827  0.94460  Biso   1.000  O
  C1049    1.0000 0.89606  0.17307  0.84726  Biso   1.000  C
  N651     1.0000 0.95526  0.21211  0.90924  Biso   1.000  N
  H994     1.0000 0.93051  0.32316  0.88600  Biso   1.000  H
  N652     1.0000 0.95526  0.21204  0.90924  Biso   1.000  N
  H995     1.0000 0.93051  0.32323  0.88600  Biso   1.000  H
  O336     1.0000 0.00535  0.18166  0.94460  Biso   1.000  O
  N653     1.0000 0.89690  0.92157  0.86176  Biso   1.000  N
  H996     1.0000 0.88731  0.82982  0.82231  Biso   1.000  H
  H997     1.0000 0.87881  0.78853  0.86039  Biso   1.000  H
  H998     1.0000 0.88731  0.82975  0.82231  Biso   1.000  H
  H999     1.0000 0.87881  0.78846  0.86039  Biso   1.000  H
  C1050    1.0000 0.92945  0.82721  0.93314  Biso   1.000  C
  C1051    1.0000 0.92945  0.82714  0.93314  Biso   1.000  C
  N654     1.0000 0.89690  0.07843  0.86176  Biso   1.000  N
  H1000    1.0000 0.88731  0.17018  0.82231  Biso   1.000  H
  H1001    1.0000 0.87881  0.21147  0.86039  Biso   1.000  H
  H1002    1.0000 0.88731  0.17025  0.82231  Biso   1.000  H
  H1003    1.0000 0.87881  0.21154  0.86039  Biso   1.000  H
  C1052    1.0000 0.92945  0.17279  0.93314  Biso   1.000  C
  C1053    1.0000 0.92945  0.17286  0.93314  Biso   1.000  C
  C1054    1.0000 0.88965  0.94539  0.89805  Biso   1.000  C
  C1055    1.0000 0.89773  0.00000  0.84056  Biso   1.000  C
  C1056    1.0000 0.89773  0.00007  0.84056  Biso   1.000  C
  N655     1.0000 0.91816  0.92249  0.92316  Biso   1.000  N
  H1004    1.0000 0.94032  0.82848  0.95730  Biso   1.000  H
  H1005    1.0000 0.90803  0.78592  0.93330  Biso   1.000  H
  H1006    1.0000 0.90803  0.78585  0.93330  Biso   1.000  H
  C1057    1.0000 0.88965  0.05461  0.89805  Biso   1.000  C
  C1058    1.0000 0.88965  0.05454  0.89805  Biso   1.000  C
  N656     1.0000 0.91816  0.07751  0.92316  Biso   1.000  N
  H1007    1.0000 0.94032  0.17152  0.95730  Biso   1.000  H
  H1008    1.0000 0.90803  0.21408  0.93330  Biso   1.000  H
  H1009    1.0000 0.94032  0.17145  0.95730  Biso   1.000  H
  H1010    1.0000 0.86601  0.91932  0.90531  Biso   1.000  H
  H1011    1.0000 0.86601  0.91939  0.90531  Biso   1.000  H
  O337     1.0000 0.89991  0.00000  0.80813  Biso   1.000  O
  O338     1.0000 0.89991  0.00007  0.80813  Biso   1.000  O
  C1059    1.0000 0.93360  0.00000  0.93892  Biso   1.000  C
  C1060    1.0000 0.93360  0.00007  0.93892  Biso   1.000  C
  H1012    1.0000 0.86601  0.08061  0.90531  Biso   1.000  H
  O339     1.0000 0.95650  0.00000  0.96232  Biso   1.000  O
  O340     1.0000 0.95650  0.00007  0.96232  Biso   1.000  O
  Ne1      1.0000 0.27987  0.01197  0.11271  Biso   1.000  Ne
  He1      1.0000 0.36033  0.99996  0.13975  Biso   1.000  He
  He2      1.0000 0.19431  0.00000  0.07364  Biso   1.000  He
  Ar1      1.0000 0.27980  0.00000  0.10884  Biso   1.000  Ar
  Ne2      1.0000 0.27987  0.01197  0.11271  Biso   1.000  Ne
  He3      1.0000 0.36033  0.99996  0.13975  Biso   1.000  He
  He4      1.0000 0.19431  0.00000  0.07364  Biso   1.000  He
  Ar2      1.0000 0.27980  0.00000  0.10884  Biso   1.000  Ar
  Ne3      1.0000 0.50210  0.49998  0.13792  Biso   1.000  Ne
  He5      1.0000 0.53255  0.50000  0.21904  Biso   1.000  He
  He6      1.0000 0.47220  0.50000  0.05972  Biso   1.000  He
  Ar3      1.0000 0.50210  0.49996  0.13797  Biso   1.000  Ar
  Ne4      1.0000 0.02033  0.49998  0.35415  Biso   1.000  Ne
  He7      1.0000 0.09792  0.50000  0.39454  Biso   1.000  He
  He8      1.0000 0.94467  0.49997  0.31345  Biso   1.000  He
  Ar4      1.0000 0.02133  0.49996  0.35355  Biso   1.000  Ar
  Ne5      1.0000 0.51993  0.00163  0.35644  Biso   1.000  Ne
  He9      1.0000 0.59793  0.00000  0.39452  Biso   1.000  He
  He10     1.0000 0.44467  0.00000  0.31345  Biso   1.000  He
  Ar5      1.0000 0.52114  0.00000  0.35322  Biso   1.000  Ar
  Ne6      1.0000 0.51993  0.00163  0.35644  Biso   1.000  Ne
  He11     1.0000 0.59793  0.00000  0.39452  Biso   1.000  He
  He12     1.0000 0.44467  0.00000  0.31345  Biso   1.000  He
  Ar6      1.0000 0.52114  0.00000  0.35322  Biso   1.000  Ar
  Ne7      1.0000 0.23945  0.99967  0.39284  Biso   1.000  Ne
  He13     1.0000 0.27499  1.00000  0.47197  Biso   1.000  He
  He14     1.0000 0.20472  0.99996  0.31708  Biso   1.000  He
  Ar7      1.0000 0.23991  0.99999  0.39293  Biso   1.000  Ar
  Ne8      1.0000 0.23945  0.99967  0.39284  Biso   1.000  Ne
  He15     1.0000 0.27499  1.00000  0.47197  Biso   1.000  He
  He16     1.0000 0.20472  0.99996  0.31708  Biso   1.000  He
  Ar8      1.0000 0.23991  0.99999  0.39293  Biso   1.000  Ar
  Ne9      1.0000 0.26092  0.49998  0.60660  Biso   1.000  Ne
  He17     1.0000 0.29648  0.50000  0.68545  Biso   1.000  He
  He18     1.0000 0.22543  0.49996  0.52893  Biso   1.000  He
  Ar9      1.0000 0.26034  0.49996  0.60653  Biso   1.000  Ar
  Ne10     1.0000 0.48009  0.00163  0.64356  Biso   1.000  Ne
  He19     1.0000 0.55435  0.00001  0.68604  Biso   1.000  He
  He20     1.0000 0.40146  0.00000  0.60516  Biso   1.000  He
  Ar10     1.0000 0.47888  0.00000  0.64680  Biso   1.000  Ar
  Ne11     1.0000 0.48009  0.00163  0.64356  Biso   1.000  Ne
  He21     1.0000 0.55435  0.00000  0.68604  Biso   1.000  He
  He22     1.0000 0.40146  1.00000  0.60516  Biso   1.000  He
  Ar11     1.0000 0.47888  1.00000  0.64680  Biso   1.000  Ar
  Ne12     1.0000 0.73910  0.49998  0.39340  Biso   1.000  Ne
  He23     1.0000 0.77499  0.49997  0.47198  Biso   1.000  He
  He24     1.0000 0.70472  0.50000  0.31708  Biso   1.000  He
  Ar12     1.0000 0.73967  0.49996  0.39348  Biso   1.000  Ar
  Ne13     1.0000 0.77927  0.49998  0.11105  Biso   1.000  Ne
  He25     1.0000 0.86033  0.49997  0.13976  Biso   1.000  He
  He26     1.0000 0.69431  0.49996  0.07364  Biso   1.000  He
  Ar13     1.0000 0.78066  0.50000  0.10994  Biso   1.000  Ar
  Ne14     1.0000 0.22074  0.49998  0.88895  Biso   1.000  Ne
  He27     1.0000 0.30511  0.49997  0.92617  Biso   1.000  He
  He28     1.0000 0.14039  0.49997  0.86050  Biso   1.000  He
  Ar14     1.0000 0.21936  0.50000  0.89006  Biso   1.000  Ar
  Ne15     1.0000 0.76056  0.99967  0.60716  Biso   1.000  Ne
  He29     1.0000 0.79599  0.99996  0.68441  Biso   1.000  He
  He30     1.0000 0.72543  1.00000  0.52893  Biso   1.000  He
  Ar15     1.0000 0.76011  0.99997  0.60712  Biso   1.000  Ar
  Ne16     1.0000 0.76056  0.99967  0.60716  Biso   1.000  Ne
  He31     1.0000 0.79599  0.99996  0.68441  Biso   1.000  He
  He32     1.0000 0.72543  1.00000  0.52893  Biso   1.000  He
  Ar16     1.0000 0.76011  0.99997  0.60712  Biso   1.000  Ar
  Ne17     1.0000 0.49791  0.49998  0.86208  Biso   1.000  Ne
  He33     1.0000 0.52869  0.50000  0.94279  Biso   1.000  He
  He34     1.0000 0.46800  0.50000  0.78243  Biso   1.000  He
  Ar17     1.0000 0.49657  0.49988  0.86140  Biso   1.000  Ar
  Ne18     1.0000 0.00057  0.99473  0.86256  Biso   1.000  Ne
  He35     1.0000 0.02765  0.00000  0.93980  Biso   1.000  He
  He36     1.0000 0.96800  0.00000  0.78243  Biso   1.000  He
  Ar18     1.0000 0.99659  0.99996  0.86143  Biso   1.000  Ar
  Ne19     1.0000 0.00057  0.99473  0.86256  Biso   1.000  Ne
  He37     1.0000 0.02765  0.00000  0.93980  Biso   1.000  He
  He38     1.0000 0.96800  0.00000  0.78243  Biso   1.000  He
  Ar19     1.0000 0.99659  0.99996  0.86143  Biso   1.000  Ar
  Ne20     1.0000 0.72015  0.01197  0.88730  Biso   1.000  Ne
  He39     1.0000 0.80511  0.00000  0.92617  Biso   1.000  He
  He40     1.0000 0.64039  0.99997  0.86050  Biso   1.000  He
  Ar20     1.0000 0.72191  1.00000  0.89336  Biso   1.000  Ar
  Ne21     1.0000 0.72015  0.01197  0.88730  Biso   1.000  Ne
  He41     1.0000 0.80511  1.00000  0.92617  Biso   1.000  He
  He42     1.0000 0.64039  0.99997  0.86050  Biso   1.000  He
  Ar21     1.0000 0.72023  1.00000  0.89123  Biso   1.000  Ar
  Ne22     1.0000 0.99944  0.99473  0.13744  Biso   1.000  Ne
  He43     1.0000 0.03255  1.00000  0.21904  Biso   1.000  He
  He44     1.0000 0.97219  1.00000  0.05972  Biso   1.000  He
  Ar22     1.0000 0.00019  0.99996  0.13712  Biso   1.000  Ar
  Ne23     1.0000 0.99944  0.99473  0.13744  Biso   1.000  Ne
  He45     1.0000 0.03255  1.00000  0.21904  Biso   1.000  He
  He46     1.0000 0.97219  1.00000  0.05972  Biso   1.000  He
  Ar23     1.0000 0.00019  0.99996  0.13712  Biso   1.000  Ar
  Ne24     1.0000 0.97969  0.49998  0.64585  Biso   1.000  Ne
  He47     1.0000 0.05435  0.49996  0.68604  Biso   1.000  He
  He48     1.0000 0.90146  0.50000  0.60515  Biso   1.000  He
  Ar24     1.0000 0.97868  0.49996  0.64646  Biso   1.000  Ar
