data_image0
_cell_length_a       20.629
_cell_length_b       22.286
_cell_length_c       24.17
_cell_angle_alpha    90
_cell_angle_beta     90
_cell_angle_gamma    90

_symmetry_space_group_name_H-M    "P 1"
_symmetry_int_tables_number       1

loop_
  _symmetry_equiv_pos_as_xyz
  'x, y, z'

loop_
  _atom_site_label
  _atom_site_occupancy
  _atom_site_fract_x
  _atom_site_fract_y
  _atom_site_fract_z
  _atom_site_thermal_displace_type
  _atom_site_B_iso_or_equiv
  _atom_site_type_symbol
  C1       1.0000 0.51311  0.42821  0.51051  Biso   1.000  C
  O1       1.0000 0.52155  0.36700  0.52578  Biso   1.000  O
  H1       1.0000 0.54297  0.43821  0.48039  Biso   1.000  H
  H2       1.0000 0.52208  0.45387  0.54249  Biso   1.000  H
  H3       1.0000 0.46842  0.43458  0.49818  Biso   1.000  H
  C2       1.0000 0.51137  0.32500  0.48490  Biso   1.000  C
  C3       1.0000 0.48936  0.33959  0.43227  Biso   1.000  C
  C4       1.0000 0.52450  0.26600  0.49905  Biso   1.000  C
  C5       1.0000 0.48010  0.29557  0.39259  Biso   1.000  C
  H4       1.0000 0.48049  0.38028  0.42338  Biso   1.000  H
  C6       1.0000 0.51399  0.22153  0.45937  Biso   1.000  C
  C7       1.0000 0.55073  0.25011  0.55556  Biso   1.000  C
  C8       1.0000 0.45761  0.31248  0.33517  Biso   1.000  C
  C9       1.0000 0.49232  0.23629  0.40670  Biso   1.000  C
  H5       1.0000 0.52179  0.18070  0.46847  Biso   1.000  H
  C10      1.0000 0.62451  0.25321  0.55585  Biso   1.000  C
  H6       1.0000 0.53657  0.20910  0.56570  Biso   1.000  H
  H7       1.0000 0.53308  0.27829  0.58341  Biso   1.000  H
  H8       1.0000 0.43158  0.34982  0.33719  Biso   1.000  H
  H9       1.0000 0.42940  0.28031  0.32040  Biso   1.000  H
  C11      1.0000 0.51471  0.32204  0.29607  Biso   1.000  C
  O2       1.0000 0.48015  0.19420  0.36595  Biso   1.000  O
  C12      1.0000 0.65578  0.30809  0.56281  Biso   1.000  C
  C13      1.0000 0.66222  0.20232  0.54667  Biso   1.000  C
  C14      1.0000 0.54942  0.37499  0.29309  Biso   1.000  C
  C15      1.0000 0.53977  0.27470  0.26624  Biso   1.000  C
  C16      1.0000 0.53241  0.37741  0.27551  Biso   1.000  C
  C17      1.0000 0.48698  0.13268  0.38031  Biso   1.000  C
  C18      1.0000 0.72238  0.31010  0.56086  Biso   1.000  C
  H10      1.0000 0.63139  0.34371  0.56880  Biso   1.000  H
  O3       1.0000 0.62887  0.15068  0.53782  Biso   1.000  O
  C19      1.0000 0.72989  0.20600  0.54646  Biso   1.000  C
  O4       1.0000 0.53541  0.42260  0.33111  Biso   1.000  O
  C20      1.0000 0.60250  0.38280  0.25921  Biso   1.000  C
  O5       1.0000 0.49469  0.42870  0.29359  Biso   1.000  O
  C21      1.0000 0.58602  0.38598  0.24228  Biso   1.000  C
  C22      1.0000 0.59290  0.28211  0.23186  Biso   1.000  C
  H11      1.0000 0.52019  0.23620  0.26938  Biso   1.000  H
  H12      1.0000 0.47569  0.10769  0.34828  Biso   1.000  H
  H13      1.0000 0.45809  0.12322  0.41121  Biso   1.000  H
  H14      1.0000 0.53202  0.12479  0.39110  Biso   1.000  H
  O6       1.0000 0.75452  0.36776  0.56103  Biso   1.000  O
  C23      1.0000 0.76145  0.26079  0.55321  Biso   1.000  C
  C24      1.0000 0.66528  0.09768  0.52987  Biso   1.000  C
  H15      1.0000 0.75481  0.17051  0.54170  Biso   1.000  H
  S1       1.0000 0.48936  0.47299  0.31754  Biso   1.000  S
  S2       1.0000 0.51718  0.47927  0.33430  Biso   1.000  S
  O7       1.0000 0.58141  0.46720  0.35209  Biso   1.000  O
  H16      1.0000 0.62528  0.41990  0.25950  Biso   1.000  H
  C25      1.0000 0.62228  0.33721  0.22528  Biso   1.000  C
  H17      1.0000 0.59799  0.42538  0.23120  Biso   1.000  H
  O8       1.0000 0.45068  0.46060  0.26951  Biso   1.000  O
  O9       1.0000 0.61918  0.23634  0.20161  Biso   1.000  O
  S3       1.0000 0.75811  0.40976  0.61233  Biso   1.000  S
  C26      1.0000 0.83484  0.26461  0.54969  Biso   1.000  C
  H18      1.0000 0.69160  0.10159  0.49628  Biso   1.000  H
  H19      1.0000 0.63580  0.06349  0.52598  Biso   1.000  H
  H20      1.0000 0.69378  0.09131  0.56177  Biso   1.000  H
  O10      1.0000 0.45572  0.49237  0.36570  Biso   1.000  O
  C27      1.0000 0.54448  0.53119  0.29458  Biso   1.000  C
  O11      1.0000 0.46852  0.47981  0.37840  Biso   1.000  O
  C28      1.0000 0.47297  0.55349  0.32251  Biso   1.000  C
  F1       1.0000 0.58970  0.53729  0.33500  Biso   1.000  F
  C29      1.0000 0.68190  0.34551  0.18862  Biso   1.000  C
  C30      1.0000 0.58641  0.17998  0.20410  Biso   1.000  C
  O12      1.0000 0.72432  0.38580  0.65763  Biso   1.000  O
  O13      1.0000 0.82142  0.43099  0.61709  Biso   1.000  O
  C31      1.0000 0.71109  0.47110  0.58701  Biso   1.000  C
  C32      1.0000 0.85705  0.28049  0.49177  Biso   1.000  C
  H21      1.0000 0.85060  0.29539  0.57600  Biso   1.000  H
  H22      1.0000 0.85390  0.22561  0.56057  Biso   1.000  H
  F2       1.0000 0.57220  0.52351  0.24990  Biso   1.000  F
  F3       1.0000 0.51641  0.58238  0.29069  Biso   1.000  F
  F4       1.0000 0.52732  0.58831  0.32309  Biso   1.000  F
  F5       1.0000 0.45707  0.55268  0.26789  Biso   1.000  F
  F6       1.0000 0.43090  0.60060  0.33728  Biso   1.000  F
  H23      1.0000 0.68161  0.31468  0.15908  Biso   1.000  H
  H24      1.0000 0.68001  0.38540  0.17079  Biso   1.000  H
  C33      1.0000 0.74361  0.34030  0.22135  Biso   1.000  C
  H25      1.0000 0.60720  0.15171  0.17869  Biso   1.000  H
  H26      1.0000 0.54099  0.18550  0.19338  Biso   1.000  H
  H27      1.0000 0.58849  0.16432  0.24191  Biso   1.000  H
  F7       1.0000 0.71147  0.51517  0.62371  Biso   1.000  F
  F8       1.0000 0.73760  0.49129  0.54017  Biso   1.000  F
  F9       1.0000 0.65190  0.45450  0.57509  Biso   1.000  F
  C34      1.0000 0.86902  0.33878  0.47667  Biso   1.000  C
  C35      1.0000 0.86514  0.23530  0.45139  Biso   1.000  C
  C36      1.0000 0.76989  0.39069  0.24808  Biso   1.000  C
  C37      1.0000 0.77469  0.28587  0.22648  Biso   1.000  C
  C38      1.0000 0.88846  0.35188  0.42296  Biso   1.000  C
  H28      1.0000 0.86398  0.37019  0.50290  Biso   1.000  H
  C39      1.0000 0.88473  0.25052  0.39830  Biso   1.000  C
  O14      1.0000 0.85210  0.17850  0.46835  Biso   1.000  O
  O15      1.0000 0.73668  0.44378  0.24059  Biso   1.000  O
  C40      1.0000 0.82520  0.38419  0.28014  Biso   1.000  C
  C41      1.0000 0.83019  0.27910  0.25921  Biso   1.000  C
  H29      1.0000 0.75801  0.25209  0.20728  Biso   1.000  H
  C42      1.0000 0.89675  0.30907  0.38304  Biso   1.000  C
  O16      1.0000 0.89515  0.41335  0.40724  Biso   1.000  O
  H30      1.0000 0.89001  0.21951  0.37158  Biso   1.000  H
  C43      1.0000 0.86170  0.13129  0.42909  Biso   1.000  C
  C44      1.0000 0.76111  0.49551  0.26090  Biso   1.000  C
  H31      1.0000 0.84279  0.41851  0.29801  Biso   1.000  H
  C45      1.0000 0.85588  0.32909  0.28705  Biso   1.000  C
  O17      1.0000 0.86315  0.22629  0.26570  Biso   1.000  O
  C46      1.0000 0.91512  0.32298  0.32375  Biso   1.000  C
  S4       1.0000 0.94396  0.45746  0.43604  Biso   1.000  S
  H32      1.0000 0.83480  0.13879  0.39640  Biso   1.000  H
  H33      1.0000 0.84929  0.09288  0.44580  Biso   1.000  H
  H34      1.0000 0.90741  0.12999  0.41829  Biso   1.000  H
  H35      1.0000 0.80581  0.50049  0.24791  Biso   1.000  H
  H36      1.0000 0.76068  0.49408  0.30141  Biso   1.000  H
  H37      1.0000 0.73469  0.52930  0.24808  Biso   1.000  H
  C47      1.0000 0.84241  0.17720  0.23231  Biso   1.000  C
  H38      1.0000 0.94319  0.29050  0.30931  Biso   1.000  H
  H39      1.0000 0.94018  0.36090  0.32271  Biso   1.000  H
  O18      1.0000 0.91638  0.51476  0.43318  Biso   1.000  O
  O19      1.0000 0.96999  0.43238  0.48552  Biso   1.000  O
  C48      1.0000 0.00950  0.45719  0.38647  Biso   1.000  C
  H40      1.0000 0.84667  0.18779  0.19321  Biso   1.000  H
  H41      1.0000 0.79689  0.16800  0.24050  Biso   1.000  H
  H42      1.0000 0.86921  0.14202  0.24030  Biso   1.000  H
  F10      1.0000 0.98967  0.47478  0.33811  Biso   1.000  F
  F11      1.0000 0.05570  0.49381  0.40360  Biso   1.000  F
  F12      1.0000 0.03408  0.40227  0.38118  Biso   1.000  F
  C49      1.0000 0.48689  0.57179  0.48949  Biso   1.000  C
  O20      1.0000 0.47845  0.63295  0.47422  Biso   1.000  O
  H43      1.0000 0.45698  0.56179  0.51961  Biso   1.000  H
  H44      1.0000 0.47792  0.54608  0.45751  Biso   1.000  H
  H45      1.0000 0.53158  0.56538  0.50178  Biso   1.000  H
  C50      1.0000 0.48863  0.67495  0.51510  Biso   1.000  C
  C51      1.0000 0.47550  0.73396  0.50095  Biso   1.000  C
  C52      1.0000 0.51064  0.66037  0.56773  Biso   1.000  C
  C53      1.0000 0.44927  0.74989  0.44439  Biso   1.000  C
  C54      1.0000 0.48597  0.77847  0.54063  Biso   1.000  C
  H46      1.0000 0.51951  0.61967  0.57658  Biso   1.000  H
  C55      1.0000 0.51990  0.70443  0.60741  Biso   1.000  C
  C56      1.0000 0.37549  0.74675  0.44415  Biso   1.000  C
  H47      1.0000 0.46338  0.79090  0.43430  Biso   1.000  H
  H48      1.0000 0.46692  0.72171  0.41659  Biso   1.000  H
  C57      1.0000 0.50768  0.76371  0.59326  Biso   1.000  C
  H49      1.0000 0.47821  0.81930  0.53149  Biso   1.000  H
  C58      1.0000 0.54239  0.68747  0.66483  Biso   1.000  C
  C59      1.0000 0.34422  0.69187  0.43719  Biso   1.000  C
  C60      1.0000 0.33778  0.79763  0.45333  Biso   1.000  C
  O21      1.0000 0.51985  0.80575  0.63405  Biso   1.000  O
  H50      1.0000 0.56837  0.65018  0.66281  Biso   1.000  H
  H51      1.0000 0.57060  0.71969  0.67960  Biso   1.000  H
  C61      1.0000 0.48529  0.67796  0.70389  Biso   1.000  C
  C62      1.0000 0.27762  0.68990  0.43910  Biso   1.000  C
  H52      1.0000 0.36861  0.65629  0.43120  Biso   1.000  H
  C63      1.0000 0.27011  0.79400  0.45354  Biso   1.000  C
  O22      1.0000 0.37113  0.84932  0.46214  Biso   1.000  O
  C64      1.0000 0.51302  0.86727  0.61969  Biso   1.000  C
  C65      1.0000 0.45058  0.62497  0.70687  Biso   1.000  C
  C66      1.0000 0.46023  0.72530  0.73372  Biso   1.000  C
  C67      1.0000 0.46759  0.62259  0.72449  Biso   1.000  C
  O23      1.0000 0.24548  0.63219  0.43897  Biso   1.000  O
  C68      1.0000 0.23850  0.73921  0.44675  Biso   1.000  C
  H53      1.0000 0.24519  0.82949  0.45830  Biso   1.000  H
  C69      1.0000 0.33467  0.90227  0.47009  Biso   1.000  C
  H54      1.0000 0.52431  0.89226  0.65168  Biso   1.000  H
  H55      1.0000 0.54191  0.87678  0.58879  Biso   1.000  H
  H56      1.0000 0.46798  0.87517  0.60890  Biso   1.000  H
  O24      1.0000 0.46459  0.57740  0.66885  Biso   1.000  O
  C70      1.0000 0.39750  0.61720  0.74079  Biso   1.000  C
  O25      1.0000 0.50531  0.57130  0.70637  Biso   1.000  O
  C71      1.0000 0.41398  0.61397  0.75767  Biso   1.000  C
  C72      1.0000 0.40710  0.71789  0.76814  Biso   1.000  C
  H57      1.0000 0.47981  0.76380  0.73058  Biso   1.000  H
  S5       1.0000 0.24189  0.59024  0.38767  Biso   1.000  S
  C73      1.0000 0.16516  0.73539  0.45031  Biso   1.000  C
  H58      1.0000 0.30840  0.89837  0.50368  Biso   1.000  H
  H59      1.0000 0.36420  0.93646  0.47398  Biso   1.000  H
  H60      1.0000 0.30622  0.90869  0.43819  Biso   1.000  H
  S6       1.0000 0.51064  0.52701  0.68246  Biso   1.000  S
  S7       1.0000 0.48282  0.52069  0.66570  Biso   1.000  S
  O26      1.0000 0.41859  0.53280  0.64787  Biso   1.000  O
  H61      1.0000 0.37472  0.58010  0.74050  Biso   1.000  H
  C74      1.0000 0.37772  0.66279  0.77472  Biso   1.000  C
  H62      1.0000 0.40201  0.57458  0.76880  Biso   1.000  H
  O27      1.0000 0.54928  0.53940  0.73049  Biso   1.000  O
  O28      1.0000 0.38077  0.76366  0.79839  Biso   1.000  O
  C75      1.0000 0.28891  0.52890  0.41299  Biso   1.000  C
  O29      1.0000 0.27568  0.61420  0.34233  Biso   1.000  O
  O30      1.0000 0.17858  0.56901  0.38291  Biso   1.000  O
  C76      1.0000 0.14295  0.71947  0.50819  Biso   1.000  C
  H63      1.0000 0.14940  0.70457  0.42400  Biso   1.000  H
  H64      1.0000 0.14610  0.77439  0.43939  Biso   1.000  H
  O31      1.0000 0.54428  0.50758  0.63430  Biso   1.000  O
  C77      1.0000 0.45548  0.46877  0.70538  Biso   1.000  C
  O32      1.0000 0.53148  0.52019  0.62160  Biso   1.000  O
  C78      1.0000 0.52698  0.44651  0.67749  Biso   1.000  C
  F13      1.0000 0.41030  0.46271  0.66500  Biso   1.000  F
  C79      1.0000 0.31810  0.65449  0.81134  Biso   1.000  C
  C80      1.0000 0.41359  0.81998  0.79590  Biso   1.000  C
  F14      1.0000 0.28848  0.48483  0.37629  Biso   1.000  F
  F15      1.0000 0.26240  0.50871  0.45978  Biso   1.000  F
  F16      1.0000 0.34810  0.54545  0.42491  Biso   1.000  F
  C81      1.0000 0.13098  0.66118  0.52329  Biso   1.000  C
  C82      1.0000 0.13486  0.76470  0.54857  Biso   1.000  C
  F17      1.0000 0.42780  0.47649  0.75010  Biso   1.000  F
  F18      1.0000 0.48359  0.41757  0.70927  Biso   1.000  F
  F19      1.0000 0.47268  0.41169  0.67687  Biso   1.000  F
  F20      1.0000 0.54288  0.44728  0.73211  Biso   1.000  F
  F21      1.0000 0.56910  0.39940  0.66268  Biso   1.000  F
  C83      1.0000 0.25639  0.65970  0.77861  Biso   1.000  C
  H65      1.0000 0.31839  0.68527  0.84088  Biso   1.000  H
  H66      1.0000 0.31999  0.61460  0.82917  Biso   1.000  H
  H67      1.0000 0.39280  0.84829  0.82127  Biso   1.000  H
  H68      1.0000 0.45901  0.81450  0.80658  Biso   1.000  H
  H69      1.0000 0.41151  0.83568  0.75809  Biso   1.000  H
  C84      1.0000 0.11154  0.64808  0.57704  Biso   1.000  C
  H70      1.0000 0.13602  0.62977  0.49710  Biso   1.000  H
  O33      1.0000 0.14790  0.82150  0.53165  Biso   1.000  O
  C85      1.0000 0.11527  0.74948  0.60170  Biso   1.000  C
  C86      1.0000 0.23011  0.60931  0.75188  Biso   1.000  C
  C87      1.0000 0.22531  0.71408  0.77352  Biso   1.000  C
  O34      1.0000 0.10485  0.58660  0.59276  Biso   1.000  O
  C88      1.0000 0.10325  0.69088  0.61692  Biso   1.000  C
  C89      1.0000 0.13830  0.86871  0.57087  Biso   1.000  C
  H71      1.0000 0.10999  0.78049  0.62838  Biso   1.000  H
  C90      1.0000 0.17480  0.61577  0.71982  Biso   1.000  C
  O35      1.0000 0.26332  0.55618  0.75941  Biso   1.000  O
  C91      1.0000 0.16981  0.72090  0.74079  Biso   1.000  C
  H72      1.0000 0.24199  0.74787  0.79268  Biso   1.000  H
  S8       1.0000 0.05604  0.54249  0.56392  Biso   1.000  S
  C92      1.0000 0.08488  0.67697  0.67621  Biso   1.000  C
  H73      1.0000 0.16520  0.86117  0.60360  Biso   1.000  H
  H74      1.0000 0.15071  0.90707  0.55420  Biso   1.000  H
  H75      1.0000 0.09259  0.86996  0.58167  Biso   1.000  H
  C93      1.0000 0.14412  0.67087  0.71291  Biso   1.000  C
  H76      1.0000 0.15721  0.58149  0.70199  Biso   1.000  H
  C94      1.0000 0.23889  0.50449  0.73910  Biso   1.000  C
  O36      1.0000 0.13680  0.77367  0.73426  Biso   1.000  O
  O37      1.0000 0.08362  0.48519  0.56678  Biso   1.000  O
  O38      1.0000 0.03001  0.56758  0.51448  Biso   1.000  O
  C95      1.0000 0.99050  0.54281  0.61353  Biso   1.000  C
  H77      1.0000 0.05681  0.70950  0.69069  Biso   1.000  H
  H78      1.0000 0.05982  0.63910  0.67729  Biso   1.000  H
  H79      1.0000 0.19419  0.49951  0.75209  Biso   1.000  H
  H80      1.0000 0.23927  0.50588  0.69859  Biso   1.000  H
  H81      1.0000 0.26531  0.47070  0.75188  Biso   1.000  H
  C96      1.0000 0.15759  0.82280  0.76769  Biso   1.000  C
  F22      1.0000 0.01033  0.52522  0.66185  Biso   1.000  F
  F23      1.0000 0.94430  0.50619  0.59640  Biso   1.000  F
  F24      1.0000 0.96587  0.59768  0.61878  Biso   1.000  F
  H82      1.0000 0.15328  0.81217  0.80679  Biso   1.000  H
  H83      1.0000 0.20311  0.83200  0.75950  Biso   1.000  H
  H84      1.0000 0.13079  0.85798  0.75970  Biso   1.000  H
  C97      1.0000 0.63828  0.63129  0.42909  Biso   1.000  C
  O39      1.0000 0.64787  0.67850  0.46835  Biso   1.000  O
  H85      1.0000 0.66518  0.63879  0.39640  Biso   1.000  H
  H86      1.0000 0.65069  0.59288  0.44580  Biso   1.000  H
  H87      1.0000 0.59261  0.62999  0.41829  Biso   1.000  H
  C98      1.0000 0.63483  0.73530  0.45139  Biso   1.000  C
  C99      1.0000 0.64298  0.78049  0.49177  Biso   1.000  C
  C100     1.0000 0.61525  0.75047  0.39830  Biso   1.000  C
  C101     1.0000 0.63100  0.83878  0.47667  Biso   1.000  C
  C102     1.0000 0.66513  0.76461  0.54969  Biso   1.000  C
  C103     1.0000 0.60328  0.80907  0.38304  Biso   1.000  C
  H88      1.0000 0.61002  0.71947  0.37158  Biso   1.000  H
  C104     1.0000 0.61152  0.85188  0.42296  Biso   1.000  C
  H89      1.0000 0.63600  0.87019  0.50290  Biso   1.000  H
  C105     1.0000 0.73852  0.76079  0.55321  Biso   1.000  C
  H90      1.0000 0.64938  0.79539  0.57600  Biso   1.000  H
  H91      1.0000 0.64608  0.72557  0.56057  Biso   1.000  H
  C106     1.0000 0.58490  0.82298  0.32375  Biso   1.000  C
  O40      1.0000 0.60483  0.91335  0.40724  Biso   1.000  O
  C107     1.0000 0.77759  0.81010  0.56086  Biso   1.000  C
  C108     1.0000 0.77008  0.70600  0.54646  Biso   1.000  C
  C109     1.0000 0.64409  0.82909  0.28705  Biso   1.000  C
  H92      1.0000 0.55679  0.79050  0.30931  Biso   1.000  H
  H93      1.0000 0.55979  0.86090  0.32271  Biso   1.000  H
  S9       1.0000 0.55601  0.95746  0.43604  Biso   1.000  S
  O41      1.0000 0.74550  0.86776  0.56103  Biso   1.000  O
  C110     1.0000 0.84420  0.80809  0.56281  Biso   1.000  C
  C111     1.0000 0.83775  0.70232  0.54667  Biso   1.000  C
  H94      1.0000 0.74521  0.67047  0.54170  Biso   1.000  H
  C112     1.0000 0.67478  0.88419  0.28014  Biso   1.000  C
  C113     1.0000 0.66979  0.77910  0.25921  Biso   1.000  C
  O42      1.0000 0.52998  0.93238  0.48552  Biso   1.000  O
  C114     1.0000 0.49047  0.95719  0.38647  Biso   1.000  C
  O43      1.0000 0.58360  0.01476  0.43318  Biso   1.000  O
  S10      1.0000 0.74192  0.90976  0.61233  Biso   1.000  S
  H95      1.0000 0.86858  0.84367  0.56880  Biso   1.000  H
  C115     1.0000 0.87547  0.75321  0.55585  Biso   1.000  C
  O44      1.0000 0.87110  0.65068  0.53782  Biso   1.000  O
  C116     1.0000 0.73009  0.89069  0.24808  Biso   1.000  C
  H96      1.0000 0.65718  0.91847  0.29801  Biso   1.000  H
  O45      1.0000 0.63682  0.72629  0.26570  Biso   1.000  O
  C117     1.0000 0.72529  0.78587  0.22648  Biso   1.000  C
  F25      1.0000 0.51035  0.97478  0.33811  Biso   1.000  F
  F26      1.0000 0.44433  0.99381  0.40360  Biso   1.000  F
  F27      1.0000 0.46590  0.90227  0.38118  Biso   1.000  F
  O46      1.0000 0.77570  0.88580  0.65763  Biso   1.000  O
  O47      1.0000 0.67861  0.93099  0.61709  Biso   1.000  O
  C118     1.0000 0.78889  0.97110  0.58701  Biso   1.000  C
  C119     1.0000 0.94929  0.75007  0.55556  Biso   1.000  C
  C120     1.0000 0.83470  0.59768  0.52987  Biso   1.000  C
  O48      1.0000 0.76329  0.94378  0.24059  Biso   1.000  O
  C121     1.0000 0.75641  0.84030  0.22135  Biso   1.000  C
  C122     1.0000 0.65762  0.67720  0.23231  Biso   1.000  C
  H97      1.0000 0.74201  0.75209  0.20728  Biso   1.000  H
  F28      1.0000 0.76237  0.99129  0.54017  Biso   1.000  F
  F29      1.0000 0.84808  0.95450  0.57509  Biso   1.000  F
  F30      1.0000 0.78850  0.01517  0.62371  Biso   1.000  F
  H98      1.0000 0.96340  0.70910  0.56570  Biso   1.000  H
  H99      1.0000 0.96689  0.77829  0.58341  Biso   1.000  H
  C123     1.0000 0.97547  0.76600  0.49905  Biso   1.000  C
  H100     1.0000 0.80838  0.60159  0.49628  Biso   1.000  H
  H101     1.0000 0.86417  0.56349  0.52598  Biso   1.000  H
  H102     1.0000 0.80620  0.59127  0.56177  Biso   1.000  H
  C124     1.0000 0.73891  0.99547  0.26090  Biso   1.000  C
  C125     1.0000 0.81812  0.84546  0.18862  Biso   1.000  C
  H103     1.0000 0.65330  0.68779  0.19321  Biso   1.000  H
  H104     1.0000 0.70309  0.66800  0.24050  Biso   1.000  H
  H105     1.0000 0.63081  0.64197  0.24030  Biso   1.000  H
  C126     1.0000 0.98861  0.82500  0.48490  Biso   1.000  C
  C127     1.0000 0.98599  0.72153  0.45937  Biso   1.000  C
  H106     1.0000 0.73930  0.99408  0.30141  Biso   1.000  H
  H107     1.0000 0.69422  0.00049  0.24791  Biso   1.000  H
  H108     1.0000 0.76528  0.02930  0.24808  Biso   1.000  H
  C128     1.0000 0.87770  0.83721  0.22528  Biso   1.000  C
  H109     1.0000 0.81841  0.81468  0.15908  Biso   1.000  H
  H110     1.0000 0.82001  0.88540  0.17079  Biso   1.000  H
  O49      1.0000 0.97848  0.86700  0.52578  Biso   1.000  O
  C129     1.0000 0.01066  0.83959  0.43227  Biso   1.000  C
  H111     1.0000 0.97819  0.68070  0.46847  Biso   1.000  H
  C130     1.0000 0.00771  0.73629  0.40670  Biso   1.000  C
  C131     1.0000 0.89747  0.88280  0.25921  Biso   1.000  C
  C132     1.0000 0.90707  0.78211  0.23186  Biso   1.000  C
  C133     1.0000 0.91400  0.88598  0.24228  Biso   1.000  C
  C134     1.0000 0.98691  0.92816  0.51051  Biso   1.000  C
  H112     1.0000 0.01949  0.88028  0.42338  Biso   1.000  H
  C135     1.0000 0.01992  0.79557  0.39259  Biso   1.000  C
  O50      1.0000 0.01983  0.69420  0.36595  Biso   1.000  O
  C136     1.0000 0.95060  0.87499  0.29309  Biso   1.000  C
  H113     1.0000 0.87469  0.91990  0.25950  Biso   1.000  H
  C137     1.0000 0.96762  0.87737  0.27551  Biso   1.000  C
  H114     1.0000 0.90198  0.92538  0.23120  Biso   1.000  H
  O51      1.0000 0.88080  0.73634  0.20161  Biso   1.000  O
  C138     1.0000 0.96020  0.77466  0.26624  Biso   1.000  C
  H115     1.0000 0.95700  0.93817  0.48039  Biso   1.000  H
  H116     1.0000 0.97790  0.95387  0.54249  Biso   1.000  H
  H117     1.0000 0.03161  0.93458  0.49818  Biso   1.000  H
  C139     1.0000 0.04242  0.81248  0.33517  Biso   1.000  C
  C140     1.0000 0.01299  0.63268  0.38031  Biso   1.000  C
  O52      1.0000 0.96461  0.92260  0.33111  Biso   1.000  O
  C141     1.0000 0.98526  0.82204  0.29607  Biso   1.000  C
  O53      1.0000 0.00528  0.92870  0.29359  Biso   1.000  O
  C142     1.0000 0.91362  0.67998  0.20410  Biso   1.000  C
  H118     1.0000 0.97979  0.73620  0.26938  Biso   1.000  H
  H119     1.0000 0.06840  0.84977  0.33719  Biso   1.000  H
  H120     1.0000 0.07058  0.78027  0.32040  Biso   1.000  H
  H121     1.0000 0.96801  0.62479  0.39110  Biso   1.000  H
  H122     1.0000 0.02429  0.60769  0.34828  Biso   1.000  H
  H123     1.0000 0.04188  0.62317  0.41121  Biso   1.000  H
  S11      1.0000 0.98279  0.97927  0.33430  Biso   1.000  S
  O54      1.0000 0.91861  0.96720  0.35209  Biso   1.000  O
  S12      1.0000 0.01066  0.97294  0.31754  Biso   1.000  S
  O55      1.0000 0.04930  0.96060  0.26951  Biso   1.000  O
  H124     1.0000 0.89277  0.65171  0.17869  Biso   1.000  H
  H125     1.0000 0.95899  0.68550  0.19338  Biso   1.000  H
  H126     1.0000 0.91148  0.66427  0.24191  Biso   1.000  H
  F31      1.0000 0.91027  0.03729  0.33500  Biso   1.000  F
  C143     1.0000 0.95550  0.03119  0.29458  Biso   1.000  C
  O56      1.0000 0.04431  0.99237  0.36570  Biso   1.000  O
  O57      1.0000 0.03151  0.97976  0.37840  Biso   1.000  O
  C144     1.0000 0.02700  0.05349  0.32251  Biso   1.000  C
  F32      1.0000 0.92777  0.02351  0.24990  Biso   1.000  F
  F33      1.0000 0.98362  0.08238  0.29069  Biso   1.000  F
  F34      1.0000 0.97271  0.08831  0.32309  Biso   1.000  F
  F35      1.0000 0.04290  0.05268  0.26789  Biso   1.000  F
  F36      1.0000 0.06908  0.10060  0.33728  Biso   1.000  F
  C145     1.0000 0.36168  0.36871  0.57087  Biso   1.000  C
  O58      1.0000 0.35208  0.32150  0.53165  Biso   1.000  O
  H127     1.0000 0.33482  0.36121  0.60360  Biso   1.000  H
  H128     1.0000 0.34931  0.40707  0.55420  Biso   1.000  H
  H129     1.0000 0.40739  0.37001  0.58167  Biso   1.000  H
  C146     1.0000 0.36517  0.26470  0.54857  Biso   1.000  C
  C147     1.0000 0.35702  0.21951  0.50819  Biso   1.000  C
  C148     1.0000 0.38475  0.24948  0.60170  Biso   1.000  C
  C149     1.0000 0.33487  0.23539  0.45031  Biso   1.000  C
  C150     1.0000 0.36900  0.16118  0.52329  Biso   1.000  C
  C151     1.0000 0.39672  0.19088  0.61692  Biso   1.000  C
  H130     1.0000 0.38998  0.28049  0.62838  Biso   1.000  H
  C152     1.0000 0.26148  0.23921  0.44675  Biso   1.000  C
  H131     1.0000 0.35057  0.20461  0.42400  Biso   1.000  H
  H132     1.0000 0.35392  0.27439  0.43939  Biso   1.000  H
  C153     1.0000 0.38848  0.14808  0.57704  Biso   1.000  C
  H133     1.0000 0.36400  0.12981  0.49710  Biso   1.000  H
  C154     1.0000 0.41510  0.17702  0.67621  Biso   1.000  C
  C155     1.0000 0.22241  0.18990  0.43910  Biso   1.000  C
  C156     1.0000 0.22992  0.29400  0.45354  Biso   1.000  C
  O59      1.0000 0.39517  0.08665  0.59276  Biso   1.000  O
  C157     1.0000 0.35591  0.17091  0.71291  Biso   1.000  C
  H134     1.0000 0.44321  0.20950  0.69069  Biso   1.000  H
  H135     1.0000 0.44021  0.13910  0.67729  Biso   1.000  H
  O60      1.0000 0.25450  0.13224  0.43897  Biso   1.000  O
  C158     1.0000 0.15580  0.19191  0.43719  Biso   1.000  C
  C159     1.0000 0.16225  0.29763  0.45333  Biso   1.000  C
  H136     1.0000 0.25479  0.32949  0.45830  Biso   1.000  H
  S13      1.0000 0.44399  0.04254  0.56392  Biso   1.000  S
  C160     1.0000 0.32522  0.11581  0.71982  Biso   1.000  C
  C161     1.0000 0.33021  0.22090  0.74079  Biso   1.000  C
  S14      1.0000 0.25808  0.09024  0.38767  Biso   1.000  S
  H137     1.0000 0.13142  0.15629  0.43120  Biso   1.000  H
  C162     1.0000 0.12453  0.24675  0.44415  Biso   1.000  C
  O61      1.0000 0.12890  0.34932  0.46214  Biso   1.000  O
  O62      1.0000 0.47002  0.06762  0.51448  Biso   1.000  O
  C163     1.0000 0.50948  0.04281  0.61353  Biso   1.000  C
  O63      1.0000 0.41640  0.98519  0.56678  Biso   1.000  O
  C164     1.0000 0.26991  0.10931  0.75188  Biso   1.000  C
  H138     1.0000 0.34282  0.08149  0.70199  Biso   1.000  H
  O64      1.0000 0.36318  0.27371  0.73426  Biso   1.000  O
  C165     1.0000 0.27471  0.21408  0.77352  Biso   1.000  C
  O65      1.0000 0.22430  0.11420  0.34233  Biso   1.000  O
  O66      1.0000 0.32139  0.06901  0.38291  Biso   1.000  O
  C166     1.0000 0.21111  0.02890  0.41299  Biso   1.000  C
  C167     1.0000 0.05071  0.24989  0.44439  Biso   1.000  C
  C168     1.0000 0.16530  0.40227  0.47009  Biso   1.000  C
  F37      1.0000 0.48965  0.02522  0.66185  Biso   1.000  F
  F38      1.0000 0.55567  0.00619  0.59640  Biso   1.000  F
  F39      1.0000 0.53410  0.09768  0.61878  Biso   1.000  F
  O67      1.0000 0.23671  0.05618  0.75941  Biso   1.000  O
  C169     1.0000 0.24359  0.15970  0.77861  Biso   1.000  C
  C170     1.0000 0.34238  0.32280  0.76769  Biso   1.000  C
  H139     1.0000 0.25799  0.24791  0.79268  Biso   1.000  H
  F40      1.0000 0.23758  0.00871  0.45978  Biso   1.000  F
  F41      1.0000 0.15192  0.04545  0.42491  Biso   1.000  F
  F42      1.0000 0.21150  0.98483  0.37629  Biso   1.000  F
  H140     1.0000 0.03660  0.29090  0.43430  Biso   1.000  H
  H141     1.0000 0.03311  0.22171  0.41659  Biso   1.000  H
  C171     1.0000 0.02448  0.23400  0.50095  Biso   1.000  C
  H142     1.0000 0.19157  0.39841  0.50368  Biso   1.000  H
  H143     1.0000 0.13578  0.43651  0.47398  Biso   1.000  H
  H144     1.0000 0.19380  0.40869  0.43819  Biso   1.000  H
  C172     1.0000 0.26109  0.00449  0.73910  Biso   1.000  C
  C173     1.0000 0.18188  0.15449  0.81134  Biso   1.000  C
  H145     1.0000 0.34670  0.31221  0.80679  Biso   1.000  H
  H146     1.0000 0.29691  0.33200  0.75950  Biso   1.000  H
  H147     1.0000 0.36919  0.35798  0.75970  Biso   1.000  H
  C174     1.0000 0.01139  0.17500  0.51510  Biso   1.000  C
  C175     1.0000 0.01401  0.27847  0.54063  Biso   1.000  C
  H148     1.0000 0.26070  0.00588  0.69859  Biso   1.000  H
  H149     1.0000 0.30578  0.99946  0.75209  Biso   1.000  H
  H150     1.0000 0.23472  0.97070  0.75188  Biso   1.000  H
  C176     1.0000 0.12230  0.16279  0.77472  Biso   1.000  C
  H151     1.0000 0.18159  0.18532  0.84088  Biso   1.000  H
  H152     1.0000 0.17999  0.11460  0.82917  Biso   1.000  H
  O68      1.0000 0.02152  0.13295  0.47422  Biso   1.000  O
  C177     1.0000 0.98934  0.16041  0.56773  Biso   1.000  C
  H153     1.0000 0.02181  0.31930  0.53149  Biso   1.000  H
  C178     1.0000 0.99229  0.26371  0.59326  Biso   1.000  C
  C179     1.0000 0.10248  0.11720  0.74079  Biso   1.000  C
  C180     1.0000 0.08600  0.11402  0.75767  Biso   1.000  C
  C181     1.0000 0.09293  0.21789  0.76814  Biso   1.000  C
  C182     1.0000 0.01309  0.07179  0.48949  Biso   1.000  C
  H154     1.0000 0.98051  0.11972  0.57658  Biso   1.000  H
  C183     1.0000 0.98008  0.20443  0.60741  Biso   1.000  C
  O69      1.0000 0.98013  0.30575  0.63405  Biso   1.000  O
  C184     1.0000 0.04940  0.12501  0.70687  Biso   1.000  C
  C185     1.0000 0.03238  0.12259  0.72449  Biso   1.000  C
  H155     1.0000 0.12531  0.08010  0.74050  Biso   1.000  H
  H156     1.0000 0.09802  0.07462  0.76880  Biso   1.000  H
  C186     1.0000 0.03980  0.22530  0.73372  Biso   1.000  C
  O70      1.0000 0.11920  0.26366  0.79839  Biso   1.000  O
  H157     1.0000 0.04300  0.06179  0.51961  Biso   1.000  H
  H158     1.0000 0.02210  0.04608  0.45751  Biso   1.000  H
  H159     1.0000 0.96839  0.06538  0.50178  Biso   1.000  H
  C187     1.0000 0.95758  0.18752  0.66483  Biso   1.000  C
  C188     1.0000 0.98701  0.36732  0.61969  Biso   1.000  C
  C189     1.0000 0.01469  0.17796  0.70389  Biso   1.000  C
  O71      1.0000 0.03539  0.07740  0.66885  Biso   1.000  O
  O72      1.0000 0.99472  0.07130  0.70637  Biso   1.000  O
  H160     1.0000 0.02021  0.26380  0.73058  Biso   1.000  H
  C190     1.0000 0.08638  0.31998  0.79590  Biso   1.000  C
  H161     1.0000 0.93160  0.15018  0.66281  Biso   1.000  H
  H162     1.0000 0.92937  0.21969  0.67960  Biso   1.000  H
  H163     1.0000 0.03199  0.37521  0.60890  Biso   1.000  H
  H164     1.0000 0.97571  0.39231  0.65168  Biso   1.000  H
  H165     1.0000 0.95812  0.37678  0.58879  Biso   1.000  H
  S15      1.0000 0.01721  0.02069  0.66570  Biso   1.000  S
  O73      1.0000 0.08139  0.03280  0.64787  Biso   1.000  O
  S16      1.0000 0.98934  0.02701  0.68246  Biso   1.000  S
  O74      1.0000 0.95070  0.03940  0.73049  Biso   1.000  O
  H166     1.0000 0.10718  0.34829  0.82127  Biso   1.000  H
  H167     1.0000 0.04101  0.31450  0.80658  Biso   1.000  H
  H168     1.0000 0.08852  0.33568  0.75809  Biso   1.000  H
  C191     1.0000 0.97300  0.94647  0.67749  Biso   1.000  C
  O75      1.0000 0.95569  0.00758  0.63430  Biso   1.000  O
  O76      1.0000 0.96849  0.02019  0.62160  Biso   1.000  O
  F43      1.0000 0.08968  0.96267  0.66500  Biso   1.000  F
  C192     1.0000 0.04450  0.96877  0.70538  Biso   1.000  C
  F44      1.0000 0.95710  0.94728  0.73211  Biso   1.000  F
  F45      1.0000 0.93087  0.89940  0.66268  Biso   1.000  F
  F46      1.0000 0.01638  0.91757  0.70927  Biso   1.000  F
  F47      1.0000 0.02729  0.91169  0.67687  Biso   1.000  F
  F48      1.0000 0.07218  0.97649  0.75010  Biso   1.000  F
  C193     1.0000 0.58641  0.31998  0.70410  Biso   1.000  C
  O77      1.0000 0.61918  0.26366  0.70157  Biso   1.000  O
  H169     1.0000 0.60720  0.34829  0.67869  Biso   1.000  H
  H170     1.0000 0.54099  0.31450  0.69338  Biso   1.000  H
  H171     1.0000 0.58849  0.33568  0.74187  Biso   1.000  H
  C194     1.0000 0.59290  0.21789  0.73186  Biso   1.000  C
  C195     1.0000 0.62228  0.16279  0.72524  Biso   1.000  C
  C196     1.0000 0.53977  0.22530  0.76624  Biso   1.000  C
  C197     1.0000 0.60250  0.11720  0.75921  Biso   1.000  C
  C198     1.0000 0.68190  0.15449  0.68862  Biso   1.000  C
  C199     1.0000 0.58602  0.11402  0.74228  Biso   1.000  C
  C200     1.0000 0.51471  0.17796  0.79607  Biso   1.000  C
  H172     1.0000 0.52019  0.26380  0.76938  Biso   1.000  H
  C201     1.0000 0.54942  0.12501  0.79309  Biso   1.000  C
  H173     1.0000 0.62528  0.08010  0.75950  Biso   1.000  H
  C202     1.0000 0.53241  0.12259  0.77551  Biso   1.000  C
  H174     1.0000 0.59799  0.07462  0.73120  Biso   1.000  H
  H175     1.0000 0.68161  0.18532  0.65908  Biso   1.000  H
  H176     1.0000 0.68001  0.11460  0.67079  Biso   1.000  H
  C203     1.0000 0.74361  0.15970  0.72135  Biso   1.000  C
  C204     1.0000 0.45761  0.18752  0.83513  Biso   1.000  C
  O78      1.0000 0.53541  0.07740  0.83111  Biso   1.000  O
  O79      1.0000 0.49469  0.07130  0.79359  Biso   1.000  O
  C205     1.0000 0.76989  0.10931  0.74808  Biso   1.000  C
  C206     1.0000 0.77469  0.21408  0.72644  Biso   1.000  C
  C207     1.0000 0.48010  0.20443  0.89255  Biso   1.000  C
  H177     1.0000 0.43158  0.15018  0.83719  Biso   1.000  H
  H178     1.0000 0.42940  0.21969  0.82040  Biso   1.000  H
  S17      1.0000 0.48936  0.02701  0.81750  Biso   1.000  S
  S18      1.0000 0.51718  0.02069  0.83430  Biso   1.000  S
  O80      1.0000 0.58141  0.03280  0.85209  Biso   1.000  O
  O81      1.0000 0.45068  0.03940  0.76951  Biso   1.000  O
  O82      1.0000 0.73668  0.05618  0.74059  Biso   1.000  O
  C208     1.0000 0.82520  0.11581  0.78014  Biso   1.000  C
  C209     1.0000 0.83019  0.22090  0.75921  Biso   1.000  C
  H179     1.0000 0.75801  0.24791  0.70728  Biso   1.000  H
  C210     1.0000 0.48936  0.16041  0.93223  Biso   1.000  C
  C211     1.0000 0.49232  0.26371  0.90670  Biso   1.000  C
  O83      1.0000 0.45572  0.00758  0.86570  Biso   1.000  O
  O84      1.0000 0.46852  0.02019  0.87840  Biso   1.000  O
  C212     1.0000 0.54448  0.96877  0.79458  Biso   1.000  C
  C213     1.0000 0.47297  0.94647  0.82247  Biso   1.000  C
  F49      1.0000 0.58970  0.96267  0.83500  Biso   1.000  F
  C214     1.0000 0.76111  0.00449  0.76090  Biso   1.000  C
  H180     1.0000 0.84279  0.08149  0.79797  Biso   1.000  H
  C215     1.0000 0.85588  0.17091  0.78705  Biso   1.000  C
  O85      1.0000 0.86315  0.27371  0.76570  Biso   1.000  O
  C216     1.0000 0.51137  0.17500  0.98490  Biso   1.000  C
  H181     1.0000 0.48049  0.11972  0.92338  Biso   1.000  H
  O86      1.0000 0.48015  0.30575  0.86595  Biso   1.000  O
  C217     1.0000 0.51399  0.27847  0.95937  Biso   1.000  C
  F50      1.0000 0.57220  0.97649  0.74990  Biso   1.000  F
  F51      1.0000 0.51641  0.91757  0.79069  Biso   1.000  F
  F52      1.0000 0.52732  0.91169  0.82309  Biso   1.000  F
  F53      1.0000 0.45707  0.94728  0.76789  Biso   1.000  F
  F54      1.0000 0.43090  0.89940  0.83728  Biso   1.000  F
  H182     1.0000 0.76068  0.00588  0.80141  Biso   1.000  H
  H183     1.0000 0.80581  0.99946  0.74787  Biso   1.000  H
  H184     1.0000 0.73469  0.97070  0.74808  Biso   1.000  H
  C218     1.0000 0.91512  0.17702  0.82375  Biso   1.000  C
  C219     1.0000 0.84241  0.32280  0.73227  Biso   1.000  C
  C220     1.0000 0.52450  0.23400  0.99901  Biso   1.000  C
  O87      1.0000 0.52155  0.13295  0.02578  Biso   1.000  O
  C221     1.0000 0.48698  0.36732  0.88026  Biso   1.000  C
  H185     1.0000 0.52179  0.31930  0.96847  Biso   1.000  H
  H186     1.0000 0.94319  0.20950  0.80927  Biso   1.000  H
  H187     1.0000 0.94018  0.13910  0.82267  Biso   1.000  H
  C222     1.0000 0.89675  0.19088  0.88304  Biso   1.000  C
  H188     1.0000 0.84667  0.31221  0.69317  Biso   1.000  H
  H189     1.0000 0.79689  0.33200  0.74050  Biso   1.000  H
  H190     1.0000 0.86921  0.35798  0.74030  Biso   1.000  H
  C223     1.0000 0.55073  0.24989  0.05556  Biso   1.000  C
  C224     1.0000 0.51311  0.07179  0.01051  Biso   1.000  C
  H191     1.0000 0.47569  0.39231  0.84828  Biso   1.000  H
  H192     1.0000 0.45809  0.37678  0.91117  Biso   1.000  H
  H193     1.0000 0.53202  0.37521  0.89110  Biso   1.000  H
  C225     1.0000 0.88846  0.14808  0.92296  Biso   1.000  C
  C226     1.0000 0.88473  0.24948  0.89830  Biso   1.000  C
  C227     1.0000 0.62451  0.24675  0.05585  Biso   1.000  C
  H194     1.0000 0.53657  0.29090  0.06570  Biso   1.000  H
  H195     1.0000 0.53308  0.22171  0.08341  Biso   1.000  H
  H196     1.0000 0.54297  0.06179  0.98039  Biso   1.000  H
  H197     1.0000 0.46842  0.06538  0.99818  Biso   1.000  H
  H198     1.0000 0.52208  0.04608  0.04249  Biso   1.000  H
  O88      1.0000 0.89515  0.08665  0.90720  Biso   1.000  O
  C228     1.0000 0.86902  0.16118  0.97667  Biso   1.000  C
  C229     1.0000 0.86514  0.26470  0.95139  Biso   1.000  C
  H199     1.0000 0.89001  0.28049  0.87158  Biso   1.000  H
  C230     1.0000 0.65578  0.19191  0.06281  Biso   1.000  C
  C231     1.0000 0.66222  0.29763  0.04667  Biso   1.000  C
  S19      1.0000 0.94396  0.04254  0.93604  Biso   1.000  S
  C232     1.0000 0.85705  0.21951  0.99177  Biso   1.000  C
  H200     1.0000 0.86398  0.12981  0.00290  Biso   1.000  H
  O89      1.0000 0.85210  0.32150  0.96835  Biso   1.000  O
  C233     1.0000 0.72238  0.18990  0.06090  Biso   1.000  C
  H201     1.0000 0.63139  0.15629  0.06880  Biso   1.000  H
  O90      1.0000 0.62887  0.34932  0.03786  Biso   1.000  O
  C234     1.0000 0.72989  0.29400  0.04646  Biso   1.000  C
  O91      1.0000 0.96999  0.06762  0.98552  Biso   1.000  O
  O92      1.0000 0.91638  0.98519  0.93318  Biso   1.000  O
  C235     1.0000 0.00950  0.04281  0.88647  Biso   1.000  C
  C236     1.0000 0.83484  0.23539  0.04969  Biso   1.000  C
  C237     1.0000 0.86170  0.36871  0.92909  Biso   1.000  C
  O93      1.0000 0.75452  0.13224  0.06103  Biso   1.000  O
  C238     1.0000 0.76145  0.23921  0.05325  Biso   1.000  C
  C239     1.0000 0.66528  0.40227  0.02991  Biso   1.000  C
  H202     1.0000 0.75481  0.32949  0.04170  Biso   1.000  H
  F55      1.0000 0.98967  0.02522  0.83811  Biso   1.000  F
  F56      1.0000 0.05570  0.00619  0.90360  Biso   1.000  F
  F57      1.0000 0.03408  0.09768  0.88118  Biso   1.000  F
  H203     1.0000 0.85060  0.20461  0.07600  Biso   1.000  H
  H204     1.0000 0.85390  0.27439  0.06061  Biso   1.000  H
  H205     1.0000 0.83480  0.36121  0.89640  Biso   1.000  H
  H206     1.0000 0.84929  0.40707  0.94580  Biso   1.000  H
  H207     1.0000 0.90741  0.37001  0.91829  Biso   1.000  H
  S20      1.0000 0.75811  0.09024  0.11233  Biso   1.000  S
  H208     1.0000 0.69160  0.39841  0.99628  Biso   1.000  H
  H209     1.0000 0.63580  0.43651  0.02598  Biso   1.000  H
  H210     1.0000 0.69378  0.40869  0.06181  Biso   1.000  H
  O94      1.0000 0.72432  0.11420  0.15763  Biso   1.000  O
  O95      1.0000 0.82142  0.06901  0.11709  Biso   1.000  O
  C240     1.0000 0.71109  0.02890  0.08701  Biso   1.000  C
  F58      1.0000 0.71147  0.98483  0.12371  Biso   1.000  F
  F59      1.0000 0.73760  0.00871  0.04022  Biso   1.000  F
  F60      1.0000 0.65190  0.04545  0.07509  Biso   1.000  F
  C241     1.0000 0.41359  0.67998  0.29590  Biso   1.000  C
  O96      1.0000 0.38077  0.73634  0.29839  Biso   1.000  O
  H211     1.0000 0.39280  0.65171  0.32131  Biso   1.000  H
  H212     1.0000 0.45901  0.68550  0.30658  Biso   1.000  H
  H213     1.0000 0.41151  0.66427  0.25809  Biso   1.000  H
  C242     1.0000 0.40710  0.78211  0.26814  Biso   1.000  C
  C243     1.0000 0.37772  0.83721  0.27472  Biso   1.000  C
  C244     1.0000 0.46023  0.77466  0.23372  Biso   1.000  C
  C245     1.0000 0.31810  0.84546  0.31134  Biso   1.000  C
  C246     1.0000 0.39750  0.88280  0.24079  Biso   1.000  C
  C247     1.0000 0.41398  0.88598  0.25772  Biso   1.000  C
  C248     1.0000 0.48529  0.82204  0.20393  Biso   1.000  C
  H214     1.0000 0.47981  0.73620  0.23062  Biso   1.000  H
  C249     1.0000 0.25639  0.84030  0.27861  Biso   1.000  C
  H215     1.0000 0.31839  0.81468  0.34088  Biso   1.000  H
  H216     1.0000 0.31999  0.88540  0.32921  Biso   1.000  H
  C250     1.0000 0.45058  0.87499  0.20691  Biso   1.000  C
  H217     1.0000 0.37472  0.91990  0.24050  Biso   1.000  H
  C251     1.0000 0.46759  0.87737  0.22449  Biso   1.000  C
  H218     1.0000 0.40201  0.92538  0.26880  Biso   1.000  H
  C252     1.0000 0.54239  0.81248  0.16483  Biso   1.000  C
  C253     1.0000 0.22531  0.78587  0.27352  Biso   1.000  C
  C254     1.0000 0.23011  0.89069  0.25188  Biso   1.000  C
  O97      1.0000 0.46459  0.92260  0.16889  Biso   1.000  O
  O98      1.0000 0.50531  0.92870  0.20641  Biso   1.000  O
  C255     1.0000 0.51990  0.79557  0.10741  Biso   1.000  C
  H219     1.0000 0.56837  0.84977  0.16281  Biso   1.000  H
  H220     1.0000 0.57060  0.78027  0.17960  Biso   1.000  H
  C256     1.0000 0.16981  0.77910  0.24079  Biso   1.000  C
  H221     1.0000 0.24199  0.75209  0.29268  Biso   1.000  H
  C257     1.0000 0.17480  0.88419  0.21986  Biso   1.000  C
  O99      1.0000 0.26332  0.94378  0.25941  Biso   1.000  O
  S21      1.0000 0.51064  0.97294  0.18246  Biso   1.000  S
  S22      1.0000 0.48282  0.97927  0.16570  Biso   1.000  S
  O100     1.0000 0.41859  0.96720  0.14791  Biso   1.000  O
  O101     1.0000 0.54928  0.96060  0.23049  Biso   1.000  O
  C258     1.0000 0.51064  0.83959  0.06773  Biso   1.000  C
  C259     1.0000 0.50768  0.73629  0.09330  Biso   1.000  C
  O102     1.0000 0.13680  0.72629  0.23426  Biso   1.000  O
  C260     1.0000 0.14412  0.82909  0.21291  Biso   1.000  C
  H222     1.0000 0.15721  0.91847  0.20199  Biso   1.000  H
  C261     1.0000 0.23889  0.99547  0.23910  Biso   1.000  C
  O103     1.0000 0.54428  0.99237  0.13430  Biso   1.000  O
  O104     1.0000 0.53148  0.97976  0.12160  Biso   1.000  O
  C262     1.0000 0.45548  0.03119  0.20538  Biso   1.000  C
  C263     1.0000 0.52698  0.05349  0.17749  Biso   1.000  C
  F61      1.0000 0.41030  0.03729  0.16500  Biso   1.000  F
  C264     1.0000 0.48863  0.82500  0.01510  Biso   1.000  C
  H223     1.0000 0.51951  0.88028  0.07658  Biso   1.000  H
  O105     1.0000 0.51985  0.69420  0.13405  Biso   1.000  O
  C265     1.0000 0.48597  0.72153  0.04063  Biso   1.000  C
  C266     1.0000 0.15759  0.67720  0.26769  Biso   1.000  C
  C267     1.0000 0.08488  0.82298  0.17621  Biso   1.000  C
  H224     1.0000 0.23927  0.99408  0.19859  Biso   1.000  H
  H225     1.0000 0.19419  0.00049  0.25209  Biso   1.000  H
  H226     1.0000 0.26531  0.02930  0.25188  Biso   1.000  H
  F62      1.0000 0.42780  0.02351  0.25010  Biso   1.000  F
  F63      1.0000 0.48359  0.08238  0.20931  Biso   1.000  F
  F64      1.0000 0.47268  0.08831  0.17691  Biso   1.000  F
  F65      1.0000 0.54288  0.05268  0.23211  Biso   1.000  F
  F66      1.0000 0.56910  0.10060  0.16268  Biso   1.000  F
  C268     1.0000 0.47550  0.76600  0.00095  Biso   1.000  C
  O106     1.0000 0.47845  0.86700  0.97422  Biso   1.000  O
  C269     1.0000 0.51302  0.63268  0.11969  Biso   1.000  C
  H227     1.0000 0.47821  0.68070  0.03149  Biso   1.000  H
  H228     1.0000 0.15328  0.68779  0.30679  Biso   1.000  H
  H229     1.0000 0.20311  0.66800  0.25950  Biso   1.000  H
  H230     1.0000 0.13079  0.64197  0.25970  Biso   1.000  H
  H231     1.0000 0.05681  0.79050  0.19069  Biso   1.000  H
  H232     1.0000 0.05982  0.86090  0.17729  Biso   1.000  H
  C270     1.0000 0.10325  0.80907  0.11692  Biso   1.000  C
  C271     1.0000 0.44927  0.75007  0.94439  Biso   1.000  C
  C272     1.0000 0.48689  0.92816  0.98949  Biso   1.000  C
  H233     1.0000 0.52431  0.60769  0.15172  Biso   1.000  H
  H234     1.0000 0.54191  0.62317  0.08879  Biso   1.000  H
  H235     1.0000 0.46798  0.62479  0.10890  Biso   1.000  H
  C273     1.0000 0.11154  0.85188  0.07704  Biso   1.000  C
  C274     1.0000 0.11527  0.75047  0.10170  Biso   1.000  C
  C275     1.0000 0.37549  0.75321  0.94415  Biso   1.000  C
  H236     1.0000 0.46338  0.70910  0.93430  Biso   1.000  H
  H237     1.0000 0.46692  0.77829  0.91659  Biso   1.000  H
  H238     1.0000 0.45698  0.93817  0.01961  Biso   1.000  H
  H239     1.0000 0.53158  0.93458  0.00182  Biso   1.000  H
  H240     1.0000 0.47792  0.95387  0.95747  Biso   1.000  H
  O107     1.0000 0.10485  0.91335  0.09276  Biso   1.000  O
  C276     1.0000 0.13098  0.83878  0.02329  Biso   1.000  C
  C277     1.0000 0.13486  0.73530  0.04861  Biso   1.000  C
  H241     1.0000 0.10999  0.71947  0.12838  Biso   1.000  H
  C278     1.0000 0.34422  0.80809  0.93719  Biso   1.000  C
  C279     1.0000 0.33778  0.70232  0.95333  Biso   1.000  C
  S23      1.0000 0.05604  0.95746  0.06396  Biso   1.000  S
  C280     1.0000 0.14295  0.78049  0.00819  Biso   1.000  C
  H242     1.0000 0.13602  0.87019  0.99710  Biso   1.000  H
  O108     1.0000 0.14790  0.67850  0.03165  Biso   1.000  O
  C281     1.0000 0.27762  0.81010  0.93910  Biso   1.000  C
  H243     1.0000 0.36861  0.84367  0.93120  Biso   1.000  H
  C282     1.0000 0.27011  0.70600  0.95350  Biso   1.000  C
  O109     1.0000 0.37113  0.65068  0.96214  Biso   1.000  O
  O110     1.0000 0.03001  0.93238  0.01448  Biso   1.000  O
  C283     1.0000 0.99050  0.95719  0.11353  Biso   1.000  C
  O111     1.0000 0.08362  0.01476  0.06682  Biso   1.000  O
  C284     1.0000 0.16516  0.76461  0.95027  Biso   1.000  C
  C285     1.0000 0.13830  0.63129  0.07091  Biso   1.000  C
  C286     1.0000 0.23850  0.76079  0.94675  Biso   1.000  C
  O112     1.0000 0.24548  0.86776  0.93897  Biso   1.000  O
  H244     1.0000 0.24519  0.67047  0.95830  Biso   1.000  H
  C287     1.0000 0.33467  0.59768  0.97009  Biso   1.000  C
  F67      1.0000 0.01033  0.97478  0.16185  Biso   1.000  F
  F68      1.0000 0.94430  0.99381  0.09640  Biso   1.000  F
  F69      1.0000 0.96587  0.90227  0.11882  Biso   1.000  F
  H245     1.0000 0.14940  0.79539  0.92400  Biso   1.000  H
  H246     1.0000 0.14610  0.72557  0.93939  Biso   1.000  H
  H247     1.0000 0.16520  0.63879  0.10360  Biso   1.000  H
  H248     1.0000 0.15071  0.59288  0.05420  Biso   1.000  H
  H249     1.0000 0.09259  0.62999  0.08171  Biso   1.000  H
  S24      1.0000 0.24189  0.90976  0.88767  Biso   1.000  S
  H250     1.0000 0.30840  0.60159  0.00368  Biso   1.000  H
  H251     1.0000 0.36420  0.56349  0.97398  Biso   1.000  H
  H252     1.0000 0.30622  0.59127  0.93819  Biso   1.000  H
  O113     1.0000 0.27568  0.88580  0.84233  Biso   1.000  O
  O114     1.0000 0.17858  0.93099  0.88287  Biso   1.000  O
  C288     1.0000 0.28891  0.97110  0.91299  Biso   1.000  C
  F70      1.0000 0.26240  0.99129  0.95978  Biso   1.000  F
  F71      1.0000 0.34810  0.95450  0.92487  Biso   1.000  F
  F72      1.0000 0.28848  0.01517  0.87629  Biso   1.000  F
  C289     1.0000 0.73891  0.50449  0.76090  Biso   1.000  C
  O115     1.0000 0.76329  0.55618  0.74059  Biso   1.000  O
  H253     1.0000 0.69422  0.49951  0.74787  Biso   1.000  H
  H254     1.0000 0.73930  0.50588  0.80141  Biso   1.000  H
  H255     1.0000 0.76528  0.47070  0.74808  Biso   1.000  H
  C290     1.0000 0.73009  0.60931  0.74808  Biso   1.000  C
  C291     1.0000 0.75641  0.65970  0.72135  Biso   1.000  C
  C292     1.0000 0.67478  0.61577  0.78014  Biso   1.000  C
  C293     1.0000 0.81812  0.65449  0.68862  Biso   1.000  C
  C294     1.0000 0.72529  0.71408  0.72644  Biso   1.000  C
  H256     1.0000 0.65718  0.58149  0.79797  Biso   1.000  H
  C295     1.0000 0.64409  0.67087  0.78705  Biso   1.000  C
  C296     1.0000 0.87770  0.66279  0.72524  Biso   1.000  C
  H257     1.0000 0.81841  0.68527  0.65908  Biso   1.000  H
  H258     1.0000 0.82001  0.61460  0.67079  Biso   1.000  H
  C297     1.0000 0.66979  0.72090  0.75921  Biso   1.000  C
  H259     1.0000 0.74201  0.74787  0.70728  Biso   1.000  H
  C298     1.0000 0.58490  0.67697  0.82375  Biso   1.000  C
  C299     1.0000 0.89747  0.61720  0.75921  Biso   1.000  C
  C300     1.0000 0.90707  0.71789  0.73186  Biso   1.000  C
  C301     1.0000 0.91400  0.61397  0.74228  Biso   1.000  C
  O116     1.0000 0.63682  0.77367  0.76570  Biso   1.000  O
  H260     1.0000 0.55679  0.70950  0.80927  Biso   1.000  H
  H261     1.0000 0.55979  0.63910  0.82267  Biso   1.000  H
  C302     1.0000 0.60328  0.69088  0.88304  Biso   1.000  C
  C303     1.0000 0.95060  0.62497  0.79309  Biso   1.000  C
  H262     1.0000 0.87469  0.58010  0.75950  Biso   1.000  H
  C304     1.0000 0.96762  0.62259  0.77551  Biso   1.000  C
  H263     1.0000 0.90198  0.57458  0.73120  Biso   1.000  H
  O117     1.0000 0.88080  0.76366  0.70157  Biso   1.000  O
  C305     1.0000 0.96020  0.72530  0.76624  Biso   1.000  C
  C306     1.0000 0.65762  0.82280  0.73227  Biso   1.000  C
  C307     1.0000 0.61152  0.64808  0.92296  Biso   1.000  C
  C308     1.0000 0.61525  0.74948  0.89830  Biso   1.000  C
  O118     1.0000 0.96461  0.57740  0.83111  Biso   1.000  O
  C309     1.0000 0.98526  0.67796  0.79607  Biso   1.000  C
  O119     1.0000 0.00528  0.57130  0.79359  Biso   1.000  O
  C310     1.0000 0.91362  0.81998  0.70410  Biso   1.000  C
  H264     1.0000 0.97979  0.76380  0.76938  Biso   1.000  H
  H265     1.0000 0.65330  0.81217  0.69317  Biso   1.000  H
  H266     1.0000 0.70309  0.83200  0.74050  Biso   1.000  H
  H267     1.0000 0.63081  0.85798  0.74030  Biso   1.000  H
  O120     1.0000 0.60483  0.58660  0.90720  Biso   1.000  O
  C311     1.0000 0.63100  0.66118  0.97667  Biso   1.000  C
  C312     1.0000 0.63483  0.76470  0.95139  Biso   1.000  C
  H268     1.0000 0.61002  0.78049  0.87158  Biso   1.000  H
  S25      1.0000 0.98279  0.52069  0.83430  Biso   1.000  S
  O121     1.0000 0.91861  0.53280  0.85209  Biso   1.000  O
  S26      1.0000 0.01066  0.52701  0.81750  Biso   1.000  S
  C313     1.0000 0.04242  0.68747  0.83513  Biso   1.000  C
  O122     1.0000 0.04930  0.53940  0.76951  Biso   1.000  O
  H269     1.0000 0.89277  0.84829  0.67869  Biso   1.000  H
  H270     1.0000 0.95899  0.81450  0.69338  Biso   1.000  H
  H271     1.0000 0.91148  0.83568  0.74187  Biso   1.000  H
  S27      1.0000 0.55601  0.54249  0.93604  Biso   1.000  S
  C314     1.0000 0.64298  0.71947  0.99177  Biso   1.000  C
  H272     1.0000 0.63600  0.62977  0.00290  Biso   1.000  H
  O123     1.0000 0.64787  0.82150  0.96835  Biso   1.000  O
  F73      1.0000 0.91027  0.46271  0.83500  Biso   1.000  F
  C315     1.0000 0.95550  0.46877  0.79458  Biso   1.000  C
  O124     1.0000 0.04431  0.50758  0.86570  Biso   1.000  O
  O125     1.0000 0.03151  0.52019  0.87840  Biso   1.000  O
  C316     1.0000 0.02700  0.44651  0.82247  Biso   1.000  C
  C317     1.0000 0.01992  0.70443  0.89255  Biso   1.000  C
  H273     1.0000 0.06840  0.65018  0.83719  Biso   1.000  H
  H274     1.0000 0.07058  0.71969  0.82040  Biso   1.000  H
  O126     1.0000 0.58360  0.48519  0.93318  Biso   1.000  O
  O127     1.0000 0.52998  0.56758  0.98552  Biso   1.000  O
  C318     1.0000 0.49047  0.54281  0.88647  Biso   1.000  C
  C319     1.0000 0.66513  0.73539  0.04969  Biso   1.000  C
  C320     1.0000 0.63828  0.86871  0.92909  Biso   1.000  C
  F74      1.0000 0.92777  0.47649  0.74990  Biso   1.000  F
  F75      1.0000 0.98362  0.41757  0.79069  Biso   1.000  F
  F76      1.0000 0.97271  0.41169  0.82309  Biso   1.000  F
  F77      1.0000 0.04290  0.44728  0.76789  Biso   1.000  F
  F78      1.0000 0.06908  0.39940  0.83728  Biso   1.000  F
  C321     1.0000 0.01066  0.66037  0.93223  Biso   1.000  C
  C322     1.0000 0.00771  0.76371  0.90670  Biso   1.000  C
  F79      1.0000 0.51035  0.52522  0.83811  Biso   1.000  F
  F80      1.0000 0.44433  0.50619  0.90360  Biso   1.000  F
  F81      1.0000 0.46590  0.59768  0.88118  Biso   1.000  F
  C323     1.0000 0.73852  0.73921  0.05325  Biso   1.000  C
  H275     1.0000 0.64938  0.70457  0.07600  Biso   1.000  H
  H276     1.0000 0.64608  0.77439  0.06061  Biso   1.000  H
  H277     1.0000 0.66518  0.86117  0.89640  Biso   1.000  H
  H278     1.0000 0.65069  0.90707  0.94580  Biso   1.000  H
  H279     1.0000 0.59261  0.86996  0.91829  Biso   1.000  H
  C324     1.0000 0.98861  0.67495  0.98490  Biso   1.000  C
  H280     1.0000 0.01949  0.61967  0.92338  Biso   1.000  H
  C325     1.0000 0.98599  0.77847  0.95937  Biso   1.000  C
  O128     1.0000 0.01983  0.80575  0.86595  Biso   1.000  O
  C326     1.0000 0.77759  0.68990  0.06090  Biso   1.000  C
  C327     1.0000 0.77008  0.79400  0.04646  Biso   1.000  C
  C328     1.0000 0.97547  0.73396  0.99901  Biso   1.000  C
  O129     1.0000 0.97848  0.63295  0.02578  Biso   1.000  O
  H281     1.0000 0.97819  0.81930  0.96847  Biso   1.000  H
  C329     1.0000 0.01299  0.86727  0.88026  Biso   1.000  C
  O130     1.0000 0.74550  0.63219  0.06103  Biso   1.000  O
  C330     1.0000 0.84420  0.69187  0.06281  Biso   1.000  C
  C331     1.0000 0.83775  0.79763  0.04667  Biso   1.000  C
  H282     1.0000 0.74521  0.82949  0.04170  Biso   1.000  H
  C332     1.0000 0.94929  0.74989  0.05556  Biso   1.000  C
  C333     1.0000 0.98691  0.57179  0.01051  Biso   1.000  C
  H283     1.0000 0.96801  0.87517  0.89110  Biso   1.000  H
  H284     1.0000 0.02429  0.89226  0.84828  Biso   1.000  H
  H285     1.0000 0.04188  0.87678  0.91117  Biso   1.000  H
  S28      1.0000 0.74192  0.59024  0.11233  Biso   1.000  S
  H286     1.0000 0.86858  0.65629  0.06880  Biso   1.000  H
  C334     1.0000 0.87547  0.74675  0.05585  Biso   1.000  C
  O131     1.0000 0.87110  0.84932  0.03786  Biso   1.000  O
  H287     1.0000 0.96340  0.79090  0.06570  Biso   1.000  H
  H288     1.0000 0.96689  0.72171  0.08341  Biso   1.000  H
  H289     1.0000 0.95700  0.56179  0.98039  Biso   1.000  H
  H290     1.0000 0.97790  0.54608  0.04249  Biso   1.000  H
  H291     1.0000 0.03161  0.56538  0.99818  Biso   1.000  H
  O132     1.0000 0.77570  0.61420  0.15763  Biso   1.000  O
  O133     1.0000 0.67861  0.56901  0.11709  Biso   1.000  O
  C335     1.0000 0.78889  0.52890  0.08701  Biso   1.000  C
  C336     1.0000 0.83470  0.90227  0.02991  Biso   1.000  C
  F82      1.0000 0.78850  0.48483  0.12371  Biso   1.000  F
  F83      1.0000 0.76237  0.50871  0.04022  Biso   1.000  F
  F84      1.0000 0.84808  0.54545  0.07509  Biso   1.000  F
  H292     1.0000 0.80838  0.89837  0.99628  Biso   1.000  H
  H293     1.0000 0.86417  0.93646  0.02598  Biso   1.000  H
  H294     1.0000 0.80620  0.90869  0.06181  Biso   1.000  H
  C337     1.0000 0.26109  0.49551  0.23910  Biso   1.000  C
  O134     1.0000 0.23671  0.44378  0.25941  Biso   1.000  O
  H295     1.0000 0.30578  0.50049  0.25209  Biso   1.000  H
  H296     1.0000 0.26070  0.49408  0.19859  Biso   1.000  H
  H297     1.0000 0.23472  0.52930  0.25188  Biso   1.000  H
  C338     1.0000 0.26991  0.39069  0.25188  Biso   1.000  C
  C339     1.0000 0.24359  0.34030  0.27861  Biso   1.000  C
  C340     1.0000 0.32522  0.38419  0.21986  Biso   1.000  C
  C341     1.0000 0.27471  0.28587  0.27352  Biso   1.000  C
  C342     1.0000 0.18188  0.34551  0.31134  Biso   1.000  C
  C343     1.0000 0.35591  0.32909  0.21291  Biso   1.000  C
  H298     1.0000 0.34282  0.41851  0.20199  Biso   1.000  H
  C344     1.0000 0.33021  0.27910  0.24079  Biso   1.000  C
  H299     1.0000 0.25799  0.25209  0.29268  Biso   1.000  H
  C345     1.0000 0.12230  0.33721  0.27472  Biso   1.000  C
  H300     1.0000 0.18159  0.31468  0.34088  Biso   1.000  H
  H301     1.0000 0.17999  0.38540  0.32921  Biso   1.000  H
  C346     1.0000 0.41510  0.32298  0.17621  Biso   1.000  C
  O135     1.0000 0.36318  0.22629  0.23426  Biso   1.000  O
  C347     1.0000 0.10248  0.38280  0.24079  Biso   1.000  C
  C348     1.0000 0.09293  0.28211  0.26814  Biso   1.000  C
  C349     1.0000 0.08600  0.38598  0.25772  Biso   1.000  C
  H302     1.0000 0.44321  0.29050  0.19069  Biso   1.000  H
  H303     1.0000 0.44021  0.36090  0.17729  Biso   1.000  H
  C350     1.0000 0.39672  0.30907  0.11692  Biso   1.000  C
  C351     1.0000 0.34238  0.17720  0.26769  Biso   1.000  C
  C352     1.0000 0.04940  0.37499  0.20691  Biso   1.000  C
  H304     1.0000 0.12531  0.41990  0.24050  Biso   1.000  H
  C353     1.0000 0.03238  0.37741  0.22449  Biso   1.000  C
  H305     1.0000 0.09802  0.42538  0.26880  Biso   1.000  H
  O136     1.0000 0.11920  0.23634  0.29839  Biso   1.000  O
  C354     1.0000 0.03980  0.27470  0.23372  Biso   1.000  C
  C355     1.0000 0.38848  0.35188  0.07704  Biso   1.000  C
  C356     1.0000 0.38475  0.25052  0.10170  Biso   1.000  C
  H306     1.0000 0.34670  0.18779  0.30679  Biso   1.000  H
  H307     1.0000 0.29691  0.16800  0.25950  Biso   1.000  H
  H308     1.0000 0.36919  0.14202  0.25970  Biso   1.000  H
  O137     1.0000 0.03539  0.42260  0.16889  Biso   1.000  O
  C357     1.0000 0.01469  0.32204  0.20393  Biso   1.000  C
  O138     1.0000 0.99472  0.42870  0.20641  Biso   1.000  O
  C358     1.0000 0.08638  0.17998  0.29590  Biso   1.000  C
  H309     1.0000 0.02021  0.23620  0.23062  Biso   1.000  H
  O139     1.0000 0.39517  0.41335  0.09276  Biso   1.000  O
  C359     1.0000 0.36900  0.33878  0.02329  Biso   1.000  C
  C360     1.0000 0.36517  0.23530  0.04861  Biso   1.000  C
  H310     1.0000 0.38998  0.21951  0.12838  Biso   1.000  H
  S29      1.0000 0.01721  0.47927  0.16570  Biso   1.000  S
  O140     1.0000 0.08139  0.46720  0.14791  Biso   1.000  O
  S30      1.0000 0.98934  0.47299  0.18246  Biso   1.000  S
  C361     1.0000 0.95758  0.31248  0.16483  Biso   1.000  C
  O141     1.0000 0.95070  0.46060  0.23049  Biso   1.000  O
  H311     1.0000 0.10718  0.15171  0.32131  Biso   1.000  H
  H312     1.0000 0.04101  0.18550  0.30658  Biso   1.000  H
  H313     1.0000 0.08852  0.16432  0.25809  Biso   1.000  H
  S31      1.0000 0.44399  0.45746  0.06396  Biso   1.000  S
  C362     1.0000 0.35702  0.28049  0.00819  Biso   1.000  C
  H314     1.0000 0.36400  0.37019  0.99710  Biso   1.000  H
  O142     1.0000 0.35208  0.17850  0.03165  Biso   1.000  O
  F85      1.0000 0.08968  0.53729  0.16500  Biso   1.000  F
  C363     1.0000 0.04450  0.53119  0.20538  Biso   1.000  C
  O143     1.0000 0.95569  0.49237  0.13430  Biso   1.000  O
  O144     1.0000 0.96849  0.47981  0.12160  Biso   1.000  O
  C364     1.0000 0.97300  0.55349  0.17749  Biso   1.000  C
  C365     1.0000 0.98008  0.29557  0.10741  Biso   1.000  C
  H315     1.0000 0.93160  0.34982  0.16281  Biso   1.000  H
  H316     1.0000 0.92937  0.28031  0.17960  Biso   1.000  H
  O145     1.0000 0.41640  0.51476  0.06682  Biso   1.000  O
  O146     1.0000 0.47002  0.43238  0.01448  Biso   1.000  O
  C366     1.0000 0.50948  0.45719  0.11353  Biso   1.000  C
  C367     1.0000 0.33487  0.26461  0.95027  Biso   1.000  C
  C368     1.0000 0.36168  0.13129  0.07091  Biso   1.000  C
  F86      1.0000 0.07218  0.52351  0.25010  Biso   1.000  F
  F87      1.0000 0.01638  0.58238  0.20931  Biso   1.000  F
  F88      1.0000 0.02729  0.58831  0.17691  Biso   1.000  F
  F89      1.0000 0.95710  0.55268  0.23211  Biso   1.000  F
  F90      1.0000 0.93087  0.60060  0.16268  Biso   1.000  F
  C369     1.0000 0.98934  0.33959  0.06773  Biso   1.000  C
  C370     1.0000 0.99229  0.23629  0.09330  Biso   1.000  C
  F91      1.0000 0.48965  0.47478  0.16185  Biso   1.000  F
  F92      1.0000 0.55567  0.49381  0.09640  Biso   1.000  F
  F93      1.0000 0.53410  0.40227  0.11882  Biso   1.000  F
  C371     1.0000 0.26148  0.26079  0.94675  Biso   1.000  C
  H317     1.0000 0.35057  0.29539  0.92400  Biso   1.000  H
  H318     1.0000 0.35392  0.22561  0.93939  Biso   1.000  H
  H319     1.0000 0.33482  0.13879  0.10360  Biso   1.000  H
  H320     1.0000 0.34931  0.09288  0.05420  Biso   1.000  H
  H321     1.0000 0.40739  0.12999  0.08171  Biso   1.000  H
  C372     1.0000 0.01139  0.32500  0.01510  Biso   1.000  C
  H322     1.0000 0.98051  0.38028  0.07658  Biso   1.000  H
  C373     1.0000 0.01401  0.22153  0.04063  Biso   1.000  C
  O147     1.0000 0.98013  0.19420  0.13405  Biso   1.000  O
  C374     1.0000 0.22241  0.31010  0.93910  Biso   1.000  C
  C375     1.0000 0.22992  0.20600  0.95350  Biso   1.000  C
  C376     1.0000 0.02448  0.26600  0.00095  Biso   1.000  C
  O148     1.0000 0.02152  0.36700  0.97422  Biso   1.000  O
  H323     1.0000 0.02181  0.18070  0.03149  Biso   1.000  H
  C377     1.0000 0.98701  0.13268  0.11969  Biso   1.000  C
  O149     1.0000 0.25450  0.36776  0.93897  Biso   1.000  O
  C378     1.0000 0.15580  0.30809  0.93719  Biso   1.000  C
  C379     1.0000 0.16225  0.20232  0.95333  Biso   1.000  C
  H324     1.0000 0.25479  0.17051  0.95830  Biso   1.000  H
  C380     1.0000 0.05071  0.25011  0.94439  Biso   1.000  C
  C381     1.0000 0.01309  0.42821  0.98949  Biso   1.000  C
  H325     1.0000 0.03199  0.12479  0.10890  Biso   1.000  H
  H326     1.0000 0.97571  0.10769  0.15172  Biso   1.000  H
  H327     1.0000 0.95812  0.12322  0.08879  Biso   1.000  H
  S32      1.0000 0.25808  0.40976  0.88767  Biso   1.000  S
  H328     1.0000 0.13142  0.34371  0.93120  Biso   1.000  H
  C382     1.0000 0.12453  0.25321  0.94415  Biso   1.000  C
  O150     1.0000 0.12890  0.15068  0.96214  Biso   1.000  O
  H329     1.0000 0.03660  0.20910  0.93430  Biso   1.000  H
  H330     1.0000 0.03311  0.27829  0.91659  Biso   1.000  H
  H331     1.0000 0.04300  0.43821  0.01961  Biso   1.000  H
  H332     1.0000 0.96839  0.43458  0.00182  Biso   1.000  H
  H333     1.0000 0.02210  0.45387  0.95747  Biso   1.000  H
  O151     1.0000 0.22430  0.38580  0.84233  Biso   1.000  O
  O152     1.0000 0.32139  0.43099  0.88287  Biso   1.000  O
  C383     1.0000 0.21111  0.47110  0.91299  Biso   1.000  C
  C384     1.0000 0.16530  0.09768  0.97009  Biso   1.000  C
  F94      1.0000 0.21150  0.51517  0.87629  Biso   1.000  F
  F95      1.0000 0.23758  0.49129  0.95978  Biso   1.000  F
  F96      1.0000 0.15192  0.45450  0.92487  Biso   1.000  F
  H334     1.0000 0.19157  0.10159  0.00368  Biso   1.000  H
  H335     1.0000 0.13578  0.06349  0.97398  Biso   1.000  H
  H336     1.0000 0.19380  0.09131  0.93819  Biso   1.000  H
  Ne1      1.0000 0.17973  0.37532  0.10660  Biso   1.000  Ne
  He1      1.0000 0.18323  0.15346  0.14755  Biso   1.000  He
  He2      1.0000 0.21561  0.50909  0.08958  Biso   1.000  He
  Ar1      1.0000 0.19652  0.34280  0.10056  Biso   1.000  Ar
  Ne2      1.0000 0.17973  0.12466  0.60659  Biso   1.000  Ne
  He3      1.0000 0.18503  0.37708  0.65393  Biso   1.000  He
  He4      1.0000 0.26287  0.01596  0.58625  Biso   1.000  He
  Ar2      1.0000 0.19654  0.15717  0.60054  Biso   1.000  Ar
  Ne3      1.0000 0.67973  0.37532  0.39339  Biso   1.000  Ne
  He5      1.0000 0.71759  0.49704  0.41051  Biso   1.000  He
  He6      1.0000 0.68492  0.12488  0.34645  Biso   1.000  He
  Ar3      1.0000 0.69665  0.34295  0.39928  Biso   1.000  Ar
  Ne4      1.0000 0.32026  0.62466  0.60659  Biso   1.000  Ne
  He7      1.0000 0.31696  0.84325  0.64689  Biso   1.000  He
  He8      1.0000 0.26398  0.42427  0.58868  Biso   1.000  He
  Ar4      1.0000 0.30349  0.65729  0.60057  Biso   1.000  Ar
  Ne5      1.0000 0.32026  0.87532  0.10660  Biso   1.000  Ne
  He9      1.0000 0.31666  0.65157  0.14797  Biso   1.000  He
  He10     1.0000 0.28497  0.01292  0.08962  Biso   1.000  He
  Ar5      1.0000 0.30350  0.84276  0.10056  Biso   1.000  Ar
  Ne6      1.0000 0.82027  0.87532  0.39339  Biso   1.000  Ne
  He11     1.0000 0.78497  0.01293  0.41037  Biso   1.000  He
  He12     1.0000 0.81526  0.62791  0.34712  Biso   1.000  He
  Ar6      1.0000 0.80348  0.84285  0.39944  Biso   1.000  Ar
  Ne7      1.0000 0.67973  0.12466  0.89339  Biso   1.000  Ne
  He13     1.0000 0.72892  0.06189  0.91019  Biso   1.000  He
  He14     1.0000 0.68485  0.37407  0.84664  Biso   1.000  He
  Ar7      1.0000 0.69650  0.15724  0.89944  Biso   1.000  Ar
  Ne8      1.0000 0.82027  0.62466  0.89339  Biso   1.000  Ne
  He15     1.0000 0.77095  0.56257  0.91018  Biso   1.000  He
  He16     1.0000 0.81663  0.84881  0.85194  Biso   1.000  He
  Ar8      1.0000 0.80347  0.65719  0.89945  Biso   1.000  Ar
