data_image0
_cell_length_a       27.809
_cell_length_b       27.809
_cell_length_c       20.776
_cell_angle_alpha    90
_cell_angle_beta     90
_cell_angle_gamma    90

_symmetry_space_group_name_H-M    "P 1"
_symmetry_int_tables_number       1

loop_
  _symmetry_equiv_pos_as_xyz
  'x, y, z'

loop_
  _atom_site_label
  _atom_site_occupancy
  _atom_site_fract_x
  _atom_site_fract_y
  _atom_site_fract_z
  _atom_site_thermal_displace_type
  _atom_site_B_iso_or_equiv
  _atom_site_type_symbol
  C1       1.0000 0.54637  0.45068  0.42419  Biso   1.000  C
  N1       1.0000 0.51501  0.41674  0.45572  Biso   1.000  N
  N2       1.0000 0.58233  0.42857  0.38492  Biso   1.000  N
  H1       1.0000 0.52670  0.47240  0.39700  Biso   1.000  H
  H2       1.0000 0.56241  0.47060  0.45731  Biso   1.000  H
  C2       1.0000 0.46755  0.41267  0.44142  Biso   1.000  C
  C3       1.0000 0.52792  0.39034  0.51410  Biso   1.000  C
  C4       1.0000 0.62922  0.41472  0.41018  Biso   1.000  C
  C5       1.0000 0.58434  0.43680  0.32042  Biso   1.000  C
  N3       1.0000 0.44705  0.38157  0.48469  Biso   1.000  N
  O1       1.0000 0.44705  0.43281  0.39753  Biso   1.000  O
  C6       1.0000 0.47941  0.36668  0.53398  Biso   1.000  C
  N4       1.0000 0.55975  0.34981  0.50313  Biso   1.000  N
  H3       1.0000 0.54051  0.41220  0.54842  Biso   1.000  H
  N5       1.0000 0.63048  0.36686  0.43752  Biso   1.000  N
  C7       1.0000 0.66018  0.41059  0.35021  Biso   1.000  C
  H4       1.0000 0.64209  0.43928  0.44080  Biso   1.000  H
  O2       1.0000 0.55173  0.45345  0.28759  Biso   1.000  O
  N6       1.0000 0.62868  0.42393  0.29871  Biso   1.000  N
  C8       1.0000 0.39570  0.37135  0.48580  Biso   1.000  C
  N7       1.0000 0.49160  0.31526  0.53259  Biso   1.000  N
  H5       1.0000 0.46859  0.37740  0.57759  Biso   1.000  H
  C9       1.0000 0.53828  0.30749  0.51762  Biso   1.000  C
  C10      1.0000 0.61156  0.35535  0.50029  Biso   1.000  C
  C11      1.0000 0.65849  0.33622  0.40369  Biso   1.000  C
  N8       1.0000 0.67406  0.35999  0.35012  Biso   1.000  N
  H6       1.0000 0.68888  0.43220  0.35252  Biso   1.000  H
  C12      1.0000 0.64497  0.43443  0.23392  Biso   1.000  C
  N9       1.0000 0.38437  0.32281  0.46289  Biso   1.000  N
  H7       1.0000 0.37880  0.39509  0.45851  Biso   1.000  H
  H8       1.0000 0.38369  0.37499  0.53042  Biso   1.000  H
  C13      1.0000 0.46186  0.28034  0.56430  Biso   1.000  C
  O3       1.0000 0.55838  0.26790  0.51877  Biso   1.000  O
  H9       1.0000 0.62109  0.38110  0.53061  Biso   1.000  H
  H10      1.0000 0.62660  0.32511  0.51531  Biso   1.000  H
  O4       1.0000 0.66957  0.29501  0.41914  Biso   1.000  O
  C14      1.0000 0.71272  0.34075  0.31002  Biso   1.000  C
  N10      1.0000 0.64979  0.39253  0.19498  Biso   1.000  N
  H11      1.0000 0.62181  0.45658  0.21332  Biso   1.000  H
  H12      1.0000 0.67640  0.45101  0.23619  Biso   1.000  H
  C15      1.0000 0.36445  0.31537  0.40470  Biso   1.000  C
  C16      1.0000 0.38016  0.28210  0.50529  Biso   1.000  C
  N11      1.0000 0.42558  0.25963  0.52219  Biso   1.000  N
  H13      1.0000 0.44568  0.29580  0.60142  Biso   1.000  H
  H14      1.0000 0.48251  0.25420  0.58120  Biso   1.000  H
  N12      1.0000 0.69708  0.32943  0.24499  Biso   1.000  N
  H15      1.0000 0.73908  0.36449  0.30790  Biso   1.000  H
  H16      1.0000 0.72559  0.31119  0.33038  Biso   1.000  H
  C17      1.0000 0.62415  0.38513  0.14059  Biso   1.000  C
  C18      1.0000 0.69463  0.36459  0.19441  Biso   1.000  C
  N13      1.0000 0.34794  0.26883  0.40292  Biso   1.000  N
  O5       1.0000 0.36132  0.34474  0.36109  Biso   1.000  O
  C19      1.0000 0.35467  0.24453  0.46250  Biso   1.000  C
  H17      1.0000 0.36071  0.29001  0.54443  Biso   1.000  H
  C20      1.0000 0.42842  0.21331  0.49711  Biso   1.000  C
  C21      1.0000 0.69377  0.28343  0.22271  Biso   1.000  C
  N14      1.0000 0.64680  0.35197  0.10450  Biso   1.000  N
  O6       1.0000 0.58672  0.40652  0.12721  Biso   1.000  O
  C22      1.0000 0.69082  0.33421  0.13318  Biso   1.000  C
  H18      1.0000 0.72369  0.38581  0.19393  Biso   1.000  H
  C23      1.0000 0.31472  0.25200  0.35320  Biso   1.000  C
  N15      1.0000 0.38995  0.20490  0.46092  Biso   1.000  N
  H19      1.0000 0.32338  0.23399  0.48161  Biso   1.000  H
  O7       1.0000 0.46208  0.18534  0.50818  Biso   1.000  O
  N16      1.0000 0.68704  0.28538  0.15778  Biso   1.000  N
  O8       1.0000 0.69657  0.24632  0.25457  Biso   1.000  O
  C24      1.0000 0.63116  0.33791  0.04038  Biso   1.000  C
  H20      1.0000 0.71919  0.33849  0.10421  Biso   1.000  H
  N17      1.0000 0.33716  0.21971  0.30911  Biso   1.000  N
  H21      1.0000 0.28721  0.23561  0.37399  Biso   1.000  H
  H22      1.0000 0.30210  0.28009  0.32932  Biso   1.000  H
  C25      1.0000 0.37909  0.15847  0.43242  Biso   1.000  C
  C26      1.0000 0.69251  0.24345  0.11759  Biso   1.000  C
  N18      1.0000 0.60430  0.29275  0.03870  Biso   1.000  N
  H23      1.0000 0.65979  0.33478  0.01242  Biso   1.000  H
  H24      1.0000 0.61070  0.36370  0.02238  Biso   1.000  H
  C27      1.0000 0.34021  0.22971  0.24369  Biso   1.000  C
  C28      1.0000 0.34284  0.16779  0.32032  Biso   1.000  C
  N19      1.0000 0.38311  0.15747  0.36403  Biso   1.000  N
  H25      1.0000 0.40120  0.13420  0.45071  Biso   1.000  H
  H26      1.0000 0.34590  0.14920  0.44460  Biso   1.000  H
  N20      1.0000 0.64799  0.22655  0.09131  Biso   1.000  N
  H27      1.0000 0.71470  0.25121  0.08178  Biso   1.000  H
  H28      1.0000 0.70729  0.21741  0.14319  Biso   1.000  H
  C29      1.0000 0.55651  0.29059  0.03278  Biso   1.000  C
  C30      1.0000 0.62660  0.24586  0.03321  Biso   1.000  C
  O9       1.0000 0.33277  0.26851  0.21780  Biso   1.000  O
  N21      1.0000 0.35489  0.18836  0.21260  Biso   1.000  N
  C31      1.0000 0.35801  0.14869  0.25650  Biso   1.000  C
  H29      1.0000 0.31220  0.15261  0.33548  Biso   1.000  H
  C32      1.0000 0.41900  0.13384  0.32980  Biso   1.000  C
  C33      1.0000 0.62749  0.18411  0.10931  Biso   1.000  C
  N22      1.0000 0.54177  0.24417  0.02792  Biso   1.000  N
  O10      1.0000 0.52911  0.32587  0.02888  Biso   1.000  O
  C34      1.0000 0.58330  0.21191  0.02171  Biso   1.000  C
  H30      1.0000 0.64968  0.24481  0.99639  Biso   1.000  H
  C35      1.0000 0.35701  0.18530  0.14401  Biso   1.000  C
  N23      1.0000 0.40760  0.13194  0.26819  Biso   1.000  N
  H31      1.0000 0.33680  0.12162  0.24249  Biso   1.000  H
  O11      1.0000 0.45554  0.11791  0.35618  Biso   1.000  O
  N24      1.0000 0.58826  0.17638  0.07162  Biso   1.000  N
  O12      1.0000 0.64238  0.15840  0.15210  Biso   1.000  O
  C36      1.0000 0.49369  0.22842  0.00958  Biso   1.000  C
  H32      1.0000 0.58459  0.19691  0.97791  Biso   1.000  H
  N25      1.0000 0.40451  0.18242  0.11672  Biso   1.000  N
  H33      1.0000 0.34068  0.21389  0.12582  Biso   1.000  H
  H34      1.0000 0.33860  0.15671  0.13020  Biso   1.000  H
  C37      1.0000 0.43209  0.09979  0.22531  Biso   1.000  C
  C38      1.0000 0.56201  0.13140  0.07369  Biso   1.000  C
  N26      1.0000 0.46888  0.20296  0.05968  Biso   1.000  N
  H35      1.0000 0.47438  0.25690  0.99721  Biso   1.000  H
  H36      1.0000 0.49621  0.20731  0.97131  Biso   1.000  H
  C39      1.0000 0.43148  0.13769  0.11220  Biso   1.000  C
  C40      1.0000 0.42720  0.21899  0.08572  Biso   1.000  C
  N27      1.0000 0.45550  0.12363  0.17020  Biso   1.000  N
  H37      1.0000 0.40868  0.07598  0.20870  Biso   1.000  H
  H38      1.0000 0.45679  0.08199  0.24990  Biso   1.000  H
  N28      1.0000 0.51487  0.13535  0.10170  Biso   1.000  N
  H39      1.0000 0.55881  0.11881  0.02941  Biso   1.000  H
  H40      1.0000 0.58089  0.10770  0.09882  Biso   1.000  H
  C41      1.0000 0.47301  0.15099  0.06652  Biso   1.000  C
  H41      1.0000 0.41141  0.11101  0.09439  Biso   1.000  H
  O13      1.0000 0.41087  0.26071  0.08139  Biso   1.000  O
  C42      1.0000 0.50458  0.11996  0.16129  Biso   1.000  C
  H42      1.0000 0.47010  0.13420  0.02411  Biso   1.000  H
  O14      1.0000 0.53407  0.10525  0.20071  Biso   1.000  O
  C43      1.0000 0.45363  0.54928  0.42419  Biso   1.000  C
  N29      1.0000 0.41767  0.57143  0.38492  Biso   1.000  N
  N30      1.0000 0.48499  0.58326  0.45572  Biso   1.000  N
  H43      1.0000 0.47330  0.52760  0.39700  Biso   1.000  H
  H44      1.0000 0.43759  0.52940  0.45731  Biso   1.000  H
  C44      1.0000 0.41566  0.56320  0.32042  Biso   1.000  C
  C45      1.0000 0.37078  0.58524  0.41018  Biso   1.000  C
  C46      1.0000 0.47208  0.60966  0.51410  Biso   1.000  C
  C47      1.0000 0.53245  0.58733  0.44142  Biso   1.000  C
  N31      1.0000 0.37132  0.57607  0.29871  Biso   1.000  N
  O15      1.0000 0.44827  0.54651  0.28759  Biso   1.000  O
  C48      1.0000 0.33982  0.58941  0.35021  Biso   1.000  C
  N32      1.0000 0.36952  0.63314  0.43752  Biso   1.000  N
  H45      1.0000 0.35791  0.56068  0.44080  Biso   1.000  H
  N33      1.0000 0.44025  0.65019  0.50313  Biso   1.000  N
  H46      1.0000 0.45949  0.58780  0.54842  Biso   1.000  H
  C49      1.0000 0.52059  0.63332  0.53398  Biso   1.000  C
  O16      1.0000 0.55295  0.56719  0.39753  Biso   1.000  O
  N34      1.0000 0.55295  0.61843  0.48469  Biso   1.000  N
  C50      1.0000 0.35503  0.56557  0.23392  Biso   1.000  C
  N35      1.0000 0.32594  0.63997  0.35012  Biso   1.000  N
  H47      1.0000 0.31109  0.56780  0.35252  Biso   1.000  H
  C51      1.0000 0.34147  0.66378  0.40369  Biso   1.000  C
  C52      1.0000 0.38844  0.64465  0.50029  Biso   1.000  C
  C53      1.0000 0.46172  0.69247  0.51762  Biso   1.000  C
  N36      1.0000 0.50840  0.68474  0.53259  Biso   1.000  N
  H48      1.0000 0.53141  0.62260  0.57759  Biso   1.000  H
  C54      1.0000 0.60426  0.62865  0.48580  Biso   1.000  C
  N37      1.0000 0.35021  0.60747  0.19498  Biso   1.000  N
  H49      1.0000 0.37819  0.54339  0.21332  Biso   1.000  H
  H50      1.0000 0.32360  0.54899  0.23619  Biso   1.000  H
  C55      1.0000 0.28728  0.65925  0.31002  Biso   1.000  C
  O17      1.0000 0.33043  0.70495  0.41914  Biso   1.000  O
  H51      1.0000 0.37891  0.61890  0.53061  Biso   1.000  H
  H52      1.0000 0.37340  0.67489  0.51531  Biso   1.000  H
  O18      1.0000 0.44162  0.73210  0.51877  Biso   1.000  O
  C56      1.0000 0.53814  0.71962  0.56430  Biso   1.000  C
  N38      1.0000 0.61563  0.67719  0.46289  Biso   1.000  N
  H53      1.0000 0.62120  0.60491  0.45851  Biso   1.000  H
  H54      1.0000 0.61631  0.62498  0.53042  Biso   1.000  H
  C57      1.0000 0.30533  0.63541  0.19441  Biso   1.000  C
  C58      1.0000 0.37585  0.61487  0.14059  Biso   1.000  C
  N39      1.0000 0.30292  0.67057  0.24499  Biso   1.000  N
  H55      1.0000 0.26089  0.63548  0.30790  Biso   1.000  H
  H56      1.0000 0.27441  0.68881  0.33038  Biso   1.000  H
  N40      1.0000 0.57442  0.74037  0.52219  Biso   1.000  N
  H57      1.0000 0.55428  0.70420  0.60142  Biso   1.000  H
  H58      1.0000 0.51749  0.74580  0.58120  Biso   1.000  H
  C59      1.0000 0.61984  0.71786  0.50529  Biso   1.000  C
  C60      1.0000 0.63555  0.68463  0.40470  Biso   1.000  C
  C61      1.0000 0.30918  0.66579  0.13318  Biso   1.000  C
  H59      1.0000 0.27631  0.61419  0.19393  Biso   1.000  H
  O19      1.0000 0.41328  0.59348  0.12721  Biso   1.000  O
  N41      1.0000 0.35320  0.64803  0.10450  Biso   1.000  N
  C62      1.0000 0.30623  0.71653  0.22271  Biso   1.000  C
  C63      1.0000 0.57158  0.78669  0.49711  Biso   1.000  C
  H60      1.0000 0.63929  0.70999  0.54443  Biso   1.000  H
  C64      1.0000 0.64533  0.75547  0.46250  Biso   1.000  C
  O20      1.0000 0.63868  0.65522  0.36109  Biso   1.000  O
  N42      1.0000 0.65206  0.73117  0.40292  Biso   1.000  N
  N43      1.0000 0.31296  0.71462  0.15778  Biso   1.000  N
  H61      1.0000 0.28081  0.66151  0.10421  Biso   1.000  H
  C65      1.0000 0.36884  0.66209  0.04038  Biso   1.000  C
  O21      1.0000 0.30339  0.75368  0.25457  Biso   1.000  O
  O22      1.0000 0.53788  0.81466  0.50818  Biso   1.000  O
  N44      1.0000 0.61005  0.79510  0.46092  Biso   1.000  N
  H62      1.0000 0.67658  0.76601  0.48161  Biso   1.000  H
  C66      1.0000 0.68528  0.74796  0.35320  Biso   1.000  C
  C67      1.0000 0.30749  0.75655  0.11759  Biso   1.000  C
  N45      1.0000 0.39570  0.70725  0.03870  Biso   1.000  N
  H63      1.0000 0.34021  0.66518  0.01242  Biso   1.000  H
  H64      1.0000 0.38930  0.63630  0.02238  Biso   1.000  H
  C68      1.0000 0.62088  0.84153  0.43242  Biso   1.000  C
  N46      1.0000 0.66284  0.78029  0.30911  Biso   1.000  N
  H65      1.0000 0.71279  0.76439  0.37399  Biso   1.000  H
  H66      1.0000 0.69790  0.71991  0.32932  Biso   1.000  H
  N47      1.0000 0.35197  0.77345  0.09131  Biso   1.000  N
  H67      1.0000 0.28530  0.74879  0.08178  Biso   1.000  H
  H68      1.0000 0.29271  0.78259  0.14319  Biso   1.000  H
  C69      1.0000 0.37340  0.75414  0.03321  Biso   1.000  C
  C70      1.0000 0.44349  0.70941  0.03278  Biso   1.000  C
  N48      1.0000 0.61689  0.84250  0.36403  Biso   1.000  N
  H69      1.0000 0.59880  0.86580  0.45071  Biso   1.000  H
  H70      1.0000 0.65410  0.85080  0.44460  Biso   1.000  H
  C71      1.0000 0.65716  0.83221  0.32032  Biso   1.000  C
  C72      1.0000 0.65979  0.77029  0.24369  Biso   1.000  C
  C73      1.0000 0.37251  0.81589  0.10931  Biso   1.000  C
  C74      1.0000 0.41670  0.78809  0.02171  Biso   1.000  C
  H71      1.0000 0.35028  0.75519  0.99639  Biso   1.000  H
  O23      1.0000 0.47085  0.67410  0.02888  Biso   1.000  O
  N49      1.0000 0.45823  0.75583  0.02792  Biso   1.000  N
  C75      1.0000 0.58100  0.86616  0.32980  Biso   1.000  C
  C76      1.0000 0.64199  0.85131  0.25650  Biso   1.000  C
  H72      1.0000 0.68780  0.84739  0.33548  Biso   1.000  H
  N50      1.0000 0.64511  0.81161  0.21260  Biso   1.000  N
  O24      1.0000 0.66719  0.73149  0.21780  Biso   1.000  O
  O25      1.0000 0.35762  0.84160  0.15210  Biso   1.000  O
  N51      1.0000 0.41170  0.82362  0.07162  Biso   1.000  N
  H73      1.0000 0.41541  0.80309  0.97791  Biso   1.000  H
  C77      1.0000 0.50631  0.77158  0.00958  Biso   1.000  C
  N52      1.0000 0.59236  0.86806  0.26819  Biso   1.000  N
  O26      1.0000 0.54446  0.88205  0.35618  Biso   1.000  O
  H74      1.0000 0.66320  0.87838  0.24249  Biso   1.000  H
  C78      1.0000 0.64299  0.81470  0.14401  Biso   1.000  C
  C79      1.0000 0.43799  0.86860  0.07369  Biso   1.000  C
  N53      1.0000 0.53112  0.79704  0.05968  Biso   1.000  N
  H75      1.0000 0.52559  0.74310  0.99721  Biso   1.000  H
  H76      1.0000 0.50379  0.79269  0.97131  Biso   1.000  H
  C80      1.0000 0.56791  0.90018  0.22531  Biso   1.000  C
  N54      1.0000 0.59549  0.81758  0.11672  Biso   1.000  N
  H77      1.0000 0.65928  0.78608  0.12582  Biso   1.000  H
  H78      1.0000 0.66140  0.84329  0.13020  Biso   1.000  H
  N55      1.0000 0.48513  0.86465  0.10170  Biso   1.000  N
  H79      1.0000 0.44119  0.88119  0.02941  Biso   1.000  H
  H80      1.0000 0.41911  0.89230  0.09882  Biso   1.000  H
  C81      1.0000 0.52699  0.84901  0.06652  Biso   1.000  C
  C82      1.0000 0.57280  0.78101  0.08572  Biso   1.000  C
  N56      1.0000 0.54450  0.87637  0.17020  Biso   1.000  N
  H81      1.0000 0.59128  0.92398  0.20870  Biso   1.000  H
  H82      1.0000 0.54321  0.91798  0.24990  Biso   1.000  H
  C83      1.0000 0.56849  0.86231  0.11220  Biso   1.000  C
  C84      1.0000 0.49538  0.88000  0.16129  Biso   1.000  C
  H83      1.0000 0.52990  0.86580  0.02411  Biso   1.000  H
  O27      1.0000 0.58913  0.73929  0.08139  Biso   1.000  O
  H84      1.0000 0.58859  0.88899  0.09439  Biso   1.000  H
  O28      1.0000 0.46593  0.89475  0.20071  Biso   1.000  O
  O29      1.0000 0.31468  0.46208  0.25818  Biso   1.000  O
  C85      1.0000 0.28671  0.42842  0.24711  Biso   1.000  C
  N57      1.0000 0.29508  0.38995  0.21092  Biso   1.000  N
  N58      1.0000 0.24035  0.42558  0.27219  Biso   1.000  N
  C86      1.0000 0.25549  0.35467  0.21250  Biso   1.000  C
  C87      1.0000 0.34151  0.37909  0.18242  Biso   1.000  C
  C88      1.0000 0.21788  0.38016  0.25529  Biso   1.000  C
  C89      1.0000 0.21964  0.46186  0.31430  Biso   1.000  C
  N59      1.0000 0.23118  0.34794  0.15292  Biso   1.000  N
  H85      1.0000 0.26599  0.32338  0.23161  Biso   1.000  H
  N60      1.0000 0.34252  0.38311  0.11398  Biso   1.000  N
  H86      1.0000 0.36578  0.40120  0.20071  Biso   1.000  H
  H87      1.0000 0.35079  0.34590  0.19460  Biso   1.000  H
  N61      1.0000 0.17717  0.38437  0.21289  Biso   1.000  N
  H88      1.0000 0.21000  0.36071  0.29443  Biso   1.000  H
  N62      1.0000 0.18472  0.49160  0.28259  Biso   1.000  N
  H89      1.0000 0.20421  0.44568  0.35142  Biso   1.000  H
  H90      1.0000 0.24578  0.48251  0.33120  Biso   1.000  H
  C90      1.0000 0.18465  0.36445  0.15470  Biso   1.000  C
  C91      1.0000 0.24798  0.31472  0.10320  Biso   1.000  C
  C92      1.0000 0.36618  0.41900  0.07980  Biso   1.000  C
  C93      1.0000 0.33223  0.34284  0.07032  Biso   1.000  C
  C94      1.0000 0.12863  0.39570  0.23580  Biso   1.000  C
  C95      1.0000 0.19249  0.53828  0.26762  Biso   1.000  C
  C96      1.0000 0.13330  0.47941  0.28398  Biso   1.000  C
  O30      1.0000 0.15524  0.36132  0.11109  Biso   1.000  O
  N63      1.0000 0.28030  0.33716  0.05911  Biso   1.000  N
  H91      1.0000 0.26441  0.28721  0.12399  Biso   1.000  H
  H92      1.0000 0.21989  0.30210  0.07932  Biso   1.000  H
  O31      1.0000 0.38207  0.45554  0.10618  Biso   1.000  O
  N64      1.0000 0.36805  0.40760  0.01819  Biso   1.000  N
  H93      1.0000 0.34741  0.31220  0.08548  Biso   1.000  H
  C97      1.0000 0.35133  0.35801  0.00650  Biso   1.000  C
  N65      1.0000 0.11841  0.44705  0.23469  Biso   1.000  N
  H94      1.0000 0.10489  0.37880  0.20851  Biso   1.000  H
  H95      1.0000 0.12500  0.38369  0.28042  Biso   1.000  H
  O32      1.0000 0.23208  0.55838  0.26877  Biso   1.000  O
  N66      1.0000 0.15020  0.55975  0.25308  Biso   1.000  N
  C98      1.0000 0.10964  0.52792  0.26410  Biso   1.000  C
  H96      1.0000 0.12259  0.46859  0.32759  Biso   1.000  H
  C99      1.0000 0.27027  0.34021  0.99369  Biso   1.000  C
  C100     1.0000 0.40019  0.43209  0.97531  Biso   1.000  C
  N67      1.0000 0.31163  0.35489  0.96260  Biso   1.000  N
  H97      1.0000 0.37840  0.33680  0.99249  Biso   1.000  H
  C101     1.0000 0.08735  0.46755  0.19142  Biso   1.000  C
  C102     1.0000 0.14467  0.61156  0.25029  Biso   1.000  C
  N68      1.0000 0.08328  0.51501  0.20572  Biso   1.000  N
  H98      1.0000 0.08781  0.54051  0.29842  Biso   1.000  H
  O33      1.0000 0.23147  0.33277  0.96780  Biso   1.000  O
  N69      1.0000 0.37635  0.45550  0.92020  Biso   1.000  N
  H99      1.0000 0.42400  0.40868  0.95870  Biso   1.000  H
  H100     1.0000 0.41799  0.45679  0.99990  Biso   1.000  H
  C103     1.0000 0.31468  0.35701  0.89401  Biso   1.000  C
  O34      1.0000 0.06717  0.44705  0.14748  Biso   1.000  O
  N70      1.0000 0.13316  0.63048  0.18752  Biso   1.000  N
  H101     1.0000 0.11888  0.62109  0.28061  Biso   1.000  H
  H102     1.0000 0.17491  0.62660  0.26531  Biso   1.000  H
  C104     1.0000 0.04930  0.54637  0.17419  Biso   1.000  C
  C105     1.0000 0.38002  0.50458  0.91129  Biso   1.000  C
  C106     1.0000 0.36229  0.43148  0.86220  Biso   1.000  C
  N71      1.0000 0.31760  0.40451  0.86672  Biso   1.000  N
  H103     1.0000 0.28609  0.34068  0.87582  Biso   1.000  H
  H104     1.0000 0.34331  0.33860  0.88020  Biso   1.000  H
  C107     1.0000 0.16380  0.65849  0.15369  Biso   1.000  C
  C108     1.0000 0.08526  0.62922  0.16018  Biso   1.000  C
  N72      1.0000 0.07145  0.58233  0.13492  Biso   1.000  N
  H105     1.0000 0.02762  0.52670  0.14700  Biso   1.000  H
  H106     1.0000 0.02941  0.56241  0.20731  Biso   1.000  H
  O35      1.0000 0.39473  0.53407  0.95071  Biso   1.000  O
  N73      1.0000 0.36463  0.51487  0.85170  Biso   1.000  N
  H107     1.0000 0.38901  0.41141  0.84439  Biso   1.000  H
  C109     1.0000 0.34899  0.47301  0.81652  Biso   1.000  C
  C110     1.0000 0.28099  0.42720  0.83572  Biso   1.000  C
  O36      1.0000 0.20497  0.66957  0.16909  Biso   1.000  O
  N74      1.0000 0.13999  0.67406  0.10012  Biso   1.000  N
  C111     1.0000 0.08940  0.66018  0.10021  Biso   1.000  C
  H108     1.0000 0.06070  0.64209  0.19080  Biso   1.000  H
  C112     1.0000 0.06322  0.58434  0.07042  Biso   1.000  C
  C113     1.0000 0.36859  0.56201  0.82369  Biso   1.000  C
  N75      1.0000 0.29706  0.46888  0.80968  Biso   1.000  N
  H109     1.0000 0.36578  0.47010  0.77411  Biso   1.000  H
  O37      1.0000 0.23931  0.41087  0.83139  Biso   1.000  O
  C114     1.0000 0.15926  0.71272  0.06002  Biso   1.000  C
  N76      1.0000 0.07605  0.62868  0.04871  Biso   1.000  N
  H110     1.0000 0.06778  0.68888  0.10252  Biso   1.000  H
  O38      1.0000 0.04653  0.55173  0.03759  Biso   1.000  O
  N77      1.0000 0.32364  0.58826  0.82162  Biso   1.000  N
  H111     1.0000 0.38121  0.55881  0.77941  Biso   1.000  H
  H112     1.0000 0.39228  0.58089  0.84882  Biso   1.000  H
  C115     1.0000 0.27160  0.49369  0.75963  Biso   1.000  C
  H113     1.0000 0.13550  0.73908  0.05790  Biso   1.000  H
  H114     1.0000 0.18879  0.72559  0.08038  Biso   1.000  H
  N78      1.0000 0.17056  0.69708  0.99499  Biso   1.000  N
  C116     1.0000 0.06555  0.64497  0.98392  Biso   1.000  C
  C117     1.0000 0.31590  0.62749  0.85931  Biso   1.000  C
  C118     1.0000 0.28811  0.58330  0.77171  Biso   1.000  C
  N79      1.0000 0.25582  0.54177  0.77792  Biso   1.000  N
  H115     1.0000 0.24309  0.47438  0.74721  Biso   1.000  H
  H116     1.0000 0.29271  0.49621  0.72131  Biso   1.000  H
  C119     1.0000 0.21655  0.69377  0.97271  Biso   1.000  C
  C120     1.0000 0.13539  0.69463  0.94441  Biso   1.000  C
  N80      1.0000 0.10748  0.64979  0.94503  Biso   1.000  N
  H117     1.0000 0.04340  0.62181  0.96332  Biso   1.000  H
  H118     1.0000 0.04901  0.67640  0.98619  Biso   1.000  H
  O39      1.0000 0.34158  0.64238  0.90210  Biso   1.000  O
  N81      1.0000 0.27347  0.64799  0.84131  Biso   1.000  N
  H119     1.0000 0.30310  0.58459  0.72791  Biso   1.000  H
  C121     1.0000 0.25416  0.62660  0.78321  Biso   1.000  C
  C122     1.0000 0.20939  0.55651  0.78283  Biso   1.000  C
  O40      1.0000 0.25366  0.69657  0.00457  Biso   1.000  O
  N82      1.0000 0.21464  0.68704  0.90783  Biso   1.000  N
  C123     1.0000 0.16577  0.69082  0.88323  Biso   1.000  C
  H120     1.0000 0.11421  0.72369  0.94393  Biso   1.000  H
  C124     1.0000 0.11485  0.62415  0.89059  Biso   1.000  C
  C125     1.0000 0.25657  0.69251  0.86759  Biso   1.000  C
  N83      1.0000 0.20724  0.60430  0.78870  Biso   1.000  N
  H121     1.0000 0.25521  0.64968  0.74639  Biso   1.000  H
  O41      1.0000 0.17412  0.52911  0.77893  Biso   1.000  O
  N84      1.0000 0.14805  0.64680  0.85450  Biso   1.000  N
  H122     1.0000 0.16149  0.71919  0.85421  Biso   1.000  H
  O42      1.0000 0.09346  0.58672  0.87721  Biso   1.000  O
  H123     1.0000 0.24880  0.71470  0.83183  Biso   1.000  H
  H124     1.0000 0.28261  0.70729  0.89319  Biso   1.000  H
  C126     1.0000 0.16211  0.63116  0.79043  Biso   1.000  C
  H125     1.0000 0.16520  0.65979  0.76242  Biso   1.000  H
  H126     1.0000 0.13629  0.61070  0.77243  Biso   1.000  H
  O43      1.0000 0.68532  0.53788  0.25818  Biso   1.000  O
  C127     1.0000 0.71329  0.57158  0.24711  Biso   1.000  C
  N85      1.0000 0.70488  0.61005  0.21092  Biso   1.000  N
  N86      1.0000 0.75961  0.57442  0.27219  Biso   1.000  N
  C128     1.0000 0.65849  0.62088  0.18242  Biso   1.000  C
  C129     1.0000 0.74451  0.64533  0.21250  Biso   1.000  C
  C130     1.0000 0.78212  0.61984  0.25529  Biso   1.000  C
  C131     1.0000 0.78036  0.53814  0.31430  Biso   1.000  C
  N87      1.0000 0.65748  0.61689  0.11398  Biso   1.000  N
  H127     1.0000 0.63418  0.59880  0.20071  Biso   1.000  H
  H128     1.0000 0.64918  0.65410  0.19460  Biso   1.000  H
  N88      1.0000 0.76882  0.65206  0.15292  Biso   1.000  N
  H129     1.0000 0.73401  0.67658  0.23161  Biso   1.000  H
  N89      1.0000 0.82283  0.61563  0.21289  Biso   1.000  N
  H130     1.0000 0.79000  0.63929  0.29443  Biso   1.000  H
  N90      1.0000 0.81524  0.50840  0.28259  Biso   1.000  N
  H131     1.0000 0.79579  0.55428  0.35142  Biso   1.000  H
  H132     1.0000 0.75418  0.51749  0.33120  Biso   1.000  H
  C132     1.0000 0.63382  0.58100  0.07980  Biso   1.000  C
  C133     1.0000 0.66777  0.65716  0.07032  Biso   1.000  C
  C134     1.0000 0.75202  0.68528  0.10320  Biso   1.000  C
  C135     1.0000 0.81535  0.63555  0.15470  Biso   1.000  C
  C136     1.0000 0.87134  0.60426  0.23580  Biso   1.000  C
  C137     1.0000 0.80751  0.46172  0.26762  Biso   1.000  C
  C138     1.0000 0.86670  0.52059  0.28398  Biso   1.000  C
  O44      1.0000 0.61793  0.54446  0.10618  Biso   1.000  O
  N91      1.0000 0.63192  0.59236  0.01819  Biso   1.000  N
  C139     1.0000 0.64867  0.64199  0.00650  Biso   1.000  C
  N92      1.0000 0.71970  0.66284  0.05911  Biso   1.000  N
  H133     1.0000 0.65259  0.68780  0.08548  Biso   1.000  H
  H134     1.0000 0.73559  0.71279  0.12399  Biso   1.000  H
  H135     1.0000 0.78011  0.69790  0.07932  Biso   1.000  H
  O45      1.0000 0.84476  0.63868  0.11109  Biso   1.000  O
  N93      1.0000 0.88155  0.55295  0.23469  Biso   1.000  N
  H136     1.0000 0.89511  0.62120  0.20851  Biso   1.000  H
  H137     1.0000 0.87500  0.61631  0.28042  Biso   1.000  H
  O46      1.0000 0.76792  0.44162  0.26877  Biso   1.000  O
  N94      1.0000 0.84980  0.44025  0.25308  Biso   1.000  N
  C140     1.0000 0.89036  0.47208  0.26410  Biso   1.000  C
  H138     1.0000 0.87738  0.53141  0.32759  Biso   1.000  H
  C141     1.0000 0.59981  0.56791  0.97531  Biso   1.000  C
  N95      1.0000 0.68837  0.64511  0.96260  Biso   1.000  N
  H139     1.0000 0.62160  0.66320  0.99249  Biso   1.000  H
  C142     1.0000 0.72969  0.65979  0.99369  Biso   1.000  C
  C143     1.0000 0.91265  0.53245  0.19142  Biso   1.000  C
  C144     1.0000 0.85533  0.38844  0.25029  Biso   1.000  C
  N96      1.0000 0.91672  0.48499  0.20572  Biso   1.000  N
  H140     1.0000 0.91219  0.45949  0.29842  Biso   1.000  H
  N97      1.0000 0.62361  0.54450  0.92020  Biso   1.000  N
  H141     1.0000 0.57600  0.59128  0.95870  Biso   1.000  H
  H142     1.0000 0.58201  0.54321  0.99990  Biso   1.000  H
  C145     1.0000 0.68528  0.64299  0.89401  Biso   1.000  C
  O47      1.0000 0.76849  0.66719  0.96780  Biso   1.000  O
  O48      1.0000 0.93283  0.55295  0.14748  Biso   1.000  O
  N98      1.0000 0.86684  0.36952  0.18752  Biso   1.000  N
  H143     1.0000 0.88108  0.37891  0.28061  Biso   1.000  H
  H144     1.0000 0.82509  0.37340  0.26531  Biso   1.000  H
  C146     1.0000 0.95070  0.45363  0.17419  Biso   1.000  C
  C147     1.0000 0.61998  0.49538  0.91129  Biso   1.000  C
  C148     1.0000 0.63771  0.56849  0.86220  Biso   1.000  C
  N99      1.0000 0.68240  0.59549  0.86672  Biso   1.000  N
  H145     1.0000 0.71391  0.65928  0.87582  Biso   1.000  H
  H146     1.0000 0.65669  0.66140  0.88020  Biso   1.000  H
  C149     1.0000 0.83620  0.34147  0.15369  Biso   1.000  C
  C150     1.0000 0.91474  0.37078  0.16018  Biso   1.000  C
  N100     1.0000 0.92855  0.41767  0.13492  Biso   1.000  N
  H147     1.0000 0.97238  0.47330  0.14700  Biso   1.000  H
  H148     1.0000 0.97059  0.43759  0.20731  Biso   1.000  H
  O49      1.0000 0.60527  0.46593  0.95071  Biso   1.000  O
  N101     1.0000 0.63537  0.48513  0.85170  Biso   1.000  N
  H149     1.0000 0.61099  0.58859  0.84439  Biso   1.000  H
  C151     1.0000 0.65101  0.52699  0.81652  Biso   1.000  C
  C152     1.0000 0.71901  0.57280  0.83572  Biso   1.000  C
  O50      1.0000 0.79503  0.33043  0.16909  Biso   1.000  O
  N102     1.0000 0.86001  0.32594  0.10012  Biso   1.000  N
  C153     1.0000 0.91060  0.33982  0.10021  Biso   1.000  C
  H150     1.0000 0.93930  0.35791  0.19080  Biso   1.000  H
  C154     1.0000 0.93678  0.41566  0.07042  Biso   1.000  C
  C155     1.0000 0.63138  0.43799  0.82369  Biso   1.000  C
  N103     1.0000 0.70294  0.53112  0.80968  Biso   1.000  N
  H151     1.0000 0.63418  0.52990  0.77411  Biso   1.000  H
  O51      1.0000 0.76069  0.58913  0.83139  Biso   1.000  O
  C156     1.0000 0.84074  0.28728  0.06002  Biso   1.000  C
  N104     1.0000 0.92391  0.37132  0.04871  Biso   1.000  N
  H152     1.0000 0.93218  0.31109  0.10252  Biso   1.000  H
  O52      1.0000 0.95347  0.44827  0.03759  Biso   1.000  O
  N105     1.0000 0.67636  0.41170  0.82162  Biso   1.000  N
  H153     1.0000 0.61879  0.44119  0.77941  Biso   1.000  H
  H154     1.0000 0.60768  0.41911  0.84882  Biso   1.000  H
  C157     1.0000 0.72840  0.50631  0.75963  Biso   1.000  C
  N106     1.0000 0.82941  0.30292  0.99499  Biso   1.000  N
  H155     1.0000 0.86450  0.26089  0.05790  Biso   1.000  H
  H156     1.0000 0.81118  0.27441  0.08038  Biso   1.000  H
  C158     1.0000 0.93441  0.35503  0.98392  Biso   1.000  C
  C159     1.0000 0.68410  0.37251  0.85931  Biso   1.000  C
  C160     1.0000 0.71189  0.41670  0.77171  Biso   1.000  C
  N107     1.0000 0.74415  0.45823  0.77792  Biso   1.000  N
  H157     1.0000 0.75688  0.52559  0.74721  Biso   1.000  H
  H158     1.0000 0.70729  0.50379  0.72131  Biso   1.000  H
  C161     1.0000 0.78345  0.30623  0.97271  Biso   1.000  C
  C162     1.0000 0.86458  0.30533  0.94441  Biso   1.000  C
  N108     1.0000 0.89252  0.35021  0.94503  Biso   1.000  N
  H159     1.0000 0.95660  0.37819  0.96332  Biso   1.000  H
  H160     1.0000 0.95099  0.32360  0.98619  Biso   1.000  H
  O53      1.0000 0.65842  0.35762  0.90210  Biso   1.000  O
  N109     1.0000 0.72653  0.35197  0.84131  Biso   1.000  N
  H161     1.0000 0.69690  0.41541  0.72791  Biso   1.000  H
  C163     1.0000 0.74584  0.37340  0.78321  Biso   1.000  C
  C164     1.0000 0.79061  0.44349  0.78283  Biso   1.000  C
  N110     1.0000 0.78536  0.31296  0.90783  Biso   1.000  N
  O54      1.0000 0.74634  0.30339  0.00457  Biso   1.000  O
  C165     1.0000 0.83419  0.30918  0.88323  Biso   1.000  C
  H162     1.0000 0.88579  0.27631  0.94393  Biso   1.000  H
  C166     1.0000 0.88511  0.37585  0.89059  Biso   1.000  C
  C167     1.0000 0.74343  0.30749  0.86759  Biso   1.000  C
  N111     1.0000 0.79273  0.39570  0.78870  Biso   1.000  N
  H163     1.0000 0.74479  0.35028  0.74639  Biso   1.000  H
  O55      1.0000 0.82588  0.47085  0.77893  Biso   1.000  O
  N112     1.0000 0.85195  0.35320  0.85450  Biso   1.000  N
  H164     1.0000 0.83851  0.28081  0.85421  Biso   1.000  H
  O56      1.0000 0.90654  0.41328  0.87721  Biso   1.000  O
  H165     1.0000 0.75120  0.28530  0.83183  Biso   1.000  H
  H166     1.0000 0.71739  0.29271  0.89319  Biso   1.000  H
  C168     1.0000 0.83789  0.36884  0.79043  Biso   1.000  C
  H167     1.0000 0.83480  0.34021  0.76242  Biso   1.000  H
  H168     1.0000 0.86368  0.38930  0.77243  Biso   1.000  H
  C169     1.0000 0.63541  0.19465  0.44441  Biso   1.000  C
  N113     1.0000 0.60747  0.14981  0.44498  Biso   1.000  N
  N114     1.0000 0.67057  0.19706  0.49499  Biso   1.000  N
  C170     1.0000 0.66579  0.19080  0.38318  Biso   1.000  C
  H169     1.0000 0.61419  0.22370  0.44393  Biso   1.000  H
  C171     1.0000 0.56557  0.14495  0.48392  Biso   1.000  C
  C172     1.0000 0.61487  0.12413  0.39059  Biso   1.000  C
  C173     1.0000 0.65925  0.21270  0.56002  Biso   1.000  C
  C174     1.0000 0.71653  0.19379  0.47271  Biso   1.000  C
  N115     1.0000 0.64803  0.14682  0.35450  Biso   1.000  N
  N116     1.0000 0.71462  0.18703  0.40783  Biso   1.000  N
  H170     1.0000 0.66151  0.21921  0.35421  Biso   1.000  H
  N117     1.0000 0.57607  0.12866  0.54871  Biso   1.000  N
  H171     1.0000 0.54339  0.12180  0.46332  Biso   1.000  H
  H172     1.0000 0.54899  0.17638  0.48619  Biso   1.000  H
  O57      1.0000 0.59348  0.08673  0.37721  Biso   1.000  O
  N118     1.0000 0.63997  0.17408  0.60012  Biso   1.000  N
  H173     1.0000 0.63548  0.23910  0.55790  Biso   1.000  H
  H174     1.0000 0.68881  0.22561  0.58043  Biso   1.000  H
  O58      1.0000 0.75368  0.19659  0.50457  Biso   1.000  O
  C175     1.0000 0.66209  0.13114  0.29038  Biso   1.000  C
  C176     1.0000 0.75655  0.19249  0.36759  Biso   1.000  C
  C177     1.0000 0.58941  0.16020  0.60021  Biso   1.000  C
  C178     1.0000 0.56320  0.08433  0.57042  Biso   1.000  C
  C179     1.0000 0.66378  0.15851  0.65369  Biso   1.000  C
  N119     1.0000 0.70725  0.10428  0.28870  Biso   1.000  N
  H175     1.0000 0.66518  0.15980  0.26242  Biso   1.000  H
  H176     1.0000 0.63630  0.11068  0.27238  Biso   1.000  H
  N120     1.0000 0.77345  0.14801  0.34131  Biso   1.000  N
  H177     1.0000 0.74879  0.21471  0.33183  Biso   1.000  H
  H178     1.0000 0.78259  0.20731  0.39319  Biso   1.000  H
  H179     1.0000 0.56780  0.18890  0.60252  Biso   1.000  H
  C180     1.0000 0.58524  0.12924  0.66018  Biso   1.000  C
  O59      1.0000 0.54651  0.05171  0.53759  Biso   1.000  O
  N121     1.0000 0.57143  0.08231  0.63492  Biso   1.000  N
  N122     1.0000 0.63314  0.13050  0.68752  Biso   1.000  N
  O60      1.0000 0.70495  0.16955  0.66914  Biso   1.000  O
  C181     1.0000 0.75414  0.12661  0.28321  Biso   1.000  C
  C182     1.0000 0.70941  0.05649  0.28283  Biso   1.000  C
  C183     1.0000 0.81589  0.12751  0.35931  Biso   1.000  C
  H180     1.0000 0.56068  0.14211  0.69080  Biso   1.000  H
  C184     1.0000 0.54928  0.04635  0.67419  Biso   1.000  C
  C185     1.0000 0.64465  0.11155  0.75029  Biso   1.000  C
  C186     1.0000 0.78809  0.08328  0.27171  Biso   1.000  C
  H181     1.0000 0.75519  0.14970  0.24639  Biso   1.000  H
  O61      1.0000 0.67410  0.02913  0.27888  Biso   1.000  O
  N123     1.0000 0.75583  0.04175  0.27792  Biso   1.000  N
  O62      1.0000 0.84160  0.14236  0.40210  Biso   1.000  O
  N124     1.0000 0.82362  0.08828  0.32162  Biso   1.000  N
  N125     1.0000 0.58326  0.01500  0.70572  Biso   1.000  N
  H182     1.0000 0.52760  0.02668  0.64700  Biso   1.000  H
  H183     1.0000 0.52940  0.06239  0.70731  Biso   1.000  H
  N126     1.0000 0.65019  0.05973  0.75313  Biso   1.000  N
  H184     1.0000 0.61890  0.12111  0.78061  Biso   1.000  H
  H185     1.0000 0.67489  0.12661  0.76531  Biso   1.000  H
  H186     1.0000 0.80309  0.08461  0.22791  Biso   1.000  H
  C187     1.0000 0.77158  0.99371  0.25963  Biso   1.000  C
  C188     1.0000 0.86860  0.06199  0.32369  Biso   1.000  C
  C189     1.0000 0.60966  0.02790  0.76410  Biso   1.000  C
  C190     1.0000 0.58733  0.96753  0.69142  Biso   1.000  C
  C191     1.0000 0.69247  0.03830  0.76762  Biso   1.000  C
  N127     1.0000 0.79704  0.96886  0.30968  Biso   1.000  N
  H187     1.0000 0.74310  0.97440  0.24721  Biso   1.000  H
  H188     1.0000 0.79269  0.99619  0.22131  Biso   1.000  H
  N128     1.0000 0.86465  0.01489  0.35170  Biso   1.000  N
  H189     1.0000 0.88119  0.05879  0.27941  Biso   1.000  H
  H190     1.0000 0.89230  0.08091  0.34882  Biso   1.000  H
  H191     1.0000 0.58780  0.04049  0.79842  Biso   1.000  H
  C192     1.0000 0.63332  0.97940  0.78403  Biso   1.000  C
  O63      1.0000 0.56719  0.94703  0.64753  Biso   1.000  O
  N129     1.0000 0.61843  0.94707  0.73469  Biso   1.000  N
  O64      1.0000 0.73210  0.05836  0.76877  Biso   1.000  O
  N130     1.0000 0.68474  0.99159  0.78259  Biso   1.000  N
  C193     1.0000 0.84901  0.97299  0.31652  Biso   1.000  C
  C194     1.0000 0.78101  0.92718  0.33572  Biso   1.000  C
  C195     1.0000 0.88000  0.00460  0.41129  Biso   1.000  C
  H192     1.0000 0.62260  0.96861  0.82759  Biso   1.000  H
  C196     1.0000 0.62865  0.89572  0.73580  Biso   1.000  C
  C197     1.0000 0.71962  0.96185  0.81430  Biso   1.000  C
  C198     1.0000 0.86231  0.93150  0.36220  Biso   1.000  C
  H193     1.0000 0.86580  0.97008  0.27411  Biso   1.000  H
  O65      1.0000 0.73929  0.91086  0.33139  Biso   1.000  O
  N131     1.0000 0.81758  0.90449  0.36672  Biso   1.000  N
  O66      1.0000 0.89475  0.03405  0.45071  Biso   1.000  O
  N132     1.0000 0.87637  0.95548  0.42020  Biso   1.000  N
  N133     1.0000 0.67719  0.88439  0.71289  Biso   1.000  N
  H194     1.0000 0.60491  0.87878  0.70851  Biso   1.000  H
  H195     1.0000 0.62498  0.88371  0.78042  Biso   1.000  H
  N134     1.0000 0.74037  0.92556  0.77219  Biso   1.000  N
  H196     1.0000 0.70420  0.94570  0.85142  Biso   1.000  H
  H197     1.0000 0.74580  0.98249  0.83120  Biso   1.000  H
  H198     1.0000 0.88899  0.91140  0.34439  Biso   1.000  H
  C199     1.0000 0.81470  0.85699  0.39401  Biso   1.000  C
  C200     1.0000 0.90018  0.93211  0.47531  Biso   1.000  C
  C201     1.0000 0.71786  0.88015  0.75529  Biso   1.000  C
  C202     1.0000 0.68463  0.86447  0.65470  Biso   1.000  C
  C203     1.0000 0.78669  0.92840  0.74711  Biso   1.000  C
  N135     1.0000 0.81161  0.85487  0.46260  Biso   1.000  N
  H199     1.0000 0.78608  0.84070  0.37582  Biso   1.000  H
  H200     1.0000 0.84329  0.83858  0.38020  Biso   1.000  H
  N136     1.0000 0.86806  0.90762  0.51819  Biso   1.000  N
  H201     1.0000 0.92398  0.90870  0.45870  Biso   1.000  H
  H202     1.0000 0.91798  0.95678  0.49990  Biso   1.000  H
  H203     1.0000 0.70999  0.86069  0.79443  Biso   1.000  H
  C204     1.0000 0.75547  0.85465  0.71250  Biso   1.000  C
  O67      1.0000 0.65522  0.86130  0.61109  Biso   1.000  O
  N137     1.0000 0.73117  0.84793  0.65292  Biso   1.000  N
  O68      1.0000 0.81466  0.96210  0.75823  Biso   1.000  O
  N138     1.0000 0.79510  0.88993  0.71092  Biso   1.000  N
  C205     1.0000 0.77029  0.84023  0.49369  Biso   1.000  C
  C206     1.0000 0.85131  0.85800  0.50650  Biso   1.000  C
  C207     1.0000 0.86616  0.91898  0.57980  Biso   1.000  C
  H204     1.0000 0.76601  0.82340  0.73161  Biso   1.000  H
  C208     1.0000 0.74796  0.81470  0.60320  Biso   1.000  C
  C209     1.0000 0.84153  0.87910  0.68242  Biso   1.000  C
  N139     1.0000 0.78029  0.83714  0.55911  Biso   1.000  N
  O69      1.0000 0.73149  0.83279  0.46780  Biso   1.000  O
  C210     1.0000 0.83221  0.84282  0.57032  Biso   1.000  C
  H205     1.0000 0.87838  0.83678  0.49249  Biso   1.000  H
  N140     1.0000 0.84250  0.88310  0.61403  Biso   1.000  N
  O70      1.0000 0.88205  0.95555  0.60623  Biso   1.000  O
  H206     1.0000 0.76439  0.78719  0.62399  Biso   1.000  H
  H207     1.0000 0.71991  0.80208  0.57932  Biso   1.000  H
  H208     1.0000 0.86580  0.90118  0.70071  Biso   1.000  H
  H209     1.0000 0.85080  0.84588  0.69460  Biso   1.000  H
  H210     1.0000 0.84739  0.81218  0.58548  Biso   1.000  H
  C211     1.0000 0.36459  0.80535  0.44441  Biso   1.000  C
  C212     1.0000 0.33421  0.80916  0.38318  Biso   1.000  C
  N141     1.0000 0.32943  0.80294  0.49499  Biso   1.000  N
  N142     1.0000 0.39253  0.85019  0.44498  Biso   1.000  N
  H211     1.0000 0.38581  0.77630  0.44393  Biso   1.000  H
  N143     1.0000 0.28538  0.81294  0.40783  Biso   1.000  N
  N144     1.0000 0.35197  0.85318  0.35450  Biso   1.000  N
  H212     1.0000 0.33849  0.78079  0.35421  Biso   1.000  H
  C213     1.0000 0.28343  0.80621  0.47271  Biso   1.000  C
  C214     1.0000 0.34075  0.78726  0.56002  Biso   1.000  C
  C215     1.0000 0.38513  0.87583  0.39059  Biso   1.000  C
  C216     1.0000 0.43443  0.85501  0.48392  Biso   1.000  C
  C217     1.0000 0.24345  0.80751  0.36759  Biso   1.000  C
  C218     1.0000 0.33791  0.86886  0.29038  Biso   1.000  C
  O71      1.0000 0.24632  0.80341  0.50457  Biso   1.000  O
  N145     1.0000 0.35999  0.82592  0.60012  Biso   1.000  N
  H213     1.0000 0.36449  0.76090  0.55790  Biso   1.000  H
  H214     1.0000 0.31119  0.77439  0.58043  Biso   1.000  H
  O72      1.0000 0.40652  0.91327  0.37721  Biso   1.000  O
  N146     1.0000 0.42393  0.87130  0.54871  Biso   1.000  N
  H215     1.0000 0.45658  0.87820  0.46332  Biso   1.000  H
  H216     1.0000 0.45101  0.82358  0.48619  Biso   1.000  H
  N147     1.0000 0.22655  0.85199  0.34131  Biso   1.000  N
  H217     1.0000 0.25121  0.78529  0.33183  Biso   1.000  H
  H218     1.0000 0.21741  0.79269  0.39319  Biso   1.000  H
  N148     1.0000 0.29275  0.89572  0.28870  Biso   1.000  N
  H219     1.0000 0.33478  0.84020  0.26242  Biso   1.000  H
  H220     1.0000 0.36370  0.88928  0.27238  Biso   1.000  H
  C219     1.0000 0.33622  0.84149  0.65369  Biso   1.000  C
  C220     1.0000 0.41059  0.83980  0.60021  Biso   1.000  C
  C221     1.0000 0.43680  0.91564  0.57042  Biso   1.000  C
  C222     1.0000 0.18411  0.87249  0.35931  Biso   1.000  C
  C223     1.0000 0.24586  0.87339  0.28321  Biso   1.000  C
  C224     1.0000 0.29059  0.94351  0.28283  Biso   1.000  C
  O73      1.0000 0.29501  0.83045  0.66914  Biso   1.000  O
  N149     1.0000 0.36686  0.86950  0.68752  Biso   1.000  N
  H221     1.0000 0.43220  0.81110  0.60252  Biso   1.000  H
  C225     1.0000 0.41472  0.87076  0.66018  Biso   1.000  C
  N150     1.0000 0.42857  0.91765  0.63492  Biso   1.000  N
  O74      1.0000 0.45345  0.94829  0.53759  Biso   1.000  O
  O75      1.0000 0.15840  0.85760  0.40210  Biso   1.000  O
  N151     1.0000 0.17638  0.91172  0.32162  Biso   1.000  N
  C226     1.0000 0.21191  0.91668  0.27171  Biso   1.000  C
  H222     1.0000 0.24481  0.85030  0.24639  Biso   1.000  H
  N152     1.0000 0.24417  0.95825  0.27792  Biso   1.000  N
  O76      1.0000 0.32587  0.97087  0.27888  Biso   1.000  O
  C227     1.0000 0.35535  0.88842  0.75029  Biso   1.000  C
  H223     1.0000 0.43928  0.85789  0.69080  Biso   1.000  H
  C228     1.0000 0.45068  0.95365  0.67419  Biso   1.000  C
  C229     1.0000 0.13140  0.93801  0.32369  Biso   1.000  C
  H224     1.0000 0.19691  0.91539  0.22791  Biso   1.000  H
  C230     1.0000 0.22842  0.00629  0.25963  Biso   1.000  C
  N153     1.0000 0.34981  0.94027  0.75313  Biso   1.000  N
  H225     1.0000 0.38110  0.87889  0.78061  Biso   1.000  H
  H226     1.0000 0.32511  0.87339  0.76531  Biso   1.000  H
  N154     1.0000 0.41674  0.98497  0.70572  Biso   1.000  N
  H227     1.0000 0.47240  0.97328  0.64700  Biso   1.000  H
  H228     1.0000 0.47060  0.93761  0.70731  Biso   1.000  H
  N155     1.0000 0.13535  0.98511  0.35170  Biso   1.000  N
  H229     1.0000 0.11881  0.94121  0.27941  Biso   1.000  H
  H230     1.0000 0.10770  0.91909  0.34882  Biso   1.000  H
  N156     1.0000 0.20296  0.03114  0.30968  Biso   1.000  N
  H231     1.0000 0.25690  0.02560  0.24721  Biso   1.000  H
  H232     1.0000 0.20731  0.00381  0.22131  Biso   1.000  H
  C231     1.0000 0.30749  0.96170  0.76762  Biso   1.000  C
  C232     1.0000 0.39034  0.97206  0.76410  Biso   1.000  C
  C233     1.0000 0.41267  0.03247  0.69142  Biso   1.000  C
  C234     1.0000 0.11996  0.99540  0.41129  Biso   1.000  C
  C235     1.0000 0.15099  0.02701  0.31652  Biso   1.000  C
  C236     1.0000 0.21899  0.07278  0.33572  Biso   1.000  C
  O77      1.0000 0.26790  0.94160  0.76877  Biso   1.000  O
  N157     1.0000 0.31526  0.00841  0.78259  Biso   1.000  N
  H233     1.0000 0.41220  0.95951  0.79842  Biso   1.000  H
  C237     1.0000 0.36668  0.02060  0.78403  Biso   1.000  C
  N158     1.0000 0.38157  0.05293  0.73469  Biso   1.000  N
  O78      1.0000 0.43281  0.05297  0.64753  Biso   1.000  O
  O79      1.0000 0.10525  0.96595  0.45071  Biso   1.000  O
  N159     1.0000 0.12363  0.04448  0.42020  Biso   1.000  N
  C238     1.0000 0.13769  0.06850  0.36220  Biso   1.000  C
  H234     1.0000 0.13420  0.02988  0.27411  Biso   1.000  H
  N160     1.0000 0.18242  0.09551  0.36672  Biso   1.000  N
  O80      1.0000 0.26071  0.08914  0.33139  Biso   1.000  O
  C239     1.0000 0.28034  0.03812  0.81430  Biso   1.000  C
  H235     1.0000 0.37740  0.03139  0.82759  Biso   1.000  H
  C240     1.0000 0.37135  0.10428  0.73580  Biso   1.000  C
  C241     1.0000 0.09979  0.06789  0.47531  Biso   1.000  C
  H236     1.0000 0.11101  0.08860  0.34439  Biso   1.000  H
  C242     1.0000 0.18530  0.14301  0.39401  Biso   1.000  C
  N161     1.0000 0.25963  0.07444  0.77219  Biso   1.000  N
  H237     1.0000 0.29580  0.05430  0.85142  Biso   1.000  H
  H238     1.0000 0.25420  0.01751  0.83120  Biso   1.000  H
  N162     1.0000 0.32281  0.11561  0.71289  Biso   1.000  N
  H239     1.0000 0.39509  0.12118  0.70851  Biso   1.000  H
  H240     1.0000 0.37499  0.11629  0.78042  Biso   1.000  H
  N163     1.0000 0.13194  0.09238  0.51819  Biso   1.000  N
  H241     1.0000 0.07598  0.09130  0.45870  Biso   1.000  H
  H242     1.0000 0.08199  0.04319  0.49990  Biso   1.000  H
  N164     1.0000 0.18836  0.14510  0.46260  Biso   1.000  N
  H243     1.0000 0.21389  0.15930  0.37582  Biso   1.000  H
  H244     1.0000 0.15671  0.16139  0.38020  Biso   1.000  H
  C243     1.0000 0.21331  0.07160  0.74711  Biso   1.000  C
  C244     1.0000 0.28210  0.11985  0.75529  Biso   1.000  C
  C245     1.0000 0.31537  0.13553  0.65470  Biso   1.000  C
  C246     1.0000 0.13384  0.08102  0.57980  Biso   1.000  C
  C247     1.0000 0.14869  0.14200  0.50650  Biso   1.000  C
  C248     1.0000 0.22971  0.15977  0.49369  Biso   1.000  C
  N165     1.0000 0.20490  0.11007  0.71092  Biso   1.000  N
  O81      1.0000 0.18534  0.03790  0.75823  Biso   1.000  O
  C249     1.0000 0.24453  0.14535  0.71250  Biso   1.000  C
  H245     1.0000 0.29001  0.13931  0.79443  Biso   1.000  H
  N166     1.0000 0.26883  0.15204  0.65292  Biso   1.000  N
  O82      1.0000 0.34474  0.13870  0.61109  Biso   1.000  O
  O83      1.0000 0.11791  0.04445  0.60623  Biso   1.000  O
  N167     1.0000 0.15747  0.11690  0.61403  Biso   1.000  N
  C250     1.0000 0.16779  0.15718  0.57032  Biso   1.000  C
  H246     1.0000 0.12162  0.16318  0.49249  Biso   1.000  H
  N168     1.0000 0.21971  0.16286  0.55911  Biso   1.000  N
  O84      1.0000 0.26851  0.16721  0.46780  Biso   1.000  O
  C251     1.0000 0.15847  0.12090  0.68242  Biso   1.000  C
  H247     1.0000 0.23399  0.17660  0.73161  Biso   1.000  H
  C252     1.0000 0.25200  0.18530  0.60320  Biso   1.000  C
  H248     1.0000 0.15261  0.18778  0.58548  Biso   1.000  H
  H249     1.0000 0.13420  0.09882  0.70071  Biso   1.000  H
  H250     1.0000 0.14920  0.15409  0.69460  Biso   1.000  H
  H251     1.0000 0.23561  0.21281  0.62399  Biso   1.000  H
  H252     1.0000 0.28009  0.19789  0.57932  Biso   1.000  H
  C253     1.0000 0.19249  0.74343  0.61759  Biso   1.000  C
  N169     1.0000 0.14801  0.72653  0.59131  Biso   1.000  N
  N170     1.0000 0.18703  0.78536  0.65783  Biso   1.000  N
  H253     1.0000 0.21471  0.75120  0.58183  Biso   1.000  H
  H254     1.0000 0.20731  0.71739  0.64319  Biso   1.000  H
  C254     1.0000 0.12751  0.68410  0.60931  Biso   1.000  C
  C255     1.0000 0.12661  0.74584  0.53321  Biso   1.000  C
  C256     1.0000 0.19379  0.78345  0.72271  Biso   1.000  C
  C257     1.0000 0.19080  0.83419  0.63318  Biso   1.000  C
  N171     1.0000 0.08828  0.67636  0.57162  Biso   1.000  N
  O85      1.0000 0.14236  0.65842  0.65210  Biso   1.000  O
  C258     1.0000 0.08328  0.71189  0.52171  Biso   1.000  C
  N172     1.0000 0.10428  0.79273  0.53870  Biso   1.000  N
  H255     1.0000 0.14970  0.74479  0.49639  Biso   1.000  H
  O86      1.0000 0.19659  0.74634  0.75457  Biso   1.000  O
  N173     1.0000 0.19706  0.82941  0.74499  Biso   1.000  N
  N174     1.0000 0.14682  0.85195  0.60450  Biso   1.000  N
  H256     1.0000 0.21921  0.83851  0.60421  Biso   1.000  H
  C259     1.0000 0.19465  0.86458  0.69441  Biso   1.000  C
  C260     1.0000 0.06199  0.63138  0.57369  Biso   1.000  C
  N175     1.0000 0.04175  0.74415  0.52792  Biso   1.000  N
  H257     1.0000 0.08461  0.69690  0.47791  Biso   1.000  H
  C261     1.0000 0.05649  0.79061  0.53283  Biso   1.000  C
  C262     1.0000 0.13114  0.83789  0.54038  Biso   1.000  C
  C263     1.0000 0.21270  0.84074  0.81002  Biso   1.000  C
  C264     1.0000 0.12413  0.88511  0.64059  Biso   1.000  C
  N176     1.0000 0.14981  0.89252  0.69498  Biso   1.000  N
  H258     1.0000 0.22370  0.88579  0.69393  Biso   1.000  H
  N177     1.0000 0.01489  0.63537  0.60170  Biso   1.000  N
  H259     1.0000 0.05879  0.61879  0.52941  Biso   1.000  H
  H260     1.0000 0.08091  0.60768  0.59882  Biso   1.000  H
  C265     1.0000 0.99371  0.72840  0.50963  Biso   1.000  C
  O87      1.0000 0.02913  0.82588  0.52893  Biso   1.000  O
  H261     1.0000 0.15980  0.83480  0.51242  Biso   1.000  H
  H262     1.0000 0.11068  0.86368  0.52238  Biso   1.000  H
  N178     1.0000 0.17408  0.86001  0.85012  Biso   1.000  N
  H263     1.0000 0.23910  0.86450  0.80790  Biso   1.000  H
  H264     1.0000 0.22561  0.81118  0.83043  Biso   1.000  H
  O88      1.0000 0.08673  0.90654  0.62721  Biso   1.000  O
  C266     1.0000 0.14495  0.93441  0.73392  Biso   1.000  C
  C267     1.0000 0.00460  0.61998  0.66129  Biso   1.000  C
  C268     1.0000 0.97299  0.65101  0.56652  Biso   1.000  C
  N179     1.0000 0.96886  0.70294  0.55968  Biso   1.000  N
  H265     1.0000 0.97440  0.75688  0.49721  Biso   1.000  H
  H266     1.0000 0.99619  0.70729  0.47131  Biso   1.000  H
  C269     1.0000 0.15851  0.83620  0.90369  Biso   1.000  C
  C270     1.0000 0.16020  0.91060  0.85021  Biso   1.000  C
  N180     1.0000 0.12866  0.92391  0.79871  Biso   1.000  N
  H267     1.0000 0.12180  0.95660  0.71332  Biso   1.000  H
  H268     1.0000 0.17638  0.95099  0.73619  Biso   1.000  H
  O89      1.0000 0.03405  0.60527  0.70071  Biso   1.000  O
  N181     1.0000 0.95548  0.62361  0.67020  Biso   1.000  N
  C271     1.0000 0.93150  0.63771  0.61220  Biso   1.000  C
  H269     1.0000 0.97008  0.63418  0.52411  Biso   1.000  H
  C272     1.0000 0.92718  0.71901  0.58572  Biso   1.000  C
  O90      1.0000 0.16955  0.79503  0.91914  Biso   1.000  O
  N182     1.0000 0.13050  0.86684  0.93752  Biso   1.000  N
  H270     1.0000 0.18890  0.93218  0.85252  Biso   1.000  H
  C273     1.0000 0.12924  0.91474  0.91018  Biso   1.000  C
  C274     1.0000 0.08433  0.93678  0.82042  Biso   1.000  C
  C275     1.0000 0.93211  0.59981  0.72531  Biso   1.000  C
  N183     1.0000 0.90449  0.68240  0.61672  Biso   1.000  N
  H271     1.0000 0.91140  0.61099  0.59439  Biso   1.000  H
  O91      1.0000 0.91086  0.76069  0.58139  Biso   1.000  O
  C276     1.0000 0.11155  0.85533  0.00029  Biso   1.000  C
  N184     1.0000 0.08231  0.92855  0.88492  Biso   1.000  N
  H272     1.0000 0.14211  0.93930  0.94080  Biso   1.000  H
  O92      1.0000 0.05171  0.95347  0.78759  Biso   1.000  O
  N185     1.0000 0.90762  0.63192  0.76819  Biso   1.000  N
  H273     1.0000 0.90870  0.57600  0.70870  Biso   1.000  H
  H274     1.0000 0.95678  0.58201  0.74990  Biso   1.000  H
  C277     1.0000 0.85699  0.68528  0.64401  Biso   1.000  C
  N186     1.0000 0.05973  0.84980  0.00308  Biso   1.000  N
  H275     1.0000 0.12111  0.88108  0.03061  Biso   1.000  H
  H276     1.0000 0.12661  0.82509  0.01531  Biso   1.000  H
  C278     1.0000 0.04635  0.95070  0.92419  Biso   1.000  C
  C279     1.0000 0.91898  0.63382  0.82980  Biso   1.000  C
  C280     1.0000 0.85800  0.64867  0.75650  Biso   1.000  C
  N187     1.0000 0.85487  0.68837  0.71260  Biso   1.000  N
  H277     1.0000 0.84070  0.71391  0.62582  Biso   1.000  H
  H278     1.0000 0.83858  0.65669  0.63020  Biso   1.000  H
  C281     1.0000 0.03830  0.80751  0.01762  Biso   1.000  C
  C282     1.0000 0.02790  0.89036  0.01410  Biso   1.000  C
  N188     1.0000 0.01500  0.91672  0.95572  Biso   1.000  N
  H279     1.0000 0.02668  0.97238  0.89700  Biso   1.000  H
  H280     1.0000 0.06239  0.97059  0.95731  Biso   1.000  H
  O93      1.0000 0.95555  0.61793  0.85623  Biso   1.000  O
  N189     1.0000 0.88310  0.65748  0.86403  Biso   1.000  N
  C283     1.0000 0.84282  0.66777  0.82032  Biso   1.000  C
  H281     1.0000 0.83678  0.62160  0.74249  Biso   1.000  H
  C284     1.0000 0.84023  0.72969  0.74369  Biso   1.000  C
  N190     1.0000 0.99159  0.81524  0.03259  Biso   1.000  N
  O94      1.0000 0.05836  0.76792  0.01877  Biso   1.000  O
  C285     1.0000 0.97940  0.86670  0.03398  Biso   1.000  C
  H282     1.0000 0.04049  0.91219  0.04842  Biso   1.000  H
  C286     1.0000 0.96753  0.91265  0.94142  Biso   1.000  C
  C287     1.0000 0.87910  0.65849  0.93242  Biso   1.000  C
  N191     1.0000 0.83714  0.71970  0.80911  Biso   1.000  N
  H283     1.0000 0.81218  0.65259  0.83553  Biso   1.000  H
  O95      1.0000 0.83279  0.76849  0.71780  Biso   1.000  O
  C288     1.0000 0.96185  0.78036  0.06430  Biso   1.000  C
  N192     1.0000 0.94707  0.88155  0.98469  Biso   1.000  N
  H284     1.0000 0.96861  0.87738  0.07759  Biso   1.000  H
  O96      1.0000 0.94703  0.93283  0.89753  Biso   1.000  O
  N193     1.0000 0.88993  0.70488  0.96092  Biso   1.000  N
  H285     1.0000 0.90118  0.63418  0.95071  Biso   1.000  H
  H286     1.0000 0.84588  0.64918  0.94460  Biso   1.000  H
  C289     1.0000 0.81470  0.75202  0.85320  Biso   1.000  C
  N194     1.0000 0.92556  0.75961  0.02219  Biso   1.000  N
  H287     1.0000 0.94570  0.79579  0.10142  Biso   1.000  H
  H288     1.0000 0.98249  0.75418  0.08120  Biso   1.000  H
  C290     1.0000 0.89572  0.87134  0.98580  Biso   1.000  C
  C291     1.0000 0.92840  0.71329  0.99711  Biso   1.000  C
  C292     1.0000 0.85465  0.74451  0.96250  Biso   1.000  C
  N195     1.0000 0.84793  0.76882  0.90292  Biso   1.000  N
  H289     1.0000 0.78719  0.73559  0.87399  Biso   1.000  H
  H290     1.0000 0.80208  0.78011  0.82932  Biso   1.000  H
  C293     1.0000 0.88015  0.78212  0.00529  Biso   1.000  C
  N196     1.0000 0.88439  0.82283  0.96289  Biso   1.000  N
  H291     1.0000 0.87878  0.89511  0.95851  Biso   1.000  H
  H292     1.0000 0.88371  0.87500  0.03042  Biso   1.000  H
  O97      1.0000 0.96210  0.68532  0.00818  Biso   1.000  O
  H293     1.0000 0.82340  0.73401  0.98161  Biso   1.000  H
  C294     1.0000 0.86447  0.81535  0.90470  Biso   1.000  C
  H294     1.0000 0.86069  0.79000  0.04438  Biso   1.000  H
  O98      1.0000 0.86130  0.84476  0.86109  Biso   1.000  O
  C295     1.0000 0.80751  0.25657  0.61759  Biso   1.000  C
  N197     1.0000 0.85199  0.27347  0.59131  Biso   1.000  N
  N198     1.0000 0.81294  0.21464  0.65783  Biso   1.000  N
  H295     1.0000 0.78529  0.24880  0.58183  Biso   1.000  H
  H296     1.0000 0.79269  0.28261  0.64319  Biso   1.000  H
  C296     1.0000 0.87249  0.31590  0.60931  Biso   1.000  C
  C297     1.0000 0.87339  0.25416  0.53321  Biso   1.000  C
  C298     1.0000 0.80621  0.21655  0.72271  Biso   1.000  C
  C299     1.0000 0.80916  0.16577  0.63318  Biso   1.000  C
  O99      1.0000 0.85760  0.34158  0.65210  Biso   1.000  O
  N199     1.0000 0.91172  0.32364  0.57162  Biso   1.000  N
  N200     1.0000 0.89572  0.20724  0.53870  Biso   1.000  N
  C300     1.0000 0.91668  0.28811  0.52171  Biso   1.000  C
  H297     1.0000 0.85030  0.25521  0.49639  Biso   1.000  H
  O100     1.0000 0.80341  0.25366  0.75457  Biso   1.000  O
  N201     1.0000 0.80294  0.17056  0.74499  Biso   1.000  N
  N202     1.0000 0.85318  0.14805  0.60450  Biso   1.000  N
  H298     1.0000 0.78079  0.16149  0.60421  Biso   1.000  H
  C301     1.0000 0.80535  0.13539  0.69441  Biso   1.000  C
  C302     1.0000 0.93801  0.36859  0.57369  Biso   1.000  C
  C303     1.0000 0.94351  0.20939  0.53283  Biso   1.000  C
  C304     1.0000 0.86886  0.16211  0.54038  Biso   1.000  C
  N203     1.0000 0.95825  0.25582  0.52792  Biso   1.000  N
  H299     1.0000 0.91539  0.30310  0.47791  Biso   1.000  H
  C305     1.0000 0.78726  0.15926  0.81002  Biso   1.000  C
  C306     1.0000 0.87583  0.11485  0.64059  Biso   1.000  C
  N204     1.0000 0.85019  0.10748  0.69498  Biso   1.000  N
  H300     1.0000 0.77630  0.11421  0.69393  Biso   1.000  H
  N205     1.0000 0.98511  0.36463  0.60170  Biso   1.000  N
  H301     1.0000 0.94121  0.38121  0.52941  Biso   1.000  H
  H302     1.0000 0.91909  0.39228  0.59882  Biso   1.000  H
  O101     1.0000 0.97087  0.17412  0.52893  Biso   1.000  O
  H303     1.0000 0.84020  0.16520  0.51242  Biso   1.000  H
  H304     1.0000 0.88928  0.13629  0.52238  Biso   1.000  H
  C307     1.0000 0.00629  0.27160  0.50963  Biso   1.000  C
  N206     1.0000 0.82592  0.13999  0.85012  Biso   1.000  N
  H305     1.0000 0.76090  0.13550  0.80790  Biso   1.000  H
  H306     1.0000 0.77439  0.18879  0.83043  Biso   1.000  H
  O102     1.0000 0.91327  0.09346  0.62721  Biso   1.000  O
  C308     1.0000 0.85501  0.06555  0.73392  Biso   1.000  C
  C309     1.0000 0.99540  0.38002  0.66129  Biso   1.000  C
  C310     1.0000 0.02701  0.34899  0.56652  Biso   1.000  C
  N207     1.0000 0.03114  0.29706  0.55968  Biso   1.000  N
  H307     1.0000 0.02560  0.24309  0.49721  Biso   1.000  H
  H308     1.0000 0.00381  0.29271  0.47131  Biso   1.000  H
  C311     1.0000 0.84149  0.16380  0.90369  Biso   1.000  C
  C312     1.0000 0.83980  0.08940  0.85021  Biso   1.000  C
  N208     1.0000 0.87130  0.07605  0.79871  Biso   1.000  N
  H309     1.0000 0.87820  0.04340  0.71332  Biso   1.000  H
  H310     1.0000 0.82358  0.04901  0.73619  Biso   1.000  H
  O103     1.0000 0.96595  0.39473  0.70071  Biso   1.000  O
  N209     1.0000 0.04448  0.37635  0.67020  Biso   1.000  N
  C313     1.0000 0.06850  0.36229  0.61220  Biso   1.000  C
  H311     1.0000 0.02988  0.36578  0.52411  Biso   1.000  H
  C314     1.0000 0.07278  0.28099  0.58572  Biso   1.000  C
  O104     1.0000 0.83045  0.20497  0.91914  Biso   1.000  O
  N210     1.0000 0.86950  0.13316  0.93752  Biso   1.000  N
  H312     1.0000 0.81110  0.06778  0.85252  Biso   1.000  H
  C315     1.0000 0.87076  0.08526  0.91018  Biso   1.000  C
  C316     1.0000 0.91564  0.06322  0.82042  Biso   1.000  C
  C317     1.0000 0.06789  0.40019  0.72531  Biso   1.000  C
  N211     1.0000 0.09551  0.31760  0.61672  Biso   1.000  N
  H313     1.0000 0.08860  0.38901  0.59439  Biso   1.000  H
  O105     1.0000 0.08914  0.23931  0.58139  Biso   1.000  O
  C318     1.0000 0.88842  0.14467  0.00029  Biso   1.000  C
  N212     1.0000 0.91765  0.07145  0.88492  Biso   1.000  N
  H314     1.0000 0.85789  0.06070  0.94080  Biso   1.000  H
  O106     1.0000 0.94829  0.04653  0.78759  Biso   1.000  O
  N213     1.0000 0.09238  0.36805  0.76819  Biso   1.000  N
  H315     1.0000 0.09130  0.42400  0.70870  Biso   1.000  H
  H316     1.0000 0.04319  0.41799  0.74990  Biso   1.000  H
  C319     1.0000 0.14301  0.31468  0.64401  Biso   1.000  C
  N214     1.0000 0.94027  0.15020  0.00308  Biso   1.000  N
  H317     1.0000 0.87889  0.11888  0.03061  Biso   1.000  H
  H318     1.0000 0.87339  0.17491  0.01531  Biso   1.000  H
  C320     1.0000 0.95365  0.04930  0.92419  Biso   1.000  C
  C321     1.0000 0.08102  0.36618  0.82980  Biso   1.000  C
  C322     1.0000 0.14200  0.35133  0.75650  Biso   1.000  C
  N215     1.0000 0.14510  0.31163  0.71260  Biso   1.000  N
  H319     1.0000 0.15930  0.28609  0.62582  Biso   1.000  H
  H320     1.0000 0.16139  0.34331  0.63020  Biso   1.000  H
  C323     1.0000 0.96170  0.19249  0.01762  Biso   1.000  C
  C324     1.0000 0.97206  0.10964  0.01410  Biso   1.000  C
  N216     1.0000 0.98497  0.08328  0.95572  Biso   1.000  N
  H321     1.0000 0.97328  0.02762  0.89700  Biso   1.000  H
  H322     1.0000 0.93761  0.02941  0.95731  Biso   1.000  H
  O107     1.0000 0.04445  0.38207  0.85623  Biso   1.000  O
  N217     1.0000 0.11690  0.34252  0.86403  Biso   1.000  N
  C325     1.0000 0.15718  0.33223  0.82032  Biso   1.000  C
  H323     1.0000 0.16318  0.37840  0.74249  Biso   1.000  H
  C326     1.0000 0.15977  0.27027  0.74369  Biso   1.000  C
  O108     1.0000 0.94160  0.23208  0.01877  Biso   1.000  O
  N218     1.0000 0.00841  0.18472  0.03259  Biso   1.000  N
  H324     1.0000 0.95951  0.08781  0.04842  Biso   1.000  H
  C327     1.0000 0.02060  0.13330  0.03398  Biso   1.000  C
  C328     1.0000 0.03247  0.08735  0.94142  Biso   1.000  C
  C329     1.0000 0.12090  0.34151  0.93242  Biso   1.000  C
  N219     1.0000 0.16286  0.28030  0.80911  Biso   1.000  N
  H325     1.0000 0.18778  0.34741  0.83553  Biso   1.000  H
  O109     1.0000 0.16721  0.23147  0.71780  Biso   1.000  O
  C330     1.0000 0.03812  0.21964  0.06430  Biso   1.000  C
  N220     1.0000 0.05293  0.11841  0.98469  Biso   1.000  N
  H326     1.0000 0.03139  0.12259  0.07759  Biso   1.000  H
  O110     1.0000 0.05297  0.06717  0.89753  Biso   1.000  O
  N221     1.0000 0.11007  0.29508  0.96092  Biso   1.000  N
  H327     1.0000 0.09882  0.36578  0.95071  Biso   1.000  H
  H328     1.0000 0.15409  0.35079  0.94460  Biso   1.000  H
  C331     1.0000 0.18530  0.24798  0.85320  Biso   1.000  C
  N222     1.0000 0.07444  0.24035  0.02219  Biso   1.000  N
  H329     1.0000 0.05430  0.20421  0.10142  Biso   1.000  H
  H330     1.0000 0.01751  0.24578  0.08120  Biso   1.000  H
  C332     1.0000 0.10428  0.12863  0.98580  Biso   1.000  C
  C333     1.0000 0.07160  0.28671  0.99711  Biso   1.000  C
  C334     1.0000 0.14535  0.25549  0.96250  Biso   1.000  C
  N223     1.0000 0.15204  0.23118  0.90292  Biso   1.000  N
  H331     1.0000 0.21281  0.26441  0.87399  Biso   1.000  H
  H332     1.0000 0.19789  0.21989  0.82932  Biso   1.000  H
  C335     1.0000 0.11985  0.21788  0.00529  Biso   1.000  C
  N224     1.0000 0.11561  0.17717  0.96289  Biso   1.000  N
  H333     1.0000 0.12118  0.10489  0.95851  Biso   1.000  H
  H334     1.0000 0.11629  0.12500  0.03042  Biso   1.000  H
  O111     1.0000 0.03790  0.31468  0.00818  Biso   1.000  O
  H335     1.0000 0.17660  0.26599  0.98161  Biso   1.000  H
  C336     1.0000 0.13553  0.18465  0.90470  Biso   1.000  C
  H336     1.0000 0.13931  0.21000  0.04438  Biso   1.000  H
  O112     1.0000 0.13870  0.15524  0.86109  Biso   1.000  O
