data_image0
_cell_length_a       24.973
_cell_length_b       24.973
_cell_length_c       24.973
_cell_angle_alpha    90
_cell_angle_beta     90
_cell_angle_gamma    90

_symmetry_space_group_name_H-M    "P 1"
_symmetry_int_tables_number       1

loop_
  _symmetry_equiv_pos_as_xyz
  'x, y, z'

loop_
  _atom_site_label
  _atom_site_occupancy
  _atom_site_fract_x
  _atom_site_fract_y
  _atom_site_fract_z
  _atom_site_thermal_displace_type
  _atom_site_B_iso_or_equiv
  _atom_site_type_symbol
  C1       1.0000 0.63020  0.52849  0.50879  Biso   1.000  C
  C2       1.0000 0.63020  0.47151  0.49117  Biso   1.000  C
  C3       1.0000 0.68049  0.53938  0.54219  Biso   1.000  C
  H1       1.0000 0.59849  0.53570  0.53009  Biso   1.000  H
  H2       1.0000 0.62960  0.55188  0.47780  Biso   1.000  H
  C4       1.0000 0.68049  0.46058  0.45777  Biso   1.000  C
  H3       1.0000 0.59849  0.46430  0.46991  Biso   1.000  H
  H4       1.0000 0.62960  0.44808  0.52220  Biso   1.000  H
  C5       1.0000 0.73107  0.52837  0.51039  Biso   1.000  C
  H5       1.0000 0.68037  0.57638  0.55380  Biso   1.000  H
  H6       1.0000 0.67997  0.51688  0.57378  Biso   1.000  H
  C6       1.0000 0.73107  0.47159  0.48961  Biso   1.000  C
  H7       1.0000 0.68037  0.42358  0.44620  Biso   1.000  H
  H8       1.0000 0.67997  0.48308  0.42618  Biso   1.000  H
  N1       1.0000 0.77740  0.53638  0.54579  Biso   1.000  N
  H9       1.0000 0.73327  0.55340  0.48028  Biso   1.000  H
  N2       1.0000 0.77740  0.46358  0.45421  Biso   1.000  N
  H10      1.0000 0.73327  0.44660  0.51968  Biso   1.000  H
  C7       1.0000 0.80959  0.57278  0.53450  Biso   1.000  C
  C8       1.0000 0.80959  0.42718  0.46550  Biso   1.000  C
  C9       1.0000 0.85588  0.58659  0.56817  Biso   1.000  C
  H11      1.0000 0.80407  0.59228  0.50318  Biso   1.000  H
  C10      1.0000 0.85588  0.41341  0.43179  Biso   1.000  C
  H12      1.0000 0.80407  0.40768  0.49678  Biso   1.000  H
  C11      1.0000 0.88708  0.63048  0.55560  Biso   1.000  C
  C12      1.0000 0.86950  0.55560  0.61290  Biso   1.000  C
  C13      1.0000 0.88708  0.36948  0.44440  Biso   1.000  C
  C14      1.0000 0.86950  0.44440  0.38710  Biso   1.000  C
  H13      1.0000 0.87827  0.65138  0.52601  Biso   1.000  H
  C15      1.0000 0.93177  0.64410  0.58659  Biso   1.000  C
  H14      1.0000 0.84860  0.52601  0.62167  Biso   1.000  H
  C16      1.0000 0.91339  0.56817  0.64410  Biso   1.000  C
  H15      1.0000 0.87827  0.34858  0.47399  Biso   1.000  H
  C17      1.0000 0.93177  0.35590  0.41341  Biso   1.000  C
  H16      1.0000 0.84860  0.47399  0.37829  Biso   1.000  H
  C18      1.0000 0.91339  0.43179  0.35590  Biso   1.000  C
  C19      1.0000 0.94438  0.61290  0.63048  Biso   1.000  C
  C20      1.0000 0.96548  0.69039  0.57278  Biso   1.000  C
  C21      1.0000 0.92720  0.53450  0.69039  Biso   1.000  C
  C22      1.0000 0.94438  0.38710  0.36948  Biso   1.000  C
  C23      1.0000 0.96548  0.30957  0.42718  Biso   1.000  C
  C24      1.0000 0.92720  0.46550  0.30957  Biso   1.000  C
  H17      1.0000 0.97397  0.62167  0.65138  Biso   1.000  H
  N3       1.0000 0.95419  0.72258  0.53638  Biso   1.000  N
  H18      1.0000 0.99680  0.69587  0.59228  Biso   1.000  H
  N4       1.0000 0.96360  0.54579  0.72258  Biso   1.000  N
  H19      1.0000 0.90770  0.50318  0.69587  Biso   1.000  H
  H20      1.0000 0.97397  0.37829  0.34858  Biso   1.000  H
  N5       1.0000 0.95419  0.27738  0.46358  Biso   1.000  N
  H21      1.0000 0.99680  0.30409  0.40768  Biso   1.000  H
  N6       1.0000 0.96360  0.45421  0.27738  Biso   1.000  N
  H22      1.0000 0.90770  0.49678  0.30409  Biso   1.000  H
  C25      1.0000 0.98959  0.76887  0.52837  Biso   1.000  C
  C26      1.0000 0.97157  0.51039  0.76887  Biso   1.000  C
  C27      1.0000 0.98959  0.23109  0.47159  Biso   1.000  C
  C28      1.0000 0.97157  0.48961  0.23109  Biso   1.000  C
  C29      1.0000 0.95779  0.81949  0.53938  Biso   1.000  C
  C30      1.0000 0.01041  0.76887  0.47159  Biso   1.000  C
  H23      1.0000 0.01970  0.76667  0.55340  Biso   1.000  H
  H24      1.0000 0.94658  0.48028  0.76667  Biso   1.000  H
  C31      1.0000 0.96060  0.54219  0.81949  Biso   1.000  C
  C32      1.0000 0.02839  0.48961  0.76887  Biso   1.000  C
  C33      1.0000 0.95779  0.18051  0.46058  Biso   1.000  C
  C34      1.0000 0.01041  0.23109  0.52837  Biso   1.000  C
  H25      1.0000 0.01970  0.23329  0.44660  Biso   1.000  H
  H26      1.0000 0.94658  0.51968  0.23329  Biso   1.000  H
  C35      1.0000 0.96060  0.45777  0.18051  Biso   1.000  C
  C36      1.0000 0.02839  0.51039  0.23109  Biso   1.000  C
  H27      1.0000 0.94618  0.81957  0.57638  Biso   1.000  H
  H28      1.0000 0.92620  0.81997  0.51688  Biso   1.000  H
  C37      1.0000 0.99119  0.86978  0.52849  Biso   1.000  C
  H29      1.0000 0.98030  0.76667  0.44660  Biso   1.000  H
  N7       1.0000 0.04581  0.72258  0.46358  Biso   1.000  N
  C38      1.0000 0.04221  0.81949  0.46058  Biso   1.000  C
  H30      1.0000 0.92360  0.55380  0.81957  Biso   1.000  H
  H31      1.0000 0.98306  0.57378  0.81997  Biso   1.000  H
  C39      1.0000 0.97149  0.50879  0.86978  Biso   1.000  C
  N8       1.0000 0.03640  0.45421  0.72258  Biso   1.000  N
  H32      1.0000 0.05342  0.51968  0.76667  Biso   1.000  H
  C40      1.0000 0.03940  0.45777  0.81949  Biso   1.000  C
  H33      1.0000 0.94618  0.18039  0.42358  Biso   1.000  H
  H34      1.0000 0.92620  0.17999  0.48308  Biso   1.000  H
  C41      1.0000 0.99119  0.13018  0.47151  Biso   1.000  C
  H35      1.0000 0.98030  0.23329  0.55340  Biso   1.000  H
  N9       1.0000 0.04581  0.27738  0.53638  Biso   1.000  N
  C42      1.0000 0.04221  0.18051  0.53938  Biso   1.000  C
  H36      1.0000 0.92360  0.44620  0.18039  Biso   1.000  H
  H37      1.0000 0.98306  0.42618  0.17999  Biso   1.000  H
  C43      1.0000 0.97149  0.49117  0.13018  Biso   1.000  C
  N10      1.0000 0.03640  0.54579  0.27738  Biso   1.000  N
  H38      1.0000 0.05342  0.48028  0.23329  Biso   1.000  H
  C44      1.0000 0.03940  0.54219  0.18051  Biso   1.000  C
  H39      1.0000 0.96989  0.90149  0.53570  Biso   1.000  H
  C45      1.0000 0.00881  0.86978  0.47151  Biso   1.000  C
  H40      1.0000 0.02218  0.87038  0.55188  Biso   1.000  H
  C46      1.0000 0.03452  0.69039  0.42718  Biso   1.000  C
  H41      1.0000 0.05382  0.81957  0.42358  Biso   1.000  H
  H42      1.0000 0.07380  0.81997  0.48308  Biso   1.000  H
  H43      1.0000 0.96428  0.53009  0.90149  Biso   1.000  H
  H44      1.0000 0.94806  0.47780  0.87038  Biso   1.000  H
  C47      1.0000 0.02851  0.49117  0.86978  Biso   1.000  C
  C48      1.0000 0.07280  0.46550  0.69039  Biso   1.000  C
  H45      1.0000 0.07640  0.44620  0.81957  Biso   1.000  H
  H46      1.0000 0.01690  0.42618  0.81997  Biso   1.000  H
  H47      1.0000 0.96989  0.09851  0.46430  Biso   1.000  H
  C49      1.0000 0.00881  0.13018  0.52849  Biso   1.000  C
  H48      1.0000 0.02218  0.12958  0.44808  Biso   1.000  H
  C50      1.0000 0.03452  0.30957  0.57278  Biso   1.000  C
  H49      1.0000 0.05382  0.18039  0.57638  Biso   1.000  H
  H50      1.0000 0.07380  0.17999  0.51688  Biso   1.000  H
  H51      1.0000 0.96428  0.46991  0.09851  Biso   1.000  H
  H52      1.0000 0.94806  0.52220  0.12958  Biso   1.000  H
  C51      1.0000 0.02851  0.50879  0.13018  Biso   1.000  C
  C52      1.0000 0.07280  0.53450  0.30957  Biso   1.000  C
  H53      1.0000 0.07640  0.55380  0.18039  Biso   1.000  H
  H54      1.0000 0.01690  0.57378  0.17999  Biso   1.000  H
  H55      1.0000 0.97778  0.87038  0.44808  Biso   1.000  H
  H56      1.0000 0.03011  0.90149  0.46430  Biso   1.000  H
  C53      1.0000 0.06819  0.64410  0.41341  Biso   1.000  C
  H57      1.0000 0.00320  0.69587  0.40768  Biso   1.000  H
  H58      1.0000 0.03572  0.46991  0.90149  Biso   1.000  H
  H59      1.0000 0.05190  0.52220  0.87038  Biso   1.000  H
  C54      1.0000 0.08661  0.43179  0.64410  Biso   1.000  C
  H60      1.0000 0.09230  0.49678  0.69587  Biso   1.000  H
  H61      1.0000 0.97778  0.12958  0.55188  Biso   1.000  H
  H62      1.0000 0.03011  0.09851  0.53570  Biso   1.000  H
  C55      1.0000 0.06819  0.35590  0.58659  Biso   1.000  C
  H63      1.0000 0.00320  0.30409  0.59228  Biso   1.000  H
  H64      1.0000 0.03572  0.53009  0.09851  Biso   1.000  H
  H65      1.0000 0.05190  0.47780  0.12958  Biso   1.000  H
  C56      1.0000 0.08661  0.56817  0.35590  Biso   1.000  C
  H66      1.0000 0.09230  0.50318  0.30409  Biso   1.000  H
  C57      1.0000 0.05558  0.61290  0.36948  Biso   1.000  C
  C58      1.0000 0.11288  0.63048  0.44440  Biso   1.000  C
  C59      1.0000 0.05558  0.38710  0.63048  Biso   1.000  C
  C60      1.0000 0.13050  0.44440  0.61290  Biso   1.000  C
  C61      1.0000 0.11288  0.36948  0.55560  Biso   1.000  C
  C62      1.0000 0.13050  0.55560  0.38710  Biso   1.000  C
  H67      1.0000 0.02599  0.62167  0.34858  Biso   1.000  H
  C63      1.0000 0.14412  0.58659  0.43179  Biso   1.000  C
  H68      1.0000 0.12169  0.65138  0.47399  Biso   1.000  H
  H69      1.0000 0.02599  0.37829  0.65138  Biso   1.000  H
  C64      1.0000 0.14412  0.41341  0.56817  Biso   1.000  C
  H70      1.0000 0.15140  0.47399  0.62167  Biso   1.000  H
  H71      1.0000 0.12169  0.34858  0.52601  Biso   1.000  H
  H72      1.0000 0.15140  0.52601  0.37829  Biso   1.000  H
  C65      1.0000 0.19041  0.57278  0.46550  Biso   1.000  C
  C66      1.0000 0.19041  0.42718  0.53450  Biso   1.000  C
  N11      1.0000 0.22260  0.53638  0.45421  Biso   1.000  N
  H73      1.0000 0.19589  0.59228  0.49678  Biso   1.000  H
  N12      1.0000 0.22260  0.46358  0.54579  Biso   1.000  N
  H74      1.0000 0.19589  0.40768  0.50318  Biso   1.000  H
  C67      1.0000 0.26889  0.52837  0.48961  Biso   1.000  C
  C68      1.0000 0.26889  0.47159  0.51039  Biso   1.000  C
  H75      1.0000 0.26669  0.55340  0.51968  Biso   1.000  H
  C69      1.0000 0.31951  0.53938  0.45777  Biso   1.000  C
  H76      1.0000 0.26669  0.44660  0.48028  Biso   1.000  H
  C70      1.0000 0.31951  0.46058  0.54219  Biso   1.000  C
  H77      1.0000 0.31959  0.57638  0.44620  Biso   1.000  H
  H78      1.0000 0.31999  0.51688  0.42618  Biso   1.000  H
  C71      1.0000 0.36980  0.52849  0.49117  Biso   1.000  C
  H79      1.0000 0.31959  0.42358  0.55380  Biso   1.000  H
  H80      1.0000 0.31999  0.48308  0.57378  Biso   1.000  H
  C72      1.0000 0.36980  0.47151  0.50879  Biso   1.000  C
  H81      1.0000 0.40147  0.53570  0.46991  Biso   1.000  H
  H82      1.0000 0.37040  0.55188  0.52220  Biso   1.000  H
  H83      1.0000 0.40147  0.46430  0.53009  Biso   1.000  H
  H84      1.0000 0.37040  0.44808  0.47780  Biso   1.000  H
  C73      1.0000 0.52849  0.50879  0.63020  Biso   1.000  C
  C74      1.0000 0.47151  0.49117  0.63020  Biso   1.000  C
  C75      1.0000 0.53938  0.54219  0.68049  Biso   1.000  C
  H85      1.0000 0.53570  0.53009  0.59849  Biso   1.000  H
  H86      1.0000 0.55188  0.47780  0.62960  Biso   1.000  H
  C76      1.0000 0.46058  0.45777  0.68049  Biso   1.000  C
  H87      1.0000 0.46430  0.46991  0.59849  Biso   1.000  H
  H88      1.0000 0.44808  0.52220  0.62960  Biso   1.000  H
  C77      1.0000 0.52837  0.51039  0.73107  Biso   1.000  C
  H89      1.0000 0.57638  0.55380  0.68037  Biso   1.000  H
  H90      1.0000 0.51688  0.57378  0.67997  Biso   1.000  H
  C78      1.0000 0.47159  0.48961  0.73107  Biso   1.000  C
  H91      1.0000 0.42358  0.44620  0.68037  Biso   1.000  H
  H92      1.0000 0.48308  0.42618  0.67997  Biso   1.000  H
  N13      1.0000 0.53638  0.54579  0.77740  Biso   1.000  N
  H93      1.0000 0.55340  0.48028  0.73327  Biso   1.000  H
  N14      1.0000 0.46358  0.45421  0.77740  Biso   1.000  N
  H94      1.0000 0.44660  0.51968  0.73327  Biso   1.000  H
  C79      1.0000 0.57278  0.53450  0.80959  Biso   1.000  C
  C80      1.0000 0.42718  0.46550  0.80959  Biso   1.000  C
  C81      1.0000 0.58659  0.56817  0.85588  Biso   1.000  C
  H95      1.0000 0.59228  0.50318  0.80407  Biso   1.000  H
  C82      1.0000 0.41341  0.43179  0.85588  Biso   1.000  C
  H96      1.0000 0.40768  0.49678  0.80407  Biso   1.000  H
  C83      1.0000 0.63048  0.55560  0.88708  Biso   1.000  C
  C84      1.0000 0.55560  0.61290  0.86950  Biso   1.000  C
  C85      1.0000 0.36948  0.44440  0.88708  Biso   1.000  C
  C86      1.0000 0.44440  0.38710  0.86950  Biso   1.000  C
  H97      1.0000 0.65138  0.52601  0.87827  Biso   1.000  H
  C87      1.0000 0.64410  0.58659  0.93177  Biso   1.000  C
  H98      1.0000 0.52601  0.62167  0.84860  Biso   1.000  H
  C88      1.0000 0.56817  0.64410  0.91339  Biso   1.000  C
  H99      1.0000 0.34858  0.47399  0.87827  Biso   1.000  H
  C89      1.0000 0.35590  0.41341  0.93177  Biso   1.000  C
  H100     1.0000 0.47399  0.37829  0.84860  Biso   1.000  H
  C90      1.0000 0.43179  0.35590  0.91339  Biso   1.000  C
  C91      1.0000 0.61290  0.63048  0.94438  Biso   1.000  C
  C92      1.0000 0.69039  0.57278  0.96548  Biso   1.000  C
  C93      1.0000 0.53450  0.69039  0.92720  Biso   1.000  C
  C94      1.0000 0.38710  0.36948  0.94438  Biso   1.000  C
  C95      1.0000 0.30957  0.42718  0.96548  Biso   1.000  C
  C96      1.0000 0.46550  0.30957  0.92720  Biso   1.000  C
  H101     1.0000 0.62167  0.65138  0.97397  Biso   1.000  H
  N15      1.0000 0.72258  0.53638  0.95419  Biso   1.000  N
  H102     1.0000 0.69587  0.59228  0.99680  Biso   1.000  H
  N16      1.0000 0.54579  0.72258  0.96360  Biso   1.000  N
  H103     1.0000 0.50318  0.69587  0.90770  Biso   1.000  H
  H104     1.0000 0.37829  0.34858  0.97397  Biso   1.000  H
  N17      1.0000 0.27738  0.46358  0.95419  Biso   1.000  N
  H105     1.0000 0.30409  0.40768  0.99680  Biso   1.000  H
  N18      1.0000 0.45421  0.27738  0.96360  Biso   1.000  N
  H106     1.0000 0.49678  0.30409  0.90770  Biso   1.000  H
  C97      1.0000 0.76887  0.52837  0.98959  Biso   1.000  C
  C98      1.0000 0.51039  0.76887  0.97157  Biso   1.000  C
  C99      1.0000 0.23109  0.47159  0.98959  Biso   1.000  C
  C100     1.0000 0.48961  0.23109  0.97157  Biso   1.000  C
  C101     1.0000 0.81949  0.53938  0.95779  Biso   1.000  C
  C102     1.0000 0.76887  0.47159  0.01041  Biso   1.000  C
  H107     1.0000 0.76667  0.55340  0.01970  Biso   1.000  H
  H108     1.0000 0.48028  0.76667  0.94658  Biso   1.000  H
  C103     1.0000 0.54219  0.81949  0.96060  Biso   1.000  C
  C104     1.0000 0.48961  0.76887  0.02839  Biso   1.000  C
  C105     1.0000 0.18051  0.46058  0.95779  Biso   1.000  C
  C106     1.0000 0.23109  0.52837  0.01041  Biso   1.000  C
  H109     1.0000 0.23329  0.44660  0.01970  Biso   1.000  H
  H110     1.0000 0.51968  0.23329  0.94658  Biso   1.000  H
  C107     1.0000 0.45777  0.18051  0.96060  Biso   1.000  C
  C108     1.0000 0.51039  0.23109  0.02839  Biso   1.000  C
  H111     1.0000 0.81957  0.57638  0.94618  Biso   1.000  H
  H112     1.0000 0.81997  0.51688  0.92620  Biso   1.000  H
  C109     1.0000 0.86978  0.52849  0.99119  Biso   1.000  C
  H113     1.0000 0.76667  0.44660  0.98030  Biso   1.000  H
  N19      1.0000 0.72258  0.46358  0.04581  Biso   1.000  N
  C110     1.0000 0.81949  0.46058  0.04221  Biso   1.000  C
  H114     1.0000 0.55380  0.81957  0.92360  Biso   1.000  H
  H115     1.0000 0.57378  0.81997  0.98306  Biso   1.000  H
  C111     1.0000 0.50879  0.86978  0.97149  Biso   1.000  C
  N20      1.0000 0.45421  0.72258  0.03640  Biso   1.000  N
  H116     1.0000 0.51968  0.76667  0.05342  Biso   1.000  H
  C112     1.0000 0.45777  0.81949  0.03940  Biso   1.000  C
  H117     1.0000 0.18039  0.42358  0.94618  Biso   1.000  H
  H118     1.0000 0.17999  0.48308  0.92620  Biso   1.000  H
  C113     1.0000 0.13018  0.47151  0.99119  Biso   1.000  C
  H119     1.0000 0.23329  0.55340  0.98030  Biso   1.000  H
  N21      1.0000 0.27738  0.53638  0.04581  Biso   1.000  N
  C114     1.0000 0.18051  0.53938  0.04221  Biso   1.000  C
  H120     1.0000 0.44620  0.18039  0.92360  Biso   1.000  H
  H121     1.0000 0.42618  0.17999  0.98306  Biso   1.000  H
  C115     1.0000 0.49117  0.13018  0.97149  Biso   1.000  C
  N22      1.0000 0.54579  0.27738  0.03640  Biso   1.000  N
  H122     1.0000 0.48028  0.23329  0.05342  Biso   1.000  H
  C116     1.0000 0.54219  0.18051  0.03940  Biso   1.000  C
  H123     1.0000 0.90149  0.53570  0.96989  Biso   1.000  H
  C117     1.0000 0.86978  0.47151  0.00881  Biso   1.000  C
  H124     1.0000 0.87038  0.55188  0.02218  Biso   1.000  H
  C118     1.0000 0.69039  0.42718  0.03452  Biso   1.000  C
  H125     1.0000 0.81957  0.42358  0.05382  Biso   1.000  H
  H126     1.0000 0.81997  0.48308  0.07380  Biso   1.000  H
  H127     1.0000 0.53009  0.90149  0.96428  Biso   1.000  H
  H128     1.0000 0.47780  0.87038  0.94806  Biso   1.000  H
  C119     1.0000 0.49117  0.86978  0.02851  Biso   1.000  C
  C120     1.0000 0.46550  0.69039  0.07280  Biso   1.000  C
  H129     1.0000 0.44620  0.81957  0.07640  Biso   1.000  H
  H130     1.0000 0.42618  0.81997  0.01690  Biso   1.000  H
  H131     1.0000 0.09851  0.46430  0.96989  Biso   1.000  H
  C121     1.0000 0.13018  0.52849  0.00881  Biso   1.000  C
  H132     1.0000 0.12958  0.44808  0.02218  Biso   1.000  H
  C122     1.0000 0.30957  0.57278  0.03452  Biso   1.000  C
  H133     1.0000 0.18039  0.57638  0.05382  Biso   1.000  H
  H134     1.0000 0.17999  0.51688  0.07380  Biso   1.000  H
  H135     1.0000 0.46991  0.09851  0.96428  Biso   1.000  H
  H136     1.0000 0.52220  0.12958  0.94806  Biso   1.000  H
  C123     1.0000 0.50879  0.13018  0.02851  Biso   1.000  C
  C124     1.0000 0.53450  0.30957  0.07280  Biso   1.000  C
  H137     1.0000 0.55380  0.18039  0.07640  Biso   1.000  H
  H138     1.0000 0.57378  0.17999  0.01690  Biso   1.000  H
  H139     1.0000 0.87038  0.44808  0.97778  Biso   1.000  H
  H140     1.0000 0.90149  0.46430  0.03011  Biso   1.000  H
  C125     1.0000 0.64410  0.41341  0.06819  Biso   1.000  C
  H141     1.0000 0.69587  0.40768  0.00320  Biso   1.000  H
  H142     1.0000 0.46991  0.90149  0.03572  Biso   1.000  H
  H143     1.0000 0.52220  0.87038  0.05190  Biso   1.000  H
  C126     1.0000 0.43179  0.64410  0.08661  Biso   1.000  C
  H144     1.0000 0.49678  0.69587  0.09230  Biso   1.000  H
  H145     1.0000 0.12958  0.55188  0.97778  Biso   1.000  H
  H146     1.0000 0.09851  0.53570  0.03011  Biso   1.000  H
  C127     1.0000 0.35590  0.58659  0.06819  Biso   1.000  C
  H147     1.0000 0.30409  0.59228  0.00320  Biso   1.000  H
  H148     1.0000 0.53009  0.09851  0.03572  Biso   1.000  H
  H149     1.0000 0.47780  0.12958  0.05190  Biso   1.000  H
  C128     1.0000 0.56817  0.35590  0.08661  Biso   1.000  C
  H150     1.0000 0.50318  0.30409  0.09230  Biso   1.000  H
  C129     1.0000 0.61290  0.36948  0.05558  Biso   1.000  C
  C130     1.0000 0.63048  0.44440  0.11288  Biso   1.000  C
  C131     1.0000 0.38710  0.63048  0.05558  Biso   1.000  C
  C132     1.0000 0.44440  0.61290  0.13050  Biso   1.000  C
  C133     1.0000 0.36948  0.55560  0.11288  Biso   1.000  C
  C134     1.0000 0.55560  0.38710  0.13050  Biso   1.000  C
  H151     1.0000 0.62167  0.34858  0.02599  Biso   1.000  H
  C135     1.0000 0.58659  0.43179  0.14412  Biso   1.000  C
  H152     1.0000 0.65138  0.47399  0.12169  Biso   1.000  H
  H153     1.0000 0.37829  0.65138  0.02599  Biso   1.000  H
  C136     1.0000 0.41341  0.56817  0.14412  Biso   1.000  C
  H154     1.0000 0.47399  0.62167  0.15140  Biso   1.000  H
  H155     1.0000 0.34858  0.52601  0.12169  Biso   1.000  H
  H156     1.0000 0.52601  0.37829  0.15140  Biso   1.000  H
  C137     1.0000 0.57278  0.46550  0.19041  Biso   1.000  C
  C138     1.0000 0.42718  0.53450  0.19041  Biso   1.000  C
  N23      1.0000 0.53638  0.45421  0.22260  Biso   1.000  N
  H157     1.0000 0.59228  0.49678  0.19589  Biso   1.000  H
  N24      1.0000 0.46358  0.54579  0.22260  Biso   1.000  N
  H158     1.0000 0.40768  0.50318  0.19589  Biso   1.000  H
  C139     1.0000 0.52837  0.48961  0.26889  Biso   1.000  C
  C140     1.0000 0.47159  0.51039  0.26889  Biso   1.000  C
  H159     1.0000 0.55340  0.51968  0.26669  Biso   1.000  H
  C141     1.0000 0.53938  0.45777  0.31951  Biso   1.000  C
  H160     1.0000 0.44660  0.48028  0.26669  Biso   1.000  H
  C142     1.0000 0.46058  0.54219  0.31951  Biso   1.000  C
  H161     1.0000 0.57638  0.44620  0.31959  Biso   1.000  H
  H162     1.0000 0.51688  0.42618  0.31999  Biso   1.000  H
  C143     1.0000 0.52849  0.49117  0.36980  Biso   1.000  C
  H163     1.0000 0.42358  0.55380  0.31959  Biso   1.000  H
  H164     1.0000 0.48308  0.57378  0.31999  Biso   1.000  H
  C144     1.0000 0.47151  0.50879  0.36980  Biso   1.000  C
  H165     1.0000 0.53570  0.46991  0.40147  Biso   1.000  H
  H166     1.0000 0.55188  0.52220  0.37040  Biso   1.000  H
  H167     1.0000 0.46430  0.53009  0.40147  Biso   1.000  H
  H168     1.0000 0.44808  0.47780  0.37040  Biso   1.000  H
  C145     1.0000 0.50879  0.63020  0.52849  Biso   1.000  C
  C146     1.0000 0.49117  0.63020  0.47151  Biso   1.000  C
  C147     1.0000 0.54219  0.68049  0.53938  Biso   1.000  C
  H169     1.0000 0.53009  0.59849  0.53570  Biso   1.000  H
  H170     1.0000 0.47780  0.62960  0.55188  Biso   1.000  H
  C148     1.0000 0.45777  0.68049  0.46058  Biso   1.000  C
  H171     1.0000 0.46991  0.59849  0.46430  Biso   1.000  H
  H172     1.0000 0.52220  0.62960  0.44808  Biso   1.000  H
  C149     1.0000 0.51039  0.73107  0.52837  Biso   1.000  C
  H173     1.0000 0.55380  0.68037  0.57638  Biso   1.000  H
  H174     1.0000 0.57378  0.67997  0.51688  Biso   1.000  H
  C150     1.0000 0.48961  0.73107  0.47159  Biso   1.000  C
  H175     1.0000 0.44620  0.68037  0.42358  Biso   1.000  H
  H176     1.0000 0.42618  0.67997  0.48308  Biso   1.000  H
  N25      1.0000 0.54579  0.77740  0.53638  Biso   1.000  N
  H177     1.0000 0.48028  0.73327  0.55340  Biso   1.000  H
  N26      1.0000 0.45421  0.77740  0.46358  Biso   1.000  N
  H178     1.0000 0.51968  0.73327  0.44660  Biso   1.000  H
  C151     1.0000 0.53450  0.80959  0.57278  Biso   1.000  C
  C152     1.0000 0.46550  0.80959  0.42718  Biso   1.000  C
  C153     1.0000 0.56817  0.85588  0.58659  Biso   1.000  C
  H179     1.0000 0.50318  0.80407  0.59228  Biso   1.000  H
  C154     1.0000 0.43179  0.85588  0.41341  Biso   1.000  C
  H180     1.0000 0.49678  0.80407  0.40768  Biso   1.000  H
  C155     1.0000 0.55560  0.88708  0.63048  Biso   1.000  C
  C156     1.0000 0.61290  0.86950  0.55560  Biso   1.000  C
  C157     1.0000 0.38710  0.86950  0.44440  Biso   1.000  C
  C158     1.0000 0.44440  0.88708  0.36948  Biso   1.000  C
  H181     1.0000 0.52601  0.87827  0.65138  Biso   1.000  H
  C159     1.0000 0.58659  0.93177  0.64410  Biso   1.000  C
  H182     1.0000 0.62167  0.84860  0.52601  Biso   1.000  H
  C160     1.0000 0.64410  0.91339  0.56817  Biso   1.000  C
  H183     1.0000 0.37829  0.84860  0.47399  Biso   1.000  H
  C161     1.0000 0.35590  0.91339  0.43179  Biso   1.000  C
  H184     1.0000 0.47399  0.87827  0.34858  Biso   1.000  H
  C162     1.0000 0.41341  0.93177  0.35590  Biso   1.000  C
  C163     1.0000 0.63048  0.94438  0.61290  Biso   1.000  C
  C164     1.0000 0.57278  0.96548  0.69039  Biso   1.000  C
  C165     1.0000 0.69039  0.92720  0.53450  Biso   1.000  C
  C166     1.0000 0.36948  0.94438  0.38710  Biso   1.000  C
  C167     1.0000 0.30957  0.92720  0.46550  Biso   1.000  C
  C168     1.0000 0.42718  0.96548  0.30957  Biso   1.000  C
  H185     1.0000 0.65138  0.97397  0.62167  Biso   1.000  H
  N27      1.0000 0.53638  0.95419  0.72258  Biso   1.000  N
  H186     1.0000 0.59228  0.99680  0.69587  Biso   1.000  H
  N28      1.0000 0.72258  0.96360  0.54579  Biso   1.000  N
  H187     1.0000 0.69587  0.90770  0.50318  Biso   1.000  H
  H188     1.0000 0.34858  0.97397  0.37829  Biso   1.000  H
  N29      1.0000 0.27738  0.96360  0.45421  Biso   1.000  N
  H189     1.0000 0.30409  0.90770  0.49678  Biso   1.000  H
  N30      1.0000 0.46358  0.95419  0.27738  Biso   1.000  N
  H190     1.0000 0.40768  0.99680  0.30409  Biso   1.000  H
  C169     1.0000 0.52837  0.98959  0.76887  Biso   1.000  C
  C170     1.0000 0.76887  0.97157  0.51039  Biso   1.000  C
  C171     1.0000 0.23109  0.97157  0.48961  Biso   1.000  C
  C172     1.0000 0.47159  0.98959  0.23109  Biso   1.000  C
  C173     1.0000 0.53938  0.95779  0.81949  Biso   1.000  C
  C174     1.0000 0.47159  0.01041  0.76887  Biso   1.000  C
  H191     1.0000 0.55340  0.01970  0.76667  Biso   1.000  H
  H192     1.0000 0.76667  0.94658  0.48028  Biso   1.000  H
  C175     1.0000 0.81949  0.96060  0.54219  Biso   1.000  C
  C176     1.0000 0.76887  0.02839  0.48961  Biso   1.000  C
  H193     1.0000 0.23329  0.94658  0.51968  Biso   1.000  H
  C177     1.0000 0.18051  0.96060  0.45777  Biso   1.000  C
  C178     1.0000 0.23109  0.02839  0.51039  Biso   1.000  C
  C179     1.0000 0.46058  0.95779  0.18051  Biso   1.000  C
  C180     1.0000 0.52837  0.01041  0.23109  Biso   1.000  C
  H194     1.0000 0.44660  0.01970  0.23329  Biso   1.000  H
  H195     1.0000 0.57638  0.94618  0.81957  Biso   1.000  H
  H196     1.0000 0.51688  0.92620  0.81997  Biso   1.000  H
  C181     1.0000 0.52849  0.99119  0.86978  Biso   1.000  C
  H197     1.0000 0.44660  0.98030  0.76667  Biso   1.000  H
  N31      1.0000 0.46358  0.04581  0.72258  Biso   1.000  N
  C182     1.0000 0.46058  0.04221  0.81949  Biso   1.000  C
  H198     1.0000 0.81957  0.92360  0.55380  Biso   1.000  H
  H199     1.0000 0.81997  0.98306  0.57378  Biso   1.000  H
  C183     1.0000 0.86978  0.97149  0.50879  Biso   1.000  C
  N32      1.0000 0.72258  0.03640  0.45421  Biso   1.000  N
  H200     1.0000 0.76667  0.05342  0.51968  Biso   1.000  H
  C184     1.0000 0.81949  0.03940  0.45777  Biso   1.000  C
  H201     1.0000 0.18039  0.92360  0.44620  Biso   1.000  H
  H202     1.0000 0.17999  0.98306  0.42618  Biso   1.000  H
  C185     1.0000 0.13018  0.97149  0.49117  Biso   1.000  C
  N33      1.0000 0.27738  0.03640  0.54579  Biso   1.000  N
  H203     1.0000 0.23329  0.05342  0.48028  Biso   1.000  H
  C186     1.0000 0.18051  0.03940  0.54219  Biso   1.000  C
  H204     1.0000 0.42358  0.94618  0.18039  Biso   1.000  H
  H205     1.0000 0.48308  0.92620  0.17999  Biso   1.000  H
  C187     1.0000 0.47151  0.99119  0.13018  Biso   1.000  C
  H206     1.0000 0.55340  0.98030  0.23329  Biso   1.000  H
  N34      1.0000 0.53638  0.04581  0.27738  Biso   1.000  N
  C188     1.0000 0.53938  0.04221  0.18051  Biso   1.000  C
  H207     1.0000 0.53570  0.96989  0.90149  Biso   1.000  H
  C189     1.0000 0.47151  0.00881  0.86978  Biso   1.000  C
  H208     1.0000 0.55188  0.02218  0.87038  Biso   1.000  H
  C190     1.0000 0.42718  0.03452  0.69039  Biso   1.000  C
  H209     1.0000 0.42358  0.05382  0.81957  Biso   1.000  H
  H210     1.0000 0.48308  0.07380  0.81997  Biso   1.000  H
  H211     1.0000 0.90149  0.96428  0.53009  Biso   1.000  H
  H212     1.0000 0.87038  0.94806  0.47780  Biso   1.000  H
  C191     1.0000 0.86978  0.02851  0.49117  Biso   1.000  C
  C192     1.0000 0.69039  0.07280  0.46550  Biso   1.000  C
  H213     1.0000 0.81957  0.07640  0.44620  Biso   1.000  H
  H214     1.0000 0.81997  0.01690  0.42618  Biso   1.000  H
  H215     1.0000 0.09851  0.96428  0.46991  Biso   1.000  H
  H216     1.0000 0.12958  0.94806  0.52220  Biso   1.000  H
  C193     1.0000 0.13018  0.02851  0.50879  Biso   1.000  C
  C194     1.0000 0.30957  0.07280  0.53450  Biso   1.000  C
  H217     1.0000 0.18039  0.07640  0.55380  Biso   1.000  H
  H218     1.0000 0.17999  0.01690  0.57378  Biso   1.000  H
  H219     1.0000 0.46430  0.96989  0.09851  Biso   1.000  H
  C195     1.0000 0.52849  0.00881  0.13018  Biso   1.000  C
  H220     1.0000 0.44808  0.02218  0.12958  Biso   1.000  H
  C196     1.0000 0.57278  0.03452  0.30957  Biso   1.000  C
  H221     1.0000 0.57638  0.05382  0.18039  Biso   1.000  H
  H222     1.0000 0.51688  0.07380  0.17999  Biso   1.000  H
  H223     1.0000 0.44808  0.97778  0.87038  Biso   1.000  H
  H224     1.0000 0.46430  0.03011  0.90149  Biso   1.000  H
  C197     1.0000 0.41341  0.06819  0.64410  Biso   1.000  C
  H225     1.0000 0.40768  0.00320  0.69587  Biso   1.000  H
  H226     1.0000 0.90149  0.03572  0.46991  Biso   1.000  H
  H227     1.0000 0.87038  0.05190  0.52220  Biso   1.000  H
  C198     1.0000 0.64410  0.08661  0.43179  Biso   1.000  C
  H228     1.0000 0.69587  0.09230  0.49678  Biso   1.000  H
  H229     1.0000 0.09851  0.03572  0.53009  Biso   1.000  H
  H230     1.0000 0.12958  0.05190  0.47780  Biso   1.000  H
  C199     1.0000 0.35590  0.08661  0.56817  Biso   1.000  C
  H231     1.0000 0.30409  0.09230  0.50318  Biso   1.000  H
  H232     1.0000 0.55188  0.97778  0.12958  Biso   1.000  H
  H233     1.0000 0.53570  0.03011  0.09851  Biso   1.000  H
  C200     1.0000 0.58659  0.06819  0.35590  Biso   1.000  C
  H234     1.0000 0.59228  0.00320  0.30409  Biso   1.000  H
  C201     1.0000 0.36948  0.05558  0.61290  Biso   1.000  C
  C202     1.0000 0.44440  0.11288  0.63048  Biso   1.000  C
  C203     1.0000 0.63048  0.05558  0.38710  Biso   1.000  C
  C204     1.0000 0.61290  0.13050  0.44440  Biso   1.000  C
  C205     1.0000 0.38710  0.13050  0.55560  Biso   1.000  C
  C206     1.0000 0.55560  0.11288  0.36948  Biso   1.000  C
  H235     1.0000 0.34858  0.02599  0.62167  Biso   1.000  H
  C207     1.0000 0.43179  0.14412  0.58659  Biso   1.000  C
  H236     1.0000 0.47399  0.12169  0.65138  Biso   1.000  H
  H237     1.0000 0.65138  0.02599  0.37829  Biso   1.000  H
  C208     1.0000 0.56817  0.14412  0.41341  Biso   1.000  C
  H238     1.0000 0.62167  0.15140  0.47399  Biso   1.000  H
  H239     1.0000 0.37829  0.15140  0.52601  Biso   1.000  H
  H240     1.0000 0.52601  0.12169  0.34858  Biso   1.000  H
  C209     1.0000 0.46550  0.19041  0.57278  Biso   1.000  C
  C210     1.0000 0.53450  0.19041  0.42718  Biso   1.000  C
  N35      1.0000 0.45421  0.22260  0.53638  Biso   1.000  N
  H241     1.0000 0.49678  0.19589  0.59228  Biso   1.000  H
  N36      1.0000 0.54579  0.22260  0.46358  Biso   1.000  N
  H242     1.0000 0.50318  0.19589  0.40768  Biso   1.000  H
  C211     1.0000 0.48961  0.26889  0.52837  Biso   1.000  C
  C212     1.0000 0.51039  0.26889  0.47159  Biso   1.000  C
  H243     1.0000 0.51968  0.26669  0.55340  Biso   1.000  H
  C213     1.0000 0.45777  0.31951  0.53938  Biso   1.000  C
  H244     1.0000 0.48028  0.26669  0.44660  Biso   1.000  H
  C214     1.0000 0.54219  0.31951  0.46058  Biso   1.000  C
  H245     1.0000 0.44620  0.31959  0.57638  Biso   1.000  H
  H246     1.0000 0.42618  0.31999  0.51688  Biso   1.000  H
  C215     1.0000 0.49117  0.36980  0.52849  Biso   1.000  C
  H247     1.0000 0.55380  0.31959  0.42358  Biso   1.000  H
  H248     1.0000 0.57378  0.31999  0.48308  Biso   1.000  H
  C216     1.0000 0.50879  0.36980  0.47151  Biso   1.000  C
  H249     1.0000 0.46991  0.40147  0.53570  Biso   1.000  H
  H250     1.0000 0.52220  0.37040  0.55188  Biso   1.000  H
  H251     1.0000 0.53009  0.40147  0.46430  Biso   1.000  H
  H252     1.0000 0.47780  0.37040  0.44808  Biso   1.000  H
  C217     1.0000 0.68178  0.66340  0.39411  Biso   1.000  C
  C218     1.0000 0.69439  0.61947  0.36291  Biso   1.000  C
  C219     1.0000 0.63709  0.69439  0.38049  Biso   1.000  C
  C220     1.0000 0.71549  0.67717  0.44040  Biso   1.000  C
  C221     1.0000 0.66340  0.60589  0.31818  Biso   1.000  C
  H253     1.0000 0.72398  0.59861  0.37168  Biso   1.000  H
  C222     1.0000 0.60589  0.68178  0.33660  Biso   1.000  C
  H254     1.0000 0.62828  0.72398  0.40139  Biso   1.000  H
  N37      1.0000 0.70420  0.71357  0.47259  Biso   1.000  N
  H255     1.0000 0.74677  0.65767  0.44588  Biso   1.000  H
  C223     1.0000 0.67717  0.55960  0.28451  Biso   1.000  C
  C224     1.0000 0.61947  0.63709  0.30561  Biso   1.000  C
  C225     1.0000 0.55960  0.71549  0.32279  Biso   1.000  C
  C226     1.0000 0.73960  0.72158  0.51888  Biso   1.000  C
  N38      1.0000 0.71357  0.52737  0.29580  Biso   1.000  N
  H256     1.0000 0.65767  0.55408  0.25319  Biso   1.000  H
  H257     1.0000 0.59861  0.62828  0.27598  Biso   1.000  H
  N39      1.0000 0.52737  0.70420  0.28639  Biso   1.000  N
  H258     1.0000 0.55408  0.74677  0.34229  Biso   1.000  H
  C227     1.0000 0.76038  0.77840  0.51888  Biso   1.000  C
  H259     1.0000 0.76967  0.69659  0.51668  Biso   1.000  H
  C228     1.0000 0.70780  0.71057  0.56950  Biso   1.000  C
  C229     1.0000 0.72158  0.48108  0.26040  Biso   1.000  C
  C230     1.0000 0.48108  0.73960  0.27838  Biso   1.000  C
  N40      1.0000 0.79578  0.78637  0.47259  Biso   1.000  N
  H260     1.0000 0.73027  0.80339  0.51668  Biso   1.000  H
  C231     1.0000 0.79218  0.78937  0.56950  Biso   1.000  C
  H261     1.0000 0.69619  0.67357  0.56958  Biso   1.000  H
  H262     1.0000 0.67617  0.73307  0.56998  Biso   1.000  H
  C232     1.0000 0.74120  0.72150  0.61979  Biso   1.000  C
  C233     1.0000 0.71057  0.43050  0.29220  Biso   1.000  C
  C234     1.0000 0.77840  0.48108  0.23958  Biso   1.000  C
  H263     1.0000 0.69659  0.48328  0.23029  Biso   1.000  H
  C235     1.0000 0.48108  0.76038  0.22160  Biso   1.000  C
  H264     1.0000 0.48328  0.76967  0.30341  Biso   1.000  H
  C236     1.0000 0.43050  0.70780  0.28939  Biso   1.000  C
  C237     1.0000 0.78449  0.82277  0.44040  Biso   1.000  C
  H265     1.0000 0.80379  0.82637  0.56958  Biso   1.000  H
  H266     1.0000 0.82377  0.76687  0.56998  Biso   1.000  H
  C238     1.0000 0.75878  0.77848  0.61979  Biso   1.000  C
  H267     1.0000 0.71990  0.71429  0.65150  Biso   1.000  H
  H268     1.0000 0.77219  0.69807  0.62039  Biso   1.000  H
  C239     1.0000 0.72150  0.38021  0.25880  Biso   1.000  C
  H269     1.0000 0.67357  0.43038  0.30381  Biso   1.000  H
  H270     1.0000 0.73307  0.42998  0.32379  Biso   1.000  H
  C240     1.0000 0.78937  0.43050  0.20778  Biso   1.000  C
  N41      1.0000 0.78637  0.52737  0.20418  Biso   1.000  N
  H271     1.0000 0.80339  0.48328  0.26969  Biso   1.000  H
  N42      1.0000 0.52737  0.79578  0.21359  Biso   1.000  N
  H272     1.0000 0.48328  0.73027  0.19661  Biso   1.000  H
  C241     1.0000 0.43050  0.79218  0.21059  Biso   1.000  C
  H273     1.0000 0.43038  0.69619  0.32639  Biso   1.000  H
  H274     1.0000 0.42998  0.67617  0.26689  Biso   1.000  H
  C242     1.0000 0.38021  0.74120  0.27850  Biso   1.000  C
  C243     1.0000 0.81816  0.83658  0.39411  Biso   1.000  C
  H275     1.0000 0.75317  0.84227  0.44588  Biso   1.000  H
  H276     1.0000 0.78008  0.78569  0.65150  Biso   1.000  H
  H277     1.0000 0.72779  0.80187  0.62039  Biso   1.000  H
  C244     1.0000 0.77848  0.38021  0.24118  Biso   1.000  C
  H278     1.0000 0.71429  0.34850  0.28010  Biso   1.000  H
  H279     1.0000 0.69807  0.37961  0.22781  Biso   1.000  H
  H280     1.0000 0.82637  0.43038  0.19621  Biso   1.000  H
  H281     1.0000 0.76687  0.42998  0.17619  Biso   1.000  H
  C245     1.0000 0.82277  0.55960  0.21551  Biso   1.000  C
  C246     1.0000 0.55960  0.78449  0.17719  Biso   1.000  C
  H282     1.0000 0.43038  0.80379  0.17359  Biso   1.000  H
  H283     1.0000 0.42998  0.82377  0.23309  Biso   1.000  H
  C247     1.0000 0.38021  0.75878  0.22148  Biso   1.000  C
  H284     1.0000 0.34850  0.71990  0.28571  Biso   1.000  H
  H285     1.0000 0.37961  0.77219  0.30189  Biso   1.000  H
  C248     1.0000 0.86289  0.80559  0.38049  Biso   1.000  C
  C249     1.0000 0.80559  0.88047  0.36291  Biso   1.000  C
  H286     1.0000 0.78569  0.34850  0.21988  Biso   1.000  H
  H287     1.0000 0.80187  0.37961  0.27221  Biso   1.000  H
  C250     1.0000 0.83658  0.60589  0.18180  Biso   1.000  C
  H288     1.0000 0.84227  0.55408  0.24679  Biso   1.000  H
  C251     1.0000 0.60589  0.81816  0.16342  Biso   1.000  C
  H289     1.0000 0.55408  0.75317  0.15769  Biso   1.000  H
  H290     1.0000 0.34850  0.78008  0.21431  Biso   1.000  H
  H291     1.0000 0.37961  0.72779  0.19809  Biso   1.000  H
  C252     1.0000 0.89409  0.81816  0.33660  Biso   1.000  C
  H292     1.0000 0.87170  0.77600  0.40139  Biso   1.000  H
  H293     1.0000 0.77600  0.90137  0.37168  Biso   1.000  H
  C253     1.0000 0.83658  0.89409  0.31818  Biso   1.000  C
  C254     1.0000 0.80559  0.61947  0.13711  Biso   1.000  C
  C255     1.0000 0.88047  0.63709  0.19441  Biso   1.000  C
  C256     1.0000 0.63709  0.80559  0.11949  Biso   1.000  C
  C257     1.0000 0.61947  0.86289  0.19441  Biso   1.000  C
  C258     1.0000 0.94038  0.78449  0.32279  Biso   1.000  C
  C259     1.0000 0.88047  0.86289  0.30561  Biso   1.000  C
  C260     1.0000 0.82277  0.94038  0.28451  Biso   1.000  C
  H294     1.0000 0.77600  0.59861  0.12830  Biso   1.000  H
  C261     1.0000 0.81816  0.66340  0.10591  Biso   1.000  C
  H295     1.0000 0.90137  0.62828  0.22400  Biso   1.000  H
  C262     1.0000 0.89409  0.68178  0.16342  Biso   1.000  C
  C263     1.0000 0.68178  0.83658  0.10591  Biso   1.000  C
  H296     1.0000 0.62828  0.77600  0.09859  Biso   1.000  H
  H297     1.0000 0.59861  0.87170  0.22400  Biso   1.000  H
  C264     1.0000 0.66340  0.89409  0.18180  Biso   1.000  C
  N43      1.0000 0.97257  0.79578  0.28639  Biso   1.000  N
  H298     1.0000 0.94586  0.75317  0.34229  Biso   1.000  H
  H299     1.0000 0.90137  0.87170  0.27598  Biso   1.000  H
  N44      1.0000 0.78637  0.97257  0.29580  Biso   1.000  N
  H300     1.0000 0.84227  0.94586  0.25319  Biso   1.000  H
  C265     1.0000 0.86289  0.69439  0.11949  Biso   1.000  C
  C266     1.0000 0.78449  0.67717  0.05958  Biso   1.000  C
  C267     1.0000 0.94038  0.71549  0.17719  Biso   1.000  C
  C268     1.0000 0.71549  0.82277  0.05958  Biso   1.000  C
  C269     1.0000 0.69439  0.88047  0.13711  Biso   1.000  C
  C270     1.0000 0.67717  0.94038  0.21551  Biso   1.000  C
  C271     1.0000 0.01890  0.76038  0.27838  Biso   1.000  C
  C272     1.0000 0.77840  0.01890  0.26040  Biso   1.000  C
  H301     1.0000 0.87170  0.72398  0.09859  Biso   1.000  H
  N45      1.0000 0.79578  0.71357  0.02739  Biso   1.000  N
  H302     1.0000 0.75317  0.65767  0.05410  Biso   1.000  H
  N46      1.0000 0.97257  0.70420  0.21359  Biso   1.000  N
  H303     1.0000 0.94586  0.74677  0.15769  Biso   1.000  H
  N47      1.0000 0.70420  0.78637  0.02739  Biso   1.000  N
  H304     1.0000 0.74677  0.84227  0.05410  Biso   1.000  H
  H305     1.0000 0.72398  0.90137  0.12830  Biso   1.000  H
  N48      1.0000 0.71357  0.97257  0.20418  Biso   1.000  N
  H306     1.0000 0.65767  0.94586  0.24679  Biso   1.000  H
  C273     1.0000 0.01890  0.73960  0.22160  Biso   1.000  C
  H307     1.0000 0.01670  0.73027  0.30341  Biso   1.000  H
  C274     1.0000 0.06952  0.79218  0.28939  Biso   1.000  C
  C275     1.0000 0.72158  0.01890  0.23958  Biso   1.000  C
  H308     1.0000 0.80339  0.01670  0.23029  Biso   1.000  H
  C276     1.0000 0.78937  0.06952  0.29220  Biso   1.000  C
  C277     1.0000 0.76038  0.72158  0.98110  Biso   1.000  C
  C278     1.0000 0.73960  0.77840  0.98110  Biso   1.000  C
  H309     1.0000 0.01670  0.76967  0.19661  Biso   1.000  H
  C279     1.0000 0.06952  0.70780  0.21059  Biso   1.000  C
  H310     1.0000 0.06960  0.80379  0.32639  Biso   1.000  H
  H311     1.0000 0.07000  0.82377  0.26689  Biso   1.000  H
  C280     1.0000 0.11981  0.75878  0.27850  Biso   1.000  C
  H312     1.0000 0.69659  0.01670  0.26969  Biso   1.000  H
  C281     1.0000 0.71057  0.06952  0.20778  Biso   1.000  C
  H313     1.0000 0.82637  0.06960  0.30381  Biso   1.000  H
  H314     1.0000 0.76687  0.07000  0.32379  Biso   1.000  H
  C282     1.0000 0.77848  0.11981  0.25880  Biso   1.000  C
  H315     1.0000 0.73027  0.69659  0.98326  Biso   1.000  H
  C283     1.0000 0.79218  0.71057  0.93048  Biso   1.000  C
  H316     1.0000 0.76967  0.80339  0.98326  Biso   1.000  H
  C284     1.0000 0.70780  0.78937  0.93048  Biso   1.000  C
  H317     1.0000 0.06960  0.69619  0.17359  Biso   1.000  H
  H318     1.0000 0.07000  0.67617  0.23309  Biso   1.000  H
  C285     1.0000 0.11981  0.74120  0.22148  Biso   1.000  C
  H319     1.0000 0.15148  0.78008  0.28571  Biso   1.000  H
  H320     1.0000 0.12041  0.72779  0.30189  Biso   1.000  H
  H321     1.0000 0.67357  0.06960  0.19621  Biso   1.000  H
  H322     1.0000 0.73307  0.07000  0.17619  Biso   1.000  H
  C286     1.0000 0.72150  0.11981  0.24118  Biso   1.000  C
  H323     1.0000 0.78569  0.15148  0.28010  Biso   1.000  H
  H324     1.0000 0.80187  0.12041  0.22781  Biso   1.000  H
  H325     1.0000 0.80379  0.67357  0.93036  Biso   1.000  H
  H326     1.0000 0.82377  0.73307  0.92996  Biso   1.000  H
  C287     1.0000 0.75878  0.72150  0.88019  Biso   1.000  C
  H327     1.0000 0.69619  0.82637  0.93036  Biso   1.000  H
  H328     1.0000 0.67617  0.76687  0.92996  Biso   1.000  H
  C288     1.0000 0.74120  0.77848  0.88019  Biso   1.000  C
  H329     1.0000 0.15148  0.71990  0.21431  Biso   1.000  H
  H330     1.0000 0.12041  0.77219  0.19809  Biso   1.000  H
  H331     1.0000 0.71429  0.15148  0.21988  Biso   1.000  H
  H332     1.0000 0.69807  0.12041  0.27221  Biso   1.000  H
  H333     1.0000 0.78008  0.71429  0.84848  Biso   1.000  H
  H334     1.0000 0.72779  0.69807  0.87959  Biso   1.000  H
  H335     1.0000 0.71990  0.78569  0.84848  Biso   1.000  H
  H336     1.0000 0.77219  0.80187  0.87959  Biso   1.000  H
  C289     1.0000 0.66340  0.39411  0.68178  Biso   1.000  C
  C290     1.0000 0.69439  0.38049  0.63709  Biso   1.000  C
  C291     1.0000 0.61947  0.36291  0.69439  Biso   1.000  C
  C292     1.0000 0.67717  0.44040  0.71549  Biso   1.000  C
  C293     1.0000 0.68178  0.33660  0.60589  Biso   1.000  C
  H337     1.0000 0.72398  0.40139  0.62828  Biso   1.000  H
  C294     1.0000 0.60589  0.31818  0.66340  Biso   1.000  C
  H338     1.0000 0.59861  0.37168  0.72398  Biso   1.000  H
  N49      1.0000 0.71357  0.47259  0.70420  Biso   1.000  N
  H339     1.0000 0.65767  0.44588  0.74677  Biso   1.000  H
  C295     1.0000 0.71549  0.32279  0.55960  Biso   1.000  C
  C296     1.0000 0.63709  0.30561  0.61947  Biso   1.000  C
  C297     1.0000 0.55960  0.28451  0.67717  Biso   1.000  C
  C298     1.0000 0.72158  0.51888  0.73960  Biso   1.000  C
  N50      1.0000 0.70420  0.28639  0.52737  Biso   1.000  N
  H340     1.0000 0.74677  0.34229  0.55408  Biso   1.000  H
  H341     1.0000 0.62828  0.27598  0.59861  Biso   1.000  H
  N51      1.0000 0.52737  0.29580  0.71357  Biso   1.000  N
  H342     1.0000 0.55408  0.25319  0.65767  Biso   1.000  H
  C299     1.0000 0.77840  0.51888  0.76038  Biso   1.000  C
  H343     1.0000 0.69659  0.51668  0.76967  Biso   1.000  H
  C300     1.0000 0.71057  0.56950  0.70780  Biso   1.000  C
  C301     1.0000 0.73960  0.27838  0.48108  Biso   1.000  C
  C302     1.0000 0.48108  0.26040  0.72158  Biso   1.000  C
  N52      1.0000 0.78637  0.47259  0.79578  Biso   1.000  N
  H344     1.0000 0.80339  0.51668  0.73027  Biso   1.000  H
  C303     1.0000 0.78937  0.56950  0.79218  Biso   1.000  C
  H345     1.0000 0.67357  0.56958  0.69619  Biso   1.000  H
  H346     1.0000 0.73307  0.56998  0.67617  Biso   1.000  H
  C304     1.0000 0.72150  0.61979  0.74120  Biso   1.000  C
  C305     1.0000 0.70780  0.28939  0.43050  Biso   1.000  C
  C306     1.0000 0.76038  0.22160  0.48108  Biso   1.000  C
  H347     1.0000 0.76967  0.30341  0.48328  Biso   1.000  H
  C307     1.0000 0.48108  0.23958  0.77840  Biso   1.000  C
  H348     1.0000 0.48328  0.23029  0.69659  Biso   1.000  H
  C308     1.0000 0.43050  0.29220  0.71057  Biso   1.000  C
  C309     1.0000 0.82277  0.44040  0.78449  Biso   1.000  C
  H349     1.0000 0.82637  0.56958  0.80379  Biso   1.000  H
  H350     1.0000 0.76687  0.56998  0.82377  Biso   1.000  H
  C310     1.0000 0.77848  0.61979  0.75878  Biso   1.000  C
  H351     1.0000 0.71429  0.65150  0.71990  Biso   1.000  H
  H352     1.0000 0.69807  0.62039  0.77219  Biso   1.000  H
  H353     1.0000 0.69619  0.32639  0.43038  Biso   1.000  H
  H354     1.0000 0.67617  0.26689  0.42998  Biso   1.000  H
  C311     1.0000 0.74120  0.27850  0.38021  Biso   1.000  C
  N53      1.0000 0.79578  0.21359  0.52737  Biso   1.000  N
  H355     1.0000 0.73027  0.19661  0.48328  Biso   1.000  H
  C312     1.0000 0.79218  0.21059  0.43050  Biso   1.000  C
  N54      1.0000 0.52737  0.20418  0.78637  Biso   1.000  N
  H356     1.0000 0.48328  0.26969  0.80339  Biso   1.000  H
  C313     1.0000 0.43050  0.20778  0.78937  Biso   1.000  C
  H357     1.0000 0.43038  0.30381  0.67357  Biso   1.000  H
  H358     1.0000 0.42998  0.32379  0.73307  Biso   1.000  H
  C314     1.0000 0.38021  0.25880  0.72150  Biso   1.000  C
  C315     1.0000 0.83658  0.39411  0.81816  Biso   1.000  C
  H359     1.0000 0.84227  0.44588  0.75317  Biso   1.000  H
  H360     1.0000 0.78569  0.65150  0.78008  Biso   1.000  H
  H361     1.0000 0.80187  0.62039  0.72779  Biso   1.000  H
  C316     1.0000 0.75878  0.22148  0.38021  Biso   1.000  C
  H362     1.0000 0.71990  0.28571  0.34850  Biso   1.000  H
  H363     1.0000 0.77219  0.30189  0.37961  Biso   1.000  H
  C317     1.0000 0.78449  0.17719  0.55960  Biso   1.000  C
  H364     1.0000 0.80379  0.17359  0.43038  Biso   1.000  H
  H365     1.0000 0.82377  0.23309  0.42998  Biso   1.000  H
  C318     1.0000 0.55960  0.21551  0.82277  Biso   1.000  C
  H366     1.0000 0.43038  0.19621  0.82637  Biso   1.000  H
  H367     1.0000 0.42998  0.17619  0.76687  Biso   1.000  H
  C319     1.0000 0.38021  0.24118  0.77848  Biso   1.000  C
  H368     1.0000 0.34850  0.28010  0.71429  Biso   1.000  H
  H369     1.0000 0.37961  0.22781  0.69807  Biso   1.000  H
  C320     1.0000 0.88047  0.36291  0.80559  Biso   1.000  C
  C321     1.0000 0.80559  0.38049  0.86289  Biso   1.000  C
  H370     1.0000 0.78008  0.21431  0.34850  Biso   1.000  H
  H371     1.0000 0.72779  0.19809  0.37961  Biso   1.000  H
  C322     1.0000 0.81816  0.16342  0.60589  Biso   1.000  C
  H372     1.0000 0.75317  0.15769  0.55408  Biso   1.000  H
  C323     1.0000 0.60589  0.18180  0.83658  Biso   1.000  C
  H373     1.0000 0.55408  0.24679  0.84227  Biso   1.000  H
  H374     1.0000 0.34850  0.21988  0.78569  Biso   1.000  H
  H375     1.0000 0.37961  0.27221  0.80187  Biso   1.000  H
  C324     1.0000 0.89409  0.31818  0.83658  Biso   1.000  C
  H376     1.0000 0.90137  0.37168  0.77600  Biso   1.000  H
  H377     1.0000 0.77600  0.40139  0.87170  Biso   1.000  H
  C325     1.0000 0.81816  0.33660  0.89409  Biso   1.000  C
  C326     1.0000 0.80559  0.11949  0.63709  Biso   1.000  C
  C327     1.0000 0.86289  0.19441  0.61947  Biso   1.000  C
  C328     1.0000 0.63709  0.19441  0.88047  Biso   1.000  C
  C329     1.0000 0.61947  0.13711  0.80559  Biso   1.000  C
  C330     1.0000 0.94038  0.28451  0.82277  Biso   1.000  C
  C331     1.0000 0.86289  0.30561  0.88047  Biso   1.000  C
  C332     1.0000 0.78449  0.32279  0.94038  Biso   1.000  C
  H378     1.0000 0.77600  0.09859  0.62828  Biso   1.000  H
  C333     1.0000 0.83658  0.10591  0.68178  Biso   1.000  C
  H379     1.0000 0.87170  0.22400  0.59861  Biso   1.000  H
  C334     1.0000 0.89409  0.18180  0.66340  Biso   1.000  C
  H380     1.0000 0.62828  0.22400  0.90137  Biso   1.000  H
  C335     1.0000 0.68178  0.16342  0.89409  Biso   1.000  C
  C336     1.0000 0.66340  0.10591  0.81816  Biso   1.000  C
  H381     1.0000 0.59861  0.12830  0.77600  Biso   1.000  H
  N55      1.0000 0.97257  0.29580  0.78637  Biso   1.000  N
  H382     1.0000 0.94586  0.25319  0.84227  Biso   1.000  H
  H383     1.0000 0.87170  0.27598  0.90137  Biso   1.000  H
  N56      1.0000 0.79578  0.28639  0.97257  Biso   1.000  N
  H384     1.0000 0.75317  0.34229  0.94586  Biso   1.000  H
  C337     1.0000 0.88047  0.13711  0.69439  Biso   1.000  C
  C338     1.0000 0.82277  0.05958  0.71549  Biso   1.000  C
  C339     1.0000 0.94038  0.21551  0.67717  Biso   1.000  C
  C340     1.0000 0.69439  0.11949  0.86289  Biso   1.000  C
  C341     1.0000 0.71549  0.17719  0.94038  Biso   1.000  C
  C342     1.0000 0.67717  0.05958  0.78449  Biso   1.000  C
  C343     1.0000 0.01890  0.26040  0.77840  Biso   1.000  C
  C344     1.0000 0.76038  0.27838  0.01890  Biso   1.000  C
  H385     1.0000 0.90137  0.12830  0.72398  Biso   1.000  H
  N57      1.0000 0.78637  0.02739  0.70420  Biso   1.000  N
  H386     1.0000 0.84227  0.05410  0.74677  Biso   1.000  H
  N58      1.0000 0.97257  0.20418  0.71357  Biso   1.000  N
  H387     1.0000 0.94586  0.24679  0.65767  Biso   1.000  H
  H388     1.0000 0.72398  0.09859  0.87170  Biso   1.000  H
  N59      1.0000 0.70420  0.21359  0.97257  Biso   1.000  N
  H389     1.0000 0.74677  0.15769  0.94586  Biso   1.000  H
  N60      1.0000 0.71357  0.02739  0.79578  Biso   1.000  N
  H390     1.0000 0.65767  0.05410  0.75317  Biso   1.000  H
  C345     1.0000 0.01890  0.23958  0.72158  Biso   1.000  C
  H391     1.0000 0.01670  0.23029  0.80339  Biso   1.000  H
  C346     1.0000 0.06952  0.29220  0.78937  Biso   1.000  C
  C347     1.0000 0.73960  0.22160  0.01890  Biso   1.000  C
  H392     1.0000 0.73027  0.30341  0.01670  Biso   1.000  H
  C348     1.0000 0.79218  0.28939  0.06952  Biso   1.000  C
  C349     1.0000 0.77840  0.98110  0.73960  Biso   1.000  C
  C350     1.0000 0.72158  0.98110  0.76038  Biso   1.000  C
  H393     1.0000 0.01670  0.26969  0.69659  Biso   1.000  H
  C351     1.0000 0.06952  0.20778  0.71057  Biso   1.000  C
  H394     1.0000 0.06960  0.30381  0.82637  Biso   1.000  H
  H395     1.0000 0.07000  0.32379  0.76687  Biso   1.000  H
  C352     1.0000 0.11981  0.25880  0.77848  Biso   1.000  C
  H396     1.0000 0.76967  0.19661  0.01670  Biso   1.000  H
  C353     1.0000 0.70780  0.21059  0.06952  Biso   1.000  C
  H397     1.0000 0.80379  0.32639  0.06960  Biso   1.000  H
  H398     1.0000 0.82377  0.26689  0.07000  Biso   1.000  H
  C354     1.0000 0.75878  0.27850  0.11981  Biso   1.000  C
  H399     1.0000 0.80339  0.98326  0.76967  Biso   1.000  H
  C355     1.0000 0.78937  0.93048  0.70780  Biso   1.000  C
  H400     1.0000 0.69659  0.98326  0.73027  Biso   1.000  H
  C356     1.0000 0.71057  0.93048  0.79218  Biso   1.000  C
  H401     1.0000 0.06960  0.19621  0.67357  Biso   1.000  H
  H402     1.0000 0.07000  0.17619  0.73307  Biso   1.000  H
  C357     1.0000 0.11981  0.24118  0.72150  Biso   1.000  C
  H403     1.0000 0.15148  0.28010  0.78569  Biso   1.000  H
  H404     1.0000 0.12041  0.22781  0.80187  Biso   1.000  H
  H405     1.0000 0.69619  0.17359  0.06960  Biso   1.000  H
  H406     1.0000 0.67617  0.23309  0.07000  Biso   1.000  H
  C358     1.0000 0.74120  0.22148  0.11981  Biso   1.000  C
  H407     1.0000 0.78008  0.28571  0.15148  Biso   1.000  H
  H408     1.0000 0.72779  0.30189  0.12041  Biso   1.000  H
  H409     1.0000 0.82637  0.93036  0.69619  Biso   1.000  H
  H410     1.0000 0.76687  0.92996  0.67617  Biso   1.000  H
  C359     1.0000 0.77848  0.88019  0.74120  Biso   1.000  C
  H411     1.0000 0.67357  0.93036  0.80379  Biso   1.000  H
  H412     1.0000 0.73307  0.92996  0.82377  Biso   1.000  H
  C360     1.0000 0.72150  0.88019  0.75878  Biso   1.000  C
  H413     1.0000 0.15148  0.21988  0.71429  Biso   1.000  H
  H414     1.0000 0.12041  0.27221  0.69807  Biso   1.000  H
  H415     1.0000 0.71990  0.21431  0.15148  Biso   1.000  H
  H416     1.0000 0.77219  0.19809  0.12041  Biso   1.000  H
  H417     1.0000 0.78569  0.84848  0.71990  Biso   1.000  H
  H418     1.0000 0.80187  0.87959  0.77219  Biso   1.000  H
  H419     1.0000 0.71429  0.84848  0.78008  Biso   1.000  H
  H420     1.0000 0.69807  0.87959  0.72779  Biso   1.000  H
  C361     1.0000 0.39411  0.68178  0.66340  Biso   1.000  C
  C362     1.0000 0.36291  0.69439  0.61947  Biso   1.000  C
  C363     1.0000 0.38049  0.63709  0.69439  Biso   1.000  C
  C364     1.0000 0.44040  0.71549  0.67717  Biso   1.000  C
  C365     1.0000 0.31818  0.66340  0.60589  Biso   1.000  C
  H421     1.0000 0.37168  0.72398  0.59861  Biso   1.000  H
  C366     1.0000 0.33660  0.60589  0.68178  Biso   1.000  C
  H422     1.0000 0.40139  0.62828  0.72398  Biso   1.000  H
  N61      1.0000 0.47259  0.70420  0.71357  Biso   1.000  N
  H423     1.0000 0.44588  0.74677  0.65767  Biso   1.000  H
  C367     1.0000 0.28451  0.67717  0.55960  Biso   1.000  C
  C368     1.0000 0.30561  0.61947  0.63709  Biso   1.000  C
  C369     1.0000 0.32279  0.55960  0.71549  Biso   1.000  C
  C370     1.0000 0.51888  0.73960  0.72158  Biso   1.000  C
  N62      1.0000 0.29580  0.71357  0.52737  Biso   1.000  N
  H424     1.0000 0.25319  0.65767  0.55408  Biso   1.000  H
  H425     1.0000 0.27598  0.59861  0.62828  Biso   1.000  H
  N63      1.0000 0.28639  0.52737  0.70420  Biso   1.000  N
  H426     1.0000 0.34229  0.55408  0.74677  Biso   1.000  H
  C371     1.0000 0.51888  0.76038  0.77840  Biso   1.000  C
  H427     1.0000 0.51668  0.76967  0.69659  Biso   1.000  H
  C372     1.0000 0.56950  0.70780  0.71057  Biso   1.000  C
  C373     1.0000 0.26040  0.72158  0.48108  Biso   1.000  C
  C374     1.0000 0.27838  0.48108  0.73960  Biso   1.000  C
  N64      1.0000 0.47259  0.79578  0.78637  Biso   1.000  N
  H428     1.0000 0.51668  0.73027  0.80339  Biso   1.000  H
  C375     1.0000 0.56950  0.79218  0.78937  Biso   1.000  C
  H429     1.0000 0.56958  0.69619  0.67357  Biso   1.000  H
  H430     1.0000 0.56998  0.67617  0.73307  Biso   1.000  H
  C376     1.0000 0.61979  0.74120  0.72150  Biso   1.000  C
  C377     1.0000 0.29220  0.71057  0.43050  Biso   1.000  C
  C378     1.0000 0.23958  0.77840  0.48108  Biso   1.000  C
  H431     1.0000 0.23029  0.69659  0.48328  Biso   1.000  H
  C379     1.0000 0.22160  0.48108  0.76038  Biso   1.000  C
  H432     1.0000 0.30341  0.48328  0.76967  Biso   1.000  H
  C380     1.0000 0.28939  0.43050  0.70780  Biso   1.000  C
  C381     1.0000 0.44040  0.78449  0.82277  Biso   1.000  C
  H433     1.0000 0.56958  0.80379  0.82637  Biso   1.000  H
  H434     1.0000 0.56998  0.82377  0.76687  Biso   1.000  H
  C382     1.0000 0.61979  0.75878  0.77848  Biso   1.000  C
  H435     1.0000 0.65150  0.71990  0.71429  Biso   1.000  H
  H436     1.0000 0.62039  0.77219  0.69807  Biso   1.000  H
  C383     1.0000 0.25880  0.72150  0.38021  Biso   1.000  C
  H437     1.0000 0.30381  0.67357  0.43038  Biso   1.000  H
  H438     1.0000 0.32379  0.73307  0.42998  Biso   1.000  H
  C384     1.0000 0.20778  0.78937  0.43050  Biso   1.000  C
  N65      1.0000 0.20418  0.78637  0.52737  Biso   1.000  N
  H439     1.0000 0.26969  0.80339  0.48328  Biso   1.000  H
  N66      1.0000 0.21359  0.52737  0.79578  Biso   1.000  N
  H440     1.0000 0.19661  0.48328  0.73027  Biso   1.000  H
  C385     1.0000 0.21059  0.43050  0.79218  Biso   1.000  C
  H441     1.0000 0.32639  0.43038  0.69619  Biso   1.000  H
  H442     1.0000 0.26689  0.42998  0.67617  Biso   1.000  H
  C386     1.0000 0.27850  0.38021  0.74120  Biso   1.000  C
  C387     1.0000 0.39411  0.81816  0.83658  Biso   1.000  C
  H443     1.0000 0.44588  0.75317  0.84227  Biso   1.000  H
  H444     1.0000 0.65150  0.78008  0.78569  Biso   1.000  H
  H445     1.0000 0.62039  0.72779  0.80187  Biso   1.000  H
  C388     1.0000 0.24118  0.77848  0.38021  Biso   1.000  C
  H446     1.0000 0.28010  0.71429  0.34850  Biso   1.000  H
  H447     1.0000 0.22781  0.69807  0.37961  Biso   1.000  H
  H448     1.0000 0.19621  0.82637  0.43038  Biso   1.000  H
  H449     1.0000 0.17619  0.76687  0.42998  Biso   1.000  H
  C389     1.0000 0.21551  0.82277  0.55960  Biso   1.000  C
  C390     1.0000 0.17719  0.55960  0.78449  Biso   1.000  C
  H450     1.0000 0.17359  0.43038  0.80379  Biso   1.000  H
  H451     1.0000 0.23309  0.42998  0.82377  Biso   1.000  H
  C391     1.0000 0.22148  0.38021  0.75878  Biso   1.000  C
  H452     1.0000 0.28571  0.34850  0.71990  Biso   1.000  H
  H453     1.0000 0.30189  0.37961  0.77219  Biso   1.000  H
  C392     1.0000 0.38049  0.86289  0.80559  Biso   1.000  C
  C393     1.0000 0.36291  0.80559  0.88047  Biso   1.000  C
  H454     1.0000 0.21988  0.78569  0.34850  Biso   1.000  H
  H455     1.0000 0.27221  0.80187  0.37961  Biso   1.000  H
  C394     1.0000 0.18180  0.83658  0.60589  Biso   1.000  C
  H456     1.0000 0.24679  0.84227  0.55408  Biso   1.000  H
  C395     1.0000 0.16342  0.60589  0.81816  Biso   1.000  C
  H457     1.0000 0.15769  0.55408  0.75317  Biso   1.000  H
  H458     1.0000 0.21431  0.34850  0.78008  Biso   1.000  H
  H459     1.0000 0.19809  0.37961  0.72779  Biso   1.000  H
  C396     1.0000 0.33660  0.89409  0.81816  Biso   1.000  C
  H460     1.0000 0.40139  0.87170  0.77600  Biso   1.000  H
  H461     1.0000 0.37168  0.77600  0.90137  Biso   1.000  H
  C397     1.0000 0.31818  0.83658  0.89409  Biso   1.000  C
  C398     1.0000 0.19441  0.88047  0.63709  Biso   1.000  C
  C399     1.0000 0.13711  0.80559  0.61947  Biso   1.000  C
  C400     1.0000 0.11949  0.63709  0.80559  Biso   1.000  C
  C401     1.0000 0.19441  0.61947  0.86289  Biso   1.000  C
  C402     1.0000 0.32279  0.94038  0.78449  Biso   1.000  C
  C403     1.0000 0.30561  0.88047  0.86289  Biso   1.000  C
  C404     1.0000 0.28451  0.82277  0.94038  Biso   1.000  C
  H462     1.0000 0.22400  0.90137  0.62828  Biso   1.000  H
  C405     1.0000 0.16342  0.89409  0.68178  Biso   1.000  C
  H463     1.0000 0.12830  0.77600  0.59861  Biso   1.000  H
  C406     1.0000 0.10591  0.81816  0.66340  Biso   1.000  C
  C407     1.0000 0.10591  0.68178  0.83658  Biso   1.000  C
  H464     1.0000 0.09859  0.62828  0.77600  Biso   1.000  H
  H465     1.0000 0.22400  0.59861  0.87170  Biso   1.000  H
  C408     1.0000 0.18180  0.66340  0.89409  Biso   1.000  C
  N67      1.0000 0.28639  0.97257  0.79578  Biso   1.000  N
  H466     1.0000 0.34229  0.94586  0.75317  Biso   1.000  H
  H467     1.0000 0.27598  0.90137  0.87170  Biso   1.000  H
  N68      1.0000 0.29580  0.78637  0.97257  Biso   1.000  N
  H468     1.0000 0.25319  0.84227  0.94586  Biso   1.000  H
  C409     1.0000 0.11949  0.86289  0.69439  Biso   1.000  C
  C410     1.0000 0.17719  0.94038  0.71549  Biso   1.000  C
  C411     1.0000 0.05958  0.78449  0.67717  Biso   1.000  C
  C412     1.0000 0.05958  0.71549  0.82277  Biso   1.000  C
  C413     1.0000 0.13711  0.69439  0.88047  Biso   1.000  C
  C414     1.0000 0.21551  0.67717  0.94038  Biso   1.000  C
  C415     1.0000 0.27838  0.01890  0.76038  Biso   1.000  C
  C416     1.0000 0.26040  0.77840  0.01890  Biso   1.000  C
  H469     1.0000 0.09859  0.87170  0.72398  Biso   1.000  H
  N69      1.0000 0.21359  0.97257  0.70420  Biso   1.000  N
  H470     1.0000 0.15769  0.94586  0.74677  Biso   1.000  H
  N70      1.0000 0.02739  0.79578  0.71357  Biso   1.000  N
  H471     1.0000 0.05410  0.75317  0.65767  Biso   1.000  H
  N71      1.0000 0.02739  0.70420  0.78637  Biso   1.000  N
  H472     1.0000 0.05410  0.74677  0.84227  Biso   1.000  H
  H473     1.0000 0.12830  0.72398  0.90137  Biso   1.000  H
  N72      1.0000 0.20418  0.71357  0.97257  Biso   1.000  N
  H474     1.0000 0.24679  0.65767  0.94586  Biso   1.000  H
  C417     1.0000 0.22160  0.01890  0.73960  Biso   1.000  C
  H475     1.0000 0.30341  0.01670  0.73027  Biso   1.000  H
  C418     1.0000 0.28939  0.06952  0.79218  Biso   1.000  C
  C419     1.0000 0.23958  0.72158  0.01890  Biso   1.000  C
  H476     1.0000 0.23029  0.80339  0.01670  Biso   1.000  H
  C420     1.0000 0.29220  0.78937  0.06952  Biso   1.000  C
  C421     1.0000 0.98110  0.76038  0.72158  Biso   1.000  C
  C422     1.0000 0.98110  0.73960  0.77840  Biso   1.000  C
  H477     1.0000 0.19661  0.01670  0.76967  Biso   1.000  H
  C423     1.0000 0.21059  0.06952  0.70780  Biso   1.000  C
  H478     1.0000 0.32639  0.06960  0.80379  Biso   1.000  H
  H479     1.0000 0.26689  0.07000  0.82377  Biso   1.000  H
  C424     1.0000 0.27850  0.11981  0.75878  Biso   1.000  C
  H480     1.0000 0.26969  0.69659  0.01670  Biso   1.000  H
  C425     1.0000 0.20778  0.71057  0.06952  Biso   1.000  C
  H481     1.0000 0.30381  0.82637  0.06960  Biso   1.000  H
  H482     1.0000 0.32379  0.76687  0.07000  Biso   1.000  H
  C426     1.0000 0.25880  0.77848  0.11981  Biso   1.000  C
  H483     1.0000 0.98326  0.73027  0.69659  Biso   1.000  H
  C427     1.0000 0.93048  0.79218  0.71057  Biso   1.000  C
  H484     1.0000 0.98326  0.76967  0.80339  Biso   1.000  H
  C428     1.0000 0.93048  0.70780  0.78937  Biso   1.000  C
  H485     1.0000 0.17359  0.06960  0.69619  Biso   1.000  H
  H486     1.0000 0.23309  0.07000  0.67617  Biso   1.000  H
  C429     1.0000 0.22148  0.11981  0.74120  Biso   1.000  C
  H487     1.0000 0.28571  0.15148  0.78008  Biso   1.000  H
  H488     1.0000 0.30189  0.12041  0.72779  Biso   1.000  H
  H489     1.0000 0.19621  0.67357  0.06960  Biso   1.000  H
  H490     1.0000 0.17619  0.73307  0.07000  Biso   1.000  H
  C430     1.0000 0.24118  0.72150  0.11981  Biso   1.000  C
  H491     1.0000 0.28010  0.78569  0.15148  Biso   1.000  H
  H492     1.0000 0.22781  0.80187  0.12041  Biso   1.000  H
  H493     1.0000 0.93036  0.80379  0.67357  Biso   1.000  H
  H494     1.0000 0.92996  0.82377  0.73307  Biso   1.000  H
  C431     1.0000 0.88019  0.75878  0.72150  Biso   1.000  C
  H495     1.0000 0.93036  0.69619  0.82637  Biso   1.000  H
  H496     1.0000 0.92996  0.67617  0.76687  Biso   1.000  H
  C432     1.0000 0.88019  0.74120  0.77848  Biso   1.000  C
  H497     1.0000 0.21431  0.15148  0.71990  Biso   1.000  H
  H498     1.0000 0.19809  0.12041  0.77219  Biso   1.000  H
  H499     1.0000 0.21988  0.71429  0.15148  Biso   1.000  H
  H500     1.0000 0.27221  0.69807  0.12041  Biso   1.000  H
  H501     1.0000 0.84848  0.78008  0.71429  Biso   1.000  H
  H502     1.0000 0.87959  0.72779  0.69807  Biso   1.000  H
  H503     1.0000 0.84848  0.71990  0.78569  Biso   1.000  H
  H504     1.0000 0.87959  0.77219  0.80187  Biso   1.000  H
  C433     1.0000 0.38049  0.36291  0.30561  Biso   1.000  C
  C434     1.0000 0.39411  0.31818  0.33660  Biso   1.000  C
  H505     1.0000 0.40139  0.37168  0.27598  Biso   1.000  H
  C435     1.0000 0.33660  0.39411  0.31818  Biso   1.000  C
  C436     1.0000 0.44040  0.28451  0.32279  Biso   1.000  C
  C437     1.0000 0.36291  0.30561  0.38049  Biso   1.000  C
  C438     1.0000 0.30561  0.38049  0.36291  Biso   1.000  C
  C439     1.0000 0.32279  0.44040  0.28451  Biso   1.000  C
  N73      1.0000 0.47259  0.29580  0.28639  Biso   1.000  N
  H506     1.0000 0.44588  0.25319  0.34229  Biso   1.000  H
  H507     1.0000 0.37168  0.27598  0.40139  Biso   1.000  H
  C440     1.0000 0.31818  0.33660  0.39411  Biso   1.000  C
  H508     1.0000 0.27598  0.40139  0.37168  Biso   1.000  H
  N74      1.0000 0.28639  0.47259  0.29580  Biso   1.000  N
  H509     1.0000 0.34229  0.44588  0.25319  Biso   1.000  H
  C441     1.0000 0.51888  0.26040  0.27838  Biso   1.000  C
  C442     1.0000 0.28451  0.32279  0.44040  Biso   1.000  C
  C443     1.0000 0.27838  0.51888  0.26040  Biso   1.000  C
  C444     1.0000 0.51888  0.23958  0.22160  Biso   1.000  C
  H510     1.0000 0.51668  0.23029  0.30341  Biso   1.000  H
  C445     1.0000 0.56950  0.29220  0.28939  Biso   1.000  C
  N75      1.0000 0.29580  0.28639  0.47259  Biso   1.000  N
  H511     1.0000 0.25319  0.34229  0.44588  Biso   1.000  H
  C446     1.0000 0.22160  0.51888  0.23958  Biso   1.000  C
  H512     1.0000 0.30341  0.51668  0.23029  Biso   1.000  H
  C447     1.0000 0.28939  0.56950  0.29220  Biso   1.000  C
  N76      1.0000 0.47259  0.20418  0.21359  Biso   1.000  N
  H513     1.0000 0.51668  0.26969  0.19661  Biso   1.000  H
  C448     1.0000 0.56950  0.20778  0.21059  Biso   1.000  C
  H514     1.0000 0.56958  0.30381  0.32639  Biso   1.000  H
  H515     1.0000 0.56998  0.32379  0.26689  Biso   1.000  H
  C449     1.0000 0.61979  0.25880  0.27850  Biso   1.000  C
  C450     1.0000 0.26040  0.27838  0.51888  Biso   1.000  C
  N77      1.0000 0.21359  0.47259  0.20418  Biso   1.000  N
  H516     1.0000 0.19661  0.51668  0.26969  Biso   1.000  H
  C451     1.0000 0.21059  0.56950  0.20778  Biso   1.000  C
  H517     1.0000 0.32639  0.56958  0.30381  Biso   1.000  H
  H518     1.0000 0.26689  0.56998  0.32379  Biso   1.000  H
  C452     1.0000 0.27850  0.61979  0.25880  Biso   1.000  C
  C453     1.0000 0.44040  0.21551  0.17719  Biso   1.000  C
  H519     1.0000 0.56958  0.19621  0.17359  Biso   1.000  H
  H520     1.0000 0.56998  0.17619  0.23309  Biso   1.000  H
  C454     1.0000 0.61979  0.24118  0.22148  Biso   1.000  C
  H521     1.0000 0.65150  0.28010  0.28571  Biso   1.000  H
  H522     1.0000 0.62039  0.22781  0.30189  Biso   1.000  H
  C455     1.0000 0.23958  0.22160  0.51888  Biso   1.000  C
  H523     1.0000 0.23029  0.30341  0.51668  Biso   1.000  H
  C456     1.0000 0.29220  0.28939  0.56950  Biso   1.000  C
  C457     1.0000 0.17719  0.44040  0.21551  Biso   1.000  C
  H524     1.0000 0.17359  0.56958  0.19621  Biso   1.000  H
  H525     1.0000 0.23309  0.56998  0.17619  Biso   1.000  H
  C458     1.0000 0.22148  0.61979  0.24118  Biso   1.000  C
  H526     1.0000 0.28571  0.65150  0.28010  Biso   1.000  H
  H527     1.0000 0.30189  0.62039  0.22781  Biso   1.000  H
  C459     1.0000 0.39411  0.18180  0.16342  Biso   1.000  C
  H528     1.0000 0.44588  0.24679  0.15769  Biso   1.000  H
  H529     1.0000 0.65150  0.21988  0.21431  Biso   1.000  H
  H530     1.0000 0.62039  0.27221  0.19809  Biso   1.000  H
  N78      1.0000 0.20418  0.21359  0.47259  Biso   1.000  N
  H531     1.0000 0.26969  0.19661  0.51668  Biso   1.000  H
  C460     1.0000 0.20778  0.21059  0.56950  Biso   1.000  C
  H532     1.0000 0.30381  0.32639  0.56958  Biso   1.000  H
  H533     1.0000 0.32379  0.26689  0.56998  Biso   1.000  H
  C461     1.0000 0.25880  0.27850  0.61979  Biso   1.000  C
  C462     1.0000 0.16342  0.39411  0.18180  Biso   1.000  C
  H534     1.0000 0.15769  0.44588  0.24679  Biso   1.000  H
  H535     1.0000 0.21431  0.65150  0.21988  Biso   1.000  H
  H536     1.0000 0.19809  0.62039  0.27221  Biso   1.000  H
  C463     1.0000 0.38049  0.13711  0.19441  Biso   1.000  C
  C464     1.0000 0.36291  0.19441  0.11949  Biso   1.000  C
  C465     1.0000 0.21551  0.17719  0.44040  Biso   1.000  C
  H537     1.0000 0.19621  0.17359  0.56958  Biso   1.000  H
  H538     1.0000 0.17619  0.23309  0.56998  Biso   1.000  H
  C466     1.0000 0.24118  0.22148  0.61979  Biso   1.000  C
  H539     1.0000 0.28010  0.28571  0.65150  Biso   1.000  H
  H540     1.0000 0.22781  0.30189  0.62039  Biso   1.000  H
  C467     1.0000 0.19441  0.38049  0.13711  Biso   1.000  C
  C468     1.0000 0.11949  0.36291  0.19441  Biso   1.000  C
  H541     1.0000 0.40139  0.12830  0.22400  Biso   1.000  H
  C469     1.0000 0.33660  0.10591  0.18180  Biso   1.000  C
  H542     1.0000 0.37168  0.22400  0.09859  Biso   1.000  H
  C470     1.0000 0.31818  0.16342  0.10591  Biso   1.000  C
  C471     1.0000 0.18180  0.16342  0.39411  Biso   1.000  C
  H543     1.0000 0.24679  0.15769  0.44588  Biso   1.000  H
  H544     1.0000 0.21988  0.21431  0.65150  Biso   1.000  H
  H545     1.0000 0.27221  0.19809  0.62039  Biso   1.000  H
  C472     1.0000 0.18180  0.33660  0.10591  Biso   1.000  C
  H546     1.0000 0.22400  0.40139  0.12830  Biso   1.000  H
  C473     1.0000 0.10591  0.31818  0.16342  Biso   1.000  C
  H547     1.0000 0.09859  0.37168  0.22400  Biso   1.000  H
  C474     1.0000 0.30561  0.11949  0.13711  Biso   1.000  C
  C475     1.0000 0.32279  0.05958  0.21551  Biso   1.000  C
  C476     1.0000 0.28451  0.17719  0.05958  Biso   1.000  C
  C477     1.0000 0.19441  0.11949  0.36291  Biso   1.000  C
  C478     1.0000 0.13711  0.19441  0.38049  Biso   1.000  C
  C479     1.0000 0.21551  0.32279  0.05958  Biso   1.000  C
  C480     1.0000 0.13711  0.30561  0.11949  Biso   1.000  C
  C481     1.0000 0.05958  0.28451  0.17719  Biso   1.000  C
  H548     1.0000 0.27598  0.09859  0.12830  Biso   1.000  H
  N79      1.0000 0.28639  0.02739  0.20418  Biso   1.000  N
  H549     1.0000 0.34229  0.05410  0.24679  Biso   1.000  H
  N80      1.0000 0.29580  0.21359  0.02739  Biso   1.000  N
  H550     1.0000 0.25319  0.15769  0.05410  Biso   1.000  H
  C482     1.0000 0.16342  0.10591  0.31818  Biso   1.000  C
  H551     1.0000 0.22400  0.09859  0.37168  Biso   1.000  H
  C483     1.0000 0.10591  0.18180  0.33660  Biso   1.000  C
  H552     1.0000 0.12830  0.22400  0.40139  Biso   1.000  H
  N81      1.0000 0.20418  0.28639  0.02739  Biso   1.000  N
  H553     1.0000 0.24679  0.34229  0.05410  Biso   1.000  H
  H554     1.0000 0.12830  0.27598  0.09859  Biso   1.000  H
  N82      1.0000 0.02739  0.29580  0.21359  Biso   1.000  N
  H555     1.0000 0.05410  0.25319  0.15769  Biso   1.000  H
  C484     1.0000 0.27838  0.98110  0.23958  Biso   1.000  C
  C485     1.0000 0.26040  0.22160  0.98110  Biso   1.000  C
  C486     1.0000 0.17719  0.05958  0.28451  Biso   1.000  C
  C487     1.0000 0.11949  0.13711  0.30561  Biso   1.000  C
  C488     1.0000 0.05958  0.21551  0.32279  Biso   1.000  C
  C489     1.0000 0.23958  0.27838  0.98110  Biso   1.000  C
  C490     1.0000 0.98110  0.26040  0.22160  Biso   1.000  C
  C491     1.0000 0.22160  0.98110  0.26040  Biso   1.000  C
  H556     1.0000 0.30341  0.98326  0.26969  Biso   1.000  H
  C492     1.0000 0.28939  0.93048  0.20778  Biso   1.000  C
  H557     1.0000 0.23029  0.19661  0.98326  Biso   1.000  H
  C493     1.0000 0.29220  0.21059  0.93048  Biso   1.000  C
  N83      1.0000 0.21359  0.02739  0.29580  Biso   1.000  N
  H558     1.0000 0.15769  0.05410  0.25319  Biso   1.000  H
  H559     1.0000 0.09859  0.12830  0.27598  Biso   1.000  H
  N84      1.0000 0.02739  0.20418  0.28639  Biso   1.000  N
  H560     1.0000 0.05410  0.24679  0.34229  Biso   1.000  H
  H561     1.0000 0.26969  0.30341  0.98326  Biso   1.000  H
  C494     1.0000 0.20778  0.28939  0.93048  Biso   1.000  C
  C495     1.0000 0.98110  0.23958  0.27838  Biso   1.000  C
  H562     1.0000 0.98326  0.23029  0.19661  Biso   1.000  H
  C496     1.0000 0.93048  0.29220  0.21059  Biso   1.000  C
  H563     1.0000 0.19661  0.98326  0.23029  Biso   1.000  H
  C497     1.0000 0.21059  0.93048  0.29220  Biso   1.000  C
  H564     1.0000 0.32639  0.93036  0.19621  Biso   1.000  H
  H565     1.0000 0.26689  0.92996  0.17619  Biso   1.000  H
  C498     1.0000 0.27850  0.88019  0.24118  Biso   1.000  C
  H566     1.0000 0.30381  0.17359  0.93036  Biso   1.000  H
  H567     1.0000 0.32379  0.23309  0.92996  Biso   1.000  H
  C499     1.0000 0.25880  0.22148  0.88019  Biso   1.000  C
  H568     1.0000 0.19621  0.32639  0.93036  Biso   1.000  H
  H569     1.0000 0.17619  0.26689  0.92996  Biso   1.000  H
  C500     1.0000 0.24118  0.27850  0.88019  Biso   1.000  C
  H570     1.0000 0.98326  0.26969  0.30341  Biso   1.000  H
  C501     1.0000 0.93048  0.20778  0.28939  Biso   1.000  C
  H571     1.0000 0.93036  0.30381  0.17359  Biso   1.000  H
  H572     1.0000 0.92996  0.32379  0.23309  Biso   1.000  H
  C502     1.0000 0.88019  0.25880  0.22148  Biso   1.000  C
  H573     1.0000 0.17359  0.93036  0.30381  Biso   1.000  H
  H574     1.0000 0.23309  0.92996  0.32379  Biso   1.000  H
  C503     1.0000 0.22148  0.88019  0.25880  Biso   1.000  C
  H575     1.0000 0.28571  0.84848  0.21988  Biso   1.000  H
  H576     1.0000 0.30189  0.87959  0.27221  Biso   1.000  H
  H577     1.0000 0.28010  0.21431  0.84848  Biso   1.000  H
  H578     1.0000 0.22781  0.19809  0.87959  Biso   1.000  H
  H579     1.0000 0.21988  0.28571  0.84848  Biso   1.000  H
  H580     1.0000 0.27221  0.30189  0.87959  Biso   1.000  H
  H581     1.0000 0.93036  0.19621  0.32639  Biso   1.000  H
  H582     1.0000 0.92996  0.17619  0.26689  Biso   1.000  H
  C504     1.0000 0.88019  0.24118  0.27850  Biso   1.000  C
  H583     1.0000 0.84848  0.28010  0.21431  Biso   1.000  H
  H584     1.0000 0.87959  0.22781  0.19809  Biso   1.000  H
  H585     1.0000 0.21431  0.84848  0.28010  Biso   1.000  H
  H586     1.0000 0.19809  0.87959  0.22781  Biso   1.000  H
  H587     1.0000 0.84848  0.21988  0.28571  Biso   1.000  H
  H588     1.0000 0.87959  0.27221  0.30189  Biso   1.000  H
  C505     1.0000 0.96060  0.95779  0.68049  Biso   1.000  C
  C506     1.0000 0.97157  0.98959  0.73107  Biso   1.000  C
  H589     1.0000 0.92360  0.94618  0.68037  Biso   1.000  H
  H590     1.0000 0.98306  0.92620  0.67997  Biso   1.000  H
  C507     1.0000 0.97149  0.99119  0.63020  Biso   1.000  C
  N85      1.0000 0.96360  0.95419  0.77740  Biso   1.000  N
  H591     1.0000 0.94658  0.01970  0.73327  Biso   1.000  H
  C508     1.0000 0.02839  0.01041  0.73107  Biso   1.000  C
  H592     1.0000 0.96428  0.96989  0.59849  Biso   1.000  H
  H593     1.0000 0.94806  0.02218  0.62960  Biso   1.000  H
  C509     1.0000 0.02851  0.00881  0.63020  Biso   1.000  C
  C510     1.0000 0.92720  0.96548  0.80959  Biso   1.000  C
  H594     1.0000 0.05342  0.98030  0.73327  Biso   1.000  H
  N86      1.0000 0.03640  0.04581  0.77740  Biso   1.000  N
  C511     1.0000 0.03940  0.04221  0.68049  Biso   1.000  C
  H595     1.0000 0.05190  0.97778  0.62960  Biso   1.000  H
  H596     1.0000 0.03572  0.03011  0.59849  Biso   1.000  H
  C512     1.0000 0.91339  0.93177  0.85588  Biso   1.000  C
  H597     1.0000 0.90770  0.99680  0.80407  Biso   1.000  H
  C513     1.0000 0.07280  0.03452  0.80959  Biso   1.000  C
  H598     1.0000 0.07640  0.05382  0.68037  Biso   1.000  H
  H599     1.0000 0.01690  0.07380  0.67997  Biso   1.000  H
  C514     1.0000 0.94438  0.88708  0.86950  Biso   1.000  C
  C515     1.0000 0.86950  0.94438  0.88708  Biso   1.000  C
  C516     1.0000 0.08661  0.06819  0.85588  Biso   1.000  C
  H600     1.0000 0.09230  0.00320  0.80407  Biso   1.000  H
  H601     1.0000 0.97397  0.87827  0.84860  Biso   1.000  H
  C517     1.0000 0.93177  0.85588  0.91339  Biso   1.000  C
  H602     1.0000 0.84860  0.97397  0.87827  Biso   1.000  H
  C518     1.0000 0.85588  0.91339  0.93177  Biso   1.000  C
  C519     1.0000 0.05558  0.11288  0.86950  Biso   1.000  C
  C520     1.0000 0.13050  0.05558  0.88708  Biso   1.000  C
  C521     1.0000 0.88708  0.86950  0.94438  Biso   1.000  C
  C522     1.0000 0.96548  0.80959  0.92720  Biso   1.000  C
  C523     1.0000 0.80959  0.92720  0.96548  Biso   1.000  C
  H603     1.0000 0.02599  0.12169  0.84860  Biso   1.000  H
  C524     1.0000 0.06819  0.14412  0.91339  Biso   1.000  C
  H604     1.0000 0.15140  0.02599  0.87827  Biso   1.000  H
  C525     1.0000 0.14412  0.08661  0.93177  Biso   1.000  C
  H605     1.0000 0.87827  0.84860  0.97397  Biso   1.000  H
  N87      1.0000 0.95419  0.77740  0.96360  Biso   1.000  N
  H606     1.0000 0.99680  0.80407  0.90770  Biso   1.000  H
  N88      1.0000 0.77740  0.96360  0.95419  Biso   1.000  N
  H607     1.0000 0.80407  0.90770  0.99680  Biso   1.000  H
  C526     1.0000 0.11288  0.13050  0.94438  Biso   1.000  C
  C527     1.0000 0.03452  0.19041  0.92720  Biso   1.000  C
  C528     1.0000 0.19041  0.07280  0.96548  Biso   1.000  C
  C529     1.0000 0.98959  0.73107  0.97157  Biso   1.000  C
  C530     1.0000 0.73107  0.97157  0.98959  Biso   1.000  C
  H608     1.0000 0.12169  0.15140  0.97397  Biso   1.000  H
  N89      1.0000 0.04581  0.22260  0.96360  Biso   1.000  N
  H609     1.0000 0.00320  0.19589  0.90770  Biso   1.000  H
  N90      1.0000 0.22260  0.03640  0.95419  Biso   1.000  N
  H610     1.0000 0.19589  0.09230  0.99680  Biso   1.000  H
  C531     1.0000 0.95779  0.68049  0.96060  Biso   1.000  C
  H611     1.0000 0.01970  0.73327  0.94658  Biso   1.000  H
  C532     1.0000 0.01041  0.73107  0.02839  Biso   1.000  C
  C533     1.0000 0.68049  0.96060  0.95779  Biso   1.000  C
  H612     1.0000 0.73327  0.94658  0.01970  Biso   1.000  H
  C534     1.0000 0.73107  0.02839  0.01041  Biso   1.000  C
  C535     1.0000 0.01041  0.26889  0.97157  Biso   1.000  C
  C536     1.0000 0.26889  0.02839  0.98959  Biso   1.000  C
  H613     1.0000 0.94618  0.68037  0.92360  Biso   1.000  H
  H614     1.0000 0.92620  0.67997  0.98306  Biso   1.000  H
  C537     1.0000 0.99119  0.63020  0.97149  Biso   1.000  C
  H615     1.0000 0.98030  0.73327  0.05342  Biso   1.000  H
  N91      1.0000 0.04581  0.77740  0.03640  Biso   1.000  N
  C538     1.0000 0.04221  0.68049  0.03940  Biso   1.000  C
  H616     1.0000 0.68037  0.92360  0.94618  Biso   1.000  H
  H617     1.0000 0.67997  0.98306  0.92620  Biso   1.000  H
  C539     1.0000 0.63020  0.97149  0.99119  Biso   1.000  C
  H618     1.0000 0.73327  0.05342  0.98030  Biso   1.000  H
  N92      1.0000 0.77740  0.03640  0.04581  Biso   1.000  N
  C540     1.0000 0.68049  0.03940  0.04221  Biso   1.000  C
  H619     1.0000 0.98030  0.26669  0.94658  Biso   1.000  H
  C541     1.0000 0.98959  0.26889  0.02839  Biso   1.000  C
  C542     1.0000 0.04221  0.31951  0.96060  Biso   1.000  C
  C543     1.0000 0.26889  0.97157  0.01041  Biso   1.000  C
  C544     1.0000 0.31951  0.03940  0.95779  Biso   1.000  C
  H620     1.0000 0.26669  0.05342  0.01970  Biso   1.000  H
  H621     1.0000 0.96989  0.59849  0.96428  Biso   1.000  H
  H622     1.0000 0.02218  0.62960  0.94806  Biso   1.000  H
  C545     1.0000 0.00881  0.63020  0.02851  Biso   1.000  C
  C546     1.0000 0.03452  0.80959  0.07280  Biso   1.000  C
  H623     1.0000 0.05382  0.68037  0.07640  Biso   1.000  H
  H624     1.0000 0.07380  0.67997  0.01690  Biso   1.000  H
  H625     1.0000 0.59849  0.96428  0.96989  Biso   1.000  H
  H626     1.0000 0.62960  0.94806  0.02218  Biso   1.000  H
  C547     1.0000 0.63020  0.02851  0.00881  Biso   1.000  C
  C548     1.0000 0.80959  0.07280  0.03452  Biso   1.000  C
  H627     1.0000 0.68037  0.07640  0.05382  Biso   1.000  H
  H628     1.0000 0.67997  0.01690  0.07380  Biso   1.000  H
  N93      1.0000 0.95419  0.22260  0.03640  Biso   1.000  N
  C549     1.0000 0.95779  0.31951  0.03940  Biso   1.000  C
  H629     1.0000 0.01970  0.26669  0.05342  Biso   1.000  H
  H630     1.0000 0.05382  0.31959  0.92360  Biso   1.000  H
  H631     1.0000 0.07380  0.31999  0.98306  Biso   1.000  H
  C550     1.0000 0.00881  0.36980  0.97149  Biso   1.000  C
  H632     1.0000 0.26669  0.94658  0.98030  Biso   1.000  H
  N94      1.0000 0.22260  0.96360  0.04581  Biso   1.000  N
  C551     1.0000 0.31951  0.96060  0.04221  Biso   1.000  C
  H633     1.0000 0.31959  0.07640  0.94618  Biso   1.000  H
  H634     1.0000 0.31999  0.01690  0.92620  Biso   1.000  H
  C552     1.0000 0.36980  0.02851  0.99119  Biso   1.000  C
  H635     1.0000 0.97778  0.62960  0.05190  Biso   1.000  H
  H636     1.0000 0.03011  0.59849  0.03572  Biso   1.000  H
  C553     1.0000 0.06819  0.85588  0.08661  Biso   1.000  C
  H637     1.0000 0.00320  0.80407  0.09230  Biso   1.000  H
  H638     1.0000 0.62960  0.05190  0.97778  Biso   1.000  H
  H639     1.0000 0.59849  0.03572  0.03011  Biso   1.000  H
  C554     1.0000 0.85588  0.08661  0.06819  Biso   1.000  C
  H640     1.0000 0.80407  0.09230  0.00320  Biso   1.000  H
  C555     1.0000 0.96548  0.19041  0.07280  Biso   1.000  C
  H641     1.0000 0.94618  0.31959  0.07640  Biso   1.000  H
  H642     1.0000 0.92620  0.31999  0.01690  Biso   1.000  H
  C556     1.0000 0.99119  0.36980  0.02851  Biso   1.000  C
  H643     1.0000 0.97778  0.37040  0.94806  Biso   1.000  H
  H644     1.0000 0.03011  0.40147  0.96428  Biso   1.000  H
  C557     1.0000 0.19041  0.92720  0.03452  Biso   1.000  C
  H645     1.0000 0.31959  0.92360  0.05382  Biso   1.000  H
  H646     1.0000 0.31999  0.98306  0.07380  Biso   1.000  H
  C558     1.0000 0.36980  0.97149  0.00881  Biso   1.000  C
  H647     1.0000 0.40147  0.03572  0.96989  Biso   1.000  H
  H648     1.0000 0.37040  0.05190  0.02218  Biso   1.000  H
  C559     1.0000 0.11288  0.86950  0.05558  Biso   1.000  C
  C560     1.0000 0.05558  0.88708  0.13050  Biso   1.000  C
  C561     1.0000 0.86950  0.05558  0.11288  Biso   1.000  C
  C562     1.0000 0.88708  0.13050  0.05558  Biso   1.000  C
  C563     1.0000 0.93177  0.14412  0.08661  Biso   1.000  C
  H649     1.0000 0.99680  0.19589  0.09230  Biso   1.000  H
  H650     1.0000 0.96989  0.40147  0.03572  Biso   1.000  H
  H651     1.0000 0.02218  0.37040  0.05190  Biso   1.000  H
  C564     1.0000 0.14412  0.91339  0.06819  Biso   1.000  C
  H652     1.0000 0.19589  0.90770  0.00320  Biso   1.000  H
  H653     1.0000 0.37040  0.94806  0.97778  Biso   1.000  H
  H654     1.0000 0.40147  0.96428  0.03011  Biso   1.000  H
  H655     1.0000 0.12169  0.84860  0.02599  Biso   1.000  H
  H656     1.0000 0.02599  0.87827  0.15140  Biso   1.000  H
  C565     1.0000 0.08661  0.93177  0.14412  Biso   1.000  C
  H657     1.0000 0.84860  0.02599  0.12169  Biso   1.000  H
  C566     1.0000 0.91339  0.06819  0.14412  Biso   1.000  C
  H658     1.0000 0.87827  0.15140  0.02599  Biso   1.000  H
  C567     1.0000 0.94438  0.11288  0.13050  Biso   1.000  C
  C568     1.0000 0.13050  0.94438  0.11288  Biso   1.000  C
  C569     1.0000 0.07280  0.96548  0.19041  Biso   1.000  C
  C570     1.0000 0.92720  0.03452  0.19041  Biso   1.000  C
  H659     1.0000 0.97397  0.12169  0.15140  Biso   1.000  H
  H660     1.0000 0.15140  0.97397  0.12169  Biso   1.000  H
  N95      1.0000 0.03640  0.95419  0.22260  Biso   1.000  N
  H661     1.0000 0.09230  0.99680  0.19589  Biso   1.000  H
  N96      1.0000 0.96360  0.04581  0.22260  Biso   1.000  N
  H662     1.0000 0.90770  0.00320  0.19589  Biso   1.000  H
  C571     1.0000 0.02839  0.98959  0.26889  Biso   1.000  C
  C572     1.0000 0.97157  0.01041  0.26889  Biso   1.000  C
  C573     1.0000 0.03940  0.95779  0.31951  Biso   1.000  C
  H663     1.0000 0.05342  0.01970  0.26669  Biso   1.000  H
  H664     1.0000 0.94658  0.98030  0.26669  Biso   1.000  H
  C574     1.0000 0.96060  0.04221  0.31951  Biso   1.000  C
  H665     1.0000 0.07640  0.94618  0.31959  Biso   1.000  H
  H666     1.0000 0.01690  0.92620  0.31999  Biso   1.000  H
  C575     1.0000 0.02851  0.99119  0.36980  Biso   1.000  C
  H667     1.0000 0.92360  0.05382  0.31959  Biso   1.000  H
  H668     1.0000 0.98306  0.07380  0.31999  Biso   1.000  H
  C576     1.0000 0.97149  0.00881  0.36980  Biso   1.000  C
  H669     1.0000 0.03572  0.96989  0.40147  Biso   1.000  H
  H670     1.0000 0.05190  0.02218  0.37040  Biso   1.000  H
  H671     1.0000 0.94806  0.97778  0.37040  Biso   1.000  H
  H672     1.0000 0.96428  0.03011  0.40147  Biso   1.000  H
