data_image0
_cell_length_a       24.771
_cell_length_b       24.771
_cell_length_c       24.771
_cell_angle_alpha    90
_cell_angle_beta     90
_cell_angle_gamma    90

_symmetry_space_group_name_H-M    "P 1"
_symmetry_int_tables_number       1

loop_
  _symmetry_equiv_pos_as_xyz
  'x, y, z'

loop_
  _atom_site_label
  _atom_site_occupancy
  _atom_site_fract_x
  _atom_site_fract_y
  _atom_site_fract_z
  _atom_site_thermal_displace_type
  _atom_site_B_iso_or_equiv
  _atom_site_type_symbol
  C1       1.0000 0.62751  0.52557  0.50579  Biso   1.000  C
  C2       1.0000 0.62751  0.47439  0.49421  Biso   1.000  C
  C3       1.0000 0.67769  0.53890  0.54398  Biso   1.000  C
  H1       1.0000 0.59340  0.53530  0.52428  Biso   1.000  H
  H2       1.0000 0.62997  0.54709  0.47221  Biso   1.000  H
  C4       1.0000 0.67769  0.46110  0.45598  Biso   1.000  C
  H3       1.0000 0.59340  0.46470  0.47568  Biso   1.000  H
  H4       1.0000 0.62997  0.45291  0.52779  Biso   1.000  H
  C5       1.0000 0.73001  0.52888  0.51040  Biso   1.000  C
  H5       1.0000 0.67619  0.57701  0.55617  Biso   1.000  H
  H6       1.0000 0.67728  0.51528  0.57620  Biso   1.000  H
  C6       1.0000 0.73001  0.47108  0.48960  Biso   1.000  C
  H7       1.0000 0.67619  0.42299  0.44379  Biso   1.000  H
  H8       1.0000 0.67728  0.48468  0.42380  Biso   1.000  H
  N1       1.0000 0.77579  0.53518  0.54729  Biso   1.000  N
  H9       1.0000 0.73259  0.55508  0.47979  Biso   1.000  H
  N2       1.0000 0.77579  0.46478  0.45271  Biso   1.000  N
  H10      1.0000 0.73259  0.44488  0.52021  Biso   1.000  H
  C7       1.0000 0.80828  0.57188  0.53498  Biso   1.000  C
  C8       1.0000 0.80828  0.42808  0.46498  Biso   1.000  C
  C9       1.0000 0.85640  0.58629  0.56808  Biso   1.000  C
  H11      1.0000 0.80199  0.59158  0.50268  Biso   1.000  H
  C10      1.0000 0.85640  0.41371  0.43188  Biso   1.000  C
  H12      1.0000 0.80199  0.40838  0.49728  Biso   1.000  H
  C11      1.0000 0.88600  0.63159  0.55387  Biso   1.000  C
  C12      1.0000 0.86839  0.55387  0.61398  Biso   1.000  C
  C13      1.0000 0.88600  0.36837  0.44609  Biso   1.000  C
  C14      1.0000 0.86839  0.44609  0.38598  Biso   1.000  C
  H13      1.0000 0.87611  0.65351  0.52400  Biso   1.000  H
  C15      1.0000 0.93190  0.64358  0.58629  Biso   1.000  C
  H14      1.0000 0.84647  0.52400  0.62387  Biso   1.000  H
  C16      1.0000 0.91369  0.56808  0.64358  Biso   1.000  C
  H15      1.0000 0.87611  0.34649  0.47600  Biso   1.000  H
  C17      1.0000 0.93190  0.35638  0.41371  Biso   1.000  C
  H16      1.0000 0.84647  0.47600  0.37608  Biso   1.000  H
  C18      1.0000 0.91369  0.43188  0.35638  Biso   1.000  C
  C19      1.0000 0.94607  0.61398  0.63159  Biso   1.000  C
  C20      1.0000 0.96500  0.69170  0.57188  Biso   1.000  C
  C21      1.0000 0.92810  0.53498  0.69170  Biso   1.000  C
  C22      1.0000 0.94607  0.38598  0.36837  Biso   1.000  C
  C23      1.0000 0.96500  0.30830  0.42808  Biso   1.000  C
  C24      1.0000 0.92810  0.46498  0.30830  Biso   1.000  C
  H17      1.0000 0.97598  0.62387  0.65351  Biso   1.000  H
  N3       1.0000 0.95269  0.72419  0.53518  Biso   1.000  N
  H18      1.0000 0.99730  0.69799  0.59158  Biso   1.000  H
  N4       1.0000 0.96480  0.54729  0.72419  Biso   1.000  N
  H19      1.0000 0.90840  0.50268  0.69799  Biso   1.000  H
  H20      1.0000 0.97598  0.37608  0.34649  Biso   1.000  H
  N5       1.0000 0.95269  0.27581  0.46478  Biso   1.000  N
  H21      1.0000 0.99730  0.30201  0.40838  Biso   1.000  H
  N6       1.0000 0.96480  0.45271  0.27581  Biso   1.000  N
  H22      1.0000 0.90840  0.49728  0.30201  Biso   1.000  H
  C25      1.0000 0.98958  0.76997  0.52888  Biso   1.000  C
  C26      1.0000 0.97110  0.51040  0.76997  Biso   1.000  C
  C27      1.0000 0.98958  0.22999  0.47108  Biso   1.000  C
  C28      1.0000 0.97110  0.48960  0.22999  Biso   1.000  C
  C29      1.0000 0.95600  0.82229  0.53890  Biso   1.000  C
  C30      1.0000 0.01042  0.76997  0.47108  Biso   1.000  C
  H23      1.0000 0.02018  0.76739  0.55508  Biso   1.000  H
  H24      1.0000 0.94490  0.47979  0.76739  Biso   1.000  H
  C31      1.0000 0.96108  0.54398  0.82229  Biso   1.000  C
  C32      1.0000 0.02890  0.48960  0.76997  Biso   1.000  C
  C33      1.0000 0.95600  0.17771  0.46110  Biso   1.000  C
  C34      1.0000 0.01042  0.22999  0.52888  Biso   1.000  C
  H25      1.0000 0.02018  0.23261  0.44488  Biso   1.000  H
  H26      1.0000 0.94490  0.52021  0.23261  Biso   1.000  H
  C35      1.0000 0.96108  0.45598  0.17771  Biso   1.000  C
  C36      1.0000 0.02890  0.51040  0.22999  Biso   1.000  C
  H27      1.0000 0.94376  0.82379  0.57701  Biso   1.000  H
  H28      1.0000 0.92378  0.82270  0.51528  Biso   1.000  H
  C37      1.0000 0.99419  0.87247  0.52557  Biso   1.000  C
  H29      1.0000 0.97977  0.76739  0.44488  Biso   1.000  H
  N7       1.0000 0.04731  0.72419  0.46478  Biso   1.000  N
  C38      1.0000 0.04400  0.82229  0.46110  Biso   1.000  C
  H30      1.0000 0.92297  0.55617  0.82379  Biso   1.000  H
  H31      1.0000 0.98470  0.57620  0.82270  Biso   1.000  H
  C39      1.0000 0.97437  0.50579  0.87247  Biso   1.000  C
  N8       1.0000 0.03520  0.45271  0.72419  Biso   1.000  N
  H32      1.0000 0.05510  0.52021  0.76739  Biso   1.000  H
  C40      1.0000 0.03892  0.45598  0.82229  Biso   1.000  C
  H33      1.0000 0.94376  0.17621  0.42299  Biso   1.000  H
  H34      1.0000 0.92378  0.17730  0.48468  Biso   1.000  H
  C41      1.0000 0.99419  0.12749  0.47439  Biso   1.000  C
  H35      1.0000 0.97977  0.23261  0.55508  Biso   1.000  H
  N9       1.0000 0.04731  0.27581  0.53518  Biso   1.000  N
  C42      1.0000 0.04400  0.17771  0.53890  Biso   1.000  C
  H36      1.0000 0.92297  0.44379  0.17621  Biso   1.000  H
  H37      1.0000 0.98470  0.42380  0.17730  Biso   1.000  H
  C43      1.0000 0.97437  0.49421  0.12749  Biso   1.000  C
  N10      1.0000 0.03520  0.54729  0.27581  Biso   1.000  N
  H38      1.0000 0.05510  0.47979  0.23261  Biso   1.000  H
  C44      1.0000 0.03892  0.54398  0.17771  Biso   1.000  C
  H39      1.0000 0.97570  0.90658  0.53530  Biso   1.000  H
  C45      1.0000 0.00581  0.87247  0.47439  Biso   1.000  C
  H40      1.0000 0.02781  0.86997  0.54709  Biso   1.000  H
  C46      1.0000 0.03500  0.69170  0.42808  Biso   1.000  C
  H41      1.0000 0.05619  0.82379  0.42299  Biso   1.000  H
  H42      1.0000 0.07622  0.82270  0.48468  Biso   1.000  H
  H43      1.0000 0.96468  0.52428  0.90658  Biso   1.000  H
  H44      1.0000 0.95289  0.47221  0.86997  Biso   1.000  H
  C47      1.0000 0.02559  0.49421  0.87247  Biso   1.000  C
  C48      1.0000 0.07190  0.46498  0.69170  Biso   1.000  C
  H45      1.0000 0.07699  0.44379  0.82379  Biso   1.000  H
  H46      1.0000 0.01530  0.42380  0.82270  Biso   1.000  H
  H47      1.0000 0.97570  0.09342  0.46470  Biso   1.000  H
  C49      1.0000 0.00581  0.12749  0.52557  Biso   1.000  C
  H48      1.0000 0.02781  0.12999  0.45291  Biso   1.000  H
  C50      1.0000 0.03500  0.30830  0.57188  Biso   1.000  C
  H49      1.0000 0.05619  0.17621  0.57701  Biso   1.000  H
  H50      1.0000 0.07622  0.17730  0.51528  Biso   1.000  H
  H51      1.0000 0.96468  0.47568  0.09342  Biso   1.000  H
  H52      1.0000 0.95289  0.52779  0.12999  Biso   1.000  H
  C51      1.0000 0.02559  0.50579  0.12749  Biso   1.000  C
  C52      1.0000 0.07190  0.53498  0.30830  Biso   1.000  C
  H53      1.0000 0.07699  0.55617  0.17621  Biso   1.000  H
  H54      1.0000 0.01530  0.57620  0.17730  Biso   1.000  H
  H55      1.0000 0.97219  0.86997  0.45291  Biso   1.000  H
  H56      1.0000 0.02430  0.90658  0.46470  Biso   1.000  H
  C53      1.0000 0.06810  0.64358  0.41371  Biso   1.000  C
  H57      1.0000 0.00270  0.69799  0.40838  Biso   1.000  H
  H58      1.0000 0.03528  0.47568  0.90658  Biso   1.000  H
  H59      1.0000 0.04711  0.52779  0.86997  Biso   1.000  H
  C54      1.0000 0.08631  0.43188  0.64358  Biso   1.000  C
  H60      1.0000 0.09160  0.49728  0.69799  Biso   1.000  H
  H61      1.0000 0.97219  0.12999  0.54709  Biso   1.000  H
  H62      1.0000 0.02430  0.09342  0.53530  Biso   1.000  H
  C55      1.0000 0.06810  0.35638  0.58629  Biso   1.000  C
  H63      1.0000 0.00270  0.30201  0.59158  Biso   1.000  H
  H64      1.0000 0.03528  0.52428  0.09342  Biso   1.000  H
  H65      1.0000 0.04711  0.47221  0.12999  Biso   1.000  H
  C56      1.0000 0.08631  0.56808  0.35638  Biso   1.000  C
  H66      1.0000 0.09160  0.50268  0.30201  Biso   1.000  H
  C57      1.0000 0.05389  0.61398  0.36837  Biso   1.000  C
  C58      1.0000 0.11400  0.63159  0.44609  Biso   1.000  C
  C59      1.0000 0.05389  0.38598  0.63159  Biso   1.000  C
  C60      1.0000 0.13161  0.44609  0.61398  Biso   1.000  C
  C61      1.0000 0.11400  0.36837  0.55387  Biso   1.000  C
  C62      1.0000 0.13161  0.55387  0.38598  Biso   1.000  C
  H67      1.0000 0.02398  0.62387  0.34649  Biso   1.000  H
  C63      1.0000 0.14360  0.58629  0.43188  Biso   1.000  C
  H68      1.0000 0.12389  0.65351  0.47600  Biso   1.000  H
  H69      1.0000 0.02398  0.37608  0.65351  Biso   1.000  H
  C64      1.0000 0.14360  0.41371  0.56808  Biso   1.000  C
  H70      1.0000 0.15349  0.47600  0.62387  Biso   1.000  H
  H71      1.0000 0.12389  0.34649  0.52400  Biso   1.000  H
  H72      1.0000 0.15349  0.52400  0.37608  Biso   1.000  H
  C65      1.0000 0.19172  0.57188  0.46498  Biso   1.000  C
  C66      1.0000 0.19172  0.42808  0.53498  Biso   1.000  C
  N11      1.0000 0.22421  0.53518  0.45271  Biso   1.000  N
  H73      1.0000 0.19801  0.59158  0.49728  Biso   1.000  H
  N12      1.0000 0.22421  0.46478  0.54729  Biso   1.000  N
  H74      1.0000 0.19801  0.40838  0.50268  Biso   1.000  H
  C67      1.0000 0.26999  0.52888  0.48960  Biso   1.000  C
  C68      1.0000 0.26999  0.47108  0.51040  Biso   1.000  C
  H75      1.0000 0.26741  0.55508  0.52021  Biso   1.000  H
  C69      1.0000 0.32231  0.53890  0.45598  Biso   1.000  C
  H76      1.0000 0.26741  0.44488  0.47979  Biso   1.000  H
  C70      1.0000 0.32231  0.46110  0.54398  Biso   1.000  C
  H77      1.0000 0.32381  0.57701  0.44379  Biso   1.000  H
  H78      1.0000 0.32268  0.51528  0.42380  Biso   1.000  H
  C71      1.0000 0.37249  0.52557  0.49421  Biso   1.000  C
  H79      1.0000 0.32381  0.42299  0.55617  Biso   1.000  H
  H80      1.0000 0.32268  0.48468  0.57620  Biso   1.000  H
  C72      1.0000 0.37249  0.47439  0.50579  Biso   1.000  C
  H81      1.0000 0.40660  0.53530  0.47568  Biso   1.000  H
  H82      1.0000 0.36999  0.54709  0.52779  Biso   1.000  H
  H83      1.0000 0.40660  0.46470  0.52428  Biso   1.000  H
  H84      1.0000 0.36999  0.45291  0.47221  Biso   1.000  H
  C73      1.0000 0.52557  0.50579  0.62751  Biso   1.000  C
  C74      1.0000 0.47439  0.49421  0.62751  Biso   1.000  C
  C75      1.0000 0.53890  0.54398  0.67769  Biso   1.000  C
  H85      1.0000 0.53530  0.52428  0.59340  Biso   1.000  H
  H86      1.0000 0.54709  0.47221  0.62997  Biso   1.000  H
  C76      1.0000 0.46110  0.45598  0.67769  Biso   1.000  C
  H87      1.0000 0.46470  0.47568  0.59340  Biso   1.000  H
  H88      1.0000 0.45291  0.52779  0.62997  Biso   1.000  H
  C77      1.0000 0.52888  0.51040  0.73001  Biso   1.000  C
  H89      1.0000 0.57701  0.55617  0.67619  Biso   1.000  H
  H90      1.0000 0.51528  0.57620  0.67728  Biso   1.000  H
  C78      1.0000 0.47108  0.48960  0.73001  Biso   1.000  C
  H91      1.0000 0.42299  0.44379  0.67619  Biso   1.000  H
  H92      1.0000 0.48468  0.42380  0.67728  Biso   1.000  H
  N13      1.0000 0.53518  0.54729  0.77579  Biso   1.000  N
  H93      1.0000 0.55508  0.47979  0.73259  Biso   1.000  H
  N14      1.0000 0.46478  0.45271  0.77579  Biso   1.000  N
  H94      1.0000 0.44488  0.52021  0.73259  Biso   1.000  H
  C79      1.0000 0.57188  0.53498  0.80828  Biso   1.000  C
  C80      1.0000 0.42808  0.46498  0.80828  Biso   1.000  C
  C81      1.0000 0.58629  0.56808  0.85640  Biso   1.000  C
  H95      1.0000 0.59158  0.50268  0.80199  Biso   1.000  H
  C82      1.0000 0.41371  0.43188  0.85640  Biso   1.000  C
  H96      1.0000 0.40838  0.49728  0.80199  Biso   1.000  H
  C83      1.0000 0.63159  0.55387  0.88600  Biso   1.000  C
  C84      1.0000 0.55387  0.61398  0.86839  Biso   1.000  C
  C85      1.0000 0.36837  0.44609  0.88600  Biso   1.000  C
  C86      1.0000 0.44609  0.38598  0.86839  Biso   1.000  C
  H97      1.0000 0.65351  0.52400  0.87611  Biso   1.000  H
  C87      1.0000 0.64358  0.58629  0.93190  Biso   1.000  C
  H98      1.0000 0.52400  0.62387  0.84647  Biso   1.000  H
  C88      1.0000 0.56808  0.64358  0.91369  Biso   1.000  C
  H99      1.0000 0.34649  0.47600  0.87611  Biso   1.000  H
  C89      1.0000 0.35638  0.41371  0.93190  Biso   1.000  C
  H100     1.0000 0.47600  0.37608  0.84647  Biso   1.000  H
  C90      1.0000 0.43188  0.35638  0.91369  Biso   1.000  C
  C91      1.0000 0.61398  0.63159  0.94607  Biso   1.000  C
  C92      1.0000 0.69170  0.57188  0.96500  Biso   1.000  C
  C93      1.0000 0.53498  0.69170  0.92810  Biso   1.000  C
  C94      1.0000 0.38598  0.36837  0.94607  Biso   1.000  C
  C95      1.0000 0.30830  0.42808  0.96500  Biso   1.000  C
  C96      1.0000 0.46498  0.30830  0.92810  Biso   1.000  C
  H101     1.0000 0.62387  0.65351  0.97598  Biso   1.000  H
  N15      1.0000 0.72419  0.53518  0.95269  Biso   1.000  N
  H102     1.0000 0.69799  0.59158  0.99730  Biso   1.000  H
  N16      1.0000 0.54729  0.72419  0.96480  Biso   1.000  N
  H103     1.0000 0.50268  0.69799  0.90840  Biso   1.000  H
  H104     1.0000 0.37608  0.34649  0.97598  Biso   1.000  H
  N17      1.0000 0.27581  0.46478  0.95269  Biso   1.000  N
  H105     1.0000 0.30201  0.40838  0.99730  Biso   1.000  H
  N18      1.0000 0.45271  0.27581  0.96480  Biso   1.000  N
  H106     1.0000 0.49728  0.30201  0.90840  Biso   1.000  H
  C97      1.0000 0.76997  0.52888  0.98958  Biso   1.000  C
  C98      1.0000 0.51040  0.76997  0.97110  Biso   1.000  C
  C99      1.0000 0.22999  0.47108  0.98958  Biso   1.000  C
  C100     1.0000 0.48960  0.22999  0.97110  Biso   1.000  C
  C101     1.0000 0.82229  0.53890  0.95600  Biso   1.000  C
  C102     1.0000 0.76997  0.47108  0.01042  Biso   1.000  C
  H107     1.0000 0.76739  0.55508  0.02018  Biso   1.000  H
  H108     1.0000 0.47979  0.76739  0.94490  Biso   1.000  H
  C103     1.0000 0.54398  0.82229  0.96108  Biso   1.000  C
  C104     1.0000 0.48960  0.76997  0.02890  Biso   1.000  C
  C105     1.0000 0.17771  0.46110  0.95600  Biso   1.000  C
  C106     1.0000 0.22999  0.52888  0.01042  Biso   1.000  C
  H109     1.0000 0.23261  0.44488  0.02018  Biso   1.000  H
  H110     1.0000 0.52021  0.23261  0.94490  Biso   1.000  H
  C107     1.0000 0.45598  0.17771  0.96108  Biso   1.000  C
  C108     1.0000 0.51040  0.22999  0.02890  Biso   1.000  C
  H111     1.0000 0.82379  0.57701  0.94376  Biso   1.000  H
  H112     1.0000 0.82270  0.51528  0.92378  Biso   1.000  H
  C109     1.0000 0.87247  0.52557  0.99419  Biso   1.000  C
  H113     1.0000 0.76739  0.44488  0.97977  Biso   1.000  H
  N19      1.0000 0.72419  0.46478  0.04731  Biso   1.000  N
  C110     1.0000 0.82229  0.46110  0.04400  Biso   1.000  C
  H114     1.0000 0.55617  0.82379  0.92297  Biso   1.000  H
  H115     1.0000 0.57620  0.82270  0.98470  Biso   1.000  H
  C111     1.0000 0.50579  0.87247  0.97437  Biso   1.000  C
  N20      1.0000 0.45271  0.72419  0.03520  Biso   1.000  N
  H116     1.0000 0.52021  0.76739  0.05510  Biso   1.000  H
  C112     1.0000 0.45598  0.82229  0.03892  Biso   1.000  C
  H117     1.0000 0.17621  0.42299  0.94376  Biso   1.000  H
  H118     1.0000 0.17730  0.48468  0.92378  Biso   1.000  H
  C113     1.0000 0.12749  0.47439  0.99419  Biso   1.000  C
  H119     1.0000 0.23261  0.55508  0.97977  Biso   1.000  H
  N21      1.0000 0.27581  0.53518  0.04731  Biso   1.000  N
  C114     1.0000 0.17771  0.53890  0.04400  Biso   1.000  C
  H120     1.0000 0.44379  0.17621  0.92297  Biso   1.000  H
  H121     1.0000 0.42380  0.17730  0.98470  Biso   1.000  H
  C115     1.0000 0.49421  0.12749  0.97437  Biso   1.000  C
  N22      1.0000 0.54729  0.27581  0.03520  Biso   1.000  N
  H122     1.0000 0.47979  0.23261  0.05510  Biso   1.000  H
  C116     1.0000 0.54398  0.17771  0.03892  Biso   1.000  C
  H123     1.0000 0.90658  0.53530  0.97570  Biso   1.000  H
  C117     1.0000 0.87247  0.47439  0.00581  Biso   1.000  C
  H124     1.0000 0.86997  0.54709  0.02781  Biso   1.000  H
  C118     1.0000 0.69170  0.42808  0.03500  Biso   1.000  C
  H125     1.0000 0.82379  0.42299  0.05619  Biso   1.000  H
  H126     1.0000 0.82270  0.48468  0.07622  Biso   1.000  H
  H127     1.0000 0.52428  0.90658  0.96468  Biso   1.000  H
  H128     1.0000 0.47221  0.86997  0.95289  Biso   1.000  H
  C119     1.0000 0.49421  0.87247  0.02559  Biso   1.000  C
  C120     1.0000 0.46498  0.69170  0.07190  Biso   1.000  C
  H129     1.0000 0.44379  0.82379  0.07699  Biso   1.000  H
  H130     1.0000 0.42380  0.82270  0.01530  Biso   1.000  H
  H131     1.0000 0.09342  0.46470  0.97570  Biso   1.000  H
  C121     1.0000 0.12749  0.52557  0.00581  Biso   1.000  C
  H132     1.0000 0.12999  0.45291  0.02781  Biso   1.000  H
  C122     1.0000 0.30830  0.57188  0.03500  Biso   1.000  C
  H133     1.0000 0.17621  0.57701  0.05619  Biso   1.000  H
  H134     1.0000 0.17730  0.51528  0.07622  Biso   1.000  H
  H135     1.0000 0.47568  0.09342  0.96468  Biso   1.000  H
  H136     1.0000 0.52779  0.12999  0.95289  Biso   1.000  H
  C123     1.0000 0.50579  0.12749  0.02559  Biso   1.000  C
  C124     1.0000 0.53498  0.30830  0.07190  Biso   1.000  C
  H137     1.0000 0.55617  0.17621  0.07699  Biso   1.000  H
  H138     1.0000 0.57620  0.17730  0.01530  Biso   1.000  H
  H139     1.0000 0.86997  0.45291  0.97219  Biso   1.000  H
  H140     1.0000 0.90658  0.46470  0.02430  Biso   1.000  H
  C125     1.0000 0.64358  0.41371  0.06810  Biso   1.000  C
  H141     1.0000 0.69799  0.40838  0.00270  Biso   1.000  H
  H142     1.0000 0.47568  0.90658  0.03528  Biso   1.000  H
  H143     1.0000 0.52779  0.86997  0.04711  Biso   1.000  H
  C126     1.0000 0.43188  0.64358  0.08631  Biso   1.000  C
  H144     1.0000 0.49728  0.69799  0.09160  Biso   1.000  H
  H145     1.0000 0.12999  0.54709  0.97219  Biso   1.000  H
  H146     1.0000 0.09342  0.53530  0.02430  Biso   1.000  H
  C127     1.0000 0.35638  0.58629  0.06810  Biso   1.000  C
  H147     1.0000 0.30201  0.59158  0.00270  Biso   1.000  H
  H148     1.0000 0.52428  0.09342  0.03528  Biso   1.000  H
  H149     1.0000 0.47221  0.12999  0.04711  Biso   1.000  H
  C128     1.0000 0.56808  0.35638  0.08631  Biso   1.000  C
  H150     1.0000 0.50268  0.30201  0.09160  Biso   1.000  H
  C129     1.0000 0.61398  0.36837  0.05389  Biso   1.000  C
  C130     1.0000 0.63159  0.44609  0.11400  Biso   1.000  C
  C131     1.0000 0.38598  0.63159  0.05389  Biso   1.000  C
  C132     1.0000 0.44609  0.61398  0.13161  Biso   1.000  C
  C133     1.0000 0.36837  0.55387  0.11400  Biso   1.000  C
  C134     1.0000 0.55387  0.38598  0.13161  Biso   1.000  C
  H151     1.0000 0.62387  0.34649  0.02398  Biso   1.000  H
  C135     1.0000 0.58629  0.43188  0.14360  Biso   1.000  C
  H152     1.0000 0.65351  0.47600  0.12389  Biso   1.000  H
  H153     1.0000 0.37608  0.65351  0.02398  Biso   1.000  H
  C136     1.0000 0.41371  0.56808  0.14360  Biso   1.000  C
  H154     1.0000 0.47600  0.62387  0.15349  Biso   1.000  H
  H155     1.0000 0.34649  0.52400  0.12389  Biso   1.000  H
  H156     1.0000 0.52400  0.37608  0.15349  Biso   1.000  H
  C137     1.0000 0.57188  0.46498  0.19172  Biso   1.000  C
  C138     1.0000 0.42808  0.53498  0.19172  Biso   1.000  C
  N23      1.0000 0.53518  0.45271  0.22421  Biso   1.000  N
  H157     1.0000 0.59158  0.49728  0.19801  Biso   1.000  H
  N24      1.0000 0.46478  0.54729  0.22421  Biso   1.000  N
  H158     1.0000 0.40838  0.50268  0.19801  Biso   1.000  H
  C139     1.0000 0.52888  0.48960  0.26999  Biso   1.000  C
  C140     1.0000 0.47108  0.51040  0.26999  Biso   1.000  C
  H159     1.0000 0.55508  0.52021  0.26741  Biso   1.000  H
  C141     1.0000 0.53890  0.45598  0.32231  Biso   1.000  C
  H160     1.0000 0.44488  0.47979  0.26741  Biso   1.000  H
  C142     1.0000 0.46110  0.54398  0.32231  Biso   1.000  C
  H161     1.0000 0.57701  0.44379  0.32381  Biso   1.000  H
  H162     1.0000 0.51528  0.42380  0.32268  Biso   1.000  H
  C143     1.0000 0.52557  0.49421  0.37249  Biso   1.000  C
  H163     1.0000 0.42299  0.55617  0.32381  Biso   1.000  H
  H164     1.0000 0.48468  0.57620  0.32268  Biso   1.000  H
  C144     1.0000 0.47439  0.50579  0.37249  Biso   1.000  C
  H165     1.0000 0.53530  0.47568  0.40660  Biso   1.000  H
  H166     1.0000 0.54709  0.52779  0.36999  Biso   1.000  H
  H167     1.0000 0.46470  0.52428  0.40660  Biso   1.000  H
  H168     1.0000 0.45291  0.47221  0.36999  Biso   1.000  H
  C145     1.0000 0.50579  0.62751  0.52557  Biso   1.000  C
  C146     1.0000 0.49421  0.62751  0.47439  Biso   1.000  C
  C147     1.0000 0.54398  0.67769  0.53890  Biso   1.000  C
  H169     1.0000 0.52428  0.59340  0.53530  Biso   1.000  H
  H170     1.0000 0.47221  0.62997  0.54709  Biso   1.000  H
  C148     1.0000 0.45598  0.67769  0.46110  Biso   1.000  C
  H171     1.0000 0.47568  0.59340  0.46470  Biso   1.000  H
  H172     1.0000 0.52779  0.62997  0.45291  Biso   1.000  H
  C149     1.0000 0.51040  0.73001  0.52888  Biso   1.000  C
  H173     1.0000 0.55617  0.67619  0.57701  Biso   1.000  H
  H174     1.0000 0.57620  0.67728  0.51528  Biso   1.000  H
  C150     1.0000 0.48960  0.73001  0.47108  Biso   1.000  C
  H175     1.0000 0.44379  0.67619  0.42299  Biso   1.000  H
  H176     1.0000 0.42380  0.67728  0.48468  Biso   1.000  H
  N25      1.0000 0.54729  0.77579  0.53518  Biso   1.000  N
  H177     1.0000 0.47979  0.73259  0.55508  Biso   1.000  H
  N26      1.0000 0.45271  0.77579  0.46478  Biso   1.000  N
  H178     1.0000 0.52021  0.73259  0.44488  Biso   1.000  H
  C151     1.0000 0.53498  0.80828  0.57188  Biso   1.000  C
  C152     1.0000 0.46498  0.80828  0.42808  Biso   1.000  C
  C153     1.0000 0.56808  0.85640  0.58629  Biso   1.000  C
  H179     1.0000 0.50268  0.80199  0.59158  Biso   1.000  H
  C154     1.0000 0.43188  0.85640  0.41371  Biso   1.000  C
  H180     1.0000 0.49728  0.80199  0.40838  Biso   1.000  H
  C155     1.0000 0.55387  0.88600  0.63159  Biso   1.000  C
  C156     1.0000 0.61398  0.86839  0.55387  Biso   1.000  C
  C157     1.0000 0.38598  0.86839  0.44609  Biso   1.000  C
  C158     1.0000 0.44609  0.88600  0.36837  Biso   1.000  C
  H181     1.0000 0.52400  0.87611  0.65351  Biso   1.000  H
  C159     1.0000 0.58629  0.93190  0.64358  Biso   1.000  C
  H182     1.0000 0.62387  0.84647  0.52400  Biso   1.000  H
  C160     1.0000 0.64358  0.91369  0.56808  Biso   1.000  C
  H183     1.0000 0.37608  0.84647  0.47600  Biso   1.000  H
  C161     1.0000 0.35638  0.91369  0.43188  Biso   1.000  C
  H184     1.0000 0.47600  0.87611  0.34649  Biso   1.000  H
  C162     1.0000 0.41371  0.93190  0.35638  Biso   1.000  C
  C163     1.0000 0.63159  0.94607  0.61398  Biso   1.000  C
  C164     1.0000 0.57188  0.96500  0.69170  Biso   1.000  C
  C165     1.0000 0.69170  0.92810  0.53498  Biso   1.000  C
  C166     1.0000 0.36837  0.94607  0.38598  Biso   1.000  C
  C167     1.0000 0.30830  0.92810  0.46498  Biso   1.000  C
  C168     1.0000 0.42808  0.96500  0.30830  Biso   1.000  C
  H185     1.0000 0.65351  0.97598  0.62387  Biso   1.000  H
  N27      1.0000 0.53518  0.95269  0.72419  Biso   1.000  N
  H186     1.0000 0.59158  0.99730  0.69799  Biso   1.000  H
  N28      1.0000 0.72419  0.96480  0.54729  Biso   1.000  N
  H187     1.0000 0.69799  0.90840  0.50268  Biso   1.000  H
  H188     1.0000 0.34649  0.97598  0.37608  Biso   1.000  H
  N29      1.0000 0.27581  0.96480  0.45271  Biso   1.000  N
  H189     1.0000 0.30201  0.90840  0.49728  Biso   1.000  H
  N30      1.0000 0.46478  0.95269  0.27581  Biso   1.000  N
  H190     1.0000 0.40838  0.99730  0.30201  Biso   1.000  H
  C169     1.0000 0.52888  0.98958  0.76997  Biso   1.000  C
  C170     1.0000 0.76997  0.97110  0.51040  Biso   1.000  C
  C171     1.0000 0.22999  0.97110  0.48960  Biso   1.000  C
  C172     1.0000 0.47108  0.98958  0.22999  Biso   1.000  C
  C173     1.0000 0.53890  0.95600  0.82229  Biso   1.000  C
  C174     1.0000 0.47108  0.01042  0.76997  Biso   1.000  C
  H191     1.0000 0.55508  0.02018  0.76739  Biso   1.000  H
  H192     1.0000 0.76739  0.94490  0.47979  Biso   1.000  H
  C175     1.0000 0.82229  0.96108  0.54398  Biso   1.000  C
  C176     1.0000 0.76997  0.02890  0.48960  Biso   1.000  C
  H193     1.0000 0.23261  0.94490  0.52021  Biso   1.000  H
  C177     1.0000 0.17771  0.96108  0.45598  Biso   1.000  C
  C178     1.0000 0.22999  0.02890  0.51040  Biso   1.000  C
  C179     1.0000 0.46110  0.95600  0.17771  Biso   1.000  C
  C180     1.0000 0.52888  0.01042  0.22999  Biso   1.000  C
  H194     1.0000 0.44488  0.02018  0.23261  Biso   1.000  H
  H195     1.0000 0.57701  0.94376  0.82379  Biso   1.000  H
  H196     1.0000 0.51528  0.92378  0.82270  Biso   1.000  H
  C181     1.0000 0.52557  0.99419  0.87247  Biso   1.000  C
  H197     1.0000 0.44488  0.97977  0.76739  Biso   1.000  H
  N31      1.0000 0.46478  0.04731  0.72419  Biso   1.000  N
  C182     1.0000 0.46110  0.04400  0.82229  Biso   1.000  C
  H198     1.0000 0.82379  0.92297  0.55617  Biso   1.000  H
  H199     1.0000 0.82270  0.98470  0.57620  Biso   1.000  H
  C183     1.0000 0.87247  0.97437  0.50579  Biso   1.000  C
  N32      1.0000 0.72419  0.03520  0.45271  Biso   1.000  N
  H200     1.0000 0.76739  0.05510  0.52021  Biso   1.000  H
  C184     1.0000 0.82229  0.03892  0.45598  Biso   1.000  C
  H201     1.0000 0.17621  0.92297  0.44379  Biso   1.000  H
  H202     1.0000 0.17730  0.98470  0.42380  Biso   1.000  H
  C185     1.0000 0.12749  0.97437  0.49421  Biso   1.000  C
  N33      1.0000 0.27581  0.03520  0.54729  Biso   1.000  N
  H203     1.0000 0.23261  0.05510  0.47979  Biso   1.000  H
  C186     1.0000 0.17771  0.03892  0.54398  Biso   1.000  C
  H204     1.0000 0.42299  0.94376  0.17621  Biso   1.000  H
  H205     1.0000 0.48468  0.92378  0.17730  Biso   1.000  H
  C187     1.0000 0.47439  0.99419  0.12749  Biso   1.000  C
  H206     1.0000 0.55508  0.97977  0.23261  Biso   1.000  H
  N34      1.0000 0.53518  0.04731  0.27581  Biso   1.000  N
  C188     1.0000 0.53890  0.04400  0.17771  Biso   1.000  C
  H207     1.0000 0.53530  0.97570  0.90658  Biso   1.000  H
  C189     1.0000 0.47439  0.00581  0.87247  Biso   1.000  C
  H208     1.0000 0.54709  0.02781  0.86997  Biso   1.000  H
  C190     1.0000 0.42808  0.03500  0.69170  Biso   1.000  C
  H209     1.0000 0.42299  0.05619  0.82379  Biso   1.000  H
  H210     1.0000 0.48468  0.07622  0.82270  Biso   1.000  H
  H211     1.0000 0.90658  0.96468  0.52428  Biso   1.000  H
  H212     1.0000 0.86997  0.95289  0.47221  Biso   1.000  H
  C191     1.0000 0.87247  0.02559  0.49421  Biso   1.000  C
  C192     1.0000 0.69170  0.07190  0.46498  Biso   1.000  C
  H213     1.0000 0.82379  0.07699  0.44379  Biso   1.000  H
  H214     1.0000 0.82270  0.01530  0.42380  Biso   1.000  H
  H215     1.0000 0.09342  0.96468  0.47568  Biso   1.000  H
  H216     1.0000 0.12999  0.95289  0.52779  Biso   1.000  H
  C193     1.0000 0.12749  0.02559  0.50579  Biso   1.000  C
  C194     1.0000 0.30830  0.07190  0.53498  Biso   1.000  C
  H217     1.0000 0.17621  0.07699  0.55617  Biso   1.000  H
  H218     1.0000 0.17730  0.01530  0.57620  Biso   1.000  H
  H219     1.0000 0.46470  0.97570  0.09342  Biso   1.000  H
  C195     1.0000 0.52557  0.00581  0.12749  Biso   1.000  C
  H220     1.0000 0.45291  0.02781  0.12999  Biso   1.000  H
  C196     1.0000 0.57188  0.03500  0.30830  Biso   1.000  C
  H221     1.0000 0.57701  0.05619  0.17621  Biso   1.000  H
  H222     1.0000 0.51528  0.07622  0.17730  Biso   1.000  H
  H223     1.0000 0.45291  0.97219  0.86997  Biso   1.000  H
  H224     1.0000 0.46470  0.02430  0.90658  Biso   1.000  H
  C197     1.0000 0.41371  0.06810  0.64358  Biso   1.000  C
  H225     1.0000 0.40838  0.00270  0.69799  Biso   1.000  H
  H226     1.0000 0.90658  0.03528  0.47568  Biso   1.000  H
  H227     1.0000 0.86997  0.04711  0.52779  Biso   1.000  H
  C198     1.0000 0.64358  0.08631  0.43188  Biso   1.000  C
  H228     1.0000 0.69799  0.09160  0.49728  Biso   1.000  H
  H229     1.0000 0.09342  0.03528  0.52428  Biso   1.000  H
  H230     1.0000 0.12999  0.04711  0.47221  Biso   1.000  H
  C199     1.0000 0.35638  0.08631  0.56808  Biso   1.000  C
  H231     1.0000 0.30201  0.09160  0.50268  Biso   1.000  H
  H232     1.0000 0.54709  0.97219  0.12999  Biso   1.000  H
  H233     1.0000 0.53530  0.02430  0.09342  Biso   1.000  H
  C200     1.0000 0.58629  0.06810  0.35638  Biso   1.000  C
  H234     1.0000 0.59158  0.00270  0.30201  Biso   1.000  H
  C201     1.0000 0.36837  0.05389  0.61398  Biso   1.000  C
  C202     1.0000 0.44609  0.11400  0.63159  Biso   1.000  C
  C203     1.0000 0.63159  0.05389  0.38598  Biso   1.000  C
  C204     1.0000 0.61398  0.13161  0.44609  Biso   1.000  C
  C205     1.0000 0.38598  0.13161  0.55387  Biso   1.000  C
  C206     1.0000 0.55387  0.11400  0.36837  Biso   1.000  C
  H235     1.0000 0.34649  0.02398  0.62387  Biso   1.000  H
  C207     1.0000 0.43188  0.14360  0.58629  Biso   1.000  C
  H236     1.0000 0.47600  0.12389  0.65351  Biso   1.000  H
  H237     1.0000 0.65351  0.02398  0.37608  Biso   1.000  H
  C208     1.0000 0.56808  0.14360  0.41371  Biso   1.000  C
  H238     1.0000 0.62387  0.15349  0.47600  Biso   1.000  H
  H239     1.0000 0.37608  0.15349  0.52400  Biso   1.000  H
  H240     1.0000 0.52400  0.12389  0.34649  Biso   1.000  H
  C209     1.0000 0.46498  0.19172  0.57188  Biso   1.000  C
  C210     1.0000 0.53498  0.19172  0.42808  Biso   1.000  C
  N35      1.0000 0.45271  0.22421  0.53518  Biso   1.000  N
  H241     1.0000 0.49728  0.19801  0.59158  Biso   1.000  H
  N36      1.0000 0.54729  0.22421  0.46478  Biso   1.000  N
  H242     1.0000 0.50268  0.19801  0.40838  Biso   1.000  H
  C211     1.0000 0.48960  0.26999  0.52888  Biso   1.000  C
  C212     1.0000 0.51040  0.26999  0.47108  Biso   1.000  C
  H243     1.0000 0.52021  0.26741  0.55508  Biso   1.000  H
  C213     1.0000 0.45598  0.32231  0.53890  Biso   1.000  C
  H244     1.0000 0.47979  0.26741  0.44488  Biso   1.000  H
  C214     1.0000 0.54398  0.32231  0.46110  Biso   1.000  C
  H245     1.0000 0.44379  0.32381  0.57701  Biso   1.000  H
  H246     1.0000 0.42380  0.32268  0.51528  Biso   1.000  H
  C215     1.0000 0.49421  0.37249  0.52557  Biso   1.000  C
  H247     1.0000 0.55617  0.32381  0.42299  Biso   1.000  H
  H248     1.0000 0.57620  0.32268  0.48468  Biso   1.000  H
  C216     1.0000 0.50579  0.37249  0.47439  Biso   1.000  C
  H249     1.0000 0.47568  0.40660  0.53530  Biso   1.000  H
  H250     1.0000 0.52779  0.36999  0.54709  Biso   1.000  H
  H251     1.0000 0.52428  0.40660  0.46470  Biso   1.000  H
  H252     1.0000 0.47221  0.36999  0.45291  Biso   1.000  H
  C217     1.0000 0.69610  0.38158  0.63599  Biso   1.000  C
  C218     1.0000 0.68189  0.33628  0.60639  Biso   1.000  C
  H253     1.0000 0.72597  0.40350  0.62610  Biso   1.000  H
  C219     1.0000 0.66368  0.39361  0.68189  Biso   1.000  C
  C220     1.0000 0.71499  0.32191  0.55827  Biso   1.000  C
  C221     1.0000 0.63599  0.30390  0.61838  Biso   1.000  C
  C222     1.0000 0.61838  0.36397  0.69610  Biso   1.000  C
  C223     1.0000 0.67809  0.44169  0.71499  Biso   1.000  C
  N37      1.0000 0.70268  0.28521  0.52578  Biso   1.000  N
  H254     1.0000 0.74729  0.34161  0.55198  Biso   1.000  H
  H255     1.0000 0.62610  0.27399  0.59650  Biso   1.000  H
  C224     1.0000 0.60639  0.31811  0.66368  Biso   1.000  C
  H256     1.0000 0.59650  0.37390  0.72597  Biso   1.000  H
  N38      1.0000 0.71479  0.47418  0.70268  Biso   1.000  N
  H257     1.0000 0.65839  0.44798  0.74729  Biso   1.000  H
  C225     1.0000 0.73957  0.27891  0.48000  Biso   1.000  C
  C226     1.0000 0.55827  0.28501  0.67809  Biso   1.000  C
  C227     1.0000 0.72109  0.52000  0.73957  Biso   1.000  C
  C228     1.0000 0.70599  0.28889  0.42768  Biso   1.000  C
  C229     1.0000 0.76041  0.22111  0.48000  Biso   1.000  C
  H258     1.0000 0.77017  0.30511  0.48258  Biso   1.000  H
  N39      1.0000 0.52578  0.29728  0.71479  Biso   1.000  N
  H259     1.0000 0.55198  0.25271  0.65839  Biso   1.000  H
  C230     1.0000 0.77889  0.52000  0.76041  Biso   1.000  C
  H260     1.0000 0.69489  0.51738  0.77017  Biso   1.000  H
  C231     1.0000 0.71107  0.57228  0.70599  Biso   1.000  C
  H261     1.0000 0.69380  0.32700  0.42618  Biso   1.000  H
  H262     1.0000 0.67377  0.26531  0.42727  Biso   1.000  H
  C232     1.0000 0.74418  0.27560  0.37750  Biso   1.000  C
  N40      1.0000 0.79730  0.21481  0.52578  Biso   1.000  N
  H263     1.0000 0.72981  0.19491  0.48258  Biso   1.000  H
  C233     1.0000 0.79399  0.21109  0.42768  Biso   1.000  C
  C234     1.0000 0.48000  0.26039  0.72109  Biso   1.000  C
  N41      1.0000 0.78519  0.47418  0.79730  Biso   1.000  N
  H264     1.0000 0.80509  0.51738  0.72981  Biso   1.000  H
  C235     1.0000 0.78891  0.57228  0.79399  Biso   1.000  C
  H265     1.0000 0.67300  0.57378  0.69380  Biso   1.000  H
  H266     1.0000 0.73469  0.57269  0.67377  Biso   1.000  H
  C236     1.0000 0.72440  0.62250  0.74418  Biso   1.000  C
  C237     1.0000 0.75580  0.22442  0.37750  Biso   1.000  C
  H267     1.0000 0.72569  0.28529  0.34339  Biso   1.000  H
  H268     1.0000 0.77780  0.29708  0.38000  Biso   1.000  H
  C238     1.0000 0.78499  0.17811  0.55827  Biso   1.000  C
  H269     1.0000 0.80618  0.17298  0.42618  Biso   1.000  H
  H270     1.0000 0.82617  0.23471  0.42727  Biso   1.000  H
  C239     1.0000 0.48000  0.23959  0.77889  Biso   1.000  C
  H271     1.0000 0.48258  0.22978  0.69489  Biso   1.000  H
  C240     1.0000 0.42768  0.29401  0.71107  Biso   1.000  C
  C241     1.0000 0.82189  0.44169  0.78499  Biso   1.000  C
  H272     1.0000 0.82698  0.57378  0.80618  Biso   1.000  H
  H273     1.0000 0.76529  0.57269  0.82617  Biso   1.000  H
  C242     1.0000 0.77558  0.62250  0.75580  Biso   1.000  C
  H274     1.0000 0.71471  0.65657  0.72569  Biso   1.000  H
  H275     1.0000 0.70288  0.62000  0.77780  Biso   1.000  H
  H276     1.0000 0.77429  0.21469  0.34339  Biso   1.000  H
  H277     1.0000 0.72218  0.20290  0.38000  Biso   1.000  H
  C243     1.0000 0.81809  0.16370  0.60639  Biso   1.000  C
  H278     1.0000 0.75269  0.15841  0.55198  Biso   1.000  H
  N42      1.0000 0.52578  0.20270  0.78519  Biso   1.000  N
  H279     1.0000 0.48258  0.27019  0.80509  Biso   1.000  H
  C244     1.0000 0.42768  0.20601  0.78891  Biso   1.000  C
  H280     1.0000 0.42618  0.30620  0.67300  Biso   1.000  H
  H281     1.0000 0.42727  0.32619  0.73469  Biso   1.000  H
  C245     1.0000 0.37750  0.25578  0.72440  Biso   1.000  C
  C246     1.0000 0.83630  0.39361  0.81809  Biso   1.000  C
  H282     1.0000 0.84159  0.44798  0.75269  Biso   1.000  H
  H283     1.0000 0.78527  0.65657  0.77429  Biso   1.000  H
  H284     1.0000 0.79710  0.62000  0.72218  Biso   1.000  H
  C247     1.0000 0.80388  0.11840  0.63599  Biso   1.000  C
  C248     1.0000 0.86399  0.19612  0.61838  Biso   1.000  C
  C249     1.0000 0.55827  0.21501  0.82189  Biso   1.000  C
  H285     1.0000 0.42618  0.19382  0.82698  Biso   1.000  H
  H286     1.0000 0.42727  0.17379  0.76529  Biso   1.000  H
  C250     1.0000 0.37750  0.24420  0.77558  Biso   1.000  C
  H287     1.0000 0.34339  0.27431  0.71471  Biso   1.000  H
  H288     1.0000 0.38000  0.22220  0.70288  Biso   1.000  H
  C251     1.0000 0.88160  0.36397  0.80388  Biso   1.000  C
  C252     1.0000 0.80388  0.38158  0.86399  Biso   1.000  C
  H289     1.0000 0.77397  0.09648  0.62610  Biso   1.000  H
  C253     1.0000 0.83630  0.10641  0.68189  Biso   1.000  C
  H290     1.0000 0.87388  0.22599  0.59650  Biso   1.000  H
  C254     1.0000 0.89359  0.18191  0.66368  Biso   1.000  C
  C255     1.0000 0.60639  0.18191  0.83630  Biso   1.000  C
  H291     1.0000 0.55198  0.24731  0.84159  Biso   1.000  H
  H292     1.0000 0.34339  0.22571  0.78527  Biso   1.000  H
  H293     1.0000 0.38000  0.27778  0.79710  Biso   1.000  H
  C256     1.0000 0.89359  0.31811  0.83630  Biso   1.000  C
  H294     1.0000 0.90348  0.37390  0.77397  Biso   1.000  H
  H295     1.0000 0.77397  0.40350  0.87388  Biso   1.000  H
  C257     1.0000 0.81809  0.33628  0.89359  Biso   1.000  C
  C258     1.0000 0.88160  0.13601  0.69610  Biso   1.000  C
  C259     1.0000 0.82189  0.05829  0.71499  Biso   1.000  C
  C260     1.0000 0.94167  0.21501  0.67809  Biso   1.000  C
  C261     1.0000 0.63599  0.19612  0.88160  Biso   1.000  C
  C262     1.0000 0.61838  0.13601  0.80388  Biso   1.000  C
  C263     1.0000 0.94167  0.28501  0.82189  Biso   1.000  C
  C264     1.0000 0.86399  0.30390  0.88160  Biso   1.000  C
  C265     1.0000 0.78499  0.32191  0.94167  Biso   1.000  C
  H296     1.0000 0.90348  0.12612  0.72597  Biso   1.000  H
  N43      1.0000 0.78519  0.02580  0.70268  Biso   1.000  N
  H297     1.0000 0.84159  0.05200  0.74729  Biso   1.000  H
  N44      1.0000 0.97420  0.20270  0.71479  Biso   1.000  N
  H298     1.0000 0.94800  0.24731  0.65839  Biso   1.000  H
  H299     1.0000 0.62610  0.22599  0.90348  Biso   1.000  H
  C266     1.0000 0.68189  0.16370  0.89359  Biso   1.000  C
  C267     1.0000 0.66368  0.10641  0.81809  Biso   1.000  C
  H300     1.0000 0.59650  0.12612  0.77397  Biso   1.000  H
  N45      1.0000 0.97420  0.29728  0.78519  Biso   1.000  N
  H301     1.0000 0.94800  0.25271  0.84159  Biso   1.000  H
  H302     1.0000 0.87388  0.27399  0.90348  Biso   1.000  H
  N46      1.0000 0.79730  0.28521  0.97420  Biso   1.000  N
  H303     1.0000 0.75269  0.34161  0.94800  Biso   1.000  H
  C268     1.0000 0.77889  0.97998  0.73957  Biso   1.000  C
  C269     1.0000 0.01998  0.23959  0.72109  Biso   1.000  C
  C270     1.0000 0.69610  0.11840  0.86399  Biso   1.000  C
  C271     1.0000 0.71499  0.17811  0.94167  Biso   1.000  C
  C272     1.0000 0.67809  0.05829  0.78499  Biso   1.000  C
  C273     1.0000 0.01998  0.26039  0.77889  Biso   1.000  C
  C274     1.0000 0.76041  0.27891  0.01998  Biso   1.000  C
  C275     1.0000 0.72109  0.97998  0.76041  Biso   1.000  C
  H304     1.0000 0.80509  0.98260  0.77017  Biso   1.000  H
  C276     1.0000 0.78891  0.92770  0.70599  Biso   1.000  C
  H305     1.0000 0.01740  0.27019  0.69489  Biso   1.000  H
  C277     1.0000 0.07230  0.20601  0.71107  Biso   1.000  C
  H306     1.0000 0.72597  0.09648  0.87388  Biso   1.000  H
  N47      1.0000 0.70268  0.21481  0.97420  Biso   1.000  N
  H307     1.0000 0.74729  0.15841  0.94800  Biso   1.000  H
  N48      1.0000 0.71479  0.02580  0.79730  Biso   1.000  N
  H308     1.0000 0.65839  0.05200  0.75269  Biso   1.000  H
  H309     1.0000 0.01740  0.22978  0.80509  Biso   1.000  H
  C278     1.0000 0.07230  0.29401  0.78891  Biso   1.000  C
  C279     1.0000 0.73957  0.22111  0.01998  Biso   1.000  C
  H310     1.0000 0.72981  0.30511  0.01740  Biso   1.000  H
  C280     1.0000 0.79399  0.28889  0.07230  Biso   1.000  C
  H311     1.0000 0.69489  0.98260  0.72981  Biso   1.000  H
  C281     1.0000 0.71107  0.92770  0.79399  Biso   1.000  C
  H312     1.0000 0.82698  0.92620  0.69380  Biso   1.000  H
  H313     1.0000 0.76529  0.92729  0.67377  Biso   1.000  H
  C282     1.0000 0.77558  0.87748  0.74418  Biso   1.000  C
  H314     1.0000 0.07380  0.19382  0.67300  Biso   1.000  H
  H315     1.0000 0.07271  0.17379  0.73469  Biso   1.000  H
  C283     1.0000 0.12248  0.24420  0.72440  Biso   1.000  C
  H316     1.0000 0.07380  0.30620  0.82698  Biso   1.000  H
  H317     1.0000 0.07271  0.32619  0.76529  Biso   1.000  H
  C284     1.0000 0.12248  0.25578  0.77558  Biso   1.000  C
  H318     1.0000 0.77017  0.19491  0.01740  Biso   1.000  H
  C285     1.0000 0.70599  0.21109  0.07230  Biso   1.000  C
  H319     1.0000 0.80618  0.32700  0.07380  Biso   1.000  H
  H320     1.0000 0.82617  0.26531  0.07271  Biso   1.000  H
  C286     1.0000 0.75580  0.27560  0.12248  Biso   1.000  C
  H321     1.0000 0.67300  0.92620  0.80618  Biso   1.000  H
  H322     1.0000 0.73469  0.92729  0.82617  Biso   1.000  H
  C287     1.0000 0.72440  0.87748  0.75580  Biso   1.000  C
  H323     1.0000 0.78527  0.84341  0.72569  Biso   1.000  H
  H324     1.0000 0.79710  0.87998  0.77780  Biso   1.000  H
  H325     1.0000 0.15659  0.22571  0.71471  Biso   1.000  H
  H326     1.0000 0.11998  0.27778  0.70288  Biso   1.000  H
  H327     1.0000 0.15659  0.27431  0.78527  Biso   1.000  H
  H328     1.0000 0.11998  0.22220  0.79710  Biso   1.000  H
  H329     1.0000 0.69380  0.17298  0.07380  Biso   1.000  H
  H330     1.0000 0.67377  0.23471  0.07271  Biso   1.000  H
  C288     1.0000 0.74418  0.22442  0.12248  Biso   1.000  C
  H331     1.0000 0.77429  0.28529  0.15659  Biso   1.000  H
  H332     1.0000 0.72218  0.29708  0.11998  Biso   1.000  H
  H333     1.0000 0.71471  0.84341  0.77429  Biso   1.000  H
  H334     1.0000 0.70288  0.87998  0.72218  Biso   1.000  H
  H335     1.0000 0.72569  0.21469  0.15659  Biso   1.000  H
  H336     1.0000 0.77780  0.20290  0.11998  Biso   1.000  H
  C289     1.0000 0.68189  0.66368  0.39361  Biso   1.000  C
  C290     1.0000 0.69610  0.61838  0.36397  Biso   1.000  C
  C291     1.0000 0.63599  0.69610  0.38158  Biso   1.000  C
  C292     1.0000 0.71499  0.67809  0.44169  Biso   1.000  C
  C293     1.0000 0.66368  0.60639  0.31811  Biso   1.000  C
  H337     1.0000 0.72597  0.59650  0.37390  Biso   1.000  H
  C294     1.0000 0.60639  0.68189  0.33628  Biso   1.000  C
  H338     1.0000 0.62610  0.72597  0.40350  Biso   1.000  H
  N49      1.0000 0.70268  0.71479  0.47418  Biso   1.000  N
  H339     1.0000 0.74729  0.65839  0.44798  Biso   1.000  H
  C295     1.0000 0.67809  0.55827  0.28501  Biso   1.000  C
  C296     1.0000 0.61838  0.63599  0.30390  Biso   1.000  C
  C297     1.0000 0.55827  0.71499  0.32191  Biso   1.000  C
  C298     1.0000 0.73957  0.72109  0.52000  Biso   1.000  C
  N50      1.0000 0.71479  0.52578  0.29728  Biso   1.000  N
  H340     1.0000 0.65839  0.55198  0.25271  Biso   1.000  H
  H341     1.0000 0.59650  0.62610  0.27399  Biso   1.000  H
  N51      1.0000 0.52578  0.70268  0.28521  Biso   1.000  N
  H342     1.0000 0.55198  0.74729  0.34161  Biso   1.000  H
  C299     1.0000 0.76041  0.77889  0.52000  Biso   1.000  C
  H343     1.0000 0.77017  0.69489  0.51738  Biso   1.000  H
  C300     1.0000 0.70599  0.71107  0.57228  Biso   1.000  C
  C301     1.0000 0.72109  0.48000  0.26039  Biso   1.000  C
  C302     1.0000 0.48000  0.73957  0.27891  Biso   1.000  C
  N52      1.0000 0.79730  0.78519  0.47418  Biso   1.000  N
  H344     1.0000 0.72981  0.80509  0.51738  Biso   1.000  H
  C303     1.0000 0.79399  0.78891  0.57228  Biso   1.000  C
  H345     1.0000 0.69380  0.67300  0.57378  Biso   1.000  H
  H346     1.0000 0.67377  0.73469  0.57269  Biso   1.000  H
  C304     1.0000 0.74418  0.72440  0.62250  Biso   1.000  C
  C305     1.0000 0.71107  0.42768  0.29401  Biso   1.000  C
  C306     1.0000 0.77889  0.48000  0.23959  Biso   1.000  C
  H347     1.0000 0.69489  0.48258  0.22978  Biso   1.000  H
  C307     1.0000 0.48000  0.76041  0.22111  Biso   1.000  C
  H348     1.0000 0.48258  0.77017  0.30511  Biso   1.000  H
  C308     1.0000 0.42768  0.70599  0.28889  Biso   1.000  C
  C309     1.0000 0.78499  0.82189  0.44169  Biso   1.000  C
  H349     1.0000 0.80618  0.82698  0.57378  Biso   1.000  H
  H350     1.0000 0.82617  0.76529  0.57269  Biso   1.000  H
  C310     1.0000 0.75580  0.77558  0.62250  Biso   1.000  C
  H351     1.0000 0.72569  0.71471  0.65657  Biso   1.000  H
  H352     1.0000 0.77780  0.70288  0.62000  Biso   1.000  H
  C311     1.0000 0.72440  0.37750  0.25578  Biso   1.000  C
  H353     1.0000 0.67300  0.42618  0.30620  Biso   1.000  H
  H354     1.0000 0.73469  0.42727  0.32619  Biso   1.000  H
  C312     1.0000 0.78891  0.42768  0.20601  Biso   1.000  C
  N53      1.0000 0.78519  0.52578  0.20270  Biso   1.000  N
  H355     1.0000 0.80509  0.48258  0.27019  Biso   1.000  H
  N54      1.0000 0.52578  0.79730  0.21481  Biso   1.000  N
  H356     1.0000 0.48258  0.72981  0.19491  Biso   1.000  H
  C313     1.0000 0.42768  0.79399  0.21109  Biso   1.000  C
  H357     1.0000 0.42618  0.69380  0.32700  Biso   1.000  H
  H358     1.0000 0.42727  0.67377  0.26531  Biso   1.000  H
  C314     1.0000 0.37750  0.74418  0.27560  Biso   1.000  C
  C315     1.0000 0.81809  0.83630  0.39361  Biso   1.000  C
  H359     1.0000 0.75269  0.84159  0.44798  Biso   1.000  H
  H360     1.0000 0.77429  0.78527  0.65657  Biso   1.000  H
  H361     1.0000 0.72218  0.79710  0.62000  Biso   1.000  H
  C316     1.0000 0.77558  0.37750  0.24420  Biso   1.000  C
  H362     1.0000 0.71471  0.34339  0.27431  Biso   1.000  H
  H363     1.0000 0.70288  0.38000  0.22220  Biso   1.000  H
  H364     1.0000 0.82698  0.42618  0.19382  Biso   1.000  H
  H365     1.0000 0.76529  0.42727  0.17379  Biso   1.000  H
  C317     1.0000 0.82189  0.55827  0.21501  Biso   1.000  C
  C318     1.0000 0.55827  0.78499  0.17811  Biso   1.000  C
  H366     1.0000 0.42618  0.80618  0.17298  Biso   1.000  H
  H367     1.0000 0.42727  0.82617  0.23471  Biso   1.000  H
  C319     1.0000 0.37750  0.75580  0.22442  Biso   1.000  C
  H368     1.0000 0.34339  0.72569  0.28529  Biso   1.000  H
  H369     1.0000 0.38000  0.77780  0.29708  Biso   1.000  H
  C320     1.0000 0.86399  0.80388  0.38158  Biso   1.000  C
  C321     1.0000 0.80388  0.88160  0.36397  Biso   1.000  C
  H370     1.0000 0.78527  0.34339  0.22571  Biso   1.000  H
  H371     1.0000 0.79710  0.38000  0.27778  Biso   1.000  H
  C322     1.0000 0.83630  0.60639  0.18191  Biso   1.000  C
  H372     1.0000 0.84159  0.55198  0.24731  Biso   1.000  H
  C323     1.0000 0.60639  0.81809  0.16370  Biso   1.000  C
  H373     1.0000 0.55198  0.75269  0.15841  Biso   1.000  H
  H374     1.0000 0.34339  0.77429  0.21469  Biso   1.000  H
  H375     1.0000 0.38000  0.72218  0.20290  Biso   1.000  H
  C324     1.0000 0.89359  0.81809  0.33628  Biso   1.000  C
  H376     1.0000 0.87388  0.77397  0.40350  Biso   1.000  H
  H377     1.0000 0.77397  0.90348  0.37390  Biso   1.000  H
  C325     1.0000 0.83630  0.89359  0.31811  Biso   1.000  C
  C326     1.0000 0.80388  0.61838  0.13601  Biso   1.000  C
  C327     1.0000 0.88160  0.63599  0.19612  Biso   1.000  C
  C328     1.0000 0.63599  0.80388  0.11840  Biso   1.000  C
  C329     1.0000 0.61838  0.86399  0.19612  Biso   1.000  C
  C330     1.0000 0.94167  0.78499  0.32191  Biso   1.000  C
  C331     1.0000 0.88160  0.86399  0.30390  Biso   1.000  C
  C332     1.0000 0.82189  0.94167  0.28501  Biso   1.000  C
  H378     1.0000 0.77397  0.59650  0.12612  Biso   1.000  H
  C333     1.0000 0.81809  0.66368  0.10641  Biso   1.000  C
  H379     1.0000 0.90348  0.62610  0.22599  Biso   1.000  H
  C334     1.0000 0.89359  0.68189  0.16370  Biso   1.000  C
  C335     1.0000 0.68189  0.83630  0.10641  Biso   1.000  C
  H380     1.0000 0.62610  0.77397  0.09648  Biso   1.000  H
  H381     1.0000 0.59650  0.87388  0.22599  Biso   1.000  H
  C336     1.0000 0.66368  0.89359  0.18191  Biso   1.000  C
  N55      1.0000 0.97420  0.79730  0.28521  Biso   1.000  N
  H382     1.0000 0.94800  0.75269  0.34161  Biso   1.000  H
  H383     1.0000 0.90348  0.87388  0.27399  Biso   1.000  H
  N56      1.0000 0.78519  0.97420  0.29728  Biso   1.000  N
  H384     1.0000 0.84159  0.94800  0.25271  Biso   1.000  H
  C337     1.0000 0.86399  0.69610  0.11840  Biso   1.000  C
  C338     1.0000 0.78499  0.67809  0.05829  Biso   1.000  C
  C339     1.0000 0.94167  0.71499  0.17811  Biso   1.000  C
  C340     1.0000 0.71499  0.82189  0.05829  Biso   1.000  C
  C341     1.0000 0.69610  0.88160  0.13601  Biso   1.000  C
  C342     1.0000 0.67809  0.94167  0.21501  Biso   1.000  C
  C343     1.0000 0.01998  0.76041  0.27891  Biso   1.000  C
  C344     1.0000 0.77889  0.01998  0.26039  Biso   1.000  C
  H385     1.0000 0.87388  0.72597  0.09648  Biso   1.000  H
  N57      1.0000 0.79730  0.71479  0.02580  Biso   1.000  N
  H386     1.0000 0.75269  0.65839  0.05200  Biso   1.000  H
  N58      1.0000 0.97420  0.70268  0.21481  Biso   1.000  N
  H387     1.0000 0.94800  0.74729  0.15841  Biso   1.000  H
  N59      1.0000 0.70268  0.78519  0.02580  Biso   1.000  N
  H388     1.0000 0.74729  0.84159  0.05200  Biso   1.000  H
  H389     1.0000 0.72597  0.90348  0.12612  Biso   1.000  H
  N60      1.0000 0.71479  0.97420  0.20270  Biso   1.000  N
  H390     1.0000 0.65839  0.94800  0.24731  Biso   1.000  H
  C345     1.0000 0.01998  0.73957  0.22111  Biso   1.000  C
  H391     1.0000 0.01740  0.72981  0.30511  Biso   1.000  H
  C346     1.0000 0.07230  0.79399  0.28889  Biso   1.000  C
  C347     1.0000 0.72109  0.01998  0.23959  Biso   1.000  C
  H392     1.0000 0.80509  0.01740  0.22978  Biso   1.000  H
  C348     1.0000 0.78891  0.07230  0.29401  Biso   1.000  C
  C349     1.0000 0.76041  0.72109  0.97998  Biso   1.000  C
  C350     1.0000 0.73957  0.77889  0.97998  Biso   1.000  C
  H393     1.0000 0.01740  0.77017  0.19491  Biso   1.000  H
  C351     1.0000 0.07230  0.70599  0.21109  Biso   1.000  C
  H394     1.0000 0.07380  0.80618  0.32700  Biso   1.000  H
  H395     1.0000 0.07271  0.82617  0.26531  Biso   1.000  H
  C352     1.0000 0.12248  0.75580  0.27560  Biso   1.000  C
  H396     1.0000 0.69489  0.01740  0.27019  Biso   1.000  H
  C353     1.0000 0.71107  0.07230  0.20601  Biso   1.000  C
  H397     1.0000 0.82698  0.07380  0.30620  Biso   1.000  H
  H398     1.0000 0.76529  0.07271  0.32619  Biso   1.000  H
  C354     1.0000 0.77558  0.12248  0.25578  Biso   1.000  C
  H399     1.0000 0.72981  0.69489  0.98260  Biso   1.000  H
  C355     1.0000 0.79399  0.71107  0.92770  Biso   1.000  C
  H400     1.0000 0.77017  0.80509  0.98260  Biso   1.000  H
  C356     1.0000 0.70599  0.78891  0.92770  Biso   1.000  C
  H401     1.0000 0.07380  0.69380  0.17298  Biso   1.000  H
  H402     1.0000 0.07271  0.67377  0.23471  Biso   1.000  H
  C357     1.0000 0.12248  0.74418  0.22442  Biso   1.000  C
  H403     1.0000 0.15659  0.77429  0.28529  Biso   1.000  H
  H404     1.0000 0.11998  0.72218  0.29708  Biso   1.000  H
  H405     1.0000 0.67300  0.07380  0.19382  Biso   1.000  H
  H406     1.0000 0.73469  0.07271  0.17379  Biso   1.000  H
  C358     1.0000 0.72440  0.12248  0.24420  Biso   1.000  C
  H407     1.0000 0.78527  0.15659  0.27431  Biso   1.000  H
  H408     1.0000 0.79710  0.11998  0.22220  Biso   1.000  H
  H409     1.0000 0.80618  0.67300  0.92620  Biso   1.000  H
  H410     1.0000 0.82617  0.73469  0.92729  Biso   1.000  H
  C359     1.0000 0.75580  0.72440  0.87748  Biso   1.000  C
  H411     1.0000 0.69380  0.82698  0.92620  Biso   1.000  H
  H412     1.0000 0.67377  0.76529  0.92729  Biso   1.000  H
  C360     1.0000 0.74418  0.77558  0.87748  Biso   1.000  C
  H413     1.0000 0.15659  0.72569  0.21469  Biso   1.000  H
  H414     1.0000 0.11998  0.77780  0.20290  Biso   1.000  H
  H415     1.0000 0.71471  0.15659  0.22571  Biso   1.000  H
  H416     1.0000 0.70288  0.11998  0.27778  Biso   1.000  H
  H417     1.0000 0.77429  0.71471  0.84341  Biso   1.000  H
  H418     1.0000 0.72218  0.70288  0.87998  Biso   1.000  H
  H419     1.0000 0.72569  0.78527  0.84341  Biso   1.000  H
  H420     1.0000 0.77780  0.79710  0.87998  Biso   1.000  H
  C361     1.0000 0.38158  0.63599  0.69610  Biso   1.000  C
  C362     1.0000 0.33628  0.60639  0.68189  Biso   1.000  C
  H421     1.0000 0.40350  0.62610  0.72597  Biso   1.000  H
  C363     1.0000 0.39361  0.68189  0.66368  Biso   1.000  C
  C364     1.0000 0.32191  0.55827  0.71499  Biso   1.000  C
  C365     1.0000 0.30390  0.61838  0.63599  Biso   1.000  C
  C366     1.0000 0.36397  0.69610  0.61838  Biso   1.000  C
  C367     1.0000 0.44169  0.71499  0.67809  Biso   1.000  C
  N61      1.0000 0.28521  0.52578  0.70268  Biso   1.000  N
  H422     1.0000 0.34161  0.55198  0.74729  Biso   1.000  H
  H423     1.0000 0.27399  0.59650  0.62610  Biso   1.000  H
  C368     1.0000 0.31811  0.66368  0.60639  Biso   1.000  C
  H424     1.0000 0.37390  0.72597  0.59650  Biso   1.000  H
  N62      1.0000 0.47418  0.70268  0.71479  Biso   1.000  N
  H425     1.0000 0.44798  0.74729  0.65839  Biso   1.000  H
  C369     1.0000 0.27891  0.48000  0.73957  Biso   1.000  C
  C370     1.0000 0.28501  0.67809  0.55827  Biso   1.000  C
  C371     1.0000 0.52000  0.73957  0.72109  Biso   1.000  C
  C372     1.0000 0.28889  0.42768  0.70599  Biso   1.000  C
  C373     1.0000 0.22111  0.48000  0.76041  Biso   1.000  C
  H426     1.0000 0.30511  0.48258  0.77017  Biso   1.000  H
  N63      1.0000 0.29728  0.71479  0.52578  Biso   1.000  N
  H427     1.0000 0.25271  0.65839  0.55198  Biso   1.000  H
  C374     1.0000 0.52000  0.76041  0.77889  Biso   1.000  C
  H428     1.0000 0.51738  0.77017  0.69489  Biso   1.000  H
  C375     1.0000 0.57228  0.70599  0.71107  Biso   1.000  C
  H429     1.0000 0.32700  0.42618  0.69380  Biso   1.000  H
  H430     1.0000 0.26531  0.42727  0.67377  Biso   1.000  H
  C376     1.0000 0.27560  0.37750  0.74418  Biso   1.000  C
  N64      1.0000 0.21481  0.52578  0.79730  Biso   1.000  N
  H431     1.0000 0.19491  0.48258  0.72981  Biso   1.000  H
  C377     1.0000 0.21109  0.42768  0.79399  Biso   1.000  C
  C378     1.0000 0.26039  0.72109  0.48000  Biso   1.000  C
  N65      1.0000 0.47418  0.79730  0.78519  Biso   1.000  N
  H432     1.0000 0.51738  0.72981  0.80509  Biso   1.000  H
  C379     1.0000 0.57228  0.79399  0.78891  Biso   1.000  C
  H433     1.0000 0.57378  0.69380  0.67300  Biso   1.000  H
  H434     1.0000 0.57269  0.67377  0.73469  Biso   1.000  H
  C380     1.0000 0.62250  0.74418  0.72440  Biso   1.000  C
  C381     1.0000 0.22442  0.37750  0.75580  Biso   1.000  C
  H435     1.0000 0.28529  0.34339  0.72569  Biso   1.000  H
  H436     1.0000 0.29708  0.38000  0.77780  Biso   1.000  H
  C382     1.0000 0.17811  0.55827  0.78499  Biso   1.000  C
  H437     1.0000 0.17298  0.42618  0.80618  Biso   1.000  H
  H438     1.0000 0.23471  0.42727  0.82617  Biso   1.000  H
  C383     1.0000 0.23959  0.77889  0.48000  Biso   1.000  C
  H439     1.0000 0.22978  0.69489  0.48258  Biso   1.000  H
  C384     1.0000 0.29401  0.71107  0.42768  Biso   1.000  C
  C385     1.0000 0.44169  0.78499  0.82189  Biso   1.000  C
  H440     1.0000 0.57378  0.80618  0.82698  Biso   1.000  H
  H441     1.0000 0.57269  0.82617  0.76529  Biso   1.000  H
  C386     1.0000 0.62250  0.75580  0.77558  Biso   1.000  C
  H442     1.0000 0.65657  0.72569  0.71471  Biso   1.000  H
  H443     1.0000 0.62000  0.77780  0.70288  Biso   1.000  H
  H444     1.0000 0.21469  0.34339  0.77429  Biso   1.000  H
  H445     1.0000 0.20290  0.38000  0.72218  Biso   1.000  H
  C387     1.0000 0.16370  0.60639  0.81809  Biso   1.000  C
  H446     1.0000 0.15841  0.55198  0.75269  Biso   1.000  H
  N66      1.0000 0.20270  0.78519  0.52578  Biso   1.000  N
  H447     1.0000 0.27019  0.80509  0.48258  Biso   1.000  H
  C388     1.0000 0.20601  0.78891  0.42768  Biso   1.000  C
  H448     1.0000 0.30620  0.67300  0.42618  Biso   1.000  H
  H449     1.0000 0.32619  0.73469  0.42727  Biso   1.000  H
  C389     1.0000 0.25578  0.72440  0.37750  Biso   1.000  C
  C390     1.0000 0.39361  0.81809  0.83630  Biso   1.000  C
  H450     1.0000 0.44798  0.75269  0.84159  Biso   1.000  H
  H451     1.0000 0.65657  0.77429  0.78527  Biso   1.000  H
  H452     1.0000 0.62000  0.72218  0.79710  Biso   1.000  H
  C391     1.0000 0.11840  0.63599  0.80388  Biso   1.000  C
  C392     1.0000 0.19612  0.61838  0.86399  Biso   1.000  C
  C393     1.0000 0.21501  0.82189  0.55827  Biso   1.000  C
  H453     1.0000 0.19382  0.82698  0.42618  Biso   1.000  H
  H454     1.0000 0.17379  0.76529  0.42727  Biso   1.000  H
  C394     1.0000 0.24420  0.77558  0.37750  Biso   1.000  C
  H455     1.0000 0.27431  0.71471  0.34339  Biso   1.000  H
  H456     1.0000 0.22220  0.70288  0.38000  Biso   1.000  H
  C395     1.0000 0.38158  0.86399  0.80388  Biso   1.000  C
  C396     1.0000 0.36397  0.80388  0.88160  Biso   1.000  C
  H457     1.0000 0.09648  0.62610  0.77397  Biso   1.000  H
  C397     1.0000 0.10641  0.68189  0.83630  Biso   1.000  C
  H458     1.0000 0.22599  0.59650  0.87388  Biso   1.000  H
  C398     1.0000 0.18191  0.66368  0.89359  Biso   1.000  C
  C399     1.0000 0.18191  0.83630  0.60639  Biso   1.000  C
  H459     1.0000 0.24731  0.84159  0.55198  Biso   1.000  H
  H460     1.0000 0.22571  0.78527  0.34339  Biso   1.000  H
  H461     1.0000 0.27778  0.79710  0.38000  Biso   1.000  H
  H462     1.0000 0.40350  0.87388  0.77397  Biso   1.000  H
  C400     1.0000 0.33628  0.89359  0.81809  Biso   1.000  C
  C401     1.0000 0.31811  0.83630  0.89359  Biso   1.000  C
  H463     1.0000 0.37390  0.77397  0.90348  Biso   1.000  H
  C402     1.0000 0.13601  0.69610  0.88160  Biso   1.000  C
  C403     1.0000 0.05829  0.71499  0.82189  Biso   1.000  C
  C404     1.0000 0.21501  0.67809  0.94167  Biso   1.000  C
  C405     1.0000 0.19612  0.88160  0.63599  Biso   1.000  C
  C406     1.0000 0.13601  0.80388  0.61838  Biso   1.000  C
  C407     1.0000 0.30390  0.88160  0.86399  Biso   1.000  C
  C408     1.0000 0.32191  0.94167  0.78499  Biso   1.000  C
  C409     1.0000 0.28501  0.82189  0.94167  Biso   1.000  C
  H464     1.0000 0.12612  0.72597  0.90348  Biso   1.000  H
  N67      1.0000 0.02580  0.70268  0.78519  Biso   1.000  N
  H465     1.0000 0.05200  0.74729  0.84159  Biso   1.000  H
  N68      1.0000 0.20270  0.71479  0.97420  Biso   1.000  N
  H466     1.0000 0.24731  0.65839  0.94800  Biso   1.000  H
  H467     1.0000 0.22599  0.90348  0.62610  Biso   1.000  H
  C410     1.0000 0.16370  0.89359  0.68189  Biso   1.000  C
  C411     1.0000 0.10641  0.81809  0.66368  Biso   1.000  C
  H468     1.0000 0.12612  0.77397  0.59650  Biso   1.000  H
  H469     1.0000 0.27399  0.90348  0.87388  Biso   1.000  H
  N69      1.0000 0.28521  0.97420  0.79730  Biso   1.000  N
  H470     1.0000 0.34161  0.94800  0.75269  Biso   1.000  H
  N70      1.0000 0.29728  0.78519  0.97420  Biso   1.000  N
  H471     1.0000 0.25271  0.84159  0.94800  Biso   1.000  H
  C412     1.0000 0.97998  0.73957  0.77889  Biso   1.000  C
  C413     1.0000 0.23959  0.72109  0.01998  Biso   1.000  C
  C414     1.0000 0.11840  0.86399  0.69610  Biso   1.000  C
  C415     1.0000 0.17811  0.94167  0.71499  Biso   1.000  C
  C416     1.0000 0.05829  0.78499  0.67809  Biso   1.000  C
  C417     1.0000 0.27891  0.01998  0.76041  Biso   1.000  C
  C418     1.0000 0.26039  0.77889  0.01998  Biso   1.000  C
  C419     1.0000 0.97998  0.76041  0.72109  Biso   1.000  C
  H472     1.0000 0.98260  0.77017  0.80509  Biso   1.000  H
  C420     1.0000 0.92770  0.70599  0.78891  Biso   1.000  C
  H473     1.0000 0.27019  0.69489  0.01740  Biso   1.000  H
  C421     1.0000 0.20601  0.71107  0.07230  Biso   1.000  C
  H474     1.0000 0.09648  0.87388  0.72597  Biso   1.000  H
  N71      1.0000 0.21481  0.97420  0.70268  Biso   1.000  N
  H475     1.0000 0.15841  0.94800  0.74729  Biso   1.000  H
  N72      1.0000 0.02580  0.79730  0.71479  Biso   1.000  N
  H476     1.0000 0.05200  0.75269  0.65839  Biso   1.000  H
  C422     1.0000 0.22111  0.01998  0.73957  Biso   1.000  C
  H477     1.0000 0.30511  0.01740  0.72981  Biso   1.000  H
  C423     1.0000 0.28889  0.07230  0.79399  Biso   1.000  C
  H478     1.0000 0.22978  0.80509  0.01740  Biso   1.000  H
  C424     1.0000 0.29401  0.78891  0.07230  Biso   1.000  C
  H479     1.0000 0.98260  0.72981  0.69489  Biso   1.000  H
  C425     1.0000 0.92770  0.79399  0.71107  Biso   1.000  C
  H480     1.0000 0.92620  0.69380  0.82698  Biso   1.000  H
  H481     1.0000 0.92729  0.67377  0.76529  Biso   1.000  H
  C426     1.0000 0.87748  0.74418  0.77558  Biso   1.000  C
  H482     1.0000 0.19382  0.67300  0.07380  Biso   1.000  H
  H483     1.0000 0.17379  0.73469  0.07271  Biso   1.000  H
  C427     1.0000 0.24420  0.72440  0.12248  Biso   1.000  C
  H484     1.0000 0.19491  0.01740  0.77017  Biso   1.000  H
  C428     1.0000 0.21109  0.07230  0.70599  Biso   1.000  C
  H485     1.0000 0.32700  0.07380  0.80618  Biso   1.000  H
  H486     1.0000 0.26531  0.07271  0.82617  Biso   1.000  H
  C429     1.0000 0.27560  0.12248  0.75580  Biso   1.000  C
  H487     1.0000 0.30620  0.82698  0.07380  Biso   1.000  H
  H488     1.0000 0.32619  0.76529  0.07271  Biso   1.000  H
  C430     1.0000 0.25578  0.77558  0.12248  Biso   1.000  C
  H489     1.0000 0.92620  0.80618  0.67300  Biso   1.000  H
  H490     1.0000 0.92729  0.82617  0.73469  Biso   1.000  H
  C431     1.0000 0.87748  0.75580  0.72440  Biso   1.000  C
  H491     1.0000 0.84341  0.72569  0.78527  Biso   1.000  H
  H492     1.0000 0.87998  0.77780  0.79710  Biso   1.000  H
  H493     1.0000 0.22571  0.71471  0.15659  Biso   1.000  H
  H494     1.0000 0.27778  0.70288  0.11998  Biso   1.000  H
  H495     1.0000 0.17298  0.07380  0.69380  Biso   1.000  H
  H496     1.0000 0.23471  0.07271  0.67377  Biso   1.000  H
  C432     1.0000 0.22442  0.12248  0.74418  Biso   1.000  C
  H497     1.0000 0.28529  0.15659  0.77429  Biso   1.000  H
  H498     1.0000 0.29708  0.11998  0.72218  Biso   1.000  H
  H499     1.0000 0.27431  0.78527  0.15659  Biso   1.000  H
  H500     1.0000 0.22220  0.79710  0.11998  Biso   1.000  H
  H501     1.0000 0.84341  0.77429  0.71471  Biso   1.000  H
  H502     1.0000 0.87998  0.72218  0.70288  Biso   1.000  H
  H503     1.0000 0.21469  0.15659  0.72569  Biso   1.000  H
  H504     1.0000 0.20290  0.11998  0.77780  Biso   1.000  H
  C433     1.0000 0.38158  0.36397  0.30390  Biso   1.000  C
  C434     1.0000 0.39361  0.31811  0.33628  Biso   1.000  C
  H505     1.0000 0.40350  0.37390  0.27399  Biso   1.000  H
  C435     1.0000 0.33628  0.39361  0.31811  Biso   1.000  C
  C436     1.0000 0.36397  0.30390  0.38158  Biso   1.000  C
  C437     1.0000 0.44169  0.28501  0.32191  Biso   1.000  C
  C438     1.0000 0.30390  0.38158  0.36397  Biso   1.000  C
  C439     1.0000 0.32191  0.44169  0.28501  Biso   1.000  C
  H506     1.0000 0.37390  0.27399  0.40350  Biso   1.000  H
  C440     1.0000 0.31811  0.33628  0.39361  Biso   1.000  C
  N73      1.0000 0.47418  0.29728  0.28521  Biso   1.000  N
  H507     1.0000 0.44798  0.25271  0.34161  Biso   1.000  H
  H508     1.0000 0.27399  0.40350  0.37390  Biso   1.000  H
  N74      1.0000 0.28521  0.47418  0.29728  Biso   1.000  N
  H509     1.0000 0.34161  0.44798  0.25271  Biso   1.000  H
  C441     1.0000 0.28501  0.32191  0.44169  Biso   1.000  C
  C442     1.0000 0.52000  0.26039  0.27891  Biso   1.000  C
  C443     1.0000 0.27891  0.52000  0.26039  Biso   1.000  C
  N75      1.0000 0.29728  0.28521  0.47418  Biso   1.000  N
  H510     1.0000 0.25271  0.34161  0.44798  Biso   1.000  H
  C444     1.0000 0.52000  0.23959  0.22111  Biso   1.000  C
  H511     1.0000 0.51738  0.22978  0.30511  Biso   1.000  H
  C445     1.0000 0.57228  0.29401  0.28889  Biso   1.000  C
  C446     1.0000 0.22111  0.52000  0.23959  Biso   1.000  C
  H512     1.0000 0.30511  0.51738  0.22978  Biso   1.000  H
  C447     1.0000 0.28889  0.57228  0.29401  Biso   1.000  C
  C448     1.0000 0.26039  0.27891  0.52000  Biso   1.000  C
  N76      1.0000 0.47418  0.20270  0.21481  Biso   1.000  N
  H513     1.0000 0.51738  0.27019  0.19491  Biso   1.000  H
  C449     1.0000 0.57228  0.20601  0.21109  Biso   1.000  C
  H514     1.0000 0.57378  0.30620  0.32700  Biso   1.000  H
  H515     1.0000 0.57269  0.32619  0.26531  Biso   1.000  H
  C450     1.0000 0.62250  0.25578  0.27560  Biso   1.000  C
  N77      1.0000 0.21481  0.47418  0.20270  Biso   1.000  N
  H516     1.0000 0.19491  0.51738  0.27019  Biso   1.000  H
  C451     1.0000 0.21109  0.57228  0.20601  Biso   1.000  C
  H517     1.0000 0.32700  0.57378  0.30620  Biso   1.000  H
  H518     1.0000 0.26531  0.57269  0.32619  Biso   1.000  H
  C452     1.0000 0.27560  0.62250  0.25578  Biso   1.000  C
  C453     1.0000 0.23959  0.22111  0.52000  Biso   1.000  C
  H519     1.0000 0.22978  0.30511  0.51738  Biso   1.000  H
  C454     1.0000 0.29401  0.28889  0.57228  Biso   1.000  C
  C455     1.0000 0.44169  0.21501  0.17811  Biso   1.000  C
  H520     1.0000 0.57378  0.19382  0.17298  Biso   1.000  H
  H521     1.0000 0.57269  0.17379  0.23471  Biso   1.000  H
  C456     1.0000 0.62250  0.24420  0.22442  Biso   1.000  C
  H522     1.0000 0.65657  0.27431  0.28529  Biso   1.000  H
  H523     1.0000 0.62000  0.22220  0.29708  Biso   1.000  H
  C457     1.0000 0.17811  0.44169  0.21501  Biso   1.000  C
  H524     1.0000 0.17298  0.57378  0.19382  Biso   1.000  H
  H525     1.0000 0.23471  0.57269  0.17379  Biso   1.000  H
  C458     1.0000 0.22442  0.62250  0.24420  Biso   1.000  C
  H526     1.0000 0.28529  0.65657  0.27431  Biso   1.000  H
  H527     1.0000 0.29708  0.62000  0.22220  Biso   1.000  H
  N78      1.0000 0.20270  0.21481  0.47418  Biso   1.000  N
  H528     1.0000 0.27019  0.19491  0.51738  Biso   1.000  H
  C459     1.0000 0.20601  0.21109  0.57228  Biso   1.000  C
  H529     1.0000 0.30620  0.32700  0.57378  Biso   1.000  H
  H530     1.0000 0.32619  0.26531  0.57269  Biso   1.000  H
  C460     1.0000 0.25578  0.27560  0.62250  Biso   1.000  C
  C461     1.0000 0.39361  0.18191  0.16370  Biso   1.000  C
  H531     1.0000 0.44798  0.24731  0.15841  Biso   1.000  H
  H532     1.0000 0.65657  0.22571  0.21469  Biso   1.000  H
  H533     1.0000 0.62000  0.27778  0.20290  Biso   1.000  H
  C462     1.0000 0.16370  0.39361  0.18191  Biso   1.000  C
  H534     1.0000 0.15841  0.44798  0.24731  Biso   1.000  H
  H535     1.0000 0.21469  0.65657  0.22571  Biso   1.000  H
  H536     1.0000 0.20290  0.62000  0.27778  Biso   1.000  H
  C463     1.0000 0.21501  0.17811  0.44169  Biso   1.000  C
  H537     1.0000 0.19382  0.17298  0.57378  Biso   1.000  H
  H538     1.0000 0.17379  0.23471  0.57269  Biso   1.000  H
  C464     1.0000 0.24420  0.22442  0.62250  Biso   1.000  C
  H539     1.0000 0.27431  0.28529  0.65657  Biso   1.000  H
  H540     1.0000 0.22220  0.29708  0.62000  Biso   1.000  H
  C465     1.0000 0.38158  0.13601  0.19612  Biso   1.000  C
  C466     1.0000 0.36397  0.19612  0.11840  Biso   1.000  C
  C467     1.0000 0.19612  0.38158  0.13601  Biso   1.000  C
  C468     1.0000 0.11840  0.36397  0.19612  Biso   1.000  C
  C469     1.0000 0.18191  0.16370  0.39361  Biso   1.000  C
  H541     1.0000 0.24731  0.15841  0.44798  Biso   1.000  H
  H542     1.0000 0.22571  0.21469  0.65657  Biso   1.000  H
  H543     1.0000 0.27778  0.20290  0.62000  Biso   1.000  H
  H544     1.0000 0.40350  0.12612  0.22599  Biso   1.000  H
  C470     1.0000 0.33628  0.10641  0.18191  Biso   1.000  C
  H545     1.0000 0.37390  0.22599  0.09648  Biso   1.000  H
  C471     1.0000 0.31811  0.16370  0.10641  Biso   1.000  C
  H546     1.0000 0.22599  0.40350  0.12612  Biso   1.000  H
  C472     1.0000 0.18191  0.33628  0.10641  Biso   1.000  C
  H547     1.0000 0.09648  0.37390  0.22599  Biso   1.000  H
  C473     1.0000 0.10641  0.31811  0.16370  Biso   1.000  C
  C474     1.0000 0.13601  0.19612  0.38158  Biso   1.000  C
  C475     1.0000 0.19612  0.11840  0.36397  Biso   1.000  C
  C476     1.0000 0.30390  0.11840  0.13601  Biso   1.000  C
  C477     1.0000 0.32191  0.05829  0.21501  Biso   1.000  C
  C478     1.0000 0.28501  0.17811  0.05829  Biso   1.000  C
  C479     1.0000 0.13601  0.30390  0.11840  Biso   1.000  C
  C480     1.0000 0.21501  0.32191  0.05829  Biso   1.000  C
  C481     1.0000 0.05829  0.28501  0.17811  Biso   1.000  C
  H548     1.0000 0.12612  0.22599  0.40350  Biso   1.000  H
  C482     1.0000 0.10641  0.18191  0.33628  Biso   1.000  C
  H549     1.0000 0.22599  0.09648  0.37390  Biso   1.000  H
  C483     1.0000 0.16370  0.10641  0.31811  Biso   1.000  C
  H550     1.0000 0.27399  0.09648  0.12612  Biso   1.000  H
  N79      1.0000 0.28521  0.02580  0.20270  Biso   1.000  N
  H551     1.0000 0.34161  0.05200  0.24731  Biso   1.000  H
  N80      1.0000 0.29728  0.21481  0.02580  Biso   1.000  N
  H552     1.0000 0.25271  0.15841  0.05200  Biso   1.000  H
  H553     1.0000 0.12612  0.27399  0.09648  Biso   1.000  H
  N81      1.0000 0.20270  0.28521  0.02580  Biso   1.000  N
  H554     1.0000 0.24731  0.34161  0.05200  Biso   1.000  H
  N82      1.0000 0.02580  0.29728  0.21481  Biso   1.000  N
  H555     1.0000 0.05200  0.25271  0.15841  Biso   1.000  H
  C484     1.0000 0.11840  0.13601  0.30390  Biso   1.000  C
  C485     1.0000 0.05829  0.21501  0.32191  Biso   1.000  C
  C486     1.0000 0.17811  0.05829  0.28501  Biso   1.000  C
  C487     1.0000 0.27891  0.97998  0.23959  Biso   1.000  C
  C488     1.0000 0.26039  0.22111  0.97998  Biso   1.000  C
  C489     1.0000 0.23959  0.27891  0.97998  Biso   1.000  C
  C490     1.0000 0.97998  0.26039  0.22111  Biso   1.000  C
  H556     1.0000 0.09648  0.12612  0.27399  Biso   1.000  H
  N83      1.0000 0.02580  0.20270  0.28521  Biso   1.000  N
  H557     1.0000 0.05200  0.24731  0.34161  Biso   1.000  H
  N84      1.0000 0.21481  0.02580  0.29728  Biso   1.000  N
  H558     1.0000 0.15841  0.05200  0.25271  Biso   1.000  H
  C491     1.0000 0.22111  0.97998  0.26039  Biso   1.000  C
  H559     1.0000 0.30511  0.98260  0.27019  Biso   1.000  H
  C492     1.0000 0.28889  0.92770  0.20601  Biso   1.000  C
  H560     1.0000 0.22978  0.19491  0.98260  Biso   1.000  H
  C493     1.0000 0.29401  0.21109  0.92770  Biso   1.000  C
  H561     1.0000 0.27019  0.30511  0.98260  Biso   1.000  H
  C494     1.0000 0.20601  0.28889  0.92770  Biso   1.000  C
  C495     1.0000 0.97998  0.23959  0.27891  Biso   1.000  C
  H562     1.0000 0.98260  0.22978  0.19491  Biso   1.000  H
  C496     1.0000 0.92770  0.29401  0.21109  Biso   1.000  C
  H563     1.0000 0.19491  0.98260  0.22978  Biso   1.000  H
  C497     1.0000 0.21109  0.92770  0.29401  Biso   1.000  C
  H564     1.0000 0.32700  0.92620  0.19382  Biso   1.000  H
  H565     1.0000 0.26531  0.92729  0.17379  Biso   1.000  H
  C498     1.0000 0.27560  0.87748  0.24420  Biso   1.000  C
  H566     1.0000 0.30620  0.17298  0.92620  Biso   1.000  H
  H567     1.0000 0.32619  0.23471  0.92729  Biso   1.000  H
  C499     1.0000 0.25578  0.22442  0.87748  Biso   1.000  C
  H568     1.0000 0.19382  0.32700  0.92620  Biso   1.000  H
  H569     1.0000 0.17379  0.26531  0.92729  Biso   1.000  H
  C500     1.0000 0.24420  0.27560  0.87748  Biso   1.000  C
  H570     1.0000 0.98260  0.27019  0.30511  Biso   1.000  H
  C501     1.0000 0.92770  0.20601  0.28889  Biso   1.000  C
  H571     1.0000 0.92620  0.30620  0.17298  Biso   1.000  H
  H572     1.0000 0.92729  0.32619  0.23471  Biso   1.000  H
  C502     1.0000 0.87748  0.25578  0.22442  Biso   1.000  C
  H573     1.0000 0.17298  0.92620  0.30620  Biso   1.000  H
  H574     1.0000 0.23471  0.92729  0.32619  Biso   1.000  H
  C503     1.0000 0.22442  0.87748  0.25578  Biso   1.000  C
  H575     1.0000 0.28529  0.84341  0.22571  Biso   1.000  H
  H576     1.0000 0.29708  0.87998  0.27778  Biso   1.000  H
  H577     1.0000 0.27431  0.21469  0.84341  Biso   1.000  H
  H578     1.0000 0.22220  0.20290  0.87998  Biso   1.000  H
  H579     1.0000 0.22571  0.28529  0.84341  Biso   1.000  H
  H580     1.0000 0.27778  0.29708  0.87998  Biso   1.000  H
  H581     1.0000 0.92620  0.19382  0.32700  Biso   1.000  H
  H582     1.0000 0.92729  0.17379  0.26531  Biso   1.000  H
  C504     1.0000 0.87748  0.24420  0.27560  Biso   1.000  C
  H583     1.0000 0.84341  0.27431  0.21469  Biso   1.000  H
  H584     1.0000 0.87998  0.22220  0.20290  Biso   1.000  H
  H585     1.0000 0.21469  0.84341  0.27431  Biso   1.000  H
  H586     1.0000 0.20290  0.87998  0.22220  Biso   1.000  H
  H587     1.0000 0.84341  0.22571  0.28529  Biso   1.000  H
  H588     1.0000 0.87998  0.27778  0.29708  Biso   1.000  H
  C505     1.0000 0.96108  0.95600  0.67769  Biso   1.000  C
  C506     1.0000 0.97110  0.98958  0.73001  Biso   1.000  C
  H589     1.0000 0.92297  0.94376  0.67619  Biso   1.000  H
  H590     1.0000 0.98470  0.92378  0.67728  Biso   1.000  H
  C507     1.0000 0.97437  0.99419  0.62751  Biso   1.000  C
  N85      1.0000 0.96480  0.95269  0.77579  Biso   1.000  N
  H591     1.0000 0.94490  0.02018  0.73259  Biso   1.000  H
  C508     1.0000 0.02890  0.01042  0.73001  Biso   1.000  C
  H592     1.0000 0.96468  0.97570  0.59340  Biso   1.000  H
  H593     1.0000 0.95289  0.02781  0.62997  Biso   1.000  H
  C509     1.0000 0.02559  0.00581  0.62751  Biso   1.000  C
  C510     1.0000 0.92810  0.96500  0.80828  Biso   1.000  C
  H594     1.0000 0.05510  0.97977  0.73259  Biso   1.000  H
  N86      1.0000 0.03520  0.04731  0.77579  Biso   1.000  N
  C511     1.0000 0.03892  0.04400  0.67769  Biso   1.000  C
  H595     1.0000 0.04711  0.97219  0.62997  Biso   1.000  H
  H596     1.0000 0.03528  0.02430  0.59340  Biso   1.000  H
  C512     1.0000 0.91369  0.93190  0.85640  Biso   1.000  C
  H597     1.0000 0.90840  0.99730  0.80199  Biso   1.000  H
  C513     1.0000 0.07190  0.03500  0.80828  Biso   1.000  C
  H598     1.0000 0.07699  0.05619  0.67619  Biso   1.000  H
  H599     1.0000 0.01530  0.07622  0.67728  Biso   1.000  H
  C514     1.0000 0.94607  0.88600  0.86839  Biso   1.000  C
  C515     1.0000 0.86839  0.94607  0.88600  Biso   1.000  C
  C516     1.0000 0.08631  0.06810  0.85640  Biso   1.000  C
  H600     1.0000 0.09160  0.00270  0.80199  Biso   1.000  H
  H601     1.0000 0.97598  0.87611  0.84647  Biso   1.000  H
  C517     1.0000 0.93190  0.85640  0.91369  Biso   1.000  C
  H602     1.0000 0.84647  0.97598  0.87611  Biso   1.000  H
  C518     1.0000 0.85640  0.91369  0.93190  Biso   1.000  C
  C519     1.0000 0.05389  0.11400  0.86839  Biso   1.000  C
  C520     1.0000 0.13161  0.05389  0.88600  Biso   1.000  C
  C521     1.0000 0.88600  0.86839  0.94607  Biso   1.000  C
  C522     1.0000 0.96500  0.80828  0.92810  Biso   1.000  C
  C523     1.0000 0.80828  0.92810  0.96500  Biso   1.000  C
  H603     1.0000 0.02398  0.12389  0.84647  Biso   1.000  H
  C524     1.0000 0.06810  0.14360  0.91369  Biso   1.000  C
  H604     1.0000 0.15349  0.02398  0.87611  Biso   1.000  H
  C525     1.0000 0.14360  0.08631  0.93190  Biso   1.000  C
  H605     1.0000 0.87611  0.84647  0.97598  Biso   1.000  H
  N87      1.0000 0.95269  0.77579  0.96480  Biso   1.000  N
  H606     1.0000 0.99730  0.80199  0.90840  Biso   1.000  H
  N88      1.0000 0.77579  0.96480  0.95269  Biso   1.000  N
  H607     1.0000 0.80199  0.90840  0.99730  Biso   1.000  H
  C526     1.0000 0.11400  0.13161  0.94607  Biso   1.000  C
  C527     1.0000 0.03500  0.19172  0.92810  Biso   1.000  C
  C528     1.0000 0.19172  0.07190  0.96500  Biso   1.000  C
  C529     1.0000 0.98958  0.73001  0.97110  Biso   1.000  C
  C530     1.0000 0.73001  0.97110  0.98958  Biso   1.000  C
  H608     1.0000 0.12389  0.15349  0.97598  Biso   1.000  H
  N89      1.0000 0.04731  0.22421  0.96480  Biso   1.000  N
  H609     1.0000 0.00270  0.19801  0.90840  Biso   1.000  H
  N90      1.0000 0.22421  0.03520  0.95269  Biso   1.000  N
  H610     1.0000 0.19801  0.09160  0.99730  Biso   1.000  H
  C531     1.0000 0.95600  0.67769  0.96108  Biso   1.000  C
  H611     1.0000 0.02018  0.73259  0.94490  Biso   1.000  H
  C532     1.0000 0.01042  0.73001  0.02890  Biso   1.000  C
  C533     1.0000 0.67769  0.96108  0.95600  Biso   1.000  C
  H612     1.0000 0.73259  0.94490  0.02018  Biso   1.000  H
  C534     1.0000 0.73001  0.02890  0.01042  Biso   1.000  C
  C535     1.0000 0.01042  0.26999  0.97110  Biso   1.000  C
  C536     1.0000 0.26999  0.02890  0.98958  Biso   1.000  C
  H613     1.0000 0.94376  0.67619  0.92297  Biso   1.000  H
  H614     1.0000 0.92378  0.67728  0.98470  Biso   1.000  H
  C537     1.0000 0.99419  0.62751  0.97437  Biso   1.000  C
  H615     1.0000 0.97977  0.73259  0.05510  Biso   1.000  H
  N91      1.0000 0.04731  0.77579  0.03520  Biso   1.000  N
  C538     1.0000 0.04400  0.67769  0.03892  Biso   1.000  C
  H616     1.0000 0.67619  0.92297  0.94376  Biso   1.000  H
  H617     1.0000 0.67728  0.98470  0.92378  Biso   1.000  H
  C539     1.0000 0.62751  0.97437  0.99419  Biso   1.000  C
  H618     1.0000 0.73259  0.05510  0.97977  Biso   1.000  H
  N92      1.0000 0.77579  0.03520  0.04731  Biso   1.000  N
  C540     1.0000 0.67769  0.03892  0.04400  Biso   1.000  C
  H619     1.0000 0.97977  0.26741  0.94490  Biso   1.000  H
  C541     1.0000 0.98958  0.26999  0.02890  Biso   1.000  C
  C542     1.0000 0.04400  0.32231  0.96108  Biso   1.000  C
  C543     1.0000 0.26999  0.97110  0.01042  Biso   1.000  C
  C544     1.0000 0.32231  0.03892  0.95600  Biso   1.000  C
  H620     1.0000 0.26741  0.05510  0.02018  Biso   1.000  H
  H621     1.0000 0.97570  0.59340  0.96468  Biso   1.000  H
  H622     1.0000 0.02781  0.62997  0.95289  Biso   1.000  H
  C545     1.0000 0.00581  0.62751  0.02559  Biso   1.000  C
  C546     1.0000 0.03500  0.80828  0.07190  Biso   1.000  C
  H623     1.0000 0.05619  0.67619  0.07699  Biso   1.000  H
  H624     1.0000 0.07622  0.67728  0.01530  Biso   1.000  H
  H625     1.0000 0.59340  0.96468  0.97570  Biso   1.000  H
  H626     1.0000 0.62997  0.95289  0.02781  Biso   1.000  H
  C547     1.0000 0.62751  0.02559  0.00581  Biso   1.000  C
  C548     1.0000 0.80828  0.07190  0.03500  Biso   1.000  C
  H627     1.0000 0.67619  0.07699  0.05619  Biso   1.000  H
  H628     1.0000 0.67728  0.01530  0.07622  Biso   1.000  H
  N93      1.0000 0.95269  0.22421  0.03520  Biso   1.000  N
  C549     1.0000 0.95600  0.32231  0.03892  Biso   1.000  C
  H629     1.0000 0.02018  0.26741  0.05510  Biso   1.000  H
  H630     1.0000 0.05619  0.32381  0.92297  Biso   1.000  H
  H631     1.0000 0.07622  0.32268  0.98470  Biso   1.000  H
  C550     1.0000 0.00581  0.37249  0.97437  Biso   1.000  C
  H632     1.0000 0.26741  0.94490  0.97977  Biso   1.000  H
  N94      1.0000 0.22421  0.96480  0.04731  Biso   1.000  N
  C551     1.0000 0.32231  0.96108  0.04400  Biso   1.000  C
  H633     1.0000 0.32381  0.07699  0.94376  Biso   1.000  H
  H634     1.0000 0.32268  0.01530  0.92378  Biso   1.000  H
  C552     1.0000 0.37249  0.02559  0.99419  Biso   1.000  C
  H635     1.0000 0.97219  0.62997  0.04711  Biso   1.000  H
  H636     1.0000 0.02430  0.59340  0.03528  Biso   1.000  H
  C553     1.0000 0.06810  0.85640  0.08631  Biso   1.000  C
  H637     1.0000 0.00270  0.80199  0.09160  Biso   1.000  H
  H638     1.0000 0.62997  0.04711  0.97219  Biso   1.000  H
  H639     1.0000 0.59340  0.03528  0.02430  Biso   1.000  H
  C554     1.0000 0.85640  0.08631  0.06810  Biso   1.000  C
  H640     1.0000 0.80199  0.09160  0.00270  Biso   1.000  H
  C555     1.0000 0.96500  0.19172  0.07190  Biso   1.000  C
  H641     1.0000 0.94376  0.32381  0.07699  Biso   1.000  H
  H642     1.0000 0.92378  0.32268  0.01530  Biso   1.000  H
  C556     1.0000 0.99419  0.37249  0.02559  Biso   1.000  C
  H643     1.0000 0.97219  0.36999  0.95289  Biso   1.000  H
  H644     1.0000 0.02430  0.40660  0.96468  Biso   1.000  H
  C557     1.0000 0.19172  0.92810  0.03500  Biso   1.000  C
  H645     1.0000 0.32381  0.92297  0.05619  Biso   1.000  H
  H646     1.0000 0.32268  0.98470  0.07622  Biso   1.000  H
  C558     1.0000 0.37249  0.97437  0.00581  Biso   1.000  C
  H647     1.0000 0.40660  0.03528  0.97570  Biso   1.000  H
  H648     1.0000 0.36999  0.04711  0.02781  Biso   1.000  H
  C559     1.0000 0.11400  0.86839  0.05389  Biso   1.000  C
  C560     1.0000 0.05389  0.88600  0.13161  Biso   1.000  C
  C561     1.0000 0.86839  0.05389  0.11400  Biso   1.000  C
  C562     1.0000 0.88600  0.13161  0.05389  Biso   1.000  C
  C563     1.0000 0.93190  0.14360  0.08631  Biso   1.000  C
  H649     1.0000 0.99730  0.19801  0.09160  Biso   1.000  H
  H650     1.0000 0.97570  0.40660  0.03528  Biso   1.000  H
  H651     1.0000 0.02781  0.36999  0.04711  Biso   1.000  H
  C564     1.0000 0.14360  0.91369  0.06810  Biso   1.000  C
  H652     1.0000 0.19801  0.90840  0.00270  Biso   1.000  H
  H653     1.0000 0.36999  0.95289  0.97219  Biso   1.000  H
  H654     1.0000 0.40660  0.96468  0.02430  Biso   1.000  H
  H655     1.0000 0.12389  0.84647  0.02398  Biso   1.000  H
  H656     1.0000 0.02398  0.87611  0.15349  Biso   1.000  H
  C565     1.0000 0.08631  0.93190  0.14360  Biso   1.000  C
  H657     1.0000 0.84647  0.02398  0.12389  Biso   1.000  H
  C566     1.0000 0.91369  0.06810  0.14360  Biso   1.000  C
  H658     1.0000 0.87611  0.15349  0.02398  Biso   1.000  H
  C567     1.0000 0.94607  0.11400  0.13161  Biso   1.000  C
  C568     1.0000 0.13161  0.94607  0.11400  Biso   1.000  C
  C569     1.0000 0.07190  0.96500  0.19172  Biso   1.000  C
  C570     1.0000 0.92810  0.03500  0.19172  Biso   1.000  C
  H659     1.0000 0.97598  0.12389  0.15349  Biso   1.000  H
  H660     1.0000 0.15349  0.97598  0.12389  Biso   1.000  H
  N95      1.0000 0.03520  0.95269  0.22421  Biso   1.000  N
  H661     1.0000 0.09160  0.99730  0.19801  Biso   1.000  H
  N96      1.0000 0.96480  0.04731  0.22421  Biso   1.000  N
  H662     1.0000 0.90840  0.00270  0.19801  Biso   1.000  H
  C571     1.0000 0.02890  0.98958  0.26999  Biso   1.000  C
  C572     1.0000 0.97110  0.01042  0.26999  Biso   1.000  C
  C573     1.0000 0.03892  0.95600  0.32231  Biso   1.000  C
  H663     1.0000 0.05510  0.02018  0.26741  Biso   1.000  H
  H664     1.0000 0.94490  0.97977  0.26741  Biso   1.000  H
  C574     1.0000 0.96108  0.04400  0.32231  Biso   1.000  C
  H665     1.0000 0.07699  0.94376  0.32381  Biso   1.000  H
  H666     1.0000 0.01530  0.92378  0.32268  Biso   1.000  H
  C575     1.0000 0.02559  0.99419  0.37249  Biso   1.000  C
  H667     1.0000 0.92297  0.05619  0.32381  Biso   1.000  H
  H668     1.0000 0.98470  0.07622  0.32268  Biso   1.000  H
  C576     1.0000 0.97437  0.00581  0.37249  Biso   1.000  C
  H669     1.0000 0.03528  0.97570  0.40660  Biso   1.000  H
  H670     1.0000 0.04711  0.02781  0.36999  Biso   1.000  H
  H671     1.0000 0.95289  0.97219  0.36999  Biso   1.000  H
  H672     1.0000 0.96468  0.02430  0.40660  Biso   1.000  H
  Ne1      1.0000 0.25000  0.25000  0.25000  Biso   1.000  Ne
  He1      1.0000 0.18354  0.31647  0.31646  Biso   1.000  He
  He2      1.0000 0.31604  0.18397  0.31604  Biso   1.000  He
  He3      1.0000 0.31846  0.31846  0.18155  Biso   1.000  He
  He4      1.0000 0.18097  0.18097  0.18097  Biso   1.000  He
  Ar1      1.0000 0.25000  0.25000  0.25000  Biso   1.000  Ar
  Ne2      1.0000 0.74999  0.74999  0.25000  Biso   1.000  Ne
  He5      1.0000 0.68352  0.81647  0.31647  Biso   1.000  He
  He6      1.0000 0.81604  0.68394  0.31605  Biso   1.000  He
  He7      1.0000 0.81845  0.81846  0.18154  Biso   1.000  He
  He8      1.0000 0.68095  0.68095  0.18097  Biso   1.000  He
  Ar2      1.0000 0.74999  0.74999  0.25000  Biso   1.000  Ar
  Ne3      1.0000 0.74999  0.25000  0.74999  Biso   1.000  Ne
  He9      1.0000 0.68352  0.31646  0.81645  Biso   1.000  He
  He10     1.0000 0.81605  0.18395  0.81605  Biso   1.000  He
  He11     1.0000 0.68095  0.18097  0.68095  Biso   1.000  He
  He12     1.0000 0.81845  0.31845  0.68153  Biso   1.000  He
  Ar3      1.0000 0.74999  0.25000  0.74999  Biso   1.000  Ar
  Ne4      1.0000 0.25000  0.74999  0.74999  Biso   1.000  Ne
  He13     1.0000 0.18354  0.81646  0.81646  Biso   1.000  He
  He14     1.0000 0.31605  0.68394  0.81604  Biso   1.000  He
  He15     1.0000 0.31847  0.81846  0.68152  Biso   1.000  He
  He16     1.0000 0.18097  0.68095  0.68095  Biso   1.000  He
  Ar4      1.0000 0.25000  0.74999  0.74999  Biso   1.000  Ar
  Ne5      1.0000 1.00000  0.49999  0.49999  Biso   1.000  Ne
  He17     1.0000 0.93183  0.43181  0.56815  Biso   1.000  He
  He18     1.0000 0.06740  0.56741  0.56741  Biso   1.000  He
  He19     1.0000 0.06432  0.43563  0.43563  Biso   1.000  He
  He20     1.0000 0.93168  0.56830  0.43167  Biso   1.000  He
  Ar5      1.0000 0.99999  0.49999  0.49999  Biso   1.000  Ar
  Ne6      1.0000 0.49999  1.00000  0.49999  Biso   1.000  Ne
  He21     1.0000 0.43181  0.93183  0.56815  Biso   1.000  He
  He22     1.0000 0.56741  0.06740  0.56741  Biso   1.000  He
  He23     1.0000 0.56432  0.93566  0.43564  Biso   1.000  He
  He24     1.0000 0.43166  0.06830  0.43166  Biso   1.000  He
  Ar6      1.0000 0.49999  1.00000  0.49999  Biso   1.000  Ar
  Ne7      1.0000 0.49999  0.49999  1.00000  Biso   1.000  Ne
  He25     1.0000 0.43180  0.43180  0.06815  Biso   1.000  He
  He26     1.0000 0.56739  0.56739  0.06739  Biso   1.000  He
  He27     1.0000 0.56432  0.43564  0.93566  Biso   1.000  He
  He28     1.0000 0.43167  0.56829  0.93168  Biso   1.000  He
  Ar7      1.0000 0.49999  0.49999  0.99999  Biso   1.000  Ar
  Ne8      1.0000 1.00000  1.00000  1.00000  Biso   1.000  Ne
  He29     1.0000 0.93182  0.93182  0.06815  Biso   1.000  He
  He30     1.0000 0.06740  0.06740  0.06741  Biso   1.000  He
  He31     1.0000 0.06432  0.93565  0.93565  Biso   1.000  He
  He32     1.0000 0.93167  0.06830  0.93168  Biso   1.000  He
  Ar8      1.0000 0.00000  1.00000  1.00000  Biso   1.000  Ar
