data_image0
_cell_length_a       24.914
_cell_length_b       24.914
_cell_length_c       24.914
_cell_angle_alpha    90
_cell_angle_beta     90
_cell_angle_gamma    90

_symmetry_space_group_name_H-M    "P 1"
_symmetry_int_tables_number       1

loop_
  _symmetry_equiv_pos_as_xyz
  'x, y, z'

loop_
  _atom_site_label
  _atom_site_occupancy
  _atom_site_fract_x
  _atom_site_fract_y
  _atom_site_fract_z
  _atom_site_thermal_displace_type
  _atom_site_B_iso_or_equiv
  _atom_site_type_symbol
  C1       1.0000 0.50751  0.36999  0.47230  Biso   1.000  C
  C2       1.0000 0.54210  0.32030  0.46099  Biso   1.000  C
  C3       1.0000 0.49249  0.36999  0.52770  Biso   1.000  C
  H1       1.0000 0.52761  0.40230  0.46400  Biso   1.000  H
  H2       1.0000 0.47560  0.36931  0.44999  Biso   1.000  H
  C4       1.0000 0.50951  0.26909  0.47150  Biso   1.000  C
  H3       1.0000 0.57349  0.32070  0.48398  Biso   1.000  H
  H4       1.0000 0.55411  0.32078  0.42402  Biso   1.000  H
  C5       1.0000 0.45790  0.32030  0.53901  Biso   1.000  C
  H5       1.0000 0.47239  0.40230  0.53600  Biso   1.000  H
  H6       1.0000 0.52440  0.36931  0.55001  Biso   1.000  H
  N1       1.0000 0.54560  0.22249  0.46271  Biso   1.000  N
  C6       1.0000 0.49049  0.26909  0.52850  Biso   1.000  C
  H7       1.0000 0.47881  0.26732  0.44702  Biso   1.000  H
  H8       1.0000 0.42651  0.32070  0.51602  Biso   1.000  H
  H9       1.0000 0.44589  0.32078  0.57598  Biso   1.000  H
  C7       1.0000 0.53372  0.18909  0.42751  Biso   1.000  C
  N2       1.0000 0.45440  0.22249  0.53729  Biso   1.000  N
  H10      1.0000 0.52119  0.26732  0.55298  Biso   1.000  H
  C8       1.0000 0.56719  0.14301  0.41451  Biso   1.000  C
  H11      1.0000 0.50189  0.19379  0.40861  Biso   1.000  H
  C9       1.0000 0.46628  0.18909  0.57249  Biso   1.000  C
  C10      1.0000 0.61090  0.12928  0.44541  Biso   1.000  C
  C11      1.0000 0.55459  0.11090  0.37072  Biso   1.000  C
  C12      1.0000 0.43281  0.14301  0.58549  Biso   1.000  C
  H12      1.0000 0.49811  0.19379  0.59139  Biso   1.000  H
  H13      1.0000 0.61921  0.14992  0.47540  Biso   1.000  H
  C13      1.0000 0.64301  0.08549  0.43281  Biso   1.000  C
  H14      1.0000 0.52460  0.11921  0.35008  Biso   1.000  H
  C14      1.0000 0.58549  0.06719  0.35699  Biso   1.000  C
  C15      1.0000 0.44541  0.11090  0.62928  Biso   1.000  C
  C16      1.0000 0.38910  0.12928  0.55459  Biso   1.000  C
  C17      1.0000 0.62928  0.05459  0.38910  Biso   1.000  C
  C18      1.0000 0.68909  0.07249  0.46628  Biso   1.000  C
  C19      1.0000 0.57249  0.03372  0.31091  Biso   1.000  C
  H15      1.0000 0.47540  0.11921  0.64992  Biso   1.000  H
  C20      1.0000 0.41451  0.06719  0.64301  Biso   1.000  C
  H16      1.0000 0.38079  0.14992  0.52460  Biso   1.000  H
  C21      1.0000 0.35699  0.08549  0.56719  Biso   1.000  C
  H17      1.0000 0.64992  0.02460  0.38079  Biso   1.000  H
  N3       1.0000 0.72249  0.03729  0.45440  Biso   1.000  N
  H18      1.0000 0.69379  0.09139  0.49811  Biso   1.000  H
  N4       1.0000 0.53729  0.04560  0.27751  Biso   1.000  N
  H19      1.0000 0.59139  0.00189  0.30621  Biso   1.000  H
  C22      1.0000 0.37072  0.05459  0.61090  Biso   1.000  C
  C23      1.0000 0.42751  0.03372  0.68909  Biso   1.000  C
  C24      1.0000 0.31091  0.07249  0.53372  Biso   1.000  C
  C25      1.0000 0.76909  0.02850  0.49049  Biso   1.000  C
  C26      1.0000 0.52850  0.00951  0.23091  Biso   1.000  C
  H20      1.0000 0.35008  0.02460  0.61921  Biso   1.000  H
  N5       1.0000 0.46271  0.04560  0.72249  Biso   1.000  N
  H21      1.0000 0.40861  0.00189  0.69379  Biso   1.000  H
  N6       1.0000 0.27751  0.03729  0.54560  Biso   1.000  N
  H22      1.0000 0.30621  0.09139  0.50189  Biso   1.000  H
  H23      1.0000 0.76732  0.05298  0.52119  Biso   1.000  H
  C27      1.0000 0.82030  0.03901  0.45790  Biso   1.000  C
  C28      1.0000 0.76909  0.97150  0.50951  Biso   1.000  C
  C29      1.0000 0.53901  0.04210  0.17970  Biso   1.000  C
  C30      1.0000 0.47150  0.99049  0.23091  Biso   1.000  C
  H24      1.0000 0.55298  0.97881  0.23268  Biso   1.000  H
  C31      1.0000 0.47150  0.00951  0.76909  Biso   1.000  C
  C32      1.0000 0.23091  0.02850  0.50951  Biso   1.000  C
  H25      1.0000 0.82070  0.01602  0.42651  Biso   1.000  H
  H26      1.0000 0.82078  0.07598  0.44589  Biso   1.000  H
  C33      1.0000 0.86999  0.02770  0.49249  Biso   1.000  C
  N7       1.0000 0.72249  0.96271  0.54560  Biso   1.000  N
  H27      1.0000 0.76732  0.94702  0.47881  Biso   1.000  H
  C34      1.0000 0.82030  0.96099  0.54210  Biso   1.000  C
  H28      1.0000 0.51602  0.07349  0.17930  Biso   1.000  H
  H29      1.0000 0.57598  0.05411  0.17922  Biso   1.000  H
  C35      1.0000 0.52770  0.00751  0.13001  Biso   1.000  C
  H30      1.0000 0.44702  0.02119  0.23268  Biso   1.000  H
  N8       1.0000 0.46271  0.95440  0.27751  Biso   1.000  N
  C36      1.0000 0.46099  0.95790  0.17970  Biso   1.000  C
  C37      1.0000 0.46099  0.04210  0.82030  Biso   1.000  C
  C38      1.0000 0.52850  0.99049  0.76909  Biso   1.000  C
  H31      1.0000 0.44702  0.97881  0.76732  Biso   1.000  H
  H32      1.0000 0.23268  0.05298  0.47881  Biso   1.000  H
  C39      1.0000 0.17970  0.03901  0.54210  Biso   1.000  C
  C40      1.0000 0.23091  0.97150  0.49049  Biso   1.000  C
  H33      1.0000 0.90230  0.03600  0.47239  Biso   1.000  H
  H34      1.0000 0.86931  0.05001  0.52440  Biso   1.000  H
  C41      1.0000 0.86999  0.97230  0.50751  Biso   1.000  C
  C42      1.0000 0.68909  0.92751  0.53372  Biso   1.000  C
  H35      1.0000 0.82070  0.98398  0.57349  Biso   1.000  H
  H36      1.0000 0.82078  0.92402  0.55411  Biso   1.000  H
  H37      1.0000 0.53600  0.02761  0.09770  Biso   1.000  H
  C43      1.0000 0.47230  0.99249  0.13001  Biso   1.000  C
  H38      1.0000 0.55001  0.97560  0.13069  Biso   1.000  H
  C44      1.0000 0.42751  0.96628  0.31091  Biso   1.000  C
  H39      1.0000 0.48398  0.92651  0.17930  Biso   1.000  H
  H40      1.0000 0.42402  0.94589  0.17922  Biso   1.000  H
  H41      1.0000 0.48398  0.07349  0.82070  Biso   1.000  H
  H42      1.0000 0.42402  0.05411  0.82078  Biso   1.000  H
  C45      1.0000 0.47230  0.00751  0.86999  Biso   1.000  C
  H43      1.0000 0.55298  0.02119  0.76732  Biso   1.000  H
  N9       1.0000 0.53729  0.95440  0.72249  Biso   1.000  N
  C46      1.0000 0.53901  0.95790  0.82030  Biso   1.000  C
  H44      1.0000 0.17930  0.01602  0.57349  Biso   1.000  H
  H45      1.0000 0.17922  0.07598  0.55411  Biso   1.000  H
  C47      1.0000 0.13001  0.02770  0.50751  Biso   1.000  C
  N10      1.0000 0.27751  0.96271  0.45440  Biso   1.000  N
  H46      1.0000 0.23268  0.94702  0.52119  Biso   1.000  H
  C48      1.0000 0.17970  0.96099  0.45790  Biso   1.000  C
  H47      1.0000 0.90230  0.96400  0.52761  Biso   1.000  H
  H48      1.0000 0.86931  0.94999  0.47560  Biso   1.000  H
  C49      1.0000 0.64301  0.91451  0.56719  Biso   1.000  C
  H49      1.0000 0.69379  0.90861  0.50189  Biso   1.000  H
  H50      1.0000 0.44999  0.02440  0.13069  Biso   1.000  H
  H51      1.0000 0.46400  0.97239  0.09770  Biso   1.000  H
  C50      1.0000 0.41451  0.93281  0.35699  Biso   1.000  C
  H52      1.0000 0.40861  0.99811  0.30621  Biso   1.000  H
  H53      1.0000 0.46400  0.02761  0.90230  Biso   1.000  H
  C51      1.0000 0.52770  0.99249  0.86999  Biso   1.000  C
  H54      1.0000 0.44999  0.97560  0.86931  Biso   1.000  H
  C52      1.0000 0.57249  0.96628  0.68909  Biso   1.000  C
  H55      1.0000 0.51602  0.92651  0.82070  Biso   1.000  H
  H56      1.0000 0.57598  0.94589  0.82078  Biso   1.000  H
  H57      1.0000 0.09770  0.03600  0.52761  Biso   1.000  H
  H58      1.0000 0.13069  0.05001  0.47560  Biso   1.000  H
  C53      1.0000 0.13001  0.97230  0.49249  Biso   1.000  C
  C54      1.0000 0.31091  0.92751  0.46628  Biso   1.000  C
  H59      1.0000 0.17930  0.98398  0.42651  Biso   1.000  H
  H60      1.0000 0.17922  0.92402  0.44589  Biso   1.000  H
  C55      1.0000 0.61090  0.87072  0.55459  Biso   1.000  C
  C56      1.0000 0.62928  0.94541  0.61090  Biso   1.000  C
  C57      1.0000 0.37072  0.94541  0.38910  Biso   1.000  C
  C58      1.0000 0.44541  0.88910  0.37072  Biso   1.000  C
  H61      1.0000 0.55001  0.02440  0.86931  Biso   1.000  H
  H62      1.0000 0.53600  0.97239  0.90230  Biso   1.000  H
  C59      1.0000 0.58549  0.93281  0.64301  Biso   1.000  C
  H63      1.0000 0.59139  0.99811  0.69379  Biso   1.000  H
  H64      1.0000 0.09770  0.96400  0.47239  Biso   1.000  H
  H65      1.0000 0.13069  0.94999  0.52440  Biso   1.000  H
  C60      1.0000 0.35699  0.91451  0.43281  Biso   1.000  C
  H66      1.0000 0.30621  0.90861  0.49811  Biso   1.000  H
  H67      1.0000 0.61921  0.85008  0.52460  Biso   1.000  H
  C61      1.0000 0.56719  0.85699  0.58549  Biso   1.000  C
  H68      1.0000 0.64992  0.97540  0.61921  Biso   1.000  H
  H69      1.0000 0.35008  0.97540  0.38079  Biso   1.000  H
  H70      1.0000 0.47540  0.88079  0.35008  Biso   1.000  H
  C62      1.0000 0.43281  0.85699  0.41451  Biso   1.000  C
  C63      1.0000 0.55459  0.88910  0.62928  Biso   1.000  C
  C64      1.0000 0.38910  0.87072  0.44541  Biso   1.000  C
  C65      1.0000 0.53372  0.81091  0.57249  Biso   1.000  C
  C66      1.0000 0.46628  0.81091  0.42751  Biso   1.000  C
  H71      1.0000 0.52460  0.88079  0.64992  Biso   1.000  H
  H72      1.0000 0.38079  0.85008  0.47540  Biso   1.000  H
  N11      1.0000 0.54560  0.77751  0.53729  Biso   1.000  N
  H73      1.0000 0.50189  0.80621  0.59139  Biso   1.000  H
  N12      1.0000 0.45440  0.77751  0.46271  Biso   1.000  N
  H74      1.0000 0.49811  0.80621  0.40861  Biso   1.000  H
  C67      1.0000 0.50951  0.73091  0.52850  Biso   1.000  C
  C68      1.0000 0.49049  0.73091  0.47150  Biso   1.000  C
  H75      1.0000 0.47881  0.73268  0.55298  Biso   1.000  H
  C69      1.0000 0.54210  0.67970  0.53901  Biso   1.000  C
  H76      1.0000 0.52119  0.73268  0.44702  Biso   1.000  H
  C70      1.0000 0.45790  0.67970  0.46099  Biso   1.000  C
  H77      1.0000 0.57349  0.67930  0.51602  Biso   1.000  H
  H78      1.0000 0.55411  0.67922  0.57598  Biso   1.000  H
  C71      1.0000 0.50751  0.63001  0.52770  Biso   1.000  C
  H79      1.0000 0.42651  0.67930  0.48398  Biso   1.000  H
  H80      1.0000 0.44589  0.67922  0.42402  Biso   1.000  H
  C72      1.0000 0.49249  0.63001  0.47230  Biso   1.000  C
  H81      1.0000 0.52761  0.59770  0.53600  Biso   1.000  H
  H82      1.0000 0.47560  0.63069  0.55001  Biso   1.000  H
  H83      1.0000 0.47239  0.59770  0.46400  Biso   1.000  H
  H84      1.0000 0.52440  0.63069  0.44999  Biso   1.000  H
  C73      1.0000 0.47230  0.50751  0.36999  Biso   1.000  C
  C74      1.0000 0.46099  0.54210  0.32030  Biso   1.000  C
  C75      1.0000 0.52770  0.49249  0.36999  Biso   1.000  C
  H85      1.0000 0.46400  0.52761  0.40230  Biso   1.000  H
  H86      1.0000 0.44999  0.47560  0.36931  Biso   1.000  H
  C76      1.0000 0.47150  0.50951  0.26909  Biso   1.000  C
  H87      1.0000 0.48398  0.57349  0.32070  Biso   1.000  H
  H88      1.0000 0.42402  0.55411  0.32078  Biso   1.000  H
  C77      1.0000 0.53901  0.45790  0.32030  Biso   1.000  C
  H89      1.0000 0.53600  0.47239  0.40230  Biso   1.000  H
  H90      1.0000 0.55001  0.52440  0.36931  Biso   1.000  H
  C78      1.0000 0.52850  0.49049  0.26909  Biso   1.000  C
  N13      1.0000 0.46271  0.54560  0.22249  Biso   1.000  N
  H91      1.0000 0.44702  0.47881  0.26732  Biso   1.000  H
  H92      1.0000 0.51602  0.42651  0.32070  Biso   1.000  H
  H93      1.0000 0.57598  0.44589  0.32078  Biso   1.000  H
  N14      1.0000 0.53729  0.45440  0.22249  Biso   1.000  N
  H94      1.0000 0.55298  0.52119  0.26732  Biso   1.000  H
  C79      1.0000 0.42751  0.53372  0.18909  Biso   1.000  C
  C80      1.0000 0.57249  0.46628  0.18909  Biso   1.000  C
  C81      1.0000 0.41451  0.56719  0.14301  Biso   1.000  C
  H95      1.0000 0.40861  0.50189  0.19379  Biso   1.000  H
  C82      1.0000 0.58549  0.43281  0.14301  Biso   1.000  C
  H96      1.0000 0.59139  0.49811  0.19379  Biso   1.000  H
  C83      1.0000 0.44541  0.61090  0.12928  Biso   1.000  C
  C84      1.0000 0.37072  0.55459  0.11090  Biso   1.000  C
  C85      1.0000 0.55459  0.38910  0.12928  Biso   1.000  C
  C86      1.0000 0.62928  0.44541  0.11090  Biso   1.000  C
  H97      1.0000 0.47540  0.61921  0.14992  Biso   1.000  H
  C87      1.0000 0.43281  0.64301  0.08549  Biso   1.000  C
  H98      1.0000 0.35008  0.52460  0.11921  Biso   1.000  H
  C88      1.0000 0.35699  0.58549  0.06719  Biso   1.000  C
  C89      1.0000 0.56719  0.35699  0.08549  Biso   1.000  C
  H99      1.0000 0.52460  0.38079  0.14992  Biso   1.000  H
  C90      1.0000 0.64301  0.41451  0.06719  Biso   1.000  C
  H100     1.0000 0.64992  0.47540  0.11921  Biso   1.000  H
  C91      1.0000 0.38910  0.62928  0.05459  Biso   1.000  C
  C92      1.0000 0.46628  0.68909  0.07249  Biso   1.000  C
  C93      1.0000 0.31091  0.57249  0.03372  Biso   1.000  C
  C94      1.0000 0.53372  0.31091  0.07249  Biso   1.000  C
  C95      1.0000 0.61090  0.37072  0.05459  Biso   1.000  C
  C96      1.0000 0.68909  0.42751  0.03372  Biso   1.000  C
  H101     1.0000 0.38079  0.64992  0.02460  Biso   1.000  H
  N15      1.0000 0.45440  0.72249  0.03729  Biso   1.000  N
  H102     1.0000 0.49811  0.69379  0.09139  Biso   1.000  H
  N16      1.0000 0.27751  0.53729  0.04560  Biso   1.000  N
  H103     1.0000 0.30621  0.59139  0.00189  Biso   1.000  H
  N17      1.0000 0.54560  0.27751  0.03729  Biso   1.000  N
  H104     1.0000 0.50189  0.30621  0.09139  Biso   1.000  H
  H105     1.0000 0.61921  0.35008  0.02460  Biso   1.000  H
  N18      1.0000 0.72249  0.46271  0.04560  Biso   1.000  N
  H106     1.0000 0.69379  0.40861  0.00189  Biso   1.000  H
  C97      1.0000 0.49049  0.76909  0.02850  Biso   1.000  C
  C98      1.0000 0.23091  0.52850  0.00951  Biso   1.000  C
  C99      1.0000 0.50951  0.23091  0.02850  Biso   1.000  C
  C100     1.0000 0.76909  0.47150  0.00951  Biso   1.000  C
  C101     1.0000 0.50951  0.76909  0.97150  Biso   1.000  C
  H107     1.0000 0.52119  0.76732  0.05298  Biso   1.000  H
  C102     1.0000 0.45790  0.82030  0.03901  Biso   1.000  C
  C103     1.0000 0.23091  0.47150  0.99049  Biso   1.000  C
  C104     1.0000 0.17970  0.53901  0.04210  Biso   1.000  C
  H108     1.0000 0.23268  0.55298  0.97881  Biso   1.000  H
  H109     1.0000 0.47881  0.23268  0.05298  Biso   1.000  H
  C105     1.0000 0.54210  0.17970  0.03901  Biso   1.000  C
  C106     1.0000 0.49049  0.23091  0.97150  Biso   1.000  C
  C107     1.0000 0.82030  0.46099  0.04210  Biso   1.000  C
  C108     1.0000 0.76909  0.52850  0.99049  Biso   1.000  C
  H110     1.0000 0.76732  0.44702  0.97881  Biso   1.000  H
  N19      1.0000 0.54560  0.72249  0.96271  Biso   1.000  N
  H111     1.0000 0.47881  0.76732  0.94702  Biso   1.000  H
  C109     1.0000 0.54210  0.82030  0.96099  Biso   1.000  C
  H112     1.0000 0.42651  0.82070  0.01602  Biso   1.000  H
  H113     1.0000 0.44589  0.82078  0.07598  Biso   1.000  H
  C110     1.0000 0.49249  0.86999  0.02770  Biso   1.000  C
  N20      1.0000 0.27751  0.46271  0.95440  Biso   1.000  N
  H114     1.0000 0.23268  0.44702  0.02119  Biso   1.000  H
  C111     1.0000 0.17970  0.46099  0.95790  Biso   1.000  C
  H115     1.0000 0.17930  0.51602  0.07349  Biso   1.000  H
  H116     1.0000 0.17922  0.57598  0.05411  Biso   1.000  H
  C112     1.0000 0.13001  0.52770  0.00751  Biso   1.000  C
  H117     1.0000 0.57349  0.17930  0.01602  Biso   1.000  H
  H118     1.0000 0.55411  0.17922  0.07598  Biso   1.000  H
  C113     1.0000 0.50751  0.13001  0.02770  Biso   1.000  C
  N21      1.0000 0.45440  0.27751  0.96271  Biso   1.000  N
  H119     1.0000 0.52119  0.23268  0.94702  Biso   1.000  H
  C114     1.0000 0.45790  0.17970  0.96099  Biso   1.000  C
  H120     1.0000 0.82070  0.48398  0.07349  Biso   1.000  H
  H121     1.0000 0.82078  0.42402  0.05411  Biso   1.000  H
  C115     1.0000 0.86999  0.47230  0.00751  Biso   1.000  C
  H122     1.0000 0.76732  0.55298  0.02119  Biso   1.000  H
  N22      1.0000 0.72249  0.53729  0.95440  Biso   1.000  N
  C116     1.0000 0.82030  0.53901  0.95790  Biso   1.000  C
  C117     1.0000 0.53372  0.68909  0.92751  Biso   1.000  C
  H123     1.0000 0.57349  0.82070  0.98398  Biso   1.000  H
  H124     1.0000 0.55411  0.82078  0.92402  Biso   1.000  H
  C118     1.0000 0.50751  0.86999  0.97230  Biso   1.000  C
  H125     1.0000 0.47239  0.90230  0.03600  Biso   1.000  H
  H126     1.0000 0.52440  0.86931  0.05001  Biso   1.000  H
  C119     1.0000 0.31091  0.42751  0.96628  Biso   1.000  C
  H127     1.0000 0.17930  0.48398  0.92651  Biso   1.000  H
  H128     1.0000 0.17922  0.42402  0.94589  Biso   1.000  H
  C120     1.0000 0.13001  0.47230  0.99249  Biso   1.000  C
  H129     1.0000 0.09770  0.53600  0.02761  Biso   1.000  H
  H130     1.0000 0.13069  0.55001  0.97560  Biso   1.000  H
  H131     1.0000 0.52761  0.09770  0.03600  Biso   1.000  H
  H132     1.0000 0.47560  0.13069  0.05001  Biso   1.000  H
  C121     1.0000 0.49249  0.13001  0.97230  Biso   1.000  C
  C122     1.0000 0.46628  0.31091  0.92751  Biso   1.000  C
  H133     1.0000 0.42651  0.17930  0.98398  Biso   1.000  H
  H134     1.0000 0.44589  0.17922  0.92402  Biso   1.000  H
  H135     1.0000 0.90230  0.46400  0.02761  Biso   1.000  H
  C123     1.0000 0.86999  0.52770  0.99249  Biso   1.000  C
  H136     1.0000 0.86931  0.44999  0.97560  Biso   1.000  H
  C124     1.0000 0.68909  0.57249  0.96628  Biso   1.000  C
  H137     1.0000 0.82070  0.51602  0.92651  Biso   1.000  H
  H138     1.0000 0.82078  0.57598  0.94589  Biso   1.000  H
  C125     1.0000 0.56719  0.64301  0.91451  Biso   1.000  C
  H139     1.0000 0.50189  0.69379  0.90861  Biso   1.000  H
  H140     1.0000 0.52761  0.90230  0.96400  Biso   1.000  H
  H141     1.0000 0.47560  0.86931  0.94999  Biso   1.000  H
  C126     1.0000 0.35699  0.41451  0.93281  Biso   1.000  C
  H142     1.0000 0.30621  0.40861  0.99811  Biso   1.000  H
  H143     1.0000 0.13069  0.44999  0.02440  Biso   1.000  H
  H144     1.0000 0.09770  0.46400  0.97239  Biso   1.000  H
  H145     1.0000 0.47239  0.09770  0.96400  Biso   1.000  H
  H146     1.0000 0.52440  0.13069  0.94999  Biso   1.000  H
  C127     1.0000 0.43281  0.35699  0.91451  Biso   1.000  C
  H147     1.0000 0.49811  0.30621  0.90861  Biso   1.000  H
  H148     1.0000 0.86931  0.55001  0.02440  Biso   1.000  H
  H149     1.0000 0.90230  0.53600  0.97239  Biso   1.000  H
  C128     1.0000 0.64301  0.58549  0.93281  Biso   1.000  C
  H150     1.0000 0.69379  0.59139  0.99811  Biso   1.000  H
  C129     1.0000 0.61090  0.62928  0.94541  Biso   1.000  C
  C130     1.0000 0.55459  0.61090  0.87072  Biso   1.000  C
  C131     1.0000 0.38910  0.37072  0.94541  Biso   1.000  C
  C132     1.0000 0.37072  0.44541  0.88910  Biso   1.000  C
  C133     1.0000 0.44541  0.38910  0.87072  Biso   1.000  C
  C134     1.0000 0.62928  0.55459  0.88910  Biso   1.000  C
  H151     1.0000 0.61921  0.64992  0.97540  Biso   1.000  H
  C135     1.0000 0.58549  0.56719  0.85699  Biso   1.000  C
  H152     1.0000 0.52460  0.61921  0.85008  Biso   1.000  H
  H153     1.0000 0.38079  0.35008  0.97540  Biso   1.000  H
  C136     1.0000 0.41451  0.43281  0.85699  Biso   1.000  C
  H154     1.0000 0.35008  0.47540  0.88079  Biso   1.000  H
  H155     1.0000 0.47540  0.38079  0.85008  Biso   1.000  H
  H156     1.0000 0.64992  0.52460  0.88079  Biso   1.000  H
  C137     1.0000 0.57249  0.53372  0.81091  Biso   1.000  C
  C138     1.0000 0.42751  0.46628  0.81091  Biso   1.000  C
  N23      1.0000 0.53729  0.54560  0.77751  Biso   1.000  N
  H157     1.0000 0.59139  0.50189  0.80621  Biso   1.000  H
  N24      1.0000 0.46271  0.45440  0.77751  Biso   1.000  N
  H158     1.0000 0.40861  0.49811  0.80621  Biso   1.000  H
  C139     1.0000 0.52850  0.50951  0.73091  Biso   1.000  C
  C140     1.0000 0.47150  0.49049  0.73091  Biso   1.000  C
  H159     1.0000 0.55298  0.47881  0.73268  Biso   1.000  H
  C141     1.0000 0.53901  0.54210  0.67970  Biso   1.000  C
  H160     1.0000 0.44702  0.52119  0.73268  Biso   1.000  H
  C142     1.0000 0.46099  0.45790  0.67970  Biso   1.000  C
  H161     1.0000 0.51602  0.57349  0.67930  Biso   1.000  H
  H162     1.0000 0.57598  0.55411  0.67922  Biso   1.000  H
  C143     1.0000 0.52770  0.50751  0.63001  Biso   1.000  C
  H163     1.0000 0.48398  0.42651  0.67930  Biso   1.000  H
  H164     1.0000 0.42402  0.44589  0.67922  Biso   1.000  H
  C144     1.0000 0.47230  0.49249  0.63001  Biso   1.000  C
  H165     1.0000 0.53600  0.52761  0.59770  Biso   1.000  H
  H166     1.0000 0.55001  0.47560  0.63069  Biso   1.000  H
  H167     1.0000 0.46400  0.47239  0.59770  Biso   1.000  H
  H168     1.0000 0.44999  0.52440  0.63069  Biso   1.000  H
  C145     1.0000 0.36999  0.47230  0.50751  Biso   1.000  C
  C146     1.0000 0.32030  0.46099  0.54210  Biso   1.000  C
  C147     1.0000 0.36999  0.52770  0.49249  Biso   1.000  C
  H169     1.0000 0.40230  0.46400  0.52761  Biso   1.000  H
  H170     1.0000 0.36931  0.44999  0.47560  Biso   1.000  H
  C148     1.0000 0.26909  0.47150  0.50951  Biso   1.000  C
  H171     1.0000 0.32070  0.48398  0.57349  Biso   1.000  H
  H172     1.0000 0.32078  0.42402  0.55411  Biso   1.000  H
  C149     1.0000 0.32030  0.53901  0.45790  Biso   1.000  C
  H173     1.0000 0.40230  0.53600  0.47239  Biso   1.000  H
  H174     1.0000 0.36931  0.55001  0.52440  Biso   1.000  H
  N25      1.0000 0.22249  0.46271  0.54560  Biso   1.000  N
  C150     1.0000 0.26909  0.52850  0.49049  Biso   1.000  C
  H175     1.0000 0.26732  0.44702  0.47881  Biso   1.000  H
  H176     1.0000 0.32070  0.51602  0.42651  Biso   1.000  H
  H177     1.0000 0.32078  0.57598  0.44589  Biso   1.000  H
  C151     1.0000 0.18909  0.42751  0.53372  Biso   1.000  C
  N26      1.0000 0.22249  0.53729  0.45440  Biso   1.000  N
  H178     1.0000 0.26732  0.55298  0.52119  Biso   1.000  H
  C152     1.0000 0.14301  0.41451  0.56719  Biso   1.000  C
  H179     1.0000 0.19379  0.40861  0.50189  Biso   1.000  H
  C153     1.0000 0.18909  0.57249  0.46628  Biso   1.000  C
  C154     1.0000 0.12928  0.44541  0.61090  Biso   1.000  C
  C155     1.0000 0.11090  0.37072  0.55459  Biso   1.000  C
  C156     1.0000 0.14301  0.58549  0.43281  Biso   1.000  C
  H180     1.0000 0.19379  0.59139  0.49811  Biso   1.000  H
  H181     1.0000 0.14992  0.47540  0.61921  Biso   1.000  H
  C157     1.0000 0.08549  0.43281  0.64301  Biso   1.000  C
  H182     1.0000 0.11921  0.35008  0.52460  Biso   1.000  H
  C158     1.0000 0.06719  0.35699  0.58549  Biso   1.000  C
  C159     1.0000 0.12928  0.55459  0.38910  Biso   1.000  C
  C160     1.0000 0.11090  0.62928  0.44541  Biso   1.000  C
  C161     1.0000 0.05459  0.38910  0.62928  Biso   1.000  C
  C162     1.0000 0.07249  0.46628  0.68909  Biso   1.000  C
  C163     1.0000 0.03372  0.31091  0.57249  Biso   1.000  C
  H183     1.0000 0.14992  0.52460  0.38079  Biso   1.000  H
  C164     1.0000 0.08549  0.56719  0.35699  Biso   1.000  C
  H184     1.0000 0.11921  0.64992  0.47540  Biso   1.000  H
  C165     1.0000 0.06719  0.64301  0.41451  Biso   1.000  C
  H185     1.0000 0.02460  0.38079  0.64992  Biso   1.000  H
  N27      1.0000 0.03729  0.45440  0.72249  Biso   1.000  N
  H186     1.0000 0.09139  0.49811  0.69379  Biso   1.000  H
  N28      1.0000 0.04560  0.27751  0.53729  Biso   1.000  N
  H187     1.0000 0.00189  0.30621  0.59139  Biso   1.000  H
  C166     1.0000 0.05459  0.61090  0.37072  Biso   1.000  C
  C167     1.0000 0.07249  0.53372  0.31091  Biso   1.000  C
  C168     1.0000 0.03372  0.68909  0.42751  Biso   1.000  C
  C169     1.0000 0.02850  0.49049  0.76909  Biso   1.000  C
  C170     1.0000 0.00951  0.23091  0.52850  Biso   1.000  C
  H188     1.0000 0.02460  0.61921  0.35008  Biso   1.000  H
  N29      1.0000 0.03729  0.54560  0.27751  Biso   1.000  N
  H189     1.0000 0.09139  0.50189  0.30621  Biso   1.000  H
  N30      1.0000 0.04560  0.72249  0.46271  Biso   1.000  N
  H190     1.0000 0.00189  0.69379  0.40861  Biso   1.000  H
  H191     1.0000 0.05298  0.52119  0.76732  Biso   1.000  H
  C171     1.0000 0.03901  0.45790  0.82030  Biso   1.000  C
  C172     1.0000 0.97150  0.50951  0.76909  Biso   1.000  C
  C173     1.0000 0.04210  0.17970  0.53901  Biso   1.000  C
  C174     1.0000 0.99049  0.23091  0.47150  Biso   1.000  C
  H192     1.0000 0.97881  0.23268  0.55298  Biso   1.000  H
  C175     1.0000 0.02850  0.50951  0.23091  Biso   1.000  C
  C176     1.0000 0.00951  0.76909  0.47150  Biso   1.000  C
  H193     1.0000 0.01602  0.42651  0.82070  Biso   1.000  H
  H194     1.0000 0.07598  0.44589  0.82078  Biso   1.000  H
  C177     1.0000 0.02770  0.49249  0.86999  Biso   1.000  C
  N31      1.0000 0.96271  0.54560  0.72249  Biso   1.000  N
  H195     1.0000 0.94702  0.47881  0.76732  Biso   1.000  H
  C178     1.0000 0.96099  0.54210  0.82030  Biso   1.000  C
  H196     1.0000 0.07349  0.17930  0.51602  Biso   1.000  H
  H197     1.0000 0.05411  0.17922  0.57598  Biso   1.000  H
  C179     1.0000 0.00751  0.13001  0.52770  Biso   1.000  C
  H198     1.0000 0.02119  0.23268  0.44702  Biso   1.000  H
  N32      1.0000 0.95440  0.27751  0.46271  Biso   1.000  N
  C180     1.0000 0.95790  0.17970  0.46099  Biso   1.000  C
  H199     1.0000 0.05298  0.47881  0.23268  Biso   1.000  H
  C181     1.0000 0.03901  0.54210  0.17970  Biso   1.000  C
  C182     1.0000 0.97150  0.49049  0.23091  Biso   1.000  C
  C183     1.0000 0.04210  0.82030  0.46099  Biso   1.000  C
  C184     1.0000 0.99049  0.76909  0.52850  Biso   1.000  C
  H200     1.0000 0.97881  0.76732  0.44702  Biso   1.000  H
  H201     1.0000 0.03600  0.47239  0.90230  Biso   1.000  H
  H202     1.0000 0.05001  0.52440  0.86931  Biso   1.000  H
  C185     1.0000 0.97230  0.50751  0.86999  Biso   1.000  C
  C186     1.0000 0.92751  0.53372  0.68909  Biso   1.000  C
  H203     1.0000 0.98398  0.57349  0.82070  Biso   1.000  H
  H204     1.0000 0.92402  0.55411  0.82078  Biso   1.000  H
  H205     1.0000 0.02761  0.09770  0.53600  Biso   1.000  H
  C187     1.0000 0.99249  0.13001  0.47230  Biso   1.000  C
  H206     1.0000 0.97560  0.13069  0.55001  Biso   1.000  H
  C188     1.0000 0.96628  0.31091  0.42751  Biso   1.000  C
  H207     1.0000 0.92651  0.17930  0.48398  Biso   1.000  H
  H208     1.0000 0.94589  0.17922  0.42402  Biso   1.000  H
  H209     1.0000 0.01602  0.57349  0.17930  Biso   1.000  H
  H210     1.0000 0.07598  0.55411  0.17922  Biso   1.000  H
  C189     1.0000 0.02770  0.50751  0.13001  Biso   1.000  C
  N33      1.0000 0.96271  0.45440  0.27751  Biso   1.000  N
  H211     1.0000 0.94702  0.52119  0.23268  Biso   1.000  H
  C190     1.0000 0.96099  0.45790  0.17970  Biso   1.000  C
  H212     1.0000 0.07349  0.82070  0.48398  Biso   1.000  H
  H213     1.0000 0.05411  0.82078  0.42402  Biso   1.000  H
  C191     1.0000 0.00751  0.86999  0.47230  Biso   1.000  C
  H214     1.0000 0.02119  0.76732  0.55298  Biso   1.000  H
  N34      1.0000 0.95440  0.72249  0.53729  Biso   1.000  N
  C192     1.0000 0.95790  0.82030  0.53901  Biso   1.000  C
  H215     1.0000 0.96400  0.52761  0.90230  Biso   1.000  H
  H216     1.0000 0.94999  0.47560  0.86931  Biso   1.000  H
  C193     1.0000 0.91451  0.56719  0.64301  Biso   1.000  C
  H217     1.0000 0.90861  0.50189  0.69379  Biso   1.000  H
  H218     1.0000 0.02440  0.13069  0.44999  Biso   1.000  H
  H219     1.0000 0.97239  0.09770  0.46400  Biso   1.000  H
  C194     1.0000 0.93281  0.35699  0.41451  Biso   1.000  C
  H220     1.0000 0.99811  0.30621  0.40861  Biso   1.000  H
  H221     1.0000 0.03600  0.52761  0.09770  Biso   1.000  H
  H222     1.0000 0.05001  0.47560  0.13069  Biso   1.000  H
  C195     1.0000 0.97230  0.49249  0.13001  Biso   1.000  C
  C196     1.0000 0.92751  0.46628  0.31091  Biso   1.000  C
  H223     1.0000 0.98398  0.42651  0.17930  Biso   1.000  H
  H224     1.0000 0.92402  0.44589  0.17922  Biso   1.000  H
  H225     1.0000 0.02761  0.90230  0.46400  Biso   1.000  H
  C197     1.0000 0.99249  0.86999  0.52770  Biso   1.000  C
  H226     1.0000 0.97560  0.86931  0.44999  Biso   1.000  H
  C198     1.0000 0.96628  0.68909  0.57249  Biso   1.000  C
  H227     1.0000 0.92651  0.82070  0.51602  Biso   1.000  H
  H228     1.0000 0.94589  0.82078  0.57598  Biso   1.000  H
  C199     1.0000 0.87072  0.55459  0.61090  Biso   1.000  C
  C200     1.0000 0.94541  0.61090  0.62928  Biso   1.000  C
  C201     1.0000 0.94541  0.38910  0.37072  Biso   1.000  C
  C202     1.0000 0.88910  0.37072  0.44541  Biso   1.000  C
  H229     1.0000 0.96400  0.47239  0.09770  Biso   1.000  H
  H230     1.0000 0.94999  0.52440  0.13069  Biso   1.000  H
  C203     1.0000 0.91451  0.43281  0.35699  Biso   1.000  C
  H231     1.0000 0.90861  0.49811  0.30621  Biso   1.000  H
  H232     1.0000 0.02440  0.86931  0.55001  Biso   1.000  H
  H233     1.0000 0.97239  0.90230  0.53600  Biso   1.000  H
  C204     1.0000 0.93281  0.64301  0.58549  Biso   1.000  C
  H234     1.0000 0.99811  0.69379  0.59139  Biso   1.000  H
  H235     1.0000 0.85008  0.52460  0.61921  Biso   1.000  H
  C205     1.0000 0.85699  0.58549  0.56719  Biso   1.000  C
  H236     1.0000 0.97540  0.61921  0.64992  Biso   1.000  H
  H237     1.0000 0.97540  0.38079  0.35008  Biso   1.000  H
  H238     1.0000 0.88079  0.35008  0.47540  Biso   1.000  H
  C206     1.0000 0.85699  0.41451  0.43281  Biso   1.000  C
  C207     1.0000 0.87072  0.44541  0.38910  Biso   1.000  C
  C208     1.0000 0.88910  0.62928  0.55459  Biso   1.000  C
  C209     1.0000 0.81091  0.57249  0.53372  Biso   1.000  C
  C210     1.0000 0.81091  0.42751  0.46628  Biso   1.000  C
  H239     1.0000 0.85008  0.47540  0.38079  Biso   1.000  H
  H240     1.0000 0.88079  0.64992  0.52460  Biso   1.000  H
  N35      1.0000 0.77751  0.53729  0.54560  Biso   1.000  N
  H241     1.0000 0.80621  0.59139  0.50189  Biso   1.000  H
  N36      1.0000 0.77751  0.46271  0.45440  Biso   1.000  N
  H242     1.0000 0.80621  0.40861  0.49811  Biso   1.000  H
  C211     1.0000 0.73091  0.52850  0.50951  Biso   1.000  C
  C212     1.0000 0.73091  0.47150  0.49049  Biso   1.000  C
  H243     1.0000 0.73268  0.55298  0.47881  Biso   1.000  H
  C213     1.0000 0.67970  0.53901  0.54210  Biso   1.000  C
  H244     1.0000 0.73268  0.44702  0.52119  Biso   1.000  H
  C214     1.0000 0.67970  0.46099  0.45790  Biso   1.000  C
  H245     1.0000 0.67930  0.51602  0.57349  Biso   1.000  H
  H246     1.0000 0.67922  0.57598  0.55411  Biso   1.000  H
  C215     1.0000 0.63001  0.52770  0.50751  Biso   1.000  C
  H247     1.0000 0.67930  0.48398  0.42651  Biso   1.000  H
  H248     1.0000 0.67922  0.42402  0.44589  Biso   1.000  H
  C216     1.0000 0.63001  0.47230  0.49249  Biso   1.000  C
  H249     1.0000 0.59770  0.53600  0.52761  Biso   1.000  H
  H250     1.0000 0.63069  0.55001  0.47560  Biso   1.000  H
  H251     1.0000 0.59770  0.46400  0.47239  Biso   1.000  H
  H252     1.0000 0.63069  0.44999  0.52440  Biso   1.000  H
  C217     1.0000 0.39299  0.31721  0.33551  Biso   1.000  C
  C218     1.0000 0.37930  0.36088  0.30461  Biso   1.000  C
  C219     1.0000 0.36088  0.30461  0.37930  Biso   1.000  C
  C220     1.0000 0.43911  0.28370  0.32251  Biso   1.000  C
  H253     1.0000 0.39990  0.36919  0.27458  Biso   1.000  H
  C221     1.0000 0.33551  0.39299  0.31721  Biso   1.000  C
  C222     1.0000 0.31721  0.33551  0.39299  Biso   1.000  C
  H254     1.0000 0.36919  0.27458  0.39990  Biso   1.000  H
  N37      1.0000 0.47251  0.29562  0.28731  Biso   1.000  N
  H255     1.0000 0.44381  0.25191  0.34141  Biso   1.000  H
  C223     1.0000 0.30461  0.37930  0.36088  Biso   1.000  C
  C224     1.0000 0.32251  0.43911  0.28370  Biso   1.000  C
  C225     1.0000 0.28370  0.32251  0.43911  Biso   1.000  C
  C226     1.0000 0.51911  0.25949  0.27852  Biso   1.000  C
  H256     1.0000 0.27458  0.39990  0.36919  Biso   1.000  H
  N38      1.0000 0.28731  0.47251  0.29562  Biso   1.000  N
  H257     1.0000 0.34141  0.44381  0.25191  Biso   1.000  H
  N39      1.0000 0.29562  0.28731  0.47251  Biso   1.000  N
  H258     1.0000 0.25191  0.34141  0.44381  Biso   1.000  H
  C227     1.0000 0.51911  0.24051  0.22148  Biso   1.000  C
  H259     1.0000 0.51730  0.22879  0.30300  Biso   1.000  H
  C228     1.0000 0.57028  0.29208  0.28899  Biso   1.000  C
  C229     1.0000 0.27852  0.51911  0.25949  Biso   1.000  C
  C230     1.0000 0.25949  0.27852  0.51911  Biso   1.000  C
  N40      1.0000 0.47251  0.20438  0.21269  Biso   1.000  N
  H260     1.0000 0.51730  0.27121  0.19700  Biso   1.000  H
  C231     1.0000 0.57028  0.20792  0.21101  Biso   1.000  C
  H261     1.0000 0.57068  0.32351  0.26600  Biso   1.000  H
  H262     1.0000 0.57080  0.30409  0.32600  Biso   1.000  H
  C232     1.0000 0.62001  0.25749  0.27772  Biso   1.000  C
  C233     1.0000 0.22148  0.51911  0.24051  Biso   1.000  C
  H263     1.0000 0.30300  0.51730  0.22879  Biso   1.000  H
  C234     1.0000 0.28899  0.57028  0.29208  Biso   1.000  C
  C235     1.0000 0.24051  0.22148  0.51911  Biso   1.000  C
  H264     1.0000 0.22879  0.30300  0.51730  Biso   1.000  H
  C236     1.0000 0.29208  0.28899  0.57028  Biso   1.000  C
  C237     1.0000 0.43911  0.21630  0.17749  Biso   1.000  C
  H265     1.0000 0.57068  0.17649  0.23400  Biso   1.000  H
  H266     1.0000 0.57080  0.19591  0.17400  Biso   1.000  H
  C238     1.0000 0.62001  0.24251  0.22228  Biso   1.000  C
  H267     1.0000 0.65228  0.27759  0.28598  Biso   1.000  H
  H268     1.0000 0.61929  0.22562  0.29999  Biso   1.000  H
  N41      1.0000 0.21269  0.47251  0.20438  Biso   1.000  N
  H269     1.0000 0.19700  0.51730  0.27121  Biso   1.000  H
  C239     1.0000 0.21101  0.57028  0.20792  Biso   1.000  C
  H270     1.0000 0.26600  0.57068  0.32351  Biso   1.000  H
  H271     1.0000 0.32600  0.57080  0.30409  Biso   1.000  H
  C240     1.0000 0.27772  0.62001  0.25749  Biso   1.000  C
  N42      1.0000 0.20438  0.21269  0.47251  Biso   1.000  N
  H272     1.0000 0.27121  0.19700  0.51730  Biso   1.000  H
  C241     1.0000 0.20792  0.21101  0.57028  Biso   1.000  C
  H273     1.0000 0.32351  0.26600  0.57068  Biso   1.000  H
  H274     1.0000 0.30409  0.32600  0.57080  Biso   1.000  H
  C242     1.0000 0.25749  0.27772  0.62001  Biso   1.000  C
  C243     1.0000 0.39299  0.18279  0.16449  Biso   1.000  C
  H275     1.0000 0.44381  0.24809  0.15859  Biso   1.000  H
  H276     1.0000 0.65228  0.22241  0.21402  Biso   1.000  H
  H277     1.0000 0.61929  0.27438  0.20001  Biso   1.000  H
  C244     1.0000 0.17749  0.43911  0.21630  Biso   1.000  C
  H278     1.0000 0.23400  0.57068  0.17649  Biso   1.000  H
  H279     1.0000 0.17400  0.57080  0.19591  Biso   1.000  H
  C245     1.0000 0.22228  0.62001  0.24251  Biso   1.000  C
  H280     1.0000 0.28598  0.65228  0.27759  Biso   1.000  H
  H281     1.0000 0.29999  0.61929  0.22562  Biso   1.000  H
  C246     1.0000 0.21630  0.17749  0.43911  Biso   1.000  C
  H282     1.0000 0.17649  0.23400  0.57068  Biso   1.000  H
  H283     1.0000 0.19591  0.17400  0.57080  Biso   1.000  H
  C247     1.0000 0.24251  0.22228  0.62001  Biso   1.000  C
  H284     1.0000 0.27759  0.28598  0.65228  Biso   1.000  H
  H285     1.0000 0.22562  0.29999  0.61929  Biso   1.000  H
  C248     1.0000 0.37930  0.13912  0.19539  Biso   1.000  C
  C249     1.0000 0.36088  0.19539  0.12070  Biso   1.000  C
  C250     1.0000 0.16449  0.39299  0.18279  Biso   1.000  C
  H286     1.0000 0.15859  0.44381  0.24809  Biso   1.000  H
  H287     1.0000 0.21402  0.65228  0.22241  Biso   1.000  H
  H288     1.0000 0.20001  0.61929  0.27438  Biso   1.000  H
  C251     1.0000 0.18279  0.16449  0.39299  Biso   1.000  C
  H289     1.0000 0.24809  0.15859  0.44381  Biso   1.000  H
  H290     1.0000 0.22241  0.21402  0.65228  Biso   1.000  H
  H291     1.0000 0.27438  0.20001  0.61929  Biso   1.000  H
  H292     1.0000 0.39990  0.13081  0.22542  Biso   1.000  H
  C252     1.0000 0.33551  0.10701  0.18279  Biso   1.000  C
  H293     1.0000 0.36919  0.22542  0.10010  Biso   1.000  H
  C253     1.0000 0.31721  0.16449  0.10701  Biso   1.000  C
  C254     1.0000 0.19539  0.37930  0.13912  Biso   1.000  C
  C255     1.0000 0.12070  0.36088  0.19539  Biso   1.000  C
  C256     1.0000 0.13912  0.19539  0.37930  Biso   1.000  C
  C257     1.0000 0.19539  0.12070  0.36088  Biso   1.000  C
  C258     1.0000 0.30461  0.12070  0.13912  Biso   1.000  C
  C259     1.0000 0.32251  0.06089  0.21630  Biso   1.000  C
  C260     1.0000 0.28370  0.17749  0.06089  Biso   1.000  C
  H294     1.0000 0.22542  0.39990  0.13081  Biso   1.000  H
  C261     1.0000 0.18279  0.33551  0.10701  Biso   1.000  C
  H295     1.0000 0.10010  0.36919  0.22542  Biso   1.000  H
  C262     1.0000 0.10701  0.31721  0.16449  Biso   1.000  C
  H296     1.0000 0.13081  0.22542  0.39990  Biso   1.000  H
  C263     1.0000 0.10701  0.18279  0.33551  Biso   1.000  C
  H297     1.0000 0.22542  0.10010  0.36919  Biso   1.000  H
  C264     1.0000 0.16449  0.10701  0.31721  Biso   1.000  C
  H298     1.0000 0.27458  0.10010  0.13081  Biso   1.000  H
  N43      1.0000 0.28731  0.02749  0.20438  Biso   1.000  N
  H299     1.0000 0.34141  0.05619  0.24809  Biso   1.000  H
  N44      1.0000 0.29562  0.21269  0.02749  Biso   1.000  N
  H300     1.0000 0.25191  0.15859  0.05619  Biso   1.000  H
  C265     1.0000 0.13912  0.30461  0.12070  Biso   1.000  C
  C266     1.0000 0.21630  0.32251  0.06089  Biso   1.000  C
  C267     1.0000 0.06089  0.28370  0.17749  Biso   1.000  C
  C268     1.0000 0.12070  0.13912  0.30461  Biso   1.000  C
  C269     1.0000 0.06089  0.21630  0.32251  Biso   1.000  C
  C270     1.0000 0.17749  0.06089  0.28370  Biso   1.000  C
  C271     1.0000 0.27852  0.98089  0.24051  Biso   1.000  C
  C272     1.0000 0.25949  0.22148  0.98089  Biso   1.000  C
  H301     1.0000 0.13081  0.27458  0.10010  Biso   1.000  H
  N45      1.0000 0.20438  0.28731  0.02749  Biso   1.000  N
  H302     1.0000 0.24809  0.34141  0.05619  Biso   1.000  H
  N46      1.0000 0.02749  0.29562  0.21269  Biso   1.000  N
  H303     1.0000 0.05619  0.25191  0.15859  Biso   1.000  H
  H304     1.0000 0.10010  0.13081  0.27458  Biso   1.000  H
  N47      1.0000 0.02749  0.20438  0.28731  Biso   1.000  N
  H305     1.0000 0.05619  0.24809  0.34141  Biso   1.000  H
  N48      1.0000 0.21269  0.02749  0.29562  Biso   1.000  N
  H306     1.0000 0.15859  0.05619  0.25191  Biso   1.000  H
  C273     1.0000 0.22148  0.98089  0.25949  Biso   1.000  C
  H307     1.0000 0.30300  0.98270  0.27121  Biso   1.000  H
  C274     1.0000 0.28899  0.92972  0.20792  Biso   1.000  C
  C275     1.0000 0.24051  0.27852  0.98089  Biso   1.000  C
  H308     1.0000 0.22879  0.19700  0.98270  Biso   1.000  H
  C276     1.0000 0.29208  0.21101  0.92972  Biso   1.000  C
  C277     1.0000 0.98089  0.25949  0.22148  Biso   1.000  C
  C278     1.0000 0.98089  0.24051  0.27852  Biso   1.000  C
  H309     1.0000 0.19700  0.98270  0.22879  Biso   1.000  H
  C279     1.0000 0.21101  0.92972  0.29208  Biso   1.000  C
  H310     1.0000 0.26600  0.92932  0.17649  Biso   1.000  H
  H311     1.0000 0.32600  0.92920  0.19591  Biso   1.000  H
  C280     1.0000 0.27772  0.87999  0.24251  Biso   1.000  C
  H312     1.0000 0.27121  0.30300  0.98270  Biso   1.000  H
  C281     1.0000 0.20792  0.28899  0.92972  Biso   1.000  C
  H313     1.0000 0.32351  0.23400  0.92932  Biso   1.000  H
  H314     1.0000 0.30409  0.17400  0.92920  Biso   1.000  H
  C282     1.0000 0.25749  0.22228  0.87999  Biso   1.000  C
  H315     1.0000 0.98270  0.22879  0.19700  Biso   1.000  H
  C283     1.0000 0.92972  0.29208  0.21101  Biso   1.000  C
  H316     1.0000 0.98270  0.27121  0.30300  Biso   1.000  H
  C284     1.0000 0.92972  0.20792  0.28899  Biso   1.000  C
  H317     1.0000 0.23400  0.92932  0.32351  Biso   1.000  H
  H318     1.0000 0.17400  0.92920  0.30409  Biso   1.000  H
  C285     1.0000 0.22228  0.87999  0.25749  Biso   1.000  C
  H319     1.0000 0.28598  0.84772  0.22241  Biso   1.000  H
  H320     1.0000 0.29999  0.88071  0.27438  Biso   1.000  H
  H321     1.0000 0.17649  0.26600  0.92932  Biso   1.000  H
  H322     1.0000 0.19591  0.32600  0.92920  Biso   1.000  H
  C286     1.0000 0.24251  0.27772  0.87999  Biso   1.000  C
  H323     1.0000 0.27759  0.21402  0.84772  Biso   1.000  H
  H324     1.0000 0.22562  0.20001  0.88071  Biso   1.000  H
  H325     1.0000 0.92932  0.32351  0.23400  Biso   1.000  H
  H326     1.0000 0.92920  0.30409  0.17400  Biso   1.000  H
  C287     1.0000 0.87999  0.25749  0.22228  Biso   1.000  C
  H327     1.0000 0.92932  0.17649  0.26600  Biso   1.000  H
  H328     1.0000 0.92920  0.19591  0.32600  Biso   1.000  H
  C288     1.0000 0.87999  0.24251  0.27772  Biso   1.000  C
  H329     1.0000 0.21402  0.84772  0.27759  Biso   1.000  H
  H330     1.0000 0.20001  0.88071  0.22562  Biso   1.000  H
  H331     1.0000 0.22241  0.28598  0.84772  Biso   1.000  H
  H332     1.0000 0.27438  0.29999  0.88071  Biso   1.000  H
  H333     1.0000 0.84772  0.27759  0.21402  Biso   1.000  H
  H334     1.0000 0.88071  0.22562  0.20001  Biso   1.000  H
  H335     1.0000 0.84772  0.22241  0.28598  Biso   1.000  H
  H336     1.0000 0.88071  0.27438  0.29999  Biso   1.000  H
  C289     1.0000 0.66449  0.60701  0.31721  Biso   1.000  C
  C290     1.0000 0.67749  0.56089  0.28370  Biso   1.000  C
  C291     1.0000 0.69539  0.62070  0.36088  Biso   1.000  C
  C292     1.0000 0.62070  0.63912  0.30461  Biso   1.000  C
  N49      1.0000 0.71269  0.52749  0.29562  Biso   1.000  N
  H337     1.0000 0.65859  0.55619  0.25191  Biso   1.000  H
  H338     1.0000 0.72542  0.60010  0.36919  Biso   1.000  H
  C293     1.0000 0.68279  0.66449  0.39299  Biso   1.000  C
  H339     1.0000 0.60010  0.63081  0.27458  Biso   1.000  H
  C294     1.0000 0.60701  0.68279  0.33551  Biso   1.000  C
  C295     1.0000 0.72148  0.48089  0.25949  Biso   1.000  C
  C296     1.0000 0.63912  0.69539  0.37930  Biso   1.000  C
  C297     1.0000 0.71630  0.67749  0.43911  Biso   1.000  C
  C298     1.0000 0.56089  0.71630  0.32251  Biso   1.000  C
  C299     1.0000 0.71101  0.42972  0.29208  Biso   1.000  C
  C300     1.0000 0.77852  0.48089  0.24051  Biso   1.000  C
  H340     1.0000 0.69700  0.48270  0.22879  Biso   1.000  H
  H341     1.0000 0.63081  0.72542  0.39990  Biso   1.000  H
  N50      1.0000 0.70438  0.71269  0.47251  Biso   1.000  N
  H342     1.0000 0.74809  0.65859  0.44381  Biso   1.000  H
  N51      1.0000 0.52749  0.70438  0.28731  Biso   1.000  N
  H343     1.0000 0.55619  0.74809  0.34141  Biso   1.000  H
  C301     1.0000 0.72228  0.37999  0.25749  Biso   1.000  C
  H344     1.0000 0.73400  0.42932  0.32351  Biso   1.000  H
  H345     1.0000 0.67400  0.42920  0.30409  Biso   1.000  H
  C302     1.0000 0.78899  0.42972  0.20792  Biso   1.000  C
  N52      1.0000 0.78731  0.52749  0.20438  Biso   1.000  N
  H346     1.0000 0.80300  0.48270  0.27121  Biso   1.000  H
  C303     1.0000 0.74051  0.72148  0.51911  Biso   1.000  C
  C304     1.0000 0.48089  0.74051  0.27852  Biso   1.000  C
  C305     1.0000 0.77772  0.37999  0.24251  Biso   1.000  C
  H347     1.0000 0.71402  0.34772  0.27759  Biso   1.000  H
  H348     1.0000 0.70001  0.38071  0.22562  Biso   1.000  H
  H349     1.0000 0.76600  0.42932  0.17649  Biso   1.000  H
  H350     1.0000 0.82600  0.42920  0.19591  Biso   1.000  H
  C306     1.0000 0.82251  0.56089  0.21630  Biso   1.000  C
  C307     1.0000 0.75949  0.77852  0.51911  Biso   1.000  C
  H351     1.0000 0.77121  0.69700  0.51730  Biso   1.000  H
  C308     1.0000 0.70792  0.71101  0.57028  Biso   1.000  C
  C309     1.0000 0.48089  0.75949  0.22148  Biso   1.000  C
  H352     1.0000 0.48270  0.77121  0.30300  Biso   1.000  H
  C310     1.0000 0.42972  0.70792  0.28899  Biso   1.000  C
  H353     1.0000 0.78598  0.34772  0.22241  Biso   1.000  H
  H354     1.0000 0.79999  0.38071  0.27438  Biso   1.000  H
  C311     1.0000 0.83551  0.60701  0.18279  Biso   1.000  C
  H355     1.0000 0.84141  0.55619  0.24809  Biso   1.000  H
  N53      1.0000 0.79562  0.78731  0.47251  Biso   1.000  N
  H356     1.0000 0.72879  0.80300  0.51730  Biso   1.000  H
  C312     1.0000 0.79208  0.78899  0.57028  Biso   1.000  C
  H357     1.0000 0.67649  0.73400  0.57068  Biso   1.000  H
  H358     1.0000 0.69591  0.67400  0.57080  Biso   1.000  H
  C313     1.0000 0.74251  0.72228  0.62001  Biso   1.000  C
  N54      1.0000 0.52749  0.79562  0.21269  Biso   1.000  N
  H359     1.0000 0.48270  0.72879  0.19700  Biso   1.000  H
  C314     1.0000 0.42972  0.79208  0.21101  Biso   1.000  C
  H360     1.0000 0.42932  0.67649  0.26600  Biso   1.000  H
  H361     1.0000 0.42920  0.69591  0.32600  Biso   1.000  H
  C315     1.0000 0.37999  0.74251  0.27772  Biso   1.000  C
  C316     1.0000 0.80461  0.62070  0.13912  Biso   1.000  C
  C317     1.0000 0.87930  0.63912  0.19539  Biso   1.000  C
  C318     1.0000 0.78370  0.82251  0.43911  Biso   1.000  C
  H362     1.0000 0.82351  0.76600  0.57068  Biso   1.000  H
  H363     1.0000 0.80409  0.82600  0.57080  Biso   1.000  H
  C319     1.0000 0.75749  0.77772  0.62001  Biso   1.000  C
  H364     1.0000 0.72241  0.71402  0.65228  Biso   1.000  H
  H365     1.0000 0.77438  0.70001  0.61929  Biso   1.000  H
  C320     1.0000 0.56089  0.78370  0.17749  Biso   1.000  C
  H366     1.0000 0.42932  0.82351  0.23400  Biso   1.000  H
  H367     1.0000 0.42920  0.80409  0.17400  Biso   1.000  H
  C321     1.0000 0.37999  0.75749  0.22228  Biso   1.000  C
  H368     1.0000 0.34772  0.72241  0.28598  Biso   1.000  H
  H369     1.0000 0.38071  0.77438  0.29999  Biso   1.000  H
  H370     1.0000 0.77458  0.60010  0.13081  Biso   1.000  H
  C322     1.0000 0.81721  0.66449  0.10701  Biso   1.000  C
  H371     1.0000 0.89990  0.63081  0.22542  Biso   1.000  H
  C323     1.0000 0.89299  0.68279  0.16449  Biso   1.000  C
  C324     1.0000 0.81721  0.83551  0.39299  Biso   1.000  C
  H372     1.0000 0.75191  0.84141  0.44381  Biso   1.000  H
  H373     1.0000 0.77759  0.78598  0.65228  Biso   1.000  H
  H374     1.0000 0.72562  0.79999  0.61929  Biso   1.000  H
  C325     1.0000 0.60701  0.81721  0.16449  Biso   1.000  C
  H375     1.0000 0.55619  0.75191  0.15859  Biso   1.000  H
  H376     1.0000 0.34772  0.77759  0.21402  Biso   1.000  H
  H377     1.0000 0.38071  0.72562  0.20001  Biso   1.000  H
  C326     1.0000 0.86088  0.69539  0.12070  Biso   1.000  C
  C327     1.0000 0.78370  0.67749  0.06089  Biso   1.000  C
  C328     1.0000 0.93911  0.71630  0.17749  Biso   1.000  C
  C329     1.0000 0.86088  0.80461  0.37930  Biso   1.000  C
  C330     1.0000 0.80461  0.87930  0.36088  Biso   1.000  C
  C331     1.0000 0.63912  0.80461  0.12070  Biso   1.000  C
  C332     1.0000 0.62070  0.86088  0.19539  Biso   1.000  C
  H378     1.0000 0.86919  0.72542  0.10010  Biso   1.000  H
  N55      1.0000 0.79562  0.71269  0.02749  Biso   1.000  N
  H379     1.0000 0.75191  0.65859  0.05619  Biso   1.000  H
  N56      1.0000 0.97251  0.70438  0.21269  Biso   1.000  N
  H380     1.0000 0.94381  0.74809  0.15859  Biso   1.000  H
  C333     1.0000 0.89299  0.81721  0.33551  Biso   1.000  C
  H381     1.0000 0.86919  0.77458  0.39990  Biso   1.000  H
  H382     1.0000 0.77458  0.89990  0.36919  Biso   1.000  H
  C334     1.0000 0.83551  0.89299  0.31721  Biso   1.000  C
  C335     1.0000 0.68279  0.83551  0.10701  Biso   1.000  C
  H383     1.0000 0.63081  0.77458  0.10010  Biso   1.000  H
  H384     1.0000 0.60010  0.86919  0.22542  Biso   1.000  H
  C336     1.0000 0.66449  0.89299  0.18279  Biso   1.000  C
  C337     1.0000 0.75949  0.72148  0.98089  Biso   1.000  C
  C338     1.0000 0.01911  0.74051  0.22148  Biso   1.000  C
  C339     1.0000 0.93911  0.78370  0.32251  Biso   1.000  C
  C340     1.0000 0.87930  0.86088  0.30461  Biso   1.000  C
  C341     1.0000 0.82251  0.93911  0.28370  Biso   1.000  C
  C342     1.0000 0.71630  0.82251  0.06089  Biso   1.000  C
  C343     1.0000 0.69539  0.87930  0.13912  Biso   1.000  C
  C344     1.0000 0.67749  0.93911  0.21630  Biso   1.000  C
  C345     1.0000 0.74051  0.77852  0.98089  Biso   1.000  C
  H385     1.0000 0.72879  0.69700  0.98270  Biso   1.000  H
  C346     1.0000 0.79208  0.71101  0.92972  Biso   1.000  C
  C347     1.0000 0.01911  0.75949  0.27852  Biso   1.000  C
  H386     1.0000 0.01730  0.77121  0.19700  Biso   1.000  H
  C348     1.0000 0.07028  0.70792  0.21101  Biso   1.000  C
  N57      1.0000 0.97251  0.79562  0.28731  Biso   1.000  N
  H387     1.0000 0.94381  0.75191  0.34141  Biso   1.000  H
  H388     1.0000 0.89990  0.86919  0.27458  Biso   1.000  H
  N58      1.0000 0.78731  0.97251  0.29562  Biso   1.000  N
  H389     1.0000 0.84141  0.94381  0.25191  Biso   1.000  H
  N59      1.0000 0.70438  0.78731  0.02749  Biso   1.000  N
  H390     1.0000 0.74809  0.84141  0.05619  Biso   1.000  H
  H391     1.0000 0.72542  0.89990  0.13081  Biso   1.000  H
  N60      1.0000 0.71269  0.97251  0.20438  Biso   1.000  N
  H392     1.0000 0.65859  0.94381  0.24809  Biso   1.000  H
  H393     1.0000 0.77121  0.80300  0.98270  Biso   1.000  H
  C349     1.0000 0.70792  0.78899  0.92972  Biso   1.000  C
  H394     1.0000 0.82351  0.73400  0.92932  Biso   1.000  H
  H395     1.0000 0.80409  0.67400  0.92920  Biso   1.000  H
  C350     1.0000 0.75749  0.72228  0.87999  Biso   1.000  C
  H396     1.0000 0.01730  0.72879  0.30300  Biso   1.000  H
  C351     1.0000 0.07028  0.79208  0.28899  Biso   1.000  C
  H397     1.0000 0.07068  0.67649  0.23400  Biso   1.000  H
  H398     1.0000 0.07080  0.69591  0.17400  Biso   1.000  H
  C352     1.0000 0.12001  0.74251  0.22228  Biso   1.000  C
  C353     1.0000 0.77852  0.01911  0.25949  Biso   1.000  C
  C354     1.0000 0.72148  0.01911  0.24051  Biso   1.000  C
  H399     1.0000 0.67649  0.76600  0.92932  Biso   1.000  H
  H400     1.0000 0.69591  0.82600  0.92920  Biso   1.000  H
  C355     1.0000 0.74251  0.77772  0.87999  Biso   1.000  C
  H401     1.0000 0.77759  0.71402  0.84772  Biso   1.000  H
  H402     1.0000 0.72562  0.70001  0.88071  Biso   1.000  H
  H403     1.0000 0.07068  0.82351  0.26600  Biso   1.000  H
  H404     1.0000 0.07080  0.80409  0.32600  Biso   1.000  H
  C356     1.0000 0.12001  0.75749  0.27772  Biso   1.000  C
  H405     1.0000 0.15228  0.72241  0.21402  Biso   1.000  H
  H406     1.0000 0.11929  0.77438  0.20001  Biso   1.000  H
  H407     1.0000 0.80300  0.01730  0.22879  Biso   1.000  H
  C357     1.0000 0.78899  0.07028  0.29208  Biso   1.000  C
  H408     1.0000 0.69700  0.01730  0.27121  Biso   1.000  H
  C358     1.0000 0.71101  0.07028  0.20792  Biso   1.000  C
  H409     1.0000 0.72241  0.78598  0.84772  Biso   1.000  H
  H410     1.0000 0.77438  0.79999  0.88071  Biso   1.000  H
  H411     1.0000 0.15228  0.77759  0.28598  Biso   1.000  H
  H412     1.0000 0.11929  0.72562  0.29999  Biso   1.000  H
  H413     1.0000 0.76600  0.07068  0.32351  Biso   1.000  H
  H414     1.0000 0.82600  0.07080  0.30409  Biso   1.000  H
  C359     1.0000 0.77772  0.12001  0.25749  Biso   1.000  C
  H415     1.0000 0.73400  0.07068  0.17649  Biso   1.000  H
  H416     1.0000 0.67400  0.07080  0.19591  Biso   1.000  H
  C360     1.0000 0.72228  0.12001  0.24251  Biso   1.000  C
  H417     1.0000 0.78598  0.15228  0.27759  Biso   1.000  H
  H418     1.0000 0.79999  0.11929  0.22562  Biso   1.000  H
  H419     1.0000 0.71402  0.15228  0.22241  Biso   1.000  H
  H420     1.0000 0.70001  0.11929  0.27438  Biso   1.000  H
  C361     1.0000 0.60701  0.31721  0.66449  Biso   1.000  C
  C362     1.0000 0.63912  0.30461  0.62070  Biso   1.000  C
  C363     1.0000 0.62070  0.36088  0.69539  Biso   1.000  C
  C364     1.0000 0.56089  0.28370  0.67749  Biso   1.000  C
  C365     1.0000 0.68279  0.33551  0.60701  Biso   1.000  C
  H421     1.0000 0.63081  0.27458  0.60010  Biso   1.000  H
  C366     1.0000 0.66449  0.39299  0.68279  Biso   1.000  C
  H422     1.0000 0.60010  0.36919  0.72542  Biso   1.000  H
  N61      1.0000 0.52749  0.29562  0.71269  Biso   1.000  N
  H423     1.0000 0.55619  0.25191  0.65859  Biso   1.000  H
  C367     1.0000 0.71630  0.32251  0.56089  Biso   1.000  C
  C368     1.0000 0.69539  0.37930  0.63912  Biso   1.000  C
  C369     1.0000 0.67749  0.43911  0.71630  Biso   1.000  C
  C370     1.0000 0.48089  0.25949  0.72148  Biso   1.000  C
  N62      1.0000 0.70438  0.28731  0.52749  Biso   1.000  N
  H424     1.0000 0.74809  0.34141  0.55619  Biso   1.000  H
  H425     1.0000 0.72542  0.39990  0.63081  Biso   1.000  H
  N63      1.0000 0.71269  0.47251  0.70438  Biso   1.000  N
  H426     1.0000 0.65859  0.44381  0.74809  Biso   1.000  H
  C371     1.0000 0.48089  0.24051  0.77852  Biso   1.000  C
  H427     1.0000 0.48270  0.22879  0.69700  Biso   1.000  H
  C372     1.0000 0.42972  0.29208  0.71101  Biso   1.000  C
  C373     1.0000 0.74051  0.27852  0.48089  Biso   1.000  C
  C374     1.0000 0.72148  0.51911  0.74051  Biso   1.000  C
  N64      1.0000 0.52749  0.20438  0.78731  Biso   1.000  N
  H428     1.0000 0.48270  0.27121  0.80300  Biso   1.000  H
  C375     1.0000 0.42972  0.20792  0.78899  Biso   1.000  C
  H429     1.0000 0.42932  0.32351  0.73400  Biso   1.000  H
  H430     1.0000 0.42920  0.30409  0.67400  Biso   1.000  H
  C376     1.0000 0.37999  0.25749  0.72228  Biso   1.000  C
  C377     1.0000 0.70792  0.28899  0.42972  Biso   1.000  C
  C378     1.0000 0.75949  0.22148  0.48089  Biso   1.000  C
  H431     1.0000 0.77121  0.30300  0.48270  Biso   1.000  H
  C379     1.0000 0.77852  0.51911  0.75949  Biso   1.000  C
  H432     1.0000 0.69700  0.51730  0.77121  Biso   1.000  H
  C380     1.0000 0.71101  0.57028  0.70792  Biso   1.000  C
  C381     1.0000 0.56089  0.21630  0.82251  Biso   1.000  C
  H433     1.0000 0.42932  0.17649  0.76600  Biso   1.000  H
  H434     1.0000 0.42920  0.19591  0.82600  Biso   1.000  H
  C382     1.0000 0.37999  0.24251  0.77772  Biso   1.000  C
  H435     1.0000 0.34772  0.27759  0.71402  Biso   1.000  H
  H436     1.0000 0.38071  0.22562  0.70001  Biso   1.000  H
  H437     1.0000 0.67649  0.26600  0.42932  Biso   1.000  H
  H438     1.0000 0.69591  0.32600  0.42920  Biso   1.000  H
  C383     1.0000 0.74251  0.27772  0.37999  Biso   1.000  C
  N65      1.0000 0.79562  0.21269  0.52749  Biso   1.000  N
  H439     1.0000 0.72879  0.19700  0.48270  Biso   1.000  H
  C384     1.0000 0.79208  0.21101  0.42972  Biso   1.000  C
  N66      1.0000 0.78731  0.47251  0.79562  Biso   1.000  N
  H440     1.0000 0.80300  0.51730  0.72879  Biso   1.000  H
  C385     1.0000 0.78899  0.57028  0.79208  Biso   1.000  C
  H441     1.0000 0.73400  0.57068  0.67649  Biso   1.000  H
  H442     1.0000 0.67400  0.57080  0.69591  Biso   1.000  H
  C386     1.0000 0.72228  0.62001  0.74251  Biso   1.000  C
  C387     1.0000 0.60701  0.18279  0.83551  Biso   1.000  C
  H443     1.0000 0.55619  0.24809  0.84141  Biso   1.000  H
  H444     1.0000 0.34772  0.22241  0.78598  Biso   1.000  H
  H445     1.0000 0.38071  0.27438  0.79999  Biso   1.000  H
  C388     1.0000 0.75749  0.22228  0.37999  Biso   1.000  C
  H446     1.0000 0.72241  0.28598  0.34772  Biso   1.000  H
  H447     1.0000 0.77438  0.29999  0.38071  Biso   1.000  H
  C389     1.0000 0.78370  0.17749  0.56089  Biso   1.000  C
  H448     1.0000 0.82351  0.23400  0.42932  Biso   1.000  H
  H449     1.0000 0.80409  0.17400  0.42920  Biso   1.000  H
  C390     1.0000 0.82251  0.43911  0.78370  Biso   1.000  C
  H450     1.0000 0.76600  0.57068  0.82351  Biso   1.000  H
  H451     1.0000 0.82600  0.57080  0.80409  Biso   1.000  H
  C391     1.0000 0.77772  0.62001  0.75749  Biso   1.000  C
  H452     1.0000 0.71402  0.65228  0.72241  Biso   1.000  H
  H453     1.0000 0.70001  0.61929  0.77438  Biso   1.000  H
  C392     1.0000 0.63912  0.19539  0.87930  Biso   1.000  C
  C393     1.0000 0.62070  0.13912  0.80461  Biso   1.000  C
  H454     1.0000 0.77759  0.21402  0.34772  Biso   1.000  H
  H455     1.0000 0.72562  0.20001  0.38071  Biso   1.000  H
  C394     1.0000 0.81721  0.16449  0.60701  Biso   1.000  C
  H456     1.0000 0.75191  0.15859  0.55619  Biso   1.000  H
  C395     1.0000 0.83551  0.39299  0.81721  Biso   1.000  C
  H457     1.0000 0.84141  0.44381  0.75191  Biso   1.000  H
  H458     1.0000 0.78598  0.65228  0.77759  Biso   1.000  H
  H459     1.0000 0.79999  0.61929  0.72562  Biso   1.000  H
  H460     1.0000 0.63081  0.22542  0.89990  Biso   1.000  H
  C396     1.0000 0.68279  0.16449  0.89299  Biso   1.000  C
  C397     1.0000 0.66449  0.10701  0.81721  Biso   1.000  C
  H461     1.0000 0.60010  0.13081  0.77458  Biso   1.000  H
  C398     1.0000 0.80461  0.12070  0.63912  Biso   1.000  C
  C399     1.0000 0.86088  0.19539  0.62070  Biso   1.000  C
  C400     1.0000 0.87930  0.36088  0.80461  Biso   1.000  C
  C401     1.0000 0.80461  0.37930  0.86088  Biso   1.000  C
  C402     1.0000 0.69539  0.12070  0.86088  Biso   1.000  C
  C403     1.0000 0.71630  0.17749  0.93911  Biso   1.000  C
  C404     1.0000 0.67749  0.06089  0.78370  Biso   1.000  C
  H462     1.0000 0.77458  0.10010  0.63081  Biso   1.000  H
  C405     1.0000 0.83551  0.10701  0.68279  Biso   1.000  C
  H463     1.0000 0.86919  0.22542  0.60010  Biso   1.000  H
  C406     1.0000 0.89299  0.18279  0.66449  Biso   1.000  C
  C407     1.0000 0.89299  0.31721  0.83551  Biso   1.000  C
  H464     1.0000 0.89990  0.36919  0.77458  Biso   1.000  H
  H465     1.0000 0.77458  0.39990  0.86919  Biso   1.000  H
  C408     1.0000 0.81721  0.33551  0.89299  Biso   1.000  C
  H466     1.0000 0.72542  0.10010  0.86919  Biso   1.000  H
  N67      1.0000 0.70438  0.21269  0.97251  Biso   1.000  N
  H467     1.0000 0.74809  0.15859  0.94381  Biso   1.000  H
  N68      1.0000 0.71269  0.02749  0.79562  Biso   1.000  N
  H468     1.0000 0.65859  0.05619  0.75191  Biso   1.000  H
  C409     1.0000 0.87930  0.13912  0.69539  Biso   1.000  C
  C410     1.0000 0.82251  0.06089  0.71630  Biso   1.000  C
  C411     1.0000 0.93911  0.21630  0.67749  Biso   1.000  C
  C412     1.0000 0.93911  0.28370  0.82251  Biso   1.000  C
  C413     1.0000 0.86088  0.30461  0.87930  Biso   1.000  C
  C414     1.0000 0.78370  0.32251  0.93911  Biso   1.000  C
  C415     1.0000 0.74051  0.22148  0.01911  Biso   1.000  C
  C416     1.0000 0.72148  0.98089  0.75949  Biso   1.000  C
  H469     1.0000 0.89990  0.13081  0.72542  Biso   1.000  H
  N69      1.0000 0.78731  0.02749  0.70438  Biso   1.000  N
  H470     1.0000 0.84141  0.05619  0.74809  Biso   1.000  H
  N70      1.0000 0.97251  0.20438  0.71269  Biso   1.000  N
  H471     1.0000 0.94381  0.24809  0.65859  Biso   1.000  H
  N71      1.0000 0.97251  0.29562  0.78731  Biso   1.000  N
  H472     1.0000 0.94381  0.25191  0.84141  Biso   1.000  H
  H473     1.0000 0.86919  0.27458  0.89990  Biso   1.000  H
  N72      1.0000 0.79562  0.28731  0.97251  Biso   1.000  N
  H474     1.0000 0.75191  0.34141  0.94381  Biso   1.000  H
  C417     1.0000 0.75949  0.27852  0.01911  Biso   1.000  C
  H475     1.0000 0.77121  0.19700  0.01730  Biso   1.000  H
  C418     1.0000 0.70792  0.21101  0.07028  Biso   1.000  C
  C419     1.0000 0.77852  0.98089  0.74051  Biso   1.000  C
  H476     1.0000 0.69700  0.98270  0.72879  Biso   1.000  H
  C420     1.0000 0.71101  0.92972  0.79208  Biso   1.000  C
  C421     1.0000 0.01911  0.24051  0.72148  Biso   1.000  C
  C422     1.0000 0.01911  0.25949  0.77852  Biso   1.000  C
  H477     1.0000 0.72879  0.30300  0.01730  Biso   1.000  H
  C423     1.0000 0.79208  0.28899  0.07028  Biso   1.000  C
  H478     1.0000 0.67649  0.23400  0.07068  Biso   1.000  H
  H479     1.0000 0.69591  0.17400  0.07080  Biso   1.000  H
  C424     1.0000 0.74251  0.22228  0.12001  Biso   1.000  C
  H480     1.0000 0.80300  0.98270  0.77121  Biso   1.000  H
  C425     1.0000 0.78899  0.92972  0.70792  Biso   1.000  C
  H481     1.0000 0.73400  0.92932  0.82351  Biso   1.000  H
  H482     1.0000 0.67400  0.92920  0.80409  Biso   1.000  H
  C426     1.0000 0.72228  0.87999  0.75749  Biso   1.000  C
  H483     1.0000 0.01730  0.27121  0.69700  Biso   1.000  H
  C427     1.0000 0.07028  0.20792  0.71101  Biso   1.000  C
  H484     1.0000 0.01730  0.22879  0.80300  Biso   1.000  H
  C428     1.0000 0.07028  0.29208  0.78899  Biso   1.000  C
  H485     1.0000 0.82351  0.26600  0.07068  Biso   1.000  H
  H486     1.0000 0.80409  0.32600  0.07080  Biso   1.000  H
  C429     1.0000 0.75749  0.27772  0.12001  Biso   1.000  C
  H487     1.0000 0.72241  0.21402  0.15228  Biso   1.000  H
  H488     1.0000 0.77438  0.20001  0.11929  Biso   1.000  H
  H489     1.0000 0.76600  0.92932  0.67649  Biso   1.000  H
  H490     1.0000 0.82600  0.92920  0.69591  Biso   1.000  H
  C430     1.0000 0.77772  0.87999  0.74251  Biso   1.000  C
  H491     1.0000 0.71402  0.84772  0.77759  Biso   1.000  H
  H492     1.0000 0.70001  0.88071  0.72562  Biso   1.000  H
  H493     1.0000 0.07068  0.17649  0.73400  Biso   1.000  H
  H494     1.0000 0.07080  0.19591  0.67400  Biso   1.000  H
  C431     1.0000 0.12001  0.24251  0.72228  Biso   1.000  C
  H495     1.0000 0.07068  0.32351  0.76600  Biso   1.000  H
  H496     1.0000 0.07080  0.30409  0.82600  Biso   1.000  H
  C432     1.0000 0.12001  0.25749  0.77772  Biso   1.000  C
  H497     1.0000 0.77759  0.28598  0.15228  Biso   1.000  H
  H498     1.0000 0.72562  0.29999  0.11929  Biso   1.000  H
  H499     1.0000 0.78598  0.84772  0.72241  Biso   1.000  H
  H500     1.0000 0.79999  0.88071  0.77438  Biso   1.000  H
  H501     1.0000 0.15228  0.22241  0.71402  Biso   1.000  H
  H502     1.0000 0.11929  0.27438  0.70001  Biso   1.000  H
  H503     1.0000 0.15228  0.27759  0.78598  Biso   1.000  H
  H504     1.0000 0.11929  0.22562  0.79999  Biso   1.000  H
  C433     1.0000 0.31721  0.66449  0.60701  Biso   1.000  C
  C434     1.0000 0.28370  0.67749  0.56089  Biso   1.000  C
  C435     1.0000 0.36088  0.69539  0.62070  Biso   1.000  C
  C436     1.0000 0.30461  0.62070  0.63912  Biso   1.000  C
  N73      1.0000 0.29562  0.71269  0.52749  Biso   1.000  N
  H505     1.0000 0.25191  0.65859  0.55619  Biso   1.000  H
  H506     1.0000 0.36919  0.72542  0.60010  Biso   1.000  H
  C437     1.0000 0.39299  0.68279  0.66449  Biso   1.000  C
  H507     1.0000 0.27458  0.60010  0.63081  Biso   1.000  H
  C438     1.0000 0.33551  0.60701  0.68279  Biso   1.000  C
  C439     1.0000 0.25949  0.72148  0.48089  Biso   1.000  C
  C440     1.0000 0.37930  0.63912  0.69539  Biso   1.000  C
  C441     1.0000 0.43911  0.71630  0.67749  Biso   1.000  C
  C442     1.0000 0.32251  0.56089  0.71630  Biso   1.000  C
  C443     1.0000 0.29208  0.71101  0.42972  Biso   1.000  C
  C444     1.0000 0.24051  0.77852  0.48089  Biso   1.000  C
  H508     1.0000 0.22879  0.69700  0.48270  Biso   1.000  H
  H509     1.0000 0.39990  0.63081  0.72542  Biso   1.000  H
  N74      1.0000 0.47251  0.70438  0.71269  Biso   1.000  N
  H510     1.0000 0.44381  0.74809  0.65859  Biso   1.000  H
  N75      1.0000 0.28731  0.52749  0.70438  Biso   1.000  N
  H511     1.0000 0.34141  0.55619  0.74809  Biso   1.000  H
  C445     1.0000 0.25749  0.72228  0.37999  Biso   1.000  C
  H512     1.0000 0.32351  0.73400  0.42932  Biso   1.000  H
  H513     1.0000 0.30409  0.67400  0.42920  Biso   1.000  H
  C446     1.0000 0.20792  0.78899  0.42972  Biso   1.000  C
  N76      1.0000 0.20438  0.78731  0.52749  Biso   1.000  N
  H514     1.0000 0.27121  0.80300  0.48270  Biso   1.000  H
  C447     1.0000 0.51911  0.74051  0.72148  Biso   1.000  C
  C448     1.0000 0.27852  0.48089  0.74051  Biso   1.000  C
  C449     1.0000 0.24251  0.77772  0.37999  Biso   1.000  C
  H515     1.0000 0.27759  0.71402  0.34772  Biso   1.000  H
  H516     1.0000 0.22562  0.70001  0.38071  Biso   1.000  H
  H517     1.0000 0.17649  0.76600  0.42932  Biso   1.000  H
  H518     1.0000 0.19591  0.82600  0.42920  Biso   1.000  H
  C450     1.0000 0.21630  0.82251  0.56089  Biso   1.000  C
  C451     1.0000 0.51911  0.75949  0.77852  Biso   1.000  C
  H519     1.0000 0.51730  0.77121  0.69700  Biso   1.000  H
  C452     1.0000 0.57028  0.70792  0.71101  Biso   1.000  C
  C453     1.0000 0.22148  0.48089  0.75949  Biso   1.000  C
  H520     1.0000 0.30300  0.48270  0.77121  Biso   1.000  H
  C454     1.0000 0.28899  0.42972  0.70792  Biso   1.000  C
  H521     1.0000 0.22241  0.78598  0.34772  Biso   1.000  H
  H522     1.0000 0.27438  0.79999  0.38071  Biso   1.000  H
  C455     1.0000 0.18279  0.83551  0.60701  Biso   1.000  C
  H523     1.0000 0.24809  0.84141  0.55619  Biso   1.000  H
  N77      1.0000 0.47251  0.79562  0.78731  Biso   1.000  N
  H524     1.0000 0.51730  0.72879  0.80300  Biso   1.000  H
  C456     1.0000 0.57028  0.79208  0.78899  Biso   1.000  C
  H525     1.0000 0.57068  0.67649  0.73400  Biso   1.000  H
  H526     1.0000 0.57080  0.69591  0.67400  Biso   1.000  H
  C457     1.0000 0.62001  0.74251  0.72228  Biso   1.000  C
  N78      1.0000 0.21269  0.52749  0.79562  Biso   1.000  N
  H527     1.0000 0.19700  0.48270  0.72879  Biso   1.000  H
  C458     1.0000 0.21101  0.42972  0.79208  Biso   1.000  C
  H528     1.0000 0.26600  0.42932  0.67649  Biso   1.000  H
  H529     1.0000 0.32600  0.42920  0.69591  Biso   1.000  H
  C459     1.0000 0.27772  0.37999  0.74251  Biso   1.000  C
  C460     1.0000 0.19539  0.87930  0.63912  Biso   1.000  C
  C461     1.0000 0.13912  0.80461  0.62070  Biso   1.000  C
  C462     1.0000 0.43911  0.78370  0.82251  Biso   1.000  C
  H530     1.0000 0.57068  0.82351  0.76600  Biso   1.000  H
  H531     1.0000 0.57080  0.80409  0.82600  Biso   1.000  H
  C463     1.0000 0.62001  0.75749  0.77772  Biso   1.000  C
  H532     1.0000 0.65228  0.72241  0.71402  Biso   1.000  H
  H533     1.0000 0.61929  0.77438  0.70001  Biso   1.000  H
  C464     1.0000 0.17749  0.56089  0.78370  Biso   1.000  C
  H534     1.0000 0.23400  0.42932  0.82351  Biso   1.000  H
  H535     1.0000 0.17400  0.42920  0.80409  Biso   1.000  H
  C465     1.0000 0.22228  0.37999  0.75749  Biso   1.000  C
  H536     1.0000 0.28598  0.34772  0.72241  Biso   1.000  H
  H537     1.0000 0.29999  0.38071  0.77438  Biso   1.000  H
  H538     1.0000 0.22542  0.89990  0.63081  Biso   1.000  H
  C466     1.0000 0.16449  0.89299  0.68279  Biso   1.000  C
  H539     1.0000 0.13081  0.77458  0.60010  Biso   1.000  H
  C467     1.0000 0.10701  0.81721  0.66449  Biso   1.000  C
  C468     1.0000 0.39299  0.81721  0.83551  Biso   1.000  C
  H540     1.0000 0.44381  0.75191  0.84141  Biso   1.000  H
  H541     1.0000 0.65228  0.77759  0.78598  Biso   1.000  H
  H542     1.0000 0.61929  0.72562  0.79999  Biso   1.000  H
  C469     1.0000 0.16449  0.60701  0.81721  Biso   1.000  C
  H543     1.0000 0.15859  0.55619  0.75191  Biso   1.000  H
  H544     1.0000 0.21402  0.34772  0.77759  Biso   1.000  H
  H545     1.0000 0.20001  0.38071  0.72562  Biso   1.000  H
  C470     1.0000 0.12070  0.86088  0.69539  Biso   1.000  C
  C471     1.0000 0.17749  0.93911  0.71630  Biso   1.000  C
  C472     1.0000 0.06089  0.78370  0.67749  Biso   1.000  C
  C473     1.0000 0.37930  0.86088  0.80461  Biso   1.000  C
  C474     1.0000 0.36088  0.80461  0.87930  Biso   1.000  C
  C475     1.0000 0.12070  0.63912  0.80461  Biso   1.000  C
  C476     1.0000 0.19539  0.62070  0.86088  Biso   1.000  C
  H546     1.0000 0.10010  0.86919  0.72542  Biso   1.000  H
  N79      1.0000 0.21269  0.97251  0.70438  Biso   1.000  N
  H547     1.0000 0.15859  0.94381  0.74809  Biso   1.000  H
  N80      1.0000 0.02749  0.79562  0.71269  Biso   1.000  N
  H548     1.0000 0.05619  0.75191  0.65859  Biso   1.000  H
  C477     1.0000 0.33551  0.89299  0.81721  Biso   1.000  C
  H549     1.0000 0.39990  0.86919  0.77458  Biso   1.000  H
  H550     1.0000 0.36919  0.77458  0.89990  Biso   1.000  H
  C478     1.0000 0.31721  0.83551  0.89299  Biso   1.000  C
  C479     1.0000 0.10701  0.68279  0.83551  Biso   1.000  C
  H551     1.0000 0.10010  0.63081  0.77458  Biso   1.000  H
  H552     1.0000 0.22542  0.60010  0.86919  Biso   1.000  H
  C480     1.0000 0.18279  0.66449  0.89299  Biso   1.000  C
  C481     1.0000 0.22148  0.01911  0.74051  Biso   1.000  C
  C482     1.0000 0.98089  0.75949  0.72148  Biso   1.000  C
  C483     1.0000 0.32251  0.93911  0.78370  Biso   1.000  C
  C484     1.0000 0.30461  0.87930  0.86088  Biso   1.000  C
  C485     1.0000 0.28370  0.82251  0.93911  Biso   1.000  C
  C486     1.0000 0.06089  0.71630  0.82251  Biso   1.000  C
  C487     1.0000 0.13912  0.69539  0.87930  Biso   1.000  C
  C488     1.0000 0.21630  0.67749  0.93911  Biso   1.000  C
  C489     1.0000 0.27852  0.01911  0.75949  Biso   1.000  C
  H553     1.0000 0.19700  0.01730  0.77121  Biso   1.000  H
  C490     1.0000 0.21101  0.07028  0.70792  Biso   1.000  C
  C491     1.0000 0.98089  0.74051  0.77852  Biso   1.000  C
  H554     1.0000 0.98270  0.72879  0.69700  Biso   1.000  H
  C492     1.0000 0.92972  0.79208  0.71101  Biso   1.000  C
  N81      1.0000 0.28731  0.97251  0.79562  Biso   1.000  N
  H555     1.0000 0.34141  0.94381  0.75191  Biso   1.000  H
  H556     1.0000 0.27458  0.89990  0.86919  Biso   1.000  H
  N82      1.0000 0.29562  0.78731  0.97251  Biso   1.000  N
  H557     1.0000 0.25191  0.84141  0.94381  Biso   1.000  H
  N83      1.0000 0.02749  0.70438  0.78731  Biso   1.000  N
  H558     1.0000 0.05619  0.74809  0.84141  Biso   1.000  H
  H559     1.0000 0.13081  0.72542  0.89990  Biso   1.000  H
  N84      1.0000 0.20438  0.71269  0.97251  Biso   1.000  N
  H560     1.0000 0.24809  0.65859  0.94381  Biso   1.000  H
  H561     1.0000 0.30300  0.01730  0.72879  Biso   1.000  H
  C493     1.0000 0.28899  0.07028  0.79208  Biso   1.000  C
  H562     1.0000 0.23400  0.07068  0.67649  Biso   1.000  H
  H563     1.0000 0.17400  0.07080  0.69591  Biso   1.000  H
  C494     1.0000 0.22228  0.12001  0.74251  Biso   1.000  C
  H564     1.0000 0.98270  0.77121  0.80300  Biso   1.000  H
  C495     1.0000 0.92972  0.70792  0.78899  Biso   1.000  C
  H565     1.0000 0.92932  0.82351  0.73400  Biso   1.000  H
  H566     1.0000 0.92920  0.80409  0.67400  Biso   1.000  H
  C496     1.0000 0.87999  0.75749  0.72228  Biso   1.000  C
  C497     1.0000 0.25949  0.77852  0.01911  Biso   1.000  C
  C498     1.0000 0.24051  0.72148  0.01911  Biso   1.000  C
  H567     1.0000 0.26600  0.07068  0.82351  Biso   1.000  H
  H568     1.0000 0.32600  0.07080  0.80409  Biso   1.000  H
  C499     1.0000 0.27772  0.12001  0.75749  Biso   1.000  C
  H569     1.0000 0.21402  0.15228  0.72241  Biso   1.000  H
  H570     1.0000 0.20001  0.11929  0.77438  Biso   1.000  H
  H571     1.0000 0.92932  0.67649  0.76600  Biso   1.000  H
  H572     1.0000 0.92920  0.69591  0.82600  Biso   1.000  H
  C500     1.0000 0.87999  0.74251  0.77772  Biso   1.000  C
  H573     1.0000 0.84772  0.77759  0.71402  Biso   1.000  H
  H574     1.0000 0.88071  0.72562  0.70001  Biso   1.000  H
  H575     1.0000 0.22879  0.80300  0.01730  Biso   1.000  H
  C501     1.0000 0.29208  0.78899  0.07028  Biso   1.000  C
  H576     1.0000 0.27121  0.69700  0.01730  Biso   1.000  H
  C502     1.0000 0.20792  0.71101  0.07028  Biso   1.000  C
  H577     1.0000 0.28598  0.15228  0.77759  Biso   1.000  H
  H578     1.0000 0.29999  0.11929  0.72562  Biso   1.000  H
  H579     1.0000 0.84772  0.72241  0.78598  Biso   1.000  H
  H580     1.0000 0.88071  0.77438  0.79999  Biso   1.000  H
  H581     1.0000 0.32351  0.76600  0.07068  Biso   1.000  H
  H582     1.0000 0.30409  0.82600  0.07080  Biso   1.000  H
  C503     1.0000 0.25749  0.77772  0.12001  Biso   1.000  C
  H583     1.0000 0.17649  0.73400  0.07068  Biso   1.000  H
  H584     1.0000 0.19591  0.67400  0.07080  Biso   1.000  H
  C504     1.0000 0.24251  0.72228  0.12001  Biso   1.000  C
  H585     1.0000 0.27759  0.78598  0.15228  Biso   1.000  H
  H586     1.0000 0.22562  0.79999  0.11929  Biso   1.000  H
  H587     1.0000 0.22241  0.71402  0.15228  Biso   1.000  H
  H588     1.0000 0.27438  0.70001  0.11929  Biso   1.000  H
