data_image0
_cell_length_a       24.876
_cell_length_b       24.876
_cell_length_c       24.876
_cell_angle_alpha    90
_cell_angle_beta     90
_cell_angle_gamma    90

_symmetry_space_group_name_H-M    "P 1"
_symmetry_int_tables_number       1

loop_
  _symmetry_equiv_pos_as_xyz
  'x, y, z'

loop_
  _atom_site_label
  _atom_site_occupancy
  _atom_site_fract_x
  _atom_site_fract_y
  _atom_site_fract_z
  _atom_site_thermal_displace_type
  _atom_site_B_iso_or_equiv
  _atom_site_type_symbol
  C1       1.0000 0.50619  0.37000  0.47130  Biso   1.000  C
  C2       1.0000 0.54289  0.31999  0.46068  Biso   1.000  C
  C3       1.0000 0.49381  0.37000  0.52870  Biso   1.000  C
  H1       1.0000 0.52480  0.40280  0.46141  Biso   1.000  H
  H2       1.0000 0.47351  0.36750  0.45031  Biso   1.000  H
  C4       1.0000 0.50969  0.26821  0.47110  Biso   1.000  C
  H3       1.0000 0.55572  0.32039  0.42390  Biso   1.000  H
  H4       1.0000 0.57381  0.32091  0.48448  Biso   1.000  H
  C5       1.0000 0.45711  0.31999  0.53932  Biso   1.000  C
  H5       1.0000 0.47520  0.40280  0.53859  Biso   1.000  H
  H6       1.0000 0.52649  0.36750  0.54969  Biso   1.000  H
  N1       1.0000 0.54438  0.22238  0.46322  Biso   1.000  N
  C6       1.0000 0.49031  0.26821  0.52890  Biso   1.000  C
  H7       1.0000 0.47902  0.26640  0.44641  Biso   1.000  H
  H8       1.0000 0.44428  0.32039  0.57610  Biso   1.000  H
  H9       1.0000 0.42619  0.32091  0.51552  Biso   1.000  H
  C7       1.0000 0.53212  0.18809  0.42840  Biso   1.000  C
  N2       1.0000 0.45562  0.22238  0.53678  Biso   1.000  N
  H10      1.0000 0.52098  0.26640  0.55359  Biso   1.000  H
  C8       1.0000 0.56601  0.14170  0.41538  Biso   1.000  C
  H11      1.0000 0.49980  0.19231  0.40999  Biso   1.000  H
  C9       1.0000 0.46788  0.18809  0.57160  Biso   1.000  C
  C10      1.0000 0.55359  0.10950  0.37188  Biso   1.000  C
  C11      1.0000 0.60950  0.12812  0.44641  Biso   1.000  C
  C12      1.0000 0.43399  0.14170  0.58462  Biso   1.000  C
  H12      1.0000 0.50020  0.19231  0.59001  Biso   1.000  H
  H13      1.0000 0.52352  0.11758  0.35118  Biso   1.000  H
  C13      1.0000 0.58462  0.06601  0.35830  Biso   1.000  C
  H14      1.0000 0.61758  0.14882  0.47648  Biso   1.000  H
  C14      1.0000 0.64170  0.08462  0.43399  Biso   1.000  C
  C15      1.0000 0.44641  0.10950  0.62812  Biso   1.000  C
  C16      1.0000 0.39050  0.12812  0.55359  Biso   1.000  C
  C17      1.0000 0.62812  0.05359  0.39050  Biso   1.000  C
  C18      1.0000 0.57160  0.03212  0.31191  Biso   1.000  C
  C19      1.0000 0.68809  0.07160  0.46788  Biso   1.000  C
  H15      1.0000 0.47648  0.11758  0.64882  Biso   1.000  H
  C20      1.0000 0.41538  0.06601  0.64170  Biso   1.000  C
  H16      1.0000 0.38242  0.14882  0.52352  Biso   1.000  H
  C21      1.0000 0.35830  0.08462  0.56601  Biso   1.000  C
  H17      1.0000 0.64882  0.02352  0.38242  Biso   1.000  H
  N3       1.0000 0.53678  0.04438  0.27762  Biso   1.000  N
  H18      1.0000 0.59001  0.99980  0.30769  Biso   1.000  H
  N4       1.0000 0.72238  0.03678  0.45562  Biso   1.000  N
  H19      1.0000 0.69231  0.09001  0.50020  Biso   1.000  H
  C22      1.0000 0.37188  0.05359  0.60950  Biso   1.000  C
  C23      1.0000 0.42840  0.03212  0.68809  Biso   1.000  C
  C24      1.0000 0.31191  0.07160  0.53212  Biso   1.000  C
  C25      1.0000 0.52890  0.00969  0.23179  Biso   1.000  C
  C26      1.0000 0.76821  0.02890  0.49031  Biso   1.000  C
  H20      1.0000 0.35118  0.02352  0.61758  Biso   1.000  H
  N5       1.0000 0.46322  0.04438  0.72238  Biso   1.000  N
  H21      1.0000 0.40999  0.99980  0.69231  Biso   1.000  H
  N6       1.0000 0.27762  0.03678  0.54438  Biso   1.000  N
  H22      1.0000 0.30769  0.09001  0.49980  Biso   1.000  H
  C27      1.0000 0.53932  0.04289  0.18001  Biso   1.000  C
  C28      1.0000 0.47110  0.99031  0.23179  Biso   1.000  C
  H23      1.0000 0.55359  0.97902  0.23360  Biso   1.000  H
  H24      1.0000 0.76640  0.05359  0.52098  Biso   1.000  H
  C29      1.0000 0.81999  0.03932  0.45711  Biso   1.000  C
  C30      1.0000 0.76821  0.97110  0.50969  Biso   1.000  C
  C31      1.0000 0.47110  0.00969  0.76821  Biso   1.000  C
  C32      1.0000 0.23179  0.02890  0.50969  Biso   1.000  C
  H25      1.0000 0.57610  0.05572  0.17961  Biso   1.000  H
  H26      1.0000 0.51552  0.07381  0.17909  Biso   1.000  H
  C33      1.0000 0.52870  0.00619  0.13000  Biso   1.000  C
  H27      1.0000 0.44641  0.02098  0.23360  Biso   1.000  H
  N7       1.0000 0.46322  0.95562  0.27762  Biso   1.000  N
  C34      1.0000 0.46068  0.95711  0.18001  Biso   1.000  C
  H28      1.0000 0.82039  0.07610  0.44428  Biso   1.000  H
  H29      1.0000 0.82091  0.01552  0.42619  Biso   1.000  H
  C35      1.0000 0.87000  0.02870  0.49381  Biso   1.000  C
  N8       1.0000 0.72238  0.96322  0.54438  Biso   1.000  N
  H30      1.0000 0.76640  0.94641  0.47902  Biso   1.000  H
  C36      1.0000 0.81999  0.96068  0.54289  Biso   1.000  C
  C37      1.0000 0.46068  0.04289  0.81999  Biso   1.000  C
  C38      1.0000 0.52890  0.99031  0.76821  Biso   1.000  C
  H31      1.0000 0.44641  0.97902  0.76640  Biso   1.000  H
  H32      1.0000 0.23360  0.05359  0.47902  Biso   1.000  H
  C39      1.0000 0.18001  0.03932  0.54289  Biso   1.000  C
  C40      1.0000 0.23179  0.97110  0.49031  Biso   1.000  C
  H33      1.0000 0.53859  0.02480  0.09720  Biso   1.000  H
  C41      1.0000 0.47130  0.99381  0.13000  Biso   1.000  C
  H34      1.0000 0.54969  0.97351  0.13250  Biso   1.000  H
  C42      1.0000 0.42840  0.96788  0.31191  Biso   1.000  C
  H35      1.0000 0.42390  0.94428  0.17961  Biso   1.000  H
  H36      1.0000 0.48448  0.92619  0.17909  Biso   1.000  H
  H37      1.0000 0.90280  0.03859  0.47520  Biso   1.000  H
  H38      1.0000 0.86750  0.04969  0.52649  Biso   1.000  H
  C43      1.0000 0.87000  0.97130  0.50619  Biso   1.000  C
  C44      1.0000 0.68809  0.92840  0.53212  Biso   1.000  C
  H39      1.0000 0.82039  0.92390  0.55572  Biso   1.000  H
  H40      1.0000 0.82091  0.98448  0.57381  Biso   1.000  H
  H41      1.0000 0.42390  0.05572  0.82039  Biso   1.000  H
  H42      1.0000 0.48448  0.07381  0.82091  Biso   1.000  H
  C45      1.0000 0.47130  0.00619  0.87000  Biso   1.000  C
  H43      1.0000 0.55359  0.02098  0.76640  Biso   1.000  H
  N9       1.0000 0.53678  0.95562  0.72238  Biso   1.000  N
  C46      1.0000 0.53932  0.95711  0.81999  Biso   1.000  C
  H44      1.0000 0.17961  0.07610  0.55572  Biso   1.000  H
  H45      1.0000 0.17909  0.01552  0.57381  Biso   1.000  H
  C47      1.0000 0.13000  0.02870  0.50619  Biso   1.000  C
  N10      1.0000 0.27762  0.96322  0.45562  Biso   1.000  N
  H46      1.0000 0.23360  0.94641  0.52098  Biso   1.000  H
  C48      1.0000 0.18001  0.96068  0.45711  Biso   1.000  C
  H47      1.0000 0.45031  0.02649  0.13250  Biso   1.000  H
  H48      1.0000 0.46141  0.97520  0.09720  Biso   1.000  H
  H49      1.0000 0.40999  0.00020  0.30769  Biso   1.000  H
  C49      1.0000 0.41538  0.93399  0.35830  Biso   1.000  C
  H50      1.0000 0.90280  0.96141  0.52480  Biso   1.000  H
  H51      1.0000 0.86750  0.95031  0.47351  Biso   1.000  H
  C50      1.0000 0.64170  0.91538  0.56601  Biso   1.000  C
  H52      1.0000 0.69231  0.90999  0.49980  Biso   1.000  H
  H53      1.0000 0.46141  0.02480  0.90280  Biso   1.000  H
  C51      1.0000 0.52870  0.99381  0.87000  Biso   1.000  C
  H54      1.0000 0.45031  0.97351  0.86750  Biso   1.000  H
  C52      1.0000 0.57160  0.96788  0.68809  Biso   1.000  C
  H55      1.0000 0.57610  0.94428  0.82039  Biso   1.000  H
  H56      1.0000 0.51552  0.92619  0.82091  Biso   1.000  H
  H57      1.0000 0.09720  0.03859  0.52480  Biso   1.000  H
  H58      1.0000 0.13250  0.04969  0.47351  Biso   1.000  H
  C53      1.0000 0.13000  0.97130  0.49381  Biso   1.000  C
  C54      1.0000 0.31191  0.92840  0.46788  Biso   1.000  C
  H59      1.0000 0.17961  0.92390  0.44428  Biso   1.000  H
  H60      1.0000 0.17909  0.98448  0.42619  Biso   1.000  H
  C55      1.0000 0.37188  0.94641  0.39050  Biso   1.000  C
  C56      1.0000 0.44641  0.89050  0.37188  Biso   1.000  C
  C57      1.0000 0.60950  0.87188  0.55359  Biso   1.000  C
  C58      1.0000 0.62812  0.94641  0.60950  Biso   1.000  C
  H61      1.0000 0.54969  0.02649  0.86750  Biso   1.000  H
  H62      1.0000 0.53859  0.97520  0.90280  Biso   1.000  H
  C59      1.0000 0.58462  0.93399  0.64170  Biso   1.000  C
  H63      1.0000 0.59001  0.00020  0.69231  Biso   1.000  H
  H64      1.0000 0.09720  0.96141  0.47520  Biso   1.000  H
  H65      1.0000 0.13250  0.95031  0.52649  Biso   1.000  H
  C60      1.0000 0.35830  0.91538  0.43399  Biso   1.000  C
  H66      1.0000 0.30769  0.90999  0.50020  Biso   1.000  H
  H67      1.0000 0.35118  0.97648  0.38242  Biso   1.000  H
  H68      1.0000 0.47648  0.88242  0.35118  Biso   1.000  H
  C61      1.0000 0.43399  0.85830  0.41538  Biso   1.000  C
  H69      1.0000 0.61758  0.85118  0.52352  Biso   1.000  H
  C62      1.0000 0.56601  0.85830  0.58462  Biso   1.000  C
  H70      1.0000 0.64882  0.97648  0.61758  Biso   1.000  H
  C63      1.0000 0.55359  0.89050  0.62812  Biso   1.000  C
  C64      1.0000 0.39050  0.87188  0.44641  Biso   1.000  C
  C65      1.0000 0.46788  0.81191  0.42840  Biso   1.000  C
  C66      1.0000 0.53212  0.81191  0.57160  Biso   1.000  C
  H71      1.0000 0.52352  0.88242  0.64882  Biso   1.000  H
  H72      1.0000 0.38242  0.85118  0.47648  Biso   1.000  H
  N11      1.0000 0.45562  0.77762  0.46322  Biso   1.000  N
  H73      1.0000 0.50020  0.80769  0.40999  Biso   1.000  H
  N12      1.0000 0.54438  0.77762  0.53678  Biso   1.000  N
  H74      1.0000 0.49980  0.80769  0.59001  Biso   1.000  H
  C67      1.0000 0.49031  0.73179  0.47110  Biso   1.000  C
  C68      1.0000 0.50969  0.73179  0.52890  Biso   1.000  C
  H75      1.0000 0.52098  0.73360  0.44641  Biso   1.000  H
  C69      1.0000 0.45711  0.68001  0.46068  Biso   1.000  C
  H76      1.0000 0.47902  0.73360  0.55359  Biso   1.000  H
  C70      1.0000 0.54289  0.68001  0.53932  Biso   1.000  C
  H77      1.0000 0.44428  0.67961  0.42390  Biso   1.000  H
  H78      1.0000 0.42619  0.67909  0.48448  Biso   1.000  H
  C71      1.0000 0.49381  0.63000  0.47130  Biso   1.000  C
  H79      1.0000 0.55572  0.67961  0.57610  Biso   1.000  H
  H80      1.0000 0.57381  0.67909  0.51552  Biso   1.000  H
  C72      1.0000 0.50619  0.63000  0.52870  Biso   1.000  C
  H81      1.0000 0.47520  0.59720  0.46141  Biso   1.000  H
  H82      1.0000 0.52649  0.63250  0.45031  Biso   1.000  H
  H83      1.0000 0.52480  0.59720  0.53859  Biso   1.000  H
  H84      1.0000 0.47351  0.63250  0.54969  Biso   1.000  H
  C73      1.0000 0.47130  0.50619  0.37000  Biso   1.000  C
  C74      1.0000 0.46068  0.54289  0.31999  Biso   1.000  C
  C75      1.0000 0.52870  0.49381  0.37000  Biso   1.000  C
  H85      1.0000 0.46141  0.52480  0.40280  Biso   1.000  H
  H86      1.0000 0.45031  0.47351  0.36750  Biso   1.000  H
  C76      1.0000 0.47110  0.50969  0.26821  Biso   1.000  C
  H87      1.0000 0.42390  0.55572  0.32039  Biso   1.000  H
  H88      1.0000 0.48448  0.57381  0.32091  Biso   1.000  H
  C77      1.0000 0.53932  0.45711  0.31999  Biso   1.000  C
  H89      1.0000 0.53859  0.47520  0.40280  Biso   1.000  H
  H90      1.0000 0.54969  0.52649  0.36750  Biso   1.000  H
  C78      1.0000 0.52890  0.49031  0.26821  Biso   1.000  C
  N13      1.0000 0.46322  0.54438  0.22238  Biso   1.000  N
  H91      1.0000 0.44641  0.47902  0.26640  Biso   1.000  H
  H92      1.0000 0.57610  0.44428  0.32039  Biso   1.000  H
  H93      1.0000 0.51552  0.42619  0.32091  Biso   1.000  H
  N14      1.0000 0.53678  0.45562  0.22238  Biso   1.000  N
  H94      1.0000 0.55359  0.52098  0.26640  Biso   1.000  H
  C79      1.0000 0.42840  0.53212  0.18809  Biso   1.000  C
  C80      1.0000 0.57160  0.46788  0.18809  Biso   1.000  C
  C81      1.0000 0.41538  0.56601  0.14170  Biso   1.000  C
  H95      1.0000 0.40999  0.49980  0.19231  Biso   1.000  H
  C82      1.0000 0.58462  0.43399  0.14170  Biso   1.000  C
  H96      1.0000 0.59001  0.50020  0.19231  Biso   1.000  H
  C83      1.0000 0.37188  0.55359  0.10950  Biso   1.000  C
  C84      1.0000 0.44641  0.60950  0.12812  Biso   1.000  C
  C85      1.0000 0.55359  0.39050  0.12812  Biso   1.000  C
  C86      1.0000 0.62812  0.44641  0.10950  Biso   1.000  C
  H97      1.0000 0.35118  0.52352  0.11758  Biso   1.000  H
  C87      1.0000 0.35830  0.58462  0.06601  Biso   1.000  C
  C88      1.0000 0.43399  0.64170  0.08462  Biso   1.000  C
  H98      1.0000 0.47648  0.61758  0.14882  Biso   1.000  H
  C89      1.0000 0.56601  0.35830  0.08462  Biso   1.000  C
  H99      1.0000 0.52352  0.38242  0.14882  Biso   1.000  H
  C90      1.0000 0.64170  0.41538  0.06601  Biso   1.000  C
  H100     1.0000 0.64882  0.47648  0.11758  Biso   1.000  H
  C91      1.0000 0.39050  0.62812  0.05359  Biso   1.000  C
  C92      1.0000 0.31191  0.57160  0.03212  Biso   1.000  C
  C93      1.0000 0.46788  0.68809  0.07160  Biso   1.000  C
  C94      1.0000 0.53212  0.31191  0.07160  Biso   1.000  C
  C95      1.0000 0.60950  0.37188  0.05359  Biso   1.000  C
  C96      1.0000 0.68809  0.42840  0.03212  Biso   1.000  C
  H101     1.0000 0.38242  0.64882  0.02352  Biso   1.000  H
  N15      1.0000 0.27762  0.53678  0.04438  Biso   1.000  N
  H102     1.0000 0.30769  0.59001  0.99980  Biso   1.000  H
  N16      1.0000 0.45562  0.72238  0.03678  Biso   1.000  N
  H103     1.0000 0.50020  0.69231  0.09001  Biso   1.000  H
  N17      1.0000 0.54438  0.27762  0.03678  Biso   1.000  N
  H104     1.0000 0.49980  0.30769  0.09001  Biso   1.000  H
  H105     1.0000 0.61758  0.35118  0.02352  Biso   1.000  H
  N18      1.0000 0.72238  0.46322  0.04438  Biso   1.000  N
  H106     1.0000 0.69231  0.40999  0.99980  Biso   1.000  H
  C97      1.0000 0.23179  0.52890  0.00969  Biso   1.000  C
  C98      1.0000 0.49031  0.76821  0.02890  Biso   1.000  C
  C99      1.0000 0.50969  0.23179  0.02890  Biso   1.000  C
  C100     1.0000 0.76821  0.47110  0.00969  Biso   1.000  C
  C101     1.0000 0.23179  0.47110  0.99031  Biso   1.000  C
  C102     1.0000 0.18001  0.53932  0.04289  Biso   1.000  C
  H107     1.0000 0.23360  0.55359  0.97902  Biso   1.000  H
  C103     1.0000 0.50969  0.76821  0.97110  Biso   1.000  C
  H108     1.0000 0.52098  0.76640  0.05359  Biso   1.000  H
  C104     1.0000 0.45711  0.81999  0.03932  Biso   1.000  C
  H109     1.0000 0.47902  0.23360  0.05359  Biso   1.000  H
  C105     1.0000 0.54289  0.18001  0.03932  Biso   1.000  C
  C106     1.0000 0.49031  0.23179  0.97110  Biso   1.000  C
  C107     1.0000 0.81999  0.46068  0.04289  Biso   1.000  C
  C108     1.0000 0.76821  0.52890  0.99031  Biso   1.000  C
  H110     1.0000 0.76640  0.44641  0.97902  Biso   1.000  H
  N19      1.0000 0.27762  0.46322  0.95562  Biso   1.000  N
  H111     1.0000 0.23360  0.44641  0.02098  Biso   1.000  H
  C109     1.0000 0.18001  0.46068  0.95711  Biso   1.000  C
  H112     1.0000 0.17961  0.57610  0.05572  Biso   1.000  H
  H113     1.0000 0.17909  0.51552  0.07381  Biso   1.000  H
  C110     1.0000 0.13000  0.52870  0.00619  Biso   1.000  C
  N20      1.0000 0.54438  0.72238  0.96322  Biso   1.000  N
  H114     1.0000 0.47902  0.76640  0.94641  Biso   1.000  H
  C111     1.0000 0.54289  0.81999  0.96068  Biso   1.000  C
  H115     1.0000 0.44428  0.82039  0.07610  Biso   1.000  H
  H116     1.0000 0.42619  0.82091  0.01552  Biso   1.000  H
  C112     1.0000 0.49381  0.87000  0.02870  Biso   1.000  C
  H117     1.0000 0.55572  0.17961  0.07610  Biso   1.000  H
  H118     1.0000 0.57381  0.17909  0.01552  Biso   1.000  H
  C113     1.0000 0.50619  0.13000  0.02870  Biso   1.000  C
  N21      1.0000 0.45562  0.27762  0.96322  Biso   1.000  N
  H119     1.0000 0.52098  0.23360  0.94641  Biso   1.000  H
  C114     1.0000 0.45711  0.18001  0.96068  Biso   1.000  C
  H120     1.0000 0.82039  0.42390  0.05572  Biso   1.000  H
  H121     1.0000 0.82091  0.48448  0.07381  Biso   1.000  H
  C115     1.0000 0.87000  0.47130  0.00619  Biso   1.000  C
  H122     1.0000 0.76640  0.55359  0.02098  Biso   1.000  H
  N22      1.0000 0.72238  0.53678  0.95562  Biso   1.000  N
  C116     1.0000 0.81999  0.53932  0.95711  Biso   1.000  C
  C117     1.0000 0.31191  0.42840  0.96788  Biso   1.000  C
  H123     1.0000 0.17961  0.42390  0.94428  Biso   1.000  H
  H124     1.0000 0.17909  0.48448  0.92619  Biso   1.000  H
  C118     1.0000 0.13000  0.47130  0.99381  Biso   1.000  C
  H125     1.0000 0.09720  0.53859  0.02480  Biso   1.000  H
  H126     1.0000 0.13250  0.54969  0.97351  Biso   1.000  H
  C119     1.0000 0.53212  0.68809  0.92840  Biso   1.000  C
  H127     1.0000 0.55572  0.82039  0.92390  Biso   1.000  H
  H128     1.0000 0.57381  0.82091  0.98448  Biso   1.000  H
  C120     1.0000 0.50619  0.87000  0.97130  Biso   1.000  C
  H129     1.0000 0.47520  0.90280  0.03859  Biso   1.000  H
  H130     1.0000 0.52649  0.86750  0.04969  Biso   1.000  H
  H131     1.0000 0.52480  0.09720  0.03859  Biso   1.000  H
  H132     1.0000 0.47351  0.13250  0.04969  Biso   1.000  H
  C121     1.0000 0.49381  0.13000  0.97130  Biso   1.000  C
  C122     1.0000 0.46788  0.31191  0.92840  Biso   1.000  C
  H133     1.0000 0.44428  0.17961  0.92390  Biso   1.000  H
  H134     1.0000 0.42619  0.17909  0.98448  Biso   1.000  H
  H135     1.0000 0.90280  0.46141  0.02480  Biso   1.000  H
  C123     1.0000 0.87000  0.52870  0.99381  Biso   1.000  C
  H136     1.0000 0.86750  0.45031  0.97351  Biso   1.000  H
  C124     1.0000 0.68809  0.57160  0.96788  Biso   1.000  C
  H137     1.0000 0.82039  0.57610  0.94428  Biso   1.000  H
  H138     1.0000 0.82091  0.51552  0.92619  Biso   1.000  H
  C125     1.0000 0.35830  0.41538  0.93399  Biso   1.000  C
  H139     1.0000 0.30769  0.40999  0.00020  Biso   1.000  H
  H140     1.0000 0.13250  0.45031  0.02649  Biso   1.000  H
  H141     1.0000 0.09720  0.46141  0.97520  Biso   1.000  H
  C126     1.0000 0.56601  0.64170  0.91538  Biso   1.000  C
  H142     1.0000 0.49980  0.69231  0.90999  Biso   1.000  H
  H143     1.0000 0.52480  0.90280  0.96141  Biso   1.000  H
  H144     1.0000 0.47351  0.86750  0.95031  Biso   1.000  H
  H145     1.0000 0.47520  0.09720  0.96141  Biso   1.000  H
  H146     1.0000 0.52649  0.13250  0.95031  Biso   1.000  H
  C127     1.0000 0.43399  0.35830  0.91538  Biso   1.000  C
  H147     1.0000 0.50020  0.30769  0.90999  Biso   1.000  H
  H148     1.0000 0.86750  0.54969  0.02649  Biso   1.000  H
  H149     1.0000 0.90280  0.53859  0.97520  Biso   1.000  H
  H150     1.0000 0.69231  0.59001  0.00020  Biso   1.000  H
  C128     1.0000 0.64170  0.58462  0.93399  Biso   1.000  C
  C129     1.0000 0.39050  0.37188  0.94641  Biso   1.000  C
  C130     1.0000 0.37188  0.44641  0.89050  Biso   1.000  C
  C131     1.0000 0.60950  0.62812  0.94641  Biso   1.000  C
  C132     1.0000 0.55359  0.60950  0.87188  Biso   1.000  C
  C133     1.0000 0.44641  0.39050  0.87188  Biso   1.000  C
  C134     1.0000 0.62812  0.55359  0.89050  Biso   1.000  C
  H151     1.0000 0.38242  0.35118  0.97648  Biso   1.000  H
  C135     1.0000 0.41538  0.43399  0.85830  Biso   1.000  C
  H152     1.0000 0.35118  0.47648  0.88242  Biso   1.000  H
  H153     1.0000 0.61758  0.64882  0.97648  Biso   1.000  H
  C136     1.0000 0.58462  0.56601  0.85830  Biso   1.000  C
  H154     1.0000 0.52352  0.61758  0.85118  Biso   1.000  H
  H155     1.0000 0.47648  0.38242  0.85118  Biso   1.000  H
  H156     1.0000 0.64882  0.52352  0.88242  Biso   1.000  H
  C137     1.0000 0.42840  0.46788  0.81191  Biso   1.000  C
  C138     1.0000 0.57160  0.53212  0.81191  Biso   1.000  C
  N23      1.0000 0.46322  0.45562  0.77762  Biso   1.000  N
  H157     1.0000 0.40999  0.50020  0.80769  Biso   1.000  H
  N24      1.0000 0.53678  0.54438  0.77762  Biso   1.000  N
  H158     1.0000 0.59001  0.49980  0.80769  Biso   1.000  H
  C139     1.0000 0.47110  0.49031  0.73179  Biso   1.000  C
  C140     1.0000 0.52890  0.50969  0.73179  Biso   1.000  C
  H159     1.0000 0.44641  0.52098  0.73360  Biso   1.000  H
  C141     1.0000 0.46068  0.45711  0.68001  Biso   1.000  C
  H160     1.0000 0.55359  0.47902  0.73360  Biso   1.000  H
  C142     1.0000 0.53932  0.54289  0.68001  Biso   1.000  C
  H161     1.0000 0.42390  0.44428  0.67961  Biso   1.000  H
  H162     1.0000 0.48448  0.42619  0.67909  Biso   1.000  H
  C143     1.0000 0.47130  0.49381  0.63000  Biso   1.000  C
  H163     1.0000 0.57610  0.55572  0.67961  Biso   1.000  H
  H164     1.0000 0.51552  0.57381  0.67909  Biso   1.000  H
  C144     1.0000 0.52870  0.50619  0.63000  Biso   1.000  C
  H165     1.0000 0.46141  0.47520  0.59720  Biso   1.000  H
  H166     1.0000 0.45031  0.52649  0.63250  Biso   1.000  H
  H167     1.0000 0.53859  0.52480  0.59720  Biso   1.000  H
  H168     1.0000 0.54969  0.47351  0.63250  Biso   1.000  H
  C145     1.0000 0.37000  0.47130  0.50619  Biso   1.000  C
  C146     1.0000 0.31999  0.46068  0.54289  Biso   1.000  C
  C147     1.0000 0.37000  0.52870  0.49381  Biso   1.000  C
  H169     1.0000 0.40280  0.46141  0.52480  Biso   1.000  H
  H170     1.0000 0.36750  0.45031  0.47351  Biso   1.000  H
  C148     1.0000 0.26821  0.47110  0.50969  Biso   1.000  C
  H171     1.0000 0.32039  0.42390  0.55572  Biso   1.000  H
  H172     1.0000 0.32091  0.48448  0.57381  Biso   1.000  H
  C149     1.0000 0.31999  0.53932  0.45711  Biso   1.000  C
  H173     1.0000 0.40280  0.53859  0.47520  Biso   1.000  H
  H174     1.0000 0.36750  0.54969  0.52649  Biso   1.000  H
  N25      1.0000 0.22238  0.46322  0.54438  Biso   1.000  N
  C150     1.0000 0.26821  0.52890  0.49031  Biso   1.000  C
  H175     1.0000 0.26640  0.44641  0.47902  Biso   1.000  H
  H176     1.0000 0.32039  0.57610  0.44428  Biso   1.000  H
  H177     1.0000 0.32091  0.51552  0.42619  Biso   1.000  H
  C151     1.0000 0.18809  0.42840  0.53212  Biso   1.000  C
  N26      1.0000 0.22238  0.53678  0.45562  Biso   1.000  N
  H178     1.0000 0.26640  0.55359  0.52098  Biso   1.000  H
  C152     1.0000 0.14170  0.41538  0.56601  Biso   1.000  C
  H179     1.0000 0.19231  0.40999  0.49980  Biso   1.000  H
  C153     1.0000 0.18809  0.57160  0.46788  Biso   1.000  C
  C154     1.0000 0.12812  0.44641  0.60950  Biso   1.000  C
  C155     1.0000 0.10950  0.37188  0.55359  Biso   1.000  C
  C156     1.0000 0.14170  0.58462  0.43399  Biso   1.000  C
  H180     1.0000 0.19231  0.59001  0.50020  Biso   1.000  H
  H181     1.0000 0.14882  0.47648  0.61758  Biso   1.000  H
  C157     1.0000 0.08462  0.43399  0.64170  Biso   1.000  C
  H182     1.0000 0.11758  0.35118  0.52352  Biso   1.000  H
  C158     1.0000 0.06601  0.35830  0.58462  Biso   1.000  C
  C159     1.0000 0.10950  0.62812  0.44641  Biso   1.000  C
  C160     1.0000 0.12812  0.55359  0.39050  Biso   1.000  C
  C161     1.0000 0.05359  0.39050  0.62812  Biso   1.000  C
  C162     1.0000 0.07160  0.46788  0.68809  Biso   1.000  C
  C163     1.0000 0.03212  0.31191  0.57160  Biso   1.000  C
  H183     1.0000 0.11758  0.64882  0.47648  Biso   1.000  H
  C164     1.0000 0.06601  0.64170  0.41538  Biso   1.000  C
  H184     1.0000 0.14882  0.52352  0.38242  Biso   1.000  H
  C165     1.0000 0.08462  0.56601  0.35830  Biso   1.000  C
  H185     1.0000 0.02352  0.38242  0.64882  Biso   1.000  H
  N27      1.0000 0.03678  0.45562  0.72238  Biso   1.000  N
  H186     1.0000 0.09001  0.50020  0.69231  Biso   1.000  H
  N28      1.0000 0.04438  0.27762  0.53678  Biso   1.000  N
  H187     1.0000 0.99980  0.30769  0.59001  Biso   1.000  H
  C166     1.0000 0.05359  0.60950  0.37188  Biso   1.000  C
  C167     1.0000 0.03212  0.68809  0.42840  Biso   1.000  C
  C168     1.0000 0.07160  0.53212  0.31191  Biso   1.000  C
  C169     1.0000 0.02890  0.49031  0.76821  Biso   1.000  C
  C170     1.0000 0.00969  0.23179  0.52890  Biso   1.000  C
  H188     1.0000 0.02352  0.61758  0.35118  Biso   1.000  H
  N29      1.0000 0.04438  0.72238  0.46322  Biso   1.000  N
  H189     1.0000 0.99980  0.69231  0.40999  Biso   1.000  H
  N30      1.0000 0.03678  0.54438  0.27762  Biso   1.000  N
  H190     1.0000 0.09001  0.49980  0.30769  Biso   1.000  H
  H191     1.0000 0.05359  0.52098  0.76640  Biso   1.000  H
  C171     1.0000 0.03932  0.45711  0.81999  Biso   1.000  C
  C172     1.0000 0.97110  0.50969  0.76821  Biso   1.000  C
  C173     1.0000 0.04289  0.18001  0.53932  Biso   1.000  C
  C174     1.0000 0.99031  0.23179  0.47110  Biso   1.000  C
  H192     1.0000 0.97902  0.23360  0.55359  Biso   1.000  H
  C175     1.0000 0.00969  0.76821  0.47110  Biso   1.000  C
  C176     1.0000 0.02890  0.50969  0.23179  Biso   1.000  C
  H193     1.0000 0.07610  0.44428  0.82039  Biso   1.000  H
  H194     1.0000 0.01552  0.42619  0.82091  Biso   1.000  H
  C177     1.0000 0.02870  0.49381  0.87000  Biso   1.000  C
  N31      1.0000 0.96322  0.54438  0.72238  Biso   1.000  N
  H195     1.0000 0.94641  0.47902  0.76640  Biso   1.000  H
  C178     1.0000 0.96068  0.54289  0.81999  Biso   1.000  C
  H196     1.0000 0.05572  0.17961  0.57610  Biso   1.000  H
  H197     1.0000 0.07381  0.17909  0.51552  Biso   1.000  H
  C179     1.0000 0.00619  0.13000  0.52870  Biso   1.000  C
  H198     1.0000 0.02098  0.23360  0.44641  Biso   1.000  H
  N32      1.0000 0.95562  0.27762  0.46322  Biso   1.000  N
  C180     1.0000 0.95711  0.18001  0.46068  Biso   1.000  C
  C181     1.0000 0.04289  0.81999  0.46068  Biso   1.000  C
  C182     1.0000 0.99031  0.76821  0.52890  Biso   1.000  C
  H199     1.0000 0.97902  0.76640  0.44641  Biso   1.000  H
  H200     1.0000 0.05359  0.47902  0.23360  Biso   1.000  H
  C183     1.0000 0.03932  0.54289  0.18001  Biso   1.000  C
  C184     1.0000 0.97110  0.49031  0.23179  Biso   1.000  C
  H201     1.0000 0.03859  0.47520  0.90280  Biso   1.000  H
  H202     1.0000 0.04969  0.52649  0.86750  Biso   1.000  H
  C185     1.0000 0.97130  0.50619  0.87000  Biso   1.000  C
  C186     1.0000 0.92840  0.53212  0.68809  Biso   1.000  C
  H203     1.0000 0.92390  0.55572  0.82039  Biso   1.000  H
  H204     1.0000 0.98448  0.57381  0.82091  Biso   1.000  H
  H205     1.0000 0.02480  0.09720  0.53859  Biso   1.000  H
  C187     1.0000 0.99381  0.13000  0.47130  Biso   1.000  C
  H206     1.0000 0.97351  0.13250  0.54969  Biso   1.000  H
  C188     1.0000 0.96788  0.31191  0.42840  Biso   1.000  C
  H207     1.0000 0.94428  0.17961  0.42390  Biso   1.000  H
  H208     1.0000 0.92619  0.17909  0.48448  Biso   1.000  H
  H209     1.0000 0.05572  0.82039  0.42390  Biso   1.000  H
  H210     1.0000 0.07381  0.82091  0.48448  Biso   1.000  H
  C189     1.0000 0.00619  0.87000  0.47130  Biso   1.000  C
  H211     1.0000 0.02098  0.76640  0.55359  Biso   1.000  H
  N33      1.0000 0.95562  0.72238  0.53678  Biso   1.000  N
  C190     1.0000 0.95711  0.81999  0.53932  Biso   1.000  C
  H212     1.0000 0.07610  0.55572  0.17961  Biso   1.000  H
  H213     1.0000 0.01552  0.57381  0.17909  Biso   1.000  H
  C191     1.0000 0.02870  0.50619  0.13000  Biso   1.000  C
  N34      1.0000 0.96322  0.45562  0.27762  Biso   1.000  N
  H214     1.0000 0.94641  0.52098  0.23360  Biso   1.000  H
  C192     1.0000 0.96068  0.45711  0.18001  Biso   1.000  C
  H215     1.0000 0.96141  0.52480  0.90280  Biso   1.000  H
  H216     1.0000 0.95031  0.47351  0.86750  Biso   1.000  H
  C193     1.0000 0.91538  0.56601  0.64170  Biso   1.000  C
  H217     1.0000 0.90999  0.49980  0.69231  Biso   1.000  H
  H218     1.0000 0.02649  0.13250  0.45031  Biso   1.000  H
  H219     1.0000 0.97520  0.09720  0.46141  Biso   1.000  H
  H220     1.0000 0.00020  0.30769  0.40999  Biso   1.000  H
  C194     1.0000 0.93399  0.35830  0.41538  Biso   1.000  C
  H221     1.0000 0.02480  0.90280  0.46141  Biso   1.000  H
  C195     1.0000 0.99381  0.87000  0.52870  Biso   1.000  C
  H222     1.0000 0.97351  0.86750  0.45031  Biso   1.000  H
  C196     1.0000 0.96788  0.68809  0.57160  Biso   1.000  C
  H223     1.0000 0.94428  0.82039  0.57610  Biso   1.000  H
  H224     1.0000 0.92619  0.82091  0.51552  Biso   1.000  H
  H225     1.0000 0.03859  0.52480  0.09720  Biso   1.000  H
  H226     1.0000 0.04969  0.47351  0.13250  Biso   1.000  H
  C197     1.0000 0.97130  0.49381  0.13000  Biso   1.000  C
  C198     1.0000 0.92840  0.46788  0.31191  Biso   1.000  C
  H227     1.0000 0.92390  0.44428  0.17961  Biso   1.000  H
  H228     1.0000 0.98448  0.42619  0.17909  Biso   1.000  H
  C199     1.0000 0.94641  0.60950  0.62812  Biso   1.000  C
  C200     1.0000 0.87188  0.55359  0.60950  Biso   1.000  C
  C201     1.0000 0.89050  0.37188  0.44641  Biso   1.000  C
  C202     1.0000 0.94641  0.39050  0.37188  Biso   1.000  C
  H229     1.0000 0.02649  0.86750  0.54969  Biso   1.000  H
  H230     1.0000 0.97520  0.90280  0.53859  Biso   1.000  H
  H231     1.0000 0.00020  0.69231  0.59001  Biso   1.000  H
  C203     1.0000 0.93399  0.64170  0.58462  Biso   1.000  C
  H232     1.0000 0.96141  0.47520  0.09720  Biso   1.000  H
  H233     1.0000 0.95031  0.52649  0.13250  Biso   1.000  H
  C204     1.0000 0.91538  0.43399  0.35830  Biso   1.000  C
  H234     1.0000 0.90999  0.50020  0.30769  Biso   1.000  H
  H235     1.0000 0.97648  0.61758  0.64882  Biso   1.000  H
  H236     1.0000 0.85118  0.52352  0.61758  Biso   1.000  H
  C205     1.0000 0.85830  0.58462  0.56601  Biso   1.000  C
  H237     1.0000 0.88242  0.35118  0.47648  Biso   1.000  H
  C206     1.0000 0.85830  0.41538  0.43399  Biso   1.000  C
  H238     1.0000 0.97648  0.38242  0.35118  Biso   1.000  H
  C207     1.0000 0.89050  0.62812  0.55359  Biso   1.000  C
  C208     1.0000 0.87188  0.44641  0.39050  Biso   1.000  C
  C209     1.0000 0.81191  0.57160  0.53212  Biso   1.000  C
  C210     1.0000 0.81191  0.42840  0.46788  Biso   1.000  C
  H239     1.0000 0.88242  0.64882  0.52352  Biso   1.000  H
  H240     1.0000 0.85118  0.47648  0.38242  Biso   1.000  H
  N35      1.0000 0.77762  0.53678  0.54438  Biso   1.000  N
  H241     1.0000 0.80769  0.59001  0.49980  Biso   1.000  H
  N36      1.0000 0.77762  0.46322  0.45562  Biso   1.000  N
  H242     1.0000 0.80769  0.40999  0.50020  Biso   1.000  H
  C211     1.0000 0.73179  0.52890  0.50969  Biso   1.000  C
  C212     1.0000 0.73179  0.47110  0.49031  Biso   1.000  C
  H243     1.0000 0.73360  0.55359  0.47902  Biso   1.000  H
  C213     1.0000 0.68001  0.53932  0.54289  Biso   1.000  C
  H244     1.0000 0.73360  0.44641  0.52098  Biso   1.000  H
  C214     1.0000 0.68001  0.46068  0.45711  Biso   1.000  C
  H245     1.0000 0.67961  0.57610  0.55572  Biso   1.000  H
  H246     1.0000 0.67909  0.51552  0.57381  Biso   1.000  H
  C215     1.0000 0.63000  0.52870  0.50619  Biso   1.000  C
  H247     1.0000 0.67961  0.42390  0.44428  Biso   1.000  H
  H248     1.0000 0.67909  0.48448  0.42619  Biso   1.000  H
  C216     1.0000 0.63000  0.47130  0.49381  Biso   1.000  C
  H249     1.0000 0.59720  0.53859  0.52480  Biso   1.000  H
  H250     1.0000 0.63250  0.54969  0.47351  Biso   1.000  H
  H251     1.0000 0.59720  0.46141  0.47520  Biso   1.000  H
  H252     1.0000 0.63250  0.45031  0.52649  Biso   1.000  H
  C217     1.0000 0.39170  0.31601  0.33462  Biso   1.000  C
  C218     1.0000 0.43809  0.28212  0.32160  Biso   1.000  C
  C219     1.0000 0.35950  0.30359  0.37812  Biso   1.000  C
  C220     1.0000 0.37812  0.35950  0.30359  Biso   1.000  C
  N37      1.0000 0.47238  0.29438  0.28678  Biso   1.000  N
  H253     1.0000 0.44231  0.24980  0.34001  Biso   1.000  H
  H254     1.0000 0.36758  0.27352  0.39882  Biso   1.000  H
  C221     1.0000 0.31601  0.33462  0.39170  Biso   1.000  C
  H255     1.0000 0.39882  0.36758  0.27352  Biso   1.000  H
  C222     1.0000 0.33462  0.39170  0.31601  Biso   1.000  C
  C223     1.0000 0.51821  0.25969  0.27890  Biso   1.000  C
  C224     1.0000 0.30359  0.37812  0.35950  Biso   1.000  C
  C225     1.0000 0.28212  0.32160  0.43809  Biso   1.000  C
  C226     1.0000 0.32160  0.43809  0.28212  Biso   1.000  C
  C227     1.0000 0.51821  0.24031  0.22110  Biso   1.000  C
  H256     1.0000 0.51640  0.22902  0.30359  Biso   1.000  H
  C228     1.0000 0.56999  0.29289  0.28932  Biso   1.000  C
  H257     1.0000 0.27352  0.39882  0.36758  Biso   1.000  H
  N38      1.0000 0.29438  0.28678  0.47238  Biso   1.000  N
  H258     1.0000 0.24980  0.34001  0.44231  Biso   1.000  H
  N39      1.0000 0.28678  0.47238  0.29438  Biso   1.000  N
  H259     1.0000 0.34001  0.44231  0.24980  Biso   1.000  H
  N40      1.0000 0.47238  0.20562  0.21322  Biso   1.000  N
  H260     1.0000 0.51640  0.27098  0.19641  Biso   1.000  H
  C229     1.0000 0.56999  0.20711  0.21068  Biso   1.000  C
  H261     1.0000 0.57039  0.30572  0.32610  Biso   1.000  H
  H262     1.0000 0.57091  0.32381  0.26552  Biso   1.000  H
  C230     1.0000 0.62000  0.25619  0.27870  Biso   1.000  C
  C231     1.0000 0.25969  0.27890  0.51821  Biso   1.000  C
  C232     1.0000 0.27890  0.51821  0.25969  Biso   1.000  C
  C233     1.0000 0.43809  0.21788  0.17840  Biso   1.000  C
  H263     1.0000 0.57039  0.19428  0.17390  Biso   1.000  H
  H264     1.0000 0.57091  0.17619  0.23448  Biso   1.000  H
  C234     1.0000 0.62000  0.24381  0.22130  Biso   1.000  C
  H265     1.0000 0.65280  0.27480  0.28859  Biso   1.000  H
  H266     1.0000 0.61750  0.22351  0.29969  Biso   1.000  H
  C235     1.0000 0.24031  0.22110  0.51821  Biso   1.000  C
  H267     1.0000 0.22902  0.30359  0.51640  Biso   1.000  H
  C236     1.0000 0.29289  0.28932  0.56999  Biso   1.000  C
  C237     1.0000 0.22110  0.51821  0.24031  Biso   1.000  C
  H268     1.0000 0.30359  0.51640  0.22902  Biso   1.000  H
  C238     1.0000 0.28932  0.56999  0.29289  Biso   1.000  C
  C239     1.0000 0.39170  0.18399  0.16538  Biso   1.000  C
  H269     1.0000 0.44231  0.25020  0.15999  Biso   1.000  H
  H270     1.0000 0.65280  0.22520  0.21141  Biso   1.000  H
  H271     1.0000 0.61750  0.27649  0.20031  Biso   1.000  H
  N41      1.0000 0.20562  0.21322  0.47238  Biso   1.000  N
  H272     1.0000 0.27098  0.19641  0.51640  Biso   1.000  H
  C240     1.0000 0.20711  0.21068  0.56999  Biso   1.000  C
  H273     1.0000 0.30572  0.32610  0.57039  Biso   1.000  H
  H274     1.0000 0.32381  0.26552  0.57091  Biso   1.000  H
  C241     1.0000 0.25619  0.27870  0.62000  Biso   1.000  C
  N42      1.0000 0.21322  0.47238  0.20562  Biso   1.000  N
  H275     1.0000 0.19641  0.51640  0.27098  Biso   1.000  H
  C242     1.0000 0.21068  0.56999  0.20711  Biso   1.000  C
  H276     1.0000 0.32610  0.57039  0.30572  Biso   1.000  H
  H277     1.0000 0.26552  0.57091  0.32381  Biso   1.000  H
  C243     1.0000 0.27870  0.62000  0.25619  Biso   1.000  C
  C244     1.0000 0.37812  0.14050  0.19641  Biso   1.000  C
  C245     1.0000 0.35950  0.19641  0.12188  Biso   1.000  C
  C246     1.0000 0.21788  0.17840  0.43809  Biso   1.000  C
  H278     1.0000 0.19428  0.17390  0.57039  Biso   1.000  H
  H279     1.0000 0.17619  0.23448  0.57091  Biso   1.000  H
  C247     1.0000 0.24381  0.22130  0.62000  Biso   1.000  C
  H280     1.0000 0.27480  0.28859  0.65280  Biso   1.000  H
  H281     1.0000 0.22351  0.29969  0.61750  Biso   1.000  H
  C248     1.0000 0.17840  0.43809  0.21788  Biso   1.000  C
  H282     1.0000 0.17390  0.57039  0.19428  Biso   1.000  H
  H283     1.0000 0.23448  0.57091  0.17619  Biso   1.000  H
  C249     1.0000 0.22130  0.62000  0.24381  Biso   1.000  C
  H284     1.0000 0.28859  0.65280  0.27480  Biso   1.000  H
  H285     1.0000 0.29969  0.61750  0.22351  Biso   1.000  H
  H286     1.0000 0.39882  0.13242  0.22648  Biso   1.000  H
  C250     1.0000 0.33462  0.10830  0.18399  Biso   1.000  C
  H287     1.0000 0.36758  0.22648  0.10118  Biso   1.000  H
  C251     1.0000 0.31601  0.16538  0.10830  Biso   1.000  C
  C252     1.0000 0.18399  0.16538  0.39170  Biso   1.000  C
  H288     1.0000 0.25020  0.15999  0.44231  Biso   1.000  H
  H289     1.0000 0.22520  0.21141  0.65280  Biso   1.000  H
  H290     1.0000 0.27649  0.20031  0.61750  Biso   1.000  H
  C253     1.0000 0.16538  0.39170  0.18399  Biso   1.000  C
  H291     1.0000 0.15999  0.44231  0.25020  Biso   1.000  H
  H292     1.0000 0.21141  0.65280  0.22520  Biso   1.000  H
  H293     1.0000 0.20031  0.61750  0.27649  Biso   1.000  H
  C254     1.0000 0.30359  0.12188  0.14050  Biso   1.000  C
  C255     1.0000 0.32160  0.06191  0.21788  Biso   1.000  C
  C256     1.0000 0.28212  0.17840  0.06191  Biso   1.000  C
  C257     1.0000 0.19641  0.12188  0.35950  Biso   1.000  C
  C258     1.0000 0.14050  0.19641  0.37812  Biso   1.000  C
  C259     1.0000 0.19641  0.37812  0.14050  Biso   1.000  C
  C260     1.0000 0.12188  0.35950  0.19641  Biso   1.000  C
  H294     1.0000 0.27352  0.10118  0.13242  Biso   1.000  H
  N43      1.0000 0.28678  0.02762  0.20562  Biso   1.000  N
  H295     1.0000 0.34001  0.05769  0.25020  Biso   1.000  H
  N44      1.0000 0.29438  0.21322  0.02762  Biso   1.000  N
  H296     1.0000 0.24980  0.15999  0.05769  Biso   1.000  H
  C261     1.0000 0.16538  0.10830  0.31601  Biso   1.000  C
  H297     1.0000 0.22648  0.10118  0.36758  Biso   1.000  H
  C262     1.0000 0.10830  0.18399  0.33462  Biso   1.000  C
  H298     1.0000 0.13242  0.22648  0.39882  Biso   1.000  H
  C263     1.0000 0.18399  0.33462  0.10830  Biso   1.000  C
  H299     1.0000 0.22648  0.39882  0.13242  Biso   1.000  H
  C264     1.0000 0.10830  0.31601  0.16538  Biso   1.000  C
  H300     1.0000 0.10118  0.36758  0.22648  Biso   1.000  H
  C265     1.0000 0.27890  0.98179  0.24031  Biso   1.000  C
  C266     1.0000 0.25969  0.22110  0.98179  Biso   1.000  C
  C267     1.0000 0.17840  0.06191  0.28212  Biso   1.000  C
  C268     1.0000 0.12188  0.14050  0.30359  Biso   1.000  C
  C269     1.0000 0.06191  0.21788  0.32160  Biso   1.000  C
  C270     1.0000 0.21788  0.32160  0.06191  Biso   1.000  C
  C271     1.0000 0.14050  0.30359  0.12188  Biso   1.000  C
  C272     1.0000 0.06191  0.28212  0.17840  Biso   1.000  C
  C273     1.0000 0.22110  0.98179  0.25969  Biso   1.000  C
  H301     1.0000 0.30359  0.98360  0.27098  Biso   1.000  H
  C274     1.0000 0.28932  0.93001  0.20711  Biso   1.000  C
  C275     1.0000 0.24031  0.27890  0.98179  Biso   1.000  C
  H302     1.0000 0.22902  0.19641  0.98360  Biso   1.000  H
  C276     1.0000 0.29289  0.21068  0.93001  Biso   1.000  C
  N45      1.0000 0.21322  0.02762  0.29438  Biso   1.000  N
  H303     1.0000 0.15999  0.05769  0.24980  Biso   1.000  H
  H304     1.0000 0.10118  0.13242  0.27352  Biso   1.000  H
  N46      1.0000 0.02762  0.20562  0.28678  Biso   1.000  N
  H305     1.0000 0.05769  0.25020  0.34001  Biso   1.000  H
  N47      1.0000 0.20562  0.28678  0.02762  Biso   1.000  N
  H306     1.0000 0.25020  0.34001  0.05769  Biso   1.000  H
  H307     1.0000 0.13242  0.27352  0.10118  Biso   1.000  H
  N48      1.0000 0.02762  0.29438  0.21322  Biso   1.000  N
  H308     1.0000 0.05769  0.24980  0.15999  Biso   1.000  H
  H309     1.0000 0.19641  0.98360  0.22902  Biso   1.000  H
  C277     1.0000 0.21068  0.93001  0.29289  Biso   1.000  C
  H310     1.0000 0.32610  0.92961  0.19428  Biso   1.000  H
  H311     1.0000 0.26552  0.92909  0.17619  Biso   1.000  H
  C278     1.0000 0.27870  0.88000  0.24381  Biso   1.000  C
  H312     1.0000 0.27098  0.30359  0.98360  Biso   1.000  H
  C279     1.0000 0.20711  0.28932  0.93001  Biso   1.000  C
  H313     1.0000 0.30572  0.17390  0.92961  Biso   1.000  H
  H314     1.0000 0.32381  0.23448  0.92909  Biso   1.000  H
  C280     1.0000 0.25619  0.22130  0.88000  Biso   1.000  C
  C281     1.0000 0.98179  0.24031  0.27890  Biso   1.000  C
  C282     1.0000 0.98179  0.25969  0.22110  Biso   1.000  C
  H315     1.0000 0.17390  0.92961  0.30572  Biso   1.000  H
  H316     1.0000 0.23448  0.92909  0.32381  Biso   1.000  H
  C283     1.0000 0.22130  0.88000  0.25619  Biso   1.000  C
  H317     1.0000 0.28859  0.84720  0.22520  Biso   1.000  H
  H318     1.0000 0.29969  0.88250  0.27649  Biso   1.000  H
  H319     1.0000 0.19428  0.32610  0.92961  Biso   1.000  H
  H320     1.0000 0.17619  0.26552  0.92909  Biso   1.000  H
  C284     1.0000 0.24381  0.27870  0.88000  Biso   1.000  C
  H321     1.0000 0.27480  0.21141  0.84720  Biso   1.000  H
  H322     1.0000 0.22351  0.20031  0.88250  Biso   1.000  H
  H323     1.0000 0.98360  0.27098  0.30359  Biso   1.000  H
  C285     1.0000 0.93001  0.20711  0.28932  Biso   1.000  C
  H324     1.0000 0.98360  0.22902  0.19641  Biso   1.000  H
  C286     1.0000 0.93001  0.29289  0.21068  Biso   1.000  C
  H325     1.0000 0.21141  0.84720  0.27480  Biso   1.000  H
  H326     1.0000 0.20031  0.88250  0.22351  Biso   1.000  H
  H327     1.0000 0.22520  0.28859  0.84720  Biso   1.000  H
  H328     1.0000 0.27649  0.29969  0.88250  Biso   1.000  H
  H329     1.0000 0.92961  0.19428  0.32610  Biso   1.000  H
  H330     1.0000 0.92909  0.17619  0.26552  Biso   1.000  H
  C287     1.0000 0.88000  0.24381  0.27870  Biso   1.000  C
  C288     1.0000 0.88000  0.25619  0.22130  Biso   1.000  C
  H331     1.0000 0.92961  0.30572  0.17390  Biso   1.000  H
  H332     1.0000 0.92909  0.32381  0.23448  Biso   1.000  H
  H333     1.0000 0.84720  0.22520  0.28859  Biso   1.000  H
  H334     1.0000 0.88250  0.27649  0.29969  Biso   1.000  H
  H335     1.0000 0.84720  0.27480  0.21141  Biso   1.000  H
  H336     1.0000 0.88250  0.22351  0.20031  Biso   1.000  H
  C289     1.0000 0.66538  0.60830  0.31601  Biso   1.000  C
  C290     1.0000 0.67840  0.56191  0.28212  Biso   1.000  C
  C291     1.0000 0.69641  0.62188  0.35950  Biso   1.000  C
  C292     1.0000 0.62188  0.64050  0.30359  Biso   1.000  C
  N49      1.0000 0.71322  0.52762  0.29438  Biso   1.000  N
  H337     1.0000 0.65999  0.55769  0.24980  Biso   1.000  H
  H338     1.0000 0.72648  0.60118  0.36758  Biso   1.000  H
  C293     1.0000 0.68399  0.66538  0.39170  Biso   1.000  C
  H339     1.0000 0.60118  0.63242  0.27352  Biso   1.000  H
  C294     1.0000 0.60830  0.68399  0.33462  Biso   1.000  C
  C295     1.0000 0.72110  0.48179  0.25969  Biso   1.000  C
  C296     1.0000 0.64050  0.69641  0.37812  Biso   1.000  C
  C297     1.0000 0.71788  0.67840  0.43809  Biso   1.000  C
  C298     1.0000 0.56191  0.71788  0.32160  Biso   1.000  C
  C299     1.0000 0.71068  0.43001  0.29289  Biso   1.000  C
  C300     1.0000 0.77890  0.48179  0.24031  Biso   1.000  C
  H340     1.0000 0.69641  0.48360  0.22902  Biso   1.000  H
  H341     1.0000 0.63242  0.72648  0.39882  Biso   1.000  H
  N50      1.0000 0.70562  0.71322  0.47238  Biso   1.000  N
  H342     1.0000 0.75020  0.65999  0.44231  Biso   1.000  H
  N51      1.0000 0.52762  0.70562  0.28678  Biso   1.000  N
  H343     1.0000 0.55769  0.75020  0.34001  Biso   1.000  H
  C301     1.0000 0.72130  0.38000  0.25619  Biso   1.000  C
  H344     1.0000 0.67390  0.42961  0.30572  Biso   1.000  H
  H345     1.0000 0.73448  0.42909  0.32381  Biso   1.000  H
  C302     1.0000 0.78932  0.43001  0.20711  Biso   1.000  C
  N52      1.0000 0.78678  0.52762  0.20562  Biso   1.000  N
  H346     1.0000 0.80359  0.48360  0.27098  Biso   1.000  H
  C303     1.0000 0.74031  0.72110  0.51821  Biso   1.000  C
  C304     1.0000 0.48179  0.74031  0.27890  Biso   1.000  C
  C305     1.0000 0.77870  0.38000  0.24381  Biso   1.000  C
  H347     1.0000 0.71141  0.34720  0.27480  Biso   1.000  H
  H348     1.0000 0.70031  0.38250  0.22351  Biso   1.000  H
  H349     1.0000 0.82610  0.42961  0.19428  Biso   1.000  H
  H350     1.0000 0.76552  0.42909  0.17619  Biso   1.000  H
  C306     1.0000 0.82160  0.56191  0.21788  Biso   1.000  C
  C307     1.0000 0.75969  0.77890  0.51821  Biso   1.000  C
  H351     1.0000 0.77098  0.69641  0.51640  Biso   1.000  H
  C308     1.0000 0.70711  0.71068  0.56999  Biso   1.000  C
  C309     1.0000 0.48179  0.75969  0.22110  Biso   1.000  C
  H352     1.0000 0.48360  0.77098  0.30359  Biso   1.000  H
  C310     1.0000 0.43001  0.70711  0.28932  Biso   1.000  C
  H353     1.0000 0.78859  0.34720  0.22520  Biso   1.000  H
  H354     1.0000 0.79969  0.38250  0.27649  Biso   1.000  H
  C311     1.0000 0.83462  0.60830  0.18399  Biso   1.000  C
  H355     1.0000 0.84001  0.55769  0.25020  Biso   1.000  H
  N53      1.0000 0.79438  0.78678  0.47238  Biso   1.000  N
  H356     1.0000 0.72902  0.80359  0.51640  Biso   1.000  H
  C312     1.0000 0.79289  0.78932  0.56999  Biso   1.000  C
  H357     1.0000 0.69428  0.67390  0.57039  Biso   1.000  H
  H358     1.0000 0.67619  0.73448  0.57091  Biso   1.000  H
  C313     1.0000 0.74381  0.72130  0.62000  Biso   1.000  C
  N54      1.0000 0.52762  0.79438  0.21322  Biso   1.000  N
  H359     1.0000 0.48360  0.72902  0.19641  Biso   1.000  H
  C314     1.0000 0.43001  0.79289  0.21068  Biso   1.000  C
  H360     1.0000 0.42961  0.69428  0.32610  Biso   1.000  H
  H361     1.0000 0.42909  0.67619  0.26552  Biso   1.000  H
  C315     1.0000 0.38000  0.74381  0.27870  Biso   1.000  C
  C316     1.0000 0.87812  0.64050  0.19641  Biso   1.000  C
  C317     1.0000 0.80359  0.62188  0.14050  Biso   1.000  C
  C318     1.0000 0.78212  0.82160  0.43809  Biso   1.000  C
  H362     1.0000 0.80572  0.82610  0.57039  Biso   1.000  H
  H363     1.0000 0.82381  0.76552  0.57091  Biso   1.000  H
  C319     1.0000 0.75619  0.77870  0.62000  Biso   1.000  C
  H364     1.0000 0.72520  0.71141  0.65280  Biso   1.000  H
  H365     1.0000 0.77649  0.70031  0.61750  Biso   1.000  H
  C320     1.0000 0.56191  0.78212  0.17840  Biso   1.000  C
  H366     1.0000 0.42961  0.80572  0.17390  Biso   1.000  H
  H367     1.0000 0.42909  0.82381  0.23448  Biso   1.000  H
  C321     1.0000 0.38000  0.75619  0.22130  Biso   1.000  C
  H368     1.0000 0.34720  0.72520  0.28859  Biso   1.000  H
  H369     1.0000 0.38250  0.77649  0.29969  Biso   1.000  H
  H370     1.0000 0.89882  0.63242  0.22648  Biso   1.000  H
  C322     1.0000 0.89170  0.68399  0.16538  Biso   1.000  C
  H371     1.0000 0.77352  0.60118  0.13242  Biso   1.000  H
  C323     1.0000 0.81601  0.66538  0.10830  Biso   1.000  C
  C324     1.0000 0.81601  0.83462  0.39170  Biso   1.000  C
  H372     1.0000 0.74980  0.84001  0.44231  Biso   1.000  H
  H373     1.0000 0.77480  0.78859  0.65280  Biso   1.000  H
  H374     1.0000 0.72351  0.79969  0.61750  Biso   1.000  H
  C325     1.0000 0.60830  0.81601  0.16538  Biso   1.000  C
  H375     1.0000 0.55769  0.74980  0.15999  Biso   1.000  H
  H376     1.0000 0.34720  0.77480  0.21141  Biso   1.000  H
  H377     1.0000 0.38250  0.72351  0.20031  Biso   1.000  H
  C326     1.0000 0.85950  0.69641  0.12188  Biso   1.000  C
  C327     1.0000 0.93809  0.71788  0.17840  Biso   1.000  C
  C328     1.0000 0.78212  0.67840  0.06191  Biso   1.000  C
  C329     1.0000 0.85950  0.80359  0.37812  Biso   1.000  C
  C330     1.0000 0.80359  0.87812  0.35950  Biso   1.000  C
  C331     1.0000 0.62188  0.85950  0.19641  Biso   1.000  C
  C332     1.0000 0.64050  0.80359  0.12188  Biso   1.000  C
  H378     1.0000 0.86758  0.72648  0.10118  Biso   1.000  H
  N55      1.0000 0.97238  0.70562  0.21322  Biso   1.000  N
  H379     1.0000 0.94231  0.75020  0.15999  Biso   1.000  H
  N56      1.0000 0.79438  0.71322  0.02762  Biso   1.000  N
  H380     1.0000 0.74980  0.65999  0.05769  Biso   1.000  H
  C333     1.0000 0.89170  0.81601  0.33462  Biso   1.000  C
  H381     1.0000 0.86758  0.77352  0.39882  Biso   1.000  H
  H382     1.0000 0.77352  0.89882  0.36758  Biso   1.000  H
  C334     1.0000 0.83462  0.89170  0.31601  Biso   1.000  C
  H383     1.0000 0.60118  0.86758  0.22648  Biso   1.000  H
  C335     1.0000 0.66538  0.89170  0.18399  Biso   1.000  C
  C336     1.0000 0.68399  0.83462  0.10830  Biso   1.000  C
  H384     1.0000 0.63242  0.77352  0.10118  Biso   1.000  H
  C337     1.0000 0.01821  0.74031  0.22110  Biso   1.000  C
  C338     1.0000 0.75969  0.72110  0.98179  Biso   1.000  C
  C339     1.0000 0.93809  0.78212  0.32160  Biso   1.000  C
  C340     1.0000 0.87812  0.85950  0.30359  Biso   1.000  C
  C341     1.0000 0.82160  0.93809  0.28212  Biso   1.000  C
  C342     1.0000 0.69641  0.87812  0.14050  Biso   1.000  C
  C343     1.0000 0.67840  0.93809  0.21788  Biso   1.000  C
  C344     1.0000 0.71788  0.82160  0.06191  Biso   1.000  C
  C345     1.0000 0.01821  0.75969  0.27890  Biso   1.000  C
  H385     1.0000 0.01640  0.77098  0.19641  Biso   1.000  H
  C346     1.0000 0.06999  0.70711  0.21068  Biso   1.000  C
  C347     1.0000 0.74031  0.77890  0.98179  Biso   1.000  C
  H386     1.0000 0.72902  0.69641  0.98360  Biso   1.000  H
  C348     1.0000 0.79289  0.71068  0.93001  Biso   1.000  C
  N57      1.0000 0.97238  0.79438  0.28678  Biso   1.000  N
  H387     1.0000 0.94231  0.74980  0.34001  Biso   1.000  H
  H388     1.0000 0.89882  0.86758  0.27352  Biso   1.000  H
  N58      1.0000 0.78678  0.97238  0.29438  Biso   1.000  N
  H389     1.0000 0.84001  0.94231  0.24980  Biso   1.000  H
  H390     1.0000 0.72648  0.89882  0.13242  Biso   1.000  H
  N59      1.0000 0.71322  0.97238  0.20562  Biso   1.000  N
  H391     1.0000 0.65999  0.94231  0.25020  Biso   1.000  H
  N60      1.0000 0.70562  0.78678  0.02762  Biso   1.000  N
  H392     1.0000 0.75020  0.84001  0.05769  Biso   1.000  H
  H393     1.0000 0.01640  0.72902  0.30359  Biso   1.000  H
  C349     1.0000 0.06999  0.79289  0.28932  Biso   1.000  C
  H394     1.0000 0.07039  0.69428  0.17390  Biso   1.000  H
  H395     1.0000 0.07091  0.67619  0.23448  Biso   1.000  H
  C350     1.0000 0.12000  0.74381  0.22130  Biso   1.000  C
  H396     1.0000 0.77098  0.80359  0.98360  Biso   1.000  H
  C351     1.0000 0.70711  0.78932  0.93001  Biso   1.000  C
  H397     1.0000 0.80572  0.67390  0.92961  Biso   1.000  H
  H398     1.0000 0.82381  0.73448  0.92909  Biso   1.000  H
  C352     1.0000 0.75619  0.72130  0.88000  Biso   1.000  C
  C353     1.0000 0.77890  0.01821  0.25969  Biso   1.000  C
  C354     1.0000 0.72110  0.01821  0.24031  Biso   1.000  C
  H399     1.0000 0.07039  0.80572  0.32610  Biso   1.000  H
  H400     1.0000 0.07091  0.82381  0.26552  Biso   1.000  H
  C355     1.0000 0.12000  0.75619  0.27870  Biso   1.000  C
  H401     1.0000 0.15280  0.72520  0.21141  Biso   1.000  H
  H402     1.0000 0.11750  0.77649  0.20031  Biso   1.000  H
  H403     1.0000 0.69428  0.82610  0.92961  Biso   1.000  H
  H404     1.0000 0.67619  0.76552  0.92909  Biso   1.000  H
  C356     1.0000 0.74381  0.77870  0.88000  Biso   1.000  C
  H405     1.0000 0.77480  0.71141  0.84720  Biso   1.000  H
  H406     1.0000 0.72351  0.70031  0.88250  Biso   1.000  H
  H407     1.0000 0.80359  0.01640  0.22902  Biso   1.000  H
  C357     1.0000 0.78932  0.06999  0.29289  Biso   1.000  C
  H408     1.0000 0.69641  0.01640  0.27098  Biso   1.000  H
  C358     1.0000 0.71068  0.06999  0.20711  Biso   1.000  C
  H409     1.0000 0.15280  0.77480  0.28859  Biso   1.000  H
  H410     1.0000 0.11750  0.72351  0.29969  Biso   1.000  H
  H411     1.0000 0.72520  0.78859  0.84720  Biso   1.000  H
  H412     1.0000 0.77649  0.79969  0.88250  Biso   1.000  H
  H413     1.0000 0.82610  0.07039  0.30572  Biso   1.000  H
  H414     1.0000 0.76552  0.07091  0.32381  Biso   1.000  H
  C359     1.0000 0.77870  0.12000  0.25619  Biso   1.000  C
  H415     1.0000 0.67390  0.07039  0.19428  Biso   1.000  H
  H416     1.0000 0.73448  0.07091  0.17619  Biso   1.000  H
  C360     1.0000 0.72130  0.12000  0.24381  Biso   1.000  C
  H417     1.0000 0.78859  0.15280  0.27480  Biso   1.000  H
  H418     1.0000 0.79969  0.11750  0.22351  Biso   1.000  H
  H419     1.0000 0.71141  0.15280  0.22520  Biso   1.000  H
  H420     1.0000 0.70031  0.11750  0.27649  Biso   1.000  H
  C361     1.0000 0.60830  0.31601  0.66538  Biso   1.000  C
  C362     1.0000 0.64050  0.30359  0.62188  Biso   1.000  C
  C363     1.0000 0.62188  0.35950  0.69641  Biso   1.000  C
  C364     1.0000 0.56191  0.28212  0.67840  Biso   1.000  C
  C365     1.0000 0.68399  0.33462  0.60830  Biso   1.000  C
  H421     1.0000 0.63242  0.27352  0.60118  Biso   1.000  H
  C366     1.0000 0.66538  0.39170  0.68399  Biso   1.000  C
  H422     1.0000 0.60118  0.36758  0.72648  Biso   1.000  H
  N61      1.0000 0.52762  0.29438  0.71322  Biso   1.000  N
  H423     1.0000 0.55769  0.24980  0.65999  Biso   1.000  H
  C367     1.0000 0.71788  0.32160  0.56191  Biso   1.000  C
  C368     1.0000 0.69641  0.37812  0.64050  Biso   1.000  C
  C369     1.0000 0.67840  0.43809  0.71788  Biso   1.000  C
  C370     1.0000 0.48179  0.25969  0.72110  Biso   1.000  C
  N62      1.0000 0.70562  0.28678  0.52762  Biso   1.000  N
  H424     1.0000 0.75020  0.34001  0.55769  Biso   1.000  H
  H425     1.0000 0.72648  0.39882  0.63242  Biso   1.000  H
  N63      1.0000 0.71322  0.47238  0.70562  Biso   1.000  N
  H426     1.0000 0.65999  0.44231  0.75020  Biso   1.000  H
  C371     1.0000 0.48179  0.24031  0.77890  Biso   1.000  C
  H427     1.0000 0.48360  0.22902  0.69641  Biso   1.000  H
  C372     1.0000 0.43001  0.29289  0.71068  Biso   1.000  C
  C373     1.0000 0.74031  0.27890  0.48179  Biso   1.000  C
  C374     1.0000 0.72110  0.51821  0.74031  Biso   1.000  C
  N64      1.0000 0.52762  0.20562  0.78678  Biso   1.000  N
  H428     1.0000 0.48360  0.27098  0.80359  Biso   1.000  H
  C375     1.0000 0.43001  0.20711  0.78932  Biso   1.000  C
  H429     1.0000 0.42961  0.30572  0.67390  Biso   1.000  H
  H430     1.0000 0.42909  0.32381  0.73448  Biso   1.000  H
  C376     1.0000 0.38000  0.25619  0.72130  Biso   1.000  C
  C377     1.0000 0.70711  0.28932  0.43001  Biso   1.000  C
  C378     1.0000 0.75969  0.22110  0.48179  Biso   1.000  C
  H431     1.0000 0.77098  0.30359  0.48360  Biso   1.000  H
  C379     1.0000 0.77890  0.51821  0.75969  Biso   1.000  C
  H432     1.0000 0.69641  0.51640  0.77098  Biso   1.000  H
  C380     1.0000 0.71068  0.56999  0.70711  Biso   1.000  C
  C381     1.0000 0.56191  0.21788  0.82160  Biso   1.000  C
  H433     1.0000 0.42961  0.19428  0.82610  Biso   1.000  H
  H434     1.0000 0.42909  0.17619  0.76552  Biso   1.000  H
  C382     1.0000 0.38000  0.24381  0.77870  Biso   1.000  C
  H435     1.0000 0.34720  0.27480  0.71141  Biso   1.000  H
  H436     1.0000 0.38250  0.22351  0.70031  Biso   1.000  H
  H437     1.0000 0.69428  0.32610  0.42961  Biso   1.000  H
  H438     1.0000 0.67619  0.26552  0.42909  Biso   1.000  H
  C383     1.0000 0.74381  0.27870  0.38000  Biso   1.000  C
  N65      1.0000 0.79438  0.21322  0.52762  Biso   1.000  N
  H439     1.0000 0.72902  0.19641  0.48360  Biso   1.000  H
  C384     1.0000 0.79289  0.21068  0.43001  Biso   1.000  C
  N66      1.0000 0.78678  0.47238  0.79438  Biso   1.000  N
  H440     1.0000 0.80359  0.51640  0.72902  Biso   1.000  H
  C385     1.0000 0.78932  0.56999  0.79289  Biso   1.000  C
  H441     1.0000 0.67390  0.57039  0.69428  Biso   1.000  H
  H442     1.0000 0.73448  0.57091  0.67619  Biso   1.000  H
  C386     1.0000 0.72130  0.62000  0.74381  Biso   1.000  C
  C387     1.0000 0.60830  0.18399  0.83462  Biso   1.000  C
  H443     1.0000 0.55769  0.25020  0.84001  Biso   1.000  H
  H444     1.0000 0.34720  0.22520  0.78859  Biso   1.000  H
  H445     1.0000 0.38250  0.27649  0.79969  Biso   1.000  H
  C388     1.0000 0.75619  0.22130  0.38000  Biso   1.000  C
  H446     1.0000 0.72520  0.28859  0.34720  Biso   1.000  H
  H447     1.0000 0.77649  0.29969  0.38250  Biso   1.000  H
  C389     1.0000 0.78212  0.17840  0.56191  Biso   1.000  C
  H448     1.0000 0.80572  0.17390  0.42961  Biso   1.000  H
  H449     1.0000 0.82381  0.23448  0.42909  Biso   1.000  H
  C390     1.0000 0.82160  0.43809  0.78212  Biso   1.000  C
  H450     1.0000 0.82610  0.57039  0.80572  Biso   1.000  H
  H451     1.0000 0.76552  0.57091  0.82381  Biso   1.000  H
  C391     1.0000 0.77870  0.62000  0.75619  Biso   1.000  C
  H452     1.0000 0.71141  0.65280  0.72520  Biso   1.000  H
  H453     1.0000 0.70031  0.61750  0.77649  Biso   1.000  H
  C392     1.0000 0.64050  0.19641  0.87812  Biso   1.000  C
  C393     1.0000 0.62188  0.14050  0.80359  Biso   1.000  C
  H454     1.0000 0.77480  0.21141  0.34720  Biso   1.000  H
  H455     1.0000 0.72351  0.20031  0.38250  Biso   1.000  H
  C394     1.0000 0.81601  0.16538  0.60830  Biso   1.000  C
  H456     1.0000 0.74980  0.15999  0.55769  Biso   1.000  H
  C395     1.0000 0.83462  0.39170  0.81601  Biso   1.000  C
  H457     1.0000 0.84001  0.44231  0.74980  Biso   1.000  H
  H458     1.0000 0.78859  0.65280  0.77480  Biso   1.000  H
  H459     1.0000 0.79969  0.61750  0.72351  Biso   1.000  H
  H460     1.0000 0.63242  0.22648  0.89882  Biso   1.000  H
  C396     1.0000 0.68399  0.16538  0.89170  Biso   1.000  C
  C397     1.0000 0.66538  0.10830  0.81601  Biso   1.000  C
  H461     1.0000 0.60118  0.13242  0.77352  Biso   1.000  H
  C398     1.0000 0.80359  0.12188  0.64050  Biso   1.000  C
  C399     1.0000 0.85950  0.19641  0.62188  Biso   1.000  C
  C400     1.0000 0.87812  0.35950  0.80359  Biso   1.000  C
  C401     1.0000 0.80359  0.37812  0.85950  Biso   1.000  C
  C402     1.0000 0.69641  0.12188  0.85950  Biso   1.000  C
  C403     1.0000 0.71788  0.17840  0.93809  Biso   1.000  C
  C404     1.0000 0.67840  0.06191  0.78212  Biso   1.000  C
  H462     1.0000 0.77352  0.10118  0.63242  Biso   1.000  H
  C405     1.0000 0.83462  0.10830  0.68399  Biso   1.000  C
  H463     1.0000 0.86758  0.22648  0.60118  Biso   1.000  H
  C406     1.0000 0.89170  0.18399  0.66538  Biso   1.000  C
  C407     1.0000 0.89170  0.31601  0.83462  Biso   1.000  C
  H464     1.0000 0.89882  0.36758  0.77352  Biso   1.000  H
  H465     1.0000 0.77352  0.39882  0.86758  Biso   1.000  H
  C408     1.0000 0.81601  0.33462  0.89170  Biso   1.000  C
  H466     1.0000 0.72648  0.10118  0.86758  Biso   1.000  H
  N67      1.0000 0.70562  0.21322  0.97238  Biso   1.000  N
  H467     1.0000 0.75020  0.15999  0.94231  Biso   1.000  H
  N68      1.0000 0.71322  0.02762  0.79438  Biso   1.000  N
  H468     1.0000 0.65999  0.05769  0.74980  Biso   1.000  H
  C409     1.0000 0.87812  0.14050  0.69641  Biso   1.000  C
  C410     1.0000 0.82160  0.06191  0.71788  Biso   1.000  C
  C411     1.0000 0.93809  0.21788  0.67840  Biso   1.000  C
  C412     1.0000 0.93809  0.28212  0.82160  Biso   1.000  C
  C413     1.0000 0.85950  0.30359  0.87812  Biso   1.000  C
  C414     1.0000 0.78212  0.32160  0.93809  Biso   1.000  C
  C415     1.0000 0.74031  0.22110  0.01821  Biso   1.000  C
  C416     1.0000 0.72110  0.98179  0.75969  Biso   1.000  C
  H469     1.0000 0.89882  0.13242  0.72648  Biso   1.000  H
  N69      1.0000 0.78678  0.02762  0.70562  Biso   1.000  N
  H470     1.0000 0.84001  0.05769  0.75020  Biso   1.000  H
  N70      1.0000 0.97238  0.20562  0.71322  Biso   1.000  N
  H471     1.0000 0.94231  0.25020  0.65999  Biso   1.000  H
  N71      1.0000 0.97238  0.29438  0.78678  Biso   1.000  N
  H472     1.0000 0.94231  0.24980  0.84001  Biso   1.000  H
  H473     1.0000 0.86758  0.27352  0.89882  Biso   1.000  H
  N72      1.0000 0.79438  0.28678  0.97238  Biso   1.000  N
  H474     1.0000 0.74980  0.34001  0.94231  Biso   1.000  H
  C417     1.0000 0.75969  0.27890  0.01821  Biso   1.000  C
  H475     1.0000 0.77098  0.19641  0.01640  Biso   1.000  H
  C418     1.0000 0.70711  0.21068  0.06999  Biso   1.000  C
  C419     1.0000 0.77890  0.98179  0.74031  Biso   1.000  C
  H476     1.0000 0.69641  0.98360  0.72902  Biso   1.000  H
  C420     1.0000 0.71068  0.93001  0.79289  Biso   1.000  C
  C421     1.0000 0.01821  0.24031  0.72110  Biso   1.000  C
  C422     1.0000 0.01821  0.25969  0.77890  Biso   1.000  C
  H477     1.0000 0.72902  0.30359  0.01640  Biso   1.000  H
  C423     1.0000 0.79289  0.28932  0.06999  Biso   1.000  C
  H478     1.0000 0.69428  0.17390  0.07039  Biso   1.000  H
  H479     1.0000 0.67619  0.23448  0.07091  Biso   1.000  H
  C424     1.0000 0.74381  0.22130  0.12000  Biso   1.000  C
  H480     1.0000 0.80359  0.98360  0.77098  Biso   1.000  H
  C425     1.0000 0.78932  0.93001  0.70711  Biso   1.000  C
  H481     1.0000 0.67390  0.92961  0.80572  Biso   1.000  H
  H482     1.0000 0.73448  0.92909  0.82381  Biso   1.000  H
  C426     1.0000 0.72130  0.88000  0.75619  Biso   1.000  C
  H483     1.0000 0.01640  0.27098  0.69641  Biso   1.000  H
  C427     1.0000 0.06999  0.20711  0.71068  Biso   1.000  C
  H484     1.0000 0.01640  0.22902  0.80359  Biso   1.000  H
  C428     1.0000 0.06999  0.29289  0.78932  Biso   1.000  C
  H485     1.0000 0.80572  0.32610  0.07039  Biso   1.000  H
  H486     1.0000 0.82381  0.26552  0.07091  Biso   1.000  H
  C429     1.0000 0.75619  0.27870  0.12000  Biso   1.000  C
  H487     1.0000 0.72520  0.21141  0.15280  Biso   1.000  H
  H488     1.0000 0.77649  0.20031  0.11750  Biso   1.000  H
  H489     1.0000 0.82610  0.92961  0.69428  Biso   1.000  H
  H490     1.0000 0.76552  0.92909  0.67619  Biso   1.000  H
  C430     1.0000 0.77870  0.88000  0.74381  Biso   1.000  C
  H491     1.0000 0.71141  0.84720  0.77480  Biso   1.000  H
  H492     1.0000 0.70031  0.88250  0.72351  Biso   1.000  H
  H493     1.0000 0.07039  0.19428  0.67390  Biso   1.000  H
  H494     1.0000 0.07091  0.17619  0.73448  Biso   1.000  H
  C431     1.0000 0.12000  0.24381  0.72130  Biso   1.000  C
  H495     1.0000 0.07039  0.30572  0.82610  Biso   1.000  H
  H496     1.0000 0.07091  0.32381  0.76552  Biso   1.000  H
  C432     1.0000 0.12000  0.25619  0.77870  Biso   1.000  C
  H497     1.0000 0.77480  0.28859  0.15280  Biso   1.000  H
  H498     1.0000 0.72351  0.29969  0.11750  Biso   1.000  H
  H499     1.0000 0.78859  0.84720  0.72520  Biso   1.000  H
  H500     1.0000 0.79969  0.88250  0.77649  Biso   1.000  H
  H501     1.0000 0.15280  0.22520  0.71141  Biso   1.000  H
  H502     1.0000 0.11750  0.27649  0.70031  Biso   1.000  H
  H503     1.0000 0.15280  0.27480  0.78859  Biso   1.000  H
  H504     1.0000 0.11750  0.22351  0.79969  Biso   1.000  H
  C433     1.0000 0.31601  0.66538  0.60830  Biso   1.000  C
  C434     1.0000 0.28212  0.67840  0.56191  Biso   1.000  C
  C435     1.0000 0.30359  0.62188  0.64050  Biso   1.000  C
  C436     1.0000 0.35950  0.69641  0.62188  Biso   1.000  C
  N73      1.0000 0.29438  0.71322  0.52762  Biso   1.000  N
  H505     1.0000 0.24980  0.65999  0.55769  Biso   1.000  H
  H506     1.0000 0.27352  0.60118  0.63242  Biso   1.000  H
  C437     1.0000 0.33462  0.60830  0.68399  Biso   1.000  C
  C438     1.0000 0.39170  0.68399  0.66538  Biso   1.000  C
  H507     1.0000 0.36758  0.72648  0.60118  Biso   1.000  H
  C439     1.0000 0.25969  0.72110  0.48179  Biso   1.000  C
  C440     1.0000 0.37812  0.64050  0.69641  Biso   1.000  C
  C441     1.0000 0.32160  0.56191  0.71788  Biso   1.000  C
  C442     1.0000 0.43809  0.71788  0.67840  Biso   1.000  C
  C443     1.0000 0.29289  0.71068  0.43001  Biso   1.000  C
  C444     1.0000 0.24031  0.77890  0.48179  Biso   1.000  C
  H508     1.0000 0.22902  0.69641  0.48360  Biso   1.000  H
  H509     1.0000 0.39882  0.63242  0.72648  Biso   1.000  H
  N74      1.0000 0.28678  0.52762  0.70562  Biso   1.000  N
  H510     1.0000 0.34001  0.55769  0.75020  Biso   1.000  H
  N75      1.0000 0.47238  0.70562  0.71322  Biso   1.000  N
  H511     1.0000 0.44231  0.75020  0.65999  Biso   1.000  H
  C445     1.0000 0.25619  0.72130  0.38000  Biso   1.000  C
  H512     1.0000 0.30572  0.67390  0.42961  Biso   1.000  H
  H513     1.0000 0.32381  0.73448  0.42909  Biso   1.000  H
  C446     1.0000 0.20711  0.78932  0.43001  Biso   1.000  C
  N76      1.0000 0.20562  0.78678  0.52762  Biso   1.000  N
  H514     1.0000 0.27098  0.80359  0.48360  Biso   1.000  H
  C447     1.0000 0.27890  0.48179  0.74031  Biso   1.000  C
  C448     1.0000 0.51821  0.74031  0.72110  Biso   1.000  C
  C449     1.0000 0.24381  0.77870  0.38000  Biso   1.000  C
  H515     1.0000 0.27480  0.71141  0.34720  Biso   1.000  H
  H516     1.0000 0.22351  0.70031  0.38250  Biso   1.000  H
  H517     1.0000 0.19428  0.82610  0.42961  Biso   1.000  H
  H518     1.0000 0.17619  0.76552  0.42909  Biso   1.000  H
  C450     1.0000 0.21788  0.82160  0.56191  Biso   1.000  C
  C451     1.0000 0.22110  0.48179  0.75969  Biso   1.000  C
  H519     1.0000 0.30359  0.48360  0.77098  Biso   1.000  H
  C452     1.0000 0.28932  0.43001  0.70711  Biso   1.000  C
  H520     1.0000 0.51640  0.77098  0.69641  Biso   1.000  H
  C453     1.0000 0.56999  0.70711  0.71068  Biso   1.000  C
  C454     1.0000 0.51821  0.75969  0.77890  Biso   1.000  C
  H521     1.0000 0.22520  0.78859  0.34720  Biso   1.000  H
  H522     1.0000 0.27649  0.79969  0.38250  Biso   1.000  H
  C455     1.0000 0.18399  0.83462  0.60830  Biso   1.000  C
  H523     1.0000 0.25020  0.84001  0.55769  Biso   1.000  H
  N77      1.0000 0.21322  0.52762  0.79438  Biso   1.000  N
  H524     1.0000 0.19641  0.48360  0.72902  Biso   1.000  H
  C456     1.0000 0.21068  0.43001  0.79289  Biso   1.000  C
  H525     1.0000 0.32610  0.42961  0.69428  Biso   1.000  H
  H526     1.0000 0.26552  0.42909  0.67619  Biso   1.000  H
  C457     1.0000 0.27870  0.38000  0.74381  Biso   1.000  C
  H527     1.0000 0.57039  0.69428  0.67390  Biso   1.000  H
  H528     1.0000 0.57091  0.67619  0.73448  Biso   1.000  H
  C458     1.0000 0.62000  0.74381  0.72130  Biso   1.000  C
  N78      1.0000 0.47238  0.79438  0.78678  Biso   1.000  N
  H529     1.0000 0.51640  0.72902  0.80359  Biso   1.000  H
  C459     1.0000 0.56999  0.79289  0.78932  Biso   1.000  C
  C460     1.0000 0.14050  0.80359  0.62188  Biso   1.000  C
  C461     1.0000 0.19641  0.87812  0.64050  Biso   1.000  C
  C462     1.0000 0.17840  0.56191  0.78212  Biso   1.000  C
  H530     1.0000 0.17390  0.42961  0.80572  Biso   1.000  H
  H531     1.0000 0.23448  0.42909  0.82381  Biso   1.000  H
  C463     1.0000 0.22130  0.38000  0.75619  Biso   1.000  C
  H532     1.0000 0.28859  0.34720  0.72520  Biso   1.000  H
  H533     1.0000 0.29969  0.38250  0.77649  Biso   1.000  H
  H534     1.0000 0.65280  0.72520  0.71141  Biso   1.000  H
  H535     1.0000 0.61750  0.77649  0.70031  Biso   1.000  H
  C464     1.0000 0.62000  0.75619  0.77870  Biso   1.000  C
  C465     1.0000 0.43809  0.78212  0.82160  Biso   1.000  C
  H536     1.0000 0.57039  0.80572  0.82610  Biso   1.000  H
  H537     1.0000 0.57091  0.82381  0.76552  Biso   1.000  H
  H538     1.0000 0.13242  0.77352  0.60118  Biso   1.000  H
  C466     1.0000 0.10830  0.81601  0.66538  Biso   1.000  C
  H539     1.0000 0.22648  0.89882  0.63242  Biso   1.000  H
  C467     1.0000 0.16538  0.89170  0.68399  Biso   1.000  C
  C468     1.0000 0.16538  0.60830  0.81601  Biso   1.000  C
  H540     1.0000 0.15999  0.55769  0.74980  Biso   1.000  H
  H541     1.0000 0.21141  0.34720  0.77480  Biso   1.000  H
  H542     1.0000 0.20031  0.38250  0.72351  Biso   1.000  H
  H543     1.0000 0.65280  0.77480  0.78859  Biso   1.000  H
  H544     1.0000 0.61750  0.72351  0.79969  Biso   1.000  H
  C469     1.0000 0.39170  0.81601  0.83462  Biso   1.000  C
  H545     1.0000 0.44231  0.74980  0.84001  Biso   1.000  H
  C470     1.0000 0.12188  0.85950  0.69641  Biso   1.000  C
  C471     1.0000 0.06191  0.78212  0.67840  Biso   1.000  C
  C472     1.0000 0.17840  0.93809  0.71788  Biso   1.000  C
  C473     1.0000 0.12188  0.64050  0.80359  Biso   1.000  C
  C474     1.0000 0.19641  0.62188  0.85950  Biso   1.000  C
  C475     1.0000 0.35950  0.80359  0.87812  Biso   1.000  C
  C476     1.0000 0.37812  0.85950  0.80359  Biso   1.000  C
  H546     1.0000 0.10118  0.86758  0.72648  Biso   1.000  H
  N79      1.0000 0.02762  0.79438  0.71322  Biso   1.000  N
  H547     1.0000 0.05769  0.74980  0.65999  Biso   1.000  H
  N80      1.0000 0.21322  0.97238  0.70562  Biso   1.000  N
  H548     1.0000 0.15999  0.94231  0.75020  Biso   1.000  H
  C477     1.0000 0.10830  0.68399  0.83462  Biso   1.000  C
  H549     1.0000 0.10118  0.63242  0.77352  Biso   1.000  H
  H550     1.0000 0.22648  0.60118  0.86758  Biso   1.000  H
  C478     1.0000 0.18399  0.66538  0.89170  Biso   1.000  C
  H551     1.0000 0.36758  0.77352  0.89882  Biso   1.000  H
  C479     1.0000 0.31601  0.83462  0.89170  Biso   1.000  C
  C480     1.0000 0.33462  0.89170  0.81601  Biso   1.000  C
  H552     1.0000 0.39882  0.86758  0.77352  Biso   1.000  H
  C481     1.0000 0.98179  0.75969  0.72110  Biso   1.000  C
  C482     1.0000 0.22110  0.01821  0.74031  Biso   1.000  C
  C483     1.0000 0.06191  0.71788  0.82160  Biso   1.000  C
  C484     1.0000 0.14050  0.69641  0.87812  Biso   1.000  C
  C485     1.0000 0.21788  0.67840  0.93809  Biso   1.000  C
  C486     1.0000 0.30359  0.87812  0.85950  Biso   1.000  C
  C487     1.0000 0.28212  0.82160  0.93809  Biso   1.000  C
  C488     1.0000 0.32160  0.93809  0.78212  Biso   1.000  C
  C489     1.0000 0.98179  0.74031  0.77890  Biso   1.000  C
  H553     1.0000 0.98360  0.72902  0.69641  Biso   1.000  H
  C490     1.0000 0.93001  0.79289  0.71068  Biso   1.000  C
  C491     1.0000 0.27890  0.01821  0.75969  Biso   1.000  C
  H554     1.0000 0.19641  0.01640  0.77098  Biso   1.000  H
  C492     1.0000 0.21068  0.06999  0.70711  Biso   1.000  C
  N81      1.0000 0.02762  0.70562  0.78678  Biso   1.000  N
  H555     1.0000 0.05769  0.75020  0.84001  Biso   1.000  H
  H556     1.0000 0.13242  0.72648  0.89882  Biso   1.000  H
  N82      1.0000 0.20562  0.71322  0.97238  Biso   1.000  N
  H557     1.0000 0.25020  0.65999  0.94231  Biso   1.000  H
  H558     1.0000 0.27352  0.89882  0.86758  Biso   1.000  H
  N83      1.0000 0.29438  0.78678  0.97238  Biso   1.000  N
  H559     1.0000 0.24980  0.84001  0.94231  Biso   1.000  H
  N84      1.0000 0.28678  0.97238  0.79438  Biso   1.000  N
  H560     1.0000 0.34001  0.94231  0.74980  Biso   1.000  H
  H561     1.0000 0.98360  0.77098  0.80359  Biso   1.000  H
  C493     1.0000 0.93001  0.70711  0.78932  Biso   1.000  C
  H562     1.0000 0.92961  0.80572  0.67390  Biso   1.000  H
  H563     1.0000 0.92909  0.82381  0.73448  Biso   1.000  H
  C494     1.0000 0.88000  0.75619  0.72130  Biso   1.000  C
  H564     1.0000 0.30359  0.01640  0.72902  Biso   1.000  H
  C495     1.0000 0.28932  0.06999  0.79289  Biso   1.000  C
  H565     1.0000 0.17390  0.07039  0.69428  Biso   1.000  H
  H566     1.0000 0.23448  0.07091  0.67619  Biso   1.000  H
  C496     1.0000 0.22130  0.12000  0.74381  Biso   1.000  C
  C497     1.0000 0.24031  0.72110  0.01821  Biso   1.000  C
  C498     1.0000 0.25969  0.77890  0.01821  Biso   1.000  C
  H567     1.0000 0.92961  0.69428  0.82610  Biso   1.000  H
  H568     1.0000 0.92909  0.67619  0.76552  Biso   1.000  H
  C499     1.0000 0.88000  0.74381  0.77870  Biso   1.000  C
  H569     1.0000 0.84720  0.77480  0.71141  Biso   1.000  H
  H570     1.0000 0.88250  0.72351  0.70031  Biso   1.000  H
  H571     1.0000 0.32610  0.07039  0.80572  Biso   1.000  H
  H572     1.0000 0.26552  0.07091  0.82381  Biso   1.000  H
  C500     1.0000 0.27870  0.12000  0.75619  Biso   1.000  C
  H573     1.0000 0.21141  0.15280  0.72520  Biso   1.000  H
  H574     1.0000 0.20031  0.11750  0.77649  Biso   1.000  H
  H575     1.0000 0.27098  0.69641  0.01640  Biso   1.000  H
  C501     1.0000 0.20711  0.71068  0.06999  Biso   1.000  C
  H576     1.0000 0.22902  0.80359  0.01640  Biso   1.000  H
  C502     1.0000 0.29289  0.78932  0.06999  Biso   1.000  C
  H577     1.0000 0.84720  0.72520  0.78859  Biso   1.000  H
  H578     1.0000 0.88250  0.77649  0.79969  Biso   1.000  H
  H579     1.0000 0.28859  0.15280  0.77480  Biso   1.000  H
  H580     1.0000 0.29969  0.11750  0.72351  Biso   1.000  H
  H581     1.0000 0.19428  0.67390  0.07039  Biso   1.000  H
  H582     1.0000 0.17619  0.73448  0.07091  Biso   1.000  H
  C503     1.0000 0.24381  0.72130  0.12000  Biso   1.000  C
  H583     1.0000 0.30572  0.82610  0.07039  Biso   1.000  H
  H584     1.0000 0.32381  0.76552  0.07091  Biso   1.000  H
  C504     1.0000 0.25619  0.77870  0.12000  Biso   1.000  C
  H585     1.0000 0.22520  0.71141  0.15280  Biso   1.000  H
  H586     1.0000 0.27649  0.70031  0.11750  Biso   1.000  H
  H587     1.0000 0.27480  0.78859  0.15280  Biso   1.000  H
  H588     1.0000 0.22351  0.79969  0.11750  Biso   1.000  H
  I1       1.0000 0.30728  0.19272  0.30728  Biso   1.000  I
  I2       1.0000 0.26290  0.26290  0.23710  Biso   1.000  I
  I3       1.0000 0.23710  0.26290  0.26290  Biso   1.000  I
  I4       1.0000 0.37502  0.12502  0.37502  Biso   1.000  I
  I5       1.0000 0.23710  0.23710  0.23710  Biso   1.000  I
  I6       1.0000 0.19272  0.19272  0.19272  Biso   1.000  I
  I7       1.0000 0.19272  0.30728  0.30728  Biso   1.000  I
  I8       1.0000 0.30728  0.30728  0.19272  Biso   1.000  I
  I9       1.0000 0.44272  0.05728  0.44272  Biso   1.000  I
  I10      1.0000 0.12502  0.12502  0.12502  Biso   1.000  I
  I11      1.0000 0.26290  0.23710  0.26290  Biso   1.000  I
  I12      1.0000 0.12502  0.37502  0.37502  Biso   1.000  I
  I13      1.0000 0.37502  0.37502  0.12502  Biso   1.000  I
  I14      1.0000 0.48710  0.98710  0.51290  Biso   1.000  I
  I15      1.0000 0.51290  0.98710  0.48710  Biso   1.000  I
  I16      1.0000 0.51290  0.01290  0.51290  Biso   1.000  I
  I17      1.0000 0.05728  0.05728  0.05728  Biso   1.000  I
  I18      1.0000 0.05728  0.44272  0.44272  Biso   1.000  I
  I19      1.0000 0.44272  0.44272  0.05728  Biso   1.000  I
  I20      1.0000 0.55728  0.94272  0.44272  Biso   1.000  I
  I21      1.0000 0.55728  0.05728  0.55728  Biso   1.000  I
  I22      1.0000 0.44272  0.94272  0.55728  Biso   1.000  I
  I23      1.0000 0.98710  0.01290  0.98710  Biso   1.000  I
  I24      1.0000 0.01290  0.98710  0.98710  Biso   1.000  I
  I25      1.0000 0.98710  0.98710  0.01290  Biso   1.000  I
  I26      1.0000 0.98710  0.51290  0.48710  Biso   1.000  I
  I27      1.0000 0.98710  0.48710  0.51290  Biso   1.000  I
  I28      1.0000 0.01290  0.51290  0.51290  Biso   1.000  I
  I29      1.0000 0.51290  0.48710  0.98710  Biso   1.000  I
  I30      1.0000 0.48710  0.51290  0.98710  Biso   1.000  I
  I31      1.0000 0.51290  0.51290  0.01290  Biso   1.000  I
  I32      1.0000 0.62502  0.87502  0.37502  Biso   1.000  I
  I33      1.0000 0.48710  0.01290  0.48710  Biso   1.000  I
  I34      1.0000 0.62502  0.12502  0.62502  Biso   1.000  I
  I35      1.0000 0.37502  0.87502  0.62502  Biso   1.000  I
  I36      1.0000 0.94272  0.94272  0.05728  Biso   1.000  I
  I37      1.0000 0.05728  0.94272  0.94272  Biso   1.000  I
  I38      1.0000 0.94272  0.05728  0.94272  Biso   1.000  I
  I39      1.0000 0.94272  0.44272  0.55728  Biso   1.000  I
  I40      1.0000 0.05728  0.55728  0.55728  Biso   1.000  I
  I41      1.0000 0.94272  0.55728  0.44272  Biso   1.000  I
  I42      1.0000 0.44272  0.55728  0.94272  Biso   1.000  I
  I43      1.0000 0.55728  0.55728  0.05728  Biso   1.000  I
  I44      1.0000 0.55728  0.44272  0.94272  Biso   1.000  I
  I45      1.0000 0.69272  0.80728  0.30728  Biso   1.000  I
  I46      1.0000 0.69272  0.19272  0.69272  Biso   1.000  I
  I47      1.0000 0.30728  0.80728  0.69272  Biso   1.000  I
  I48      1.0000 0.01290  0.01290  0.01290  Biso   1.000  I
  I49      1.0000 0.87502  0.87502  0.12502  Biso   1.000  I
  I50      1.0000 0.12502  0.87502  0.87502  Biso   1.000  I
  I51      1.0000 0.87502  0.12502  0.87502  Biso   1.000  I
  I52      1.0000 0.87502  0.37502  0.62502  Biso   1.000  I
  I53      1.0000 0.01290  0.48710  0.48710  Biso   1.000  I
  I54      1.0000 0.12502  0.62502  0.62502  Biso   1.000  I
  I55      1.0000 0.87502  0.62502  0.37502  Biso   1.000  I
  I56      1.0000 0.37502  0.62502  0.87502  Biso   1.000  I
  I57      1.0000 0.48710  0.48710  0.01290  Biso   1.000  I
  I58      1.0000 0.62502  0.62502  0.12502  Biso   1.000  I
  I59      1.0000 0.62502  0.37502  0.87502  Biso   1.000  I
  I60      1.0000 0.76290  0.73710  0.26290  Biso   1.000  I
  I61      1.0000 0.76290  0.76290  0.23710  Biso   1.000  I
  I62      1.0000 0.73710  0.73710  0.23710  Biso   1.000  I
  I63      1.0000 0.76290  0.23710  0.76290  Biso   1.000  I
  I64      1.0000 0.73710  0.26290  0.76290  Biso   1.000  I
  I65      1.0000 0.76290  0.26290  0.73710  Biso   1.000  I
  I66      1.0000 0.23710  0.76290  0.76290  Biso   1.000  I
  I67      1.0000 0.26290  0.73710  0.76290  Biso   1.000  I
  I68      1.0000 0.23710  0.73710  0.73710  Biso   1.000  I
  I69      1.0000 0.80728  0.80728  0.19272  Biso   1.000  I
  I70      1.0000 0.19272  0.80728  0.80728  Biso   1.000  I
  I71      1.0000 0.80728  0.19272  0.80728  Biso   1.000  I
  I72      1.0000 0.80728  0.30728  0.69272  Biso   1.000  I
  I73      1.0000 0.19272  0.69272  0.69272  Biso   1.000  I
  I74      1.0000 0.80728  0.69272  0.30728  Biso   1.000  I
  I75      1.0000 0.30728  0.69272  0.80728  Biso   1.000  I
  I76      1.0000 0.69272  0.69272  0.19272  Biso   1.000  I
  I77      1.0000 0.69272  0.30728  0.80728  Biso   1.000  I
  I78      1.0000 0.69272  0.69272  0.19272  Biso   1.000  I
  I79      1.0000 0.80728  0.80728  0.19272  Biso   1.000  I
  I80      1.0000 0.80728  0.69272  0.30728  Biso   1.000  I
  I81      1.0000 0.80728  0.30728  0.69272  Biso   1.000  I
  I82      1.0000 0.69272  0.30728  0.80728  Biso   1.000  I
  I83      1.0000 0.80728  0.19272  0.80728  Biso   1.000  I
  I84      1.0000 0.19272  0.69272  0.69272  Biso   1.000  I
  I85      1.0000 0.30728  0.69272  0.80728  Biso   1.000  I
  I86      1.0000 0.19272  0.80728  0.80728  Biso   1.000  I
  I87      1.0000 0.76290  0.73710  0.26290  Biso   1.000  I
  I88      1.0000 0.73710  0.73710  0.23710  Biso   1.000  I
  I89      1.0000 0.73710  0.76290  0.26290  Biso   1.000  I
  I90      1.0000 0.26290  0.76290  0.73710  Biso   1.000  I
  I91      1.0000 0.23710  0.73710  0.73710  Biso   1.000  I
  I92      1.0000 0.26290  0.73710  0.76290  Biso   1.000  I
  I93      1.0000 0.73710  0.23710  0.73710  Biso   1.000  I
  I94      1.0000 0.73710  0.26290  0.76290  Biso   1.000  I
  I95      1.0000 0.76290  0.26290  0.73710  Biso   1.000  I
  I96      1.0000 0.76290  0.23710  0.76290  Biso   1.000  I
  I97      1.0000 0.73710  0.26290  0.76290  Biso   1.000  I
  I98      1.0000 0.73710  0.23710  0.73710  Biso   1.000  I
  I99      1.0000 0.23710  0.76290  0.76290  Biso   1.000  I
  I100     1.0000 0.26290  0.76290  0.73710  Biso   1.000  I
  I101     1.0000 0.26290  0.73710  0.76290  Biso   1.000  I
  I102     1.0000 0.76290  0.76290  0.23710  Biso   1.000  I
  I103     1.0000 0.73710  0.76290  0.26290  Biso   1.000  I
  I104     1.0000 0.73710  0.73710  0.23710  Biso   1.000  I
  I105     1.0000 0.23710  0.76290  0.76290  Biso   1.000  I
  I106     1.0000 0.26290  0.76290  0.73710  Biso   1.000  I
  I107     1.0000 0.23710  0.73710  0.73710  Biso   1.000  I
  I108     1.0000 0.76290  0.73710  0.26290  Biso   1.000  I
  I109     1.0000 0.76290  0.76290  0.23710  Biso   1.000  I
  I110     1.0000 0.73710  0.76290  0.26290  Biso   1.000  I
  I111     1.0000 0.76290  0.23710  0.76290  Biso   1.000  I
  I112     1.0000 0.76290  0.26290  0.73710  Biso   1.000  I
  I113     1.0000 0.73710  0.23710  0.73710  Biso   1.000  I
  I114     1.0000 0.62502  0.62502  0.12502  Biso   1.000  I
  I115     1.0000 0.73710  0.76290  0.26290  Biso   1.000  I
  I116     1.0000 0.87502  0.87502  0.12502  Biso   1.000  I
  I117     1.0000 0.87502  0.62502  0.37502  Biso   1.000  I
  I118     1.0000 0.87502  0.37502  0.62502  Biso   1.000  I
  I119     1.0000 0.73710  0.23710  0.73710  Biso   1.000  I
  I120     1.0000 0.62502  0.37502  0.87502  Biso   1.000  I
  I121     1.0000 0.87502  0.12502  0.87502  Biso   1.000  I
  I122     1.0000 0.12502  0.62502  0.62502  Biso   1.000  I
  I123     1.0000 0.26290  0.76290  0.73710  Biso   1.000  I
  I124     1.0000 0.37502  0.62502  0.87502  Biso   1.000  I
  I125     1.0000 0.12502  0.87502  0.87502  Biso   1.000  I
  I126     1.0000 0.69272  0.80728  0.30728  Biso   1.000  I
  I127     1.0000 0.69272  0.69272  0.19272  Biso   1.000  I
  I128     1.0000 0.80728  0.69272  0.30728  Biso   1.000  I
  I129     1.0000 0.30728  0.69272  0.80728  Biso   1.000  I
  I130     1.0000 0.19272  0.69272  0.69272  Biso   1.000  I
  I131     1.0000 0.30728  0.80728  0.69272  Biso   1.000  I
  I132     1.0000 0.80728  0.30728  0.69272  Biso   1.000  I
  I133     1.0000 0.69272  0.30728  0.80728  Biso   1.000  I
  I134     1.0000 0.69272  0.19272  0.69272  Biso   1.000  I
  I135     1.0000 0.69272  0.19272  0.69272  Biso   1.000  I
  I136     1.0000 0.69272  0.30728  0.80728  Biso   1.000  I
  I137     1.0000 0.80728  0.19272  0.80728  Biso   1.000  I
  I138     1.0000 0.30728  0.69272  0.80728  Biso   1.000  I
  I139     1.0000 0.30728  0.80728  0.69272  Biso   1.000  I
  I140     1.0000 0.19272  0.80728  0.80728  Biso   1.000  I
  I141     1.0000 0.69272  0.69272  0.19272  Biso   1.000  I
  I142     1.0000 0.69272  0.80728  0.30728  Biso   1.000  I
  I143     1.0000 0.80728  0.80728  0.19272  Biso   1.000  I
  I144     1.0000 0.19272  0.69272  0.69272  Biso   1.000  I
  I145     1.0000 0.30728  0.80728  0.69272  Biso   1.000  I
  I146     1.0000 0.19272  0.80728  0.80728  Biso   1.000  I
  I147     1.0000 0.69272  0.80728  0.30728  Biso   1.000  I
  I148     1.0000 0.80728  0.80728  0.19272  Biso   1.000  I
  I149     1.0000 0.80728  0.69272  0.30728  Biso   1.000  I
  I150     1.0000 0.69272  0.19272  0.69272  Biso   1.000  I
  I151     1.0000 0.80728  0.30728  0.69272  Biso   1.000  I
  I152     1.0000 0.80728  0.19272  0.80728  Biso   1.000  I
  I153     1.0000 0.55728  0.55728  0.05728  Biso   1.000  I
  I154     1.0000 0.94272  0.94272  0.05728  Biso   1.000  I
  I155     1.0000 0.94272  0.55728  0.44272  Biso   1.000  I
  I156     1.0000 0.94272  0.44272  0.55728  Biso   1.000  I
  I157     1.0000 0.55728  0.44272  0.94272  Biso   1.000  I
  I158     1.0000 0.94272  0.05728  0.94272  Biso   1.000  I
  I159     1.0000 0.05728  0.55728  0.55728  Biso   1.000  I
  I160     1.0000 0.44272  0.55728  0.94272  Biso   1.000  I
  I161     1.0000 0.05728  0.94272  0.94272  Biso   1.000  I
  I162     1.0000 0.62502  0.87502  0.37502  Biso   1.000  I
  I163     1.0000 0.76290  0.76290  0.23710  Biso   1.000  I
  I164     1.0000 0.62502  0.62502  0.12502  Biso   1.000  I
  I165     1.0000 0.87502  0.62502  0.37502  Biso   1.000  I
  I166     1.0000 0.37502  0.62502  0.87502  Biso   1.000  I
  I167     1.0000 0.23710  0.76290  0.76290  Biso   1.000  I
  I168     1.0000 0.12502  0.62502  0.62502  Biso   1.000  I
  I169     1.0000 0.37502  0.87502  0.62502  Biso   1.000  I
  I170     1.0000 0.87502  0.37502  0.62502  Biso   1.000  I
  I171     1.0000 0.76290  0.23710  0.76290  Biso   1.000  I
  I172     1.0000 0.62502  0.37502  0.87502  Biso   1.000  I
  I173     1.0000 0.62502  0.12502  0.62502  Biso   1.000  I
  I174     1.0000 0.62502  0.12502  0.62502  Biso   1.000  I
  I175     1.0000 0.76290  0.26290  0.73710  Biso   1.000  I
  I176     1.0000 0.62502  0.37502  0.87502  Biso   1.000  I
  I177     1.0000 0.87502  0.12502  0.87502  Biso   1.000  I
  I178     1.0000 0.37502  0.62502  0.87502  Biso   1.000  I
  I179     1.0000 0.23710  0.73710  0.73710  Biso   1.000  I
  I180     1.0000 0.37502  0.87502  0.62502  Biso   1.000  I
  I181     1.0000 0.12502  0.87502  0.87502  Biso   1.000  I
  I182     1.0000 0.62502  0.62502  0.12502  Biso   1.000  I
  I183     1.0000 0.76290  0.73710  0.26290  Biso   1.000  I
  I184     1.0000 0.62502  0.87502  0.37502  Biso   1.000  I
  I185     1.0000 0.87502  0.87502  0.12502  Biso   1.000  I
  I186     1.0000 0.12502  0.62502  0.62502  Biso   1.000  I
  I187     1.0000 0.26290  0.73710  0.76290  Biso   1.000  I
  I188     1.0000 0.37502  0.87502  0.62502  Biso   1.000  I
  I189     1.0000 0.12502  0.87502  0.87502  Biso   1.000  I
  I190     1.0000 0.62502  0.87502  0.37502  Biso   1.000  I
  I191     1.0000 0.73710  0.73710  0.23710  Biso   1.000  I
  I192     1.0000 0.87502  0.87502  0.12502  Biso   1.000  I
  I193     1.0000 0.87502  0.62502  0.37502  Biso   1.000  I
  I194     1.0000 0.62502  0.12502  0.62502  Biso   1.000  I
  I195     1.0000 0.73710  0.26290  0.76290  Biso   1.000  I
  I196     1.0000 0.87502  0.37502  0.62502  Biso   1.000  I
  I197     1.0000 0.87502  0.12502  0.87502  Biso   1.000  I
  I198     1.0000 0.51290  0.48710  0.98710  Biso   1.000  I
  I199     1.0000 0.48710  0.48710  0.01290  Biso   1.000  I
  I200     1.0000 0.48710  0.51290  0.98710  Biso   1.000  I
  I201     1.0000 0.98710  0.01290  0.98710  Biso   1.000  I
  I202     1.0000 0.01290  0.98710  0.98710  Biso   1.000  I
  I203     1.0000 0.01290  0.01290  0.01290  Biso   1.000  I
  I204     1.0000 0.98710  0.48710  0.51290  Biso   1.000  I
  I205     1.0000 0.01290  0.51290  0.51290  Biso   1.000  I
  I206     1.0000 0.01290  0.48710  0.48710  Biso   1.000  I
  I207     1.0000 0.98710  0.51290  0.48710  Biso   1.000  I
  I208     1.0000 0.01290  0.51290  0.51290  Biso   1.000  I
  I209     1.0000 0.01290  0.48710  0.48710  Biso   1.000  I
  I210     1.0000 0.48710  0.51290  0.98710  Biso   1.000  I
  I211     1.0000 0.51290  0.51290  0.01290  Biso   1.000  I
  I212     1.0000 0.48710  0.48710  0.01290  Biso   1.000  I
  I213     1.0000 0.98710  0.98710  0.01290  Biso   1.000  I
  I214     1.0000 0.01290  0.98710  0.98710  Biso   1.000  I
  I215     1.0000 0.01290  0.01290  0.01290  Biso   1.000  I
  I216     1.0000 0.98710  0.48710  0.51290  Biso   1.000  I
  I217     1.0000 0.01290  0.48710  0.48710  Biso   1.000  I
  I218     1.0000 0.98710  0.51290  0.48710  Biso   1.000  I
  I219     1.0000 0.51290  0.48710  0.98710  Biso   1.000  I
  I220     1.0000 0.51290  0.51290  0.01290  Biso   1.000  I
  I221     1.0000 0.48710  0.48710  0.01290  Biso   1.000  I
  I222     1.0000 0.98710  0.98710  0.01290  Biso   1.000  I
  I223     1.0000 0.01290  0.01290  0.01290  Biso   1.000  I
  I224     1.0000 0.98710  0.01290  0.98710  Biso   1.000  I
  I225     1.0000 0.55728  0.94272  0.44272  Biso   1.000  I
  I226     1.0000 0.55728  0.55728  0.05728  Biso   1.000  I
  I227     1.0000 0.94272  0.55728  0.44272  Biso   1.000  I
  I228     1.0000 0.44272  0.55728  0.94272  Biso   1.000  I
  I229     1.0000 0.05728  0.55728  0.55728  Biso   1.000  I
  I230     1.0000 0.44272  0.94272  0.55728  Biso   1.000  I
  I231     1.0000 0.94272  0.44272  0.55728  Biso   1.000  I
  I232     1.0000 0.55728  0.44272  0.94272  Biso   1.000  I
  I233     1.0000 0.55728  0.05728  0.55728  Biso   1.000  I
  I234     1.0000 0.55728  0.05728  0.55728  Biso   1.000  I
  I235     1.0000 0.55728  0.44272  0.94272  Biso   1.000  I
  I236     1.0000 0.94272  0.05728  0.94272  Biso   1.000  I
  I237     1.0000 0.44272  0.55728  0.94272  Biso   1.000  I
  I238     1.0000 0.44272  0.94272  0.55728  Biso   1.000  I
  I239     1.0000 0.05728  0.94272  0.94272  Biso   1.000  I
  I240     1.0000 0.55728  0.55728  0.05728  Biso   1.000  I
  I241     1.0000 0.55728  0.94272  0.44272  Biso   1.000  I
  I242     1.0000 0.94272  0.94272  0.05728  Biso   1.000  I
  I243     1.0000 0.05728  0.55728  0.55728  Biso   1.000  I
  I244     1.0000 0.44272  0.94272  0.55728  Biso   1.000  I
  I245     1.0000 0.05728  0.94272  0.94272  Biso   1.000  I
  I246     1.0000 0.55728  0.94272  0.44272  Biso   1.000  I
  I247     1.0000 0.94272  0.94272  0.05728  Biso   1.000  I
  I248     1.0000 0.94272  0.55728  0.44272  Biso   1.000  I
  I249     1.0000 0.55728  0.05728  0.55728  Biso   1.000  I
  I250     1.0000 0.94272  0.44272  0.55728  Biso   1.000  I
  I251     1.0000 0.94272  0.05728  0.94272  Biso   1.000  I
  I252     1.0000 0.44272  0.44272  0.05728  Biso   1.000  I
  I253     1.0000 0.55728  0.44272  0.94272  Biso   1.000  I
  I254     1.0000 0.05728  0.94272  0.94272  Biso   1.000  I
  I255     1.0000 0.05728  0.05728  0.05728  Biso   1.000  I
  I256     1.0000 0.05728  0.55728  0.55728  Biso   1.000  I
  I257     1.0000 0.05728  0.44272  0.44272  Biso   1.000  I
  I258     1.0000 0.94272  0.44272  0.55728  Biso   1.000  I
  I259     1.0000 0.05728  0.55728  0.55728  Biso   1.000  I
  I260     1.0000 0.05728  0.44272  0.44272  Biso   1.000  I
  I261     1.0000 0.44272  0.44272  0.05728  Biso   1.000  I
  I262     1.0000 0.55728  0.55728  0.05728  Biso   1.000  I
  I263     1.0000 0.05728  0.94272  0.94272  Biso   1.000  I
  I264     1.0000 0.05728  0.05728  0.05728  Biso   1.000  I
  I265     1.0000 0.94272  0.94272  0.05728  Biso   1.000  I
  I266     1.0000 0.05728  0.44272  0.44272  Biso   1.000  I
  I267     1.0000 0.94272  0.44272  0.55728  Biso   1.000  I
  I268     1.0000 0.44272  0.44272  0.05728  Biso   1.000  I
  I269     1.0000 0.55728  0.55728  0.05728  Biso   1.000  I
  I270     1.0000 0.55728  0.44272  0.94272  Biso   1.000  I
  I271     1.0000 0.05728  0.05728  0.05728  Biso   1.000  I
  I272     1.0000 0.94272  0.94272  0.05728  Biso   1.000  I
  I273     1.0000 0.48710  0.98710  0.51290  Biso   1.000  I
  I274     1.0000 0.48710  0.01290  0.48710  Biso   1.000  I
  I275     1.0000 0.51290  0.01290  0.51290  Biso   1.000  I
  I276     1.0000 0.51290  0.48710  0.98710  Biso   1.000  I
  I277     1.0000 0.48710  0.51290  0.98710  Biso   1.000  I
  I278     1.0000 0.48710  0.48710  0.01290  Biso   1.000  I
  I279     1.0000 0.01290  0.51290  0.51290  Biso   1.000  I
  I280     1.0000 0.51290  0.51290  0.01290  Biso   1.000  I
  I281     1.0000 0.98710  0.51290  0.48710  Biso   1.000  I
  I282     1.0000 0.98710  0.48710  0.51290  Biso   1.000  I
  I283     1.0000 0.01290  0.48710  0.48710  Biso   1.000  I
  I284     1.0000 0.51290  0.98710  0.48710  Biso   1.000  I
  I285     1.0000 0.48710  0.01290  0.48710  Biso   1.000  I
  I286     1.0000 0.51290  0.01290  0.51290  Biso   1.000  I
  I287     1.0000 0.98710  0.51290  0.48710  Biso   1.000  I
  I288     1.0000 0.01290  0.51290  0.51290  Biso   1.000  I
  I289     1.0000 0.01290  0.48710  0.48710  Biso   1.000  I
  I290     1.0000 0.48710  0.51290  0.98710  Biso   1.000  I
  I291     1.0000 0.51290  0.51290  0.01290  Biso   1.000  I
  I292     1.0000 0.48710  0.48710  0.01290  Biso   1.000  I
  I293     1.0000 0.48710  0.98710  0.51290  Biso   1.000  I
  I294     1.0000 0.51290  0.98710  0.48710  Biso   1.000  I
  I295     1.0000 0.48710  0.01290  0.48710  Biso   1.000  I
  I296     1.0000 0.51290  0.98710  0.48710  Biso   1.000  I
  I297     1.0000 0.48710  0.51290  0.98710  Biso   1.000  I
  I298     1.0000 0.51290  0.51290  0.01290  Biso   1.000  I
  I299     1.0000 0.48710  0.48710  0.01290  Biso   1.000  I
  I300     1.0000 0.01290  0.98710  0.98710  Biso   1.000  I
  I301     1.0000 0.51290  0.48710  0.98710  Biso   1.000  I
  I302     1.0000 0.51290  0.98710  0.48710  Biso   1.000  I
  I303     1.0000 0.48710  0.01290  0.48710  Biso   1.000  I
  I304     1.0000 0.51290  0.01290  0.51290  Biso   1.000  I
  I305     1.0000 0.98710  0.98710  0.01290  Biso   1.000  I
  I306     1.0000 0.98710  0.01290  0.98710  Biso   1.000  I
  I307     1.0000 0.01290  0.01290  0.01290  Biso   1.000  I
  I308     1.0000 0.51290  0.48710  0.98710  Biso   1.000  I
  I309     1.0000 0.48710  0.98710  0.51290  Biso   1.000  I
  I310     1.0000 0.48710  0.01290  0.48710  Biso   1.000  I
  I311     1.0000 0.51290  0.01290  0.51290  Biso   1.000  I
  I312     1.0000 0.98710  0.01290  0.98710  Biso   1.000  I
  I313     1.0000 0.01290  0.01290  0.01290  Biso   1.000  I
  I314     1.0000 0.01290  0.98710  0.98710  Biso   1.000  I
  I315     1.0000 0.98710  0.48710  0.51290  Biso   1.000  I
  I316     1.0000 0.51290  0.98710  0.48710  Biso   1.000  I
  I317     1.0000 0.48710  0.01290  0.48710  Biso   1.000  I
  I318     1.0000 0.51290  0.01290  0.51290  Biso   1.000  I
  I319     1.0000 0.98710  0.98710  0.01290  Biso   1.000  I
  I320     1.0000 0.48710  0.98710  0.51290  Biso   1.000  I
  I321     1.0000 0.98710  0.01290  0.98710  Biso   1.000  I
  I322     1.0000 0.01290  0.98710  0.98710  Biso   1.000  I
  I323     1.0000 0.01290  0.01290  0.01290  Biso   1.000  I
  I324     1.0000 0.98710  0.48710  0.51290  Biso   1.000  I
  I325     1.0000 0.48710  0.98710  0.51290  Biso   1.000  I
  I326     1.0000 0.98710  0.51290  0.48710  Biso   1.000  I
  I327     1.0000 0.01290  0.51290  0.51290  Biso   1.000  I
  I328     1.0000 0.01290  0.48710  0.48710  Biso   1.000  I
  I329     1.0000 0.98710  0.98710  0.01290  Biso   1.000  I
  I330     1.0000 0.37502  0.37502  0.12502  Biso   1.000  I
  I331     1.0000 0.62502  0.37502  0.87502  Biso   1.000  I
  I332     1.0000 0.12502  0.87502  0.87502  Biso   1.000  I
  I333     1.0000 0.12502  0.12502  0.12502  Biso   1.000  I
  I334     1.0000 0.98710  0.51290  0.48710  Biso   1.000  I
  I335     1.0000 0.12502  0.62502  0.62502  Biso   1.000  I
  I336     1.0000 0.12502  0.37502  0.37502  Biso   1.000  I
  I337     1.0000 0.87502  0.37502  0.62502  Biso   1.000  I
  I338     1.0000 0.12502  0.62502  0.62502  Biso   1.000  I
  I339     1.0000 0.12502  0.37502  0.37502  Biso   1.000  I
  I340     1.0000 0.37502  0.37502  0.12502  Biso   1.000  I
  I341     1.0000 0.62502  0.62502  0.12502  Biso   1.000  I
  I342     1.0000 0.98710  0.01290  0.98710  Biso   1.000  I
  I343     1.0000 0.12502  0.87502  0.87502  Biso   1.000  I
  I344     1.0000 0.12502  0.12502  0.12502  Biso   1.000  I
  I345     1.0000 0.87502  0.87502  0.12502  Biso   1.000  I
  I346     1.0000 0.12502  0.37502  0.37502  Biso   1.000  I
  I347     1.0000 0.87502  0.37502  0.62502  Biso   1.000  I
  I348     1.0000 0.48710  0.51290  0.98710  Biso   1.000  I
  I349     1.0000 0.37502  0.37502  0.12502  Biso   1.000  I
  I350     1.0000 0.62502  0.62502  0.12502  Biso   1.000  I
  I351     1.0000 0.62502  0.37502  0.87502  Biso   1.000  I
  I352     1.0000 0.12502  0.12502  0.12502  Biso   1.000  I
  I353     1.0000 0.87502  0.87502  0.12502  Biso   1.000  I
  I354     1.0000 0.44272  0.05728  0.44272  Biso   1.000  I
  I355     1.0000 0.44272  0.94272  0.55728  Biso   1.000  I
  I356     1.0000 0.44272  0.55728  0.94272  Biso   1.000  I
  I357     1.0000 0.44272  0.44272  0.05728  Biso   1.000  I
  I358     1.0000 0.55728  0.44272  0.94272  Biso   1.000  I
  I359     1.0000 0.94272  0.44272  0.55728  Biso   1.000  I
  I360     1.0000 0.05728  0.44272  0.44272  Biso   1.000  I
  I361     1.0000 0.94272  0.55728  0.44272  Biso   1.000  I
  I362     1.0000 0.44272  0.05728  0.44272  Biso   1.000  I
  I363     1.0000 0.55728  0.94272  0.44272  Biso   1.000  I
  I364     1.0000 0.05728  0.44272  0.44272  Biso   1.000  I
  I365     1.0000 0.94272  0.55728  0.44272  Biso   1.000  I
  I366     1.0000 0.44272  0.44272  0.05728  Biso   1.000  I
  I367     1.0000 0.44272  0.55728  0.94272  Biso   1.000  I
  I368     1.0000 0.55728  0.94272  0.44272  Biso   1.000  I
  I369     1.0000 0.44272  0.05728  0.44272  Biso   1.000  I
  I370     1.0000 0.44272  0.94272  0.55728  Biso   1.000  I
  I371     1.0000 0.44272  0.44272  0.05728  Biso   1.000  I
  I372     1.0000 0.55728  0.55728  0.05728  Biso   1.000  I
  I373     1.0000 0.44272  0.55728  0.94272  Biso   1.000  I
  I374     1.0000 0.44272  0.05728  0.44272  Biso   1.000  I
  I375     1.0000 0.55728  0.05728  0.55728  Biso   1.000  I
  I376     1.0000 0.94272  0.05728  0.94272  Biso   1.000  I
  I377     1.0000 0.05728  0.05728  0.05728  Biso   1.000  I
  I378     1.0000 0.94272  0.94272  0.05728  Biso   1.000  I
  I379     1.0000 0.44272  0.05728  0.44272  Biso   1.000  I
  I380     1.0000 0.55728  0.05728  0.55728  Biso   1.000  I
  I381     1.0000 0.44272  0.94272  0.55728  Biso   1.000  I
  I382     1.0000 0.05728  0.05728  0.05728  Biso   1.000  I
  I383     1.0000 0.94272  0.05728  0.94272  Biso   1.000  I
  I384     1.0000 0.44272  0.05728  0.44272  Biso   1.000  I
  I385     1.0000 0.55728  0.05728  0.55728  Biso   1.000  I
  I386     1.0000 0.55728  0.94272  0.44272  Biso   1.000  I
  I387     1.0000 0.05728  0.94272  0.94272  Biso   1.000  I
  I388     1.0000 0.05728  0.05728  0.05728  Biso   1.000  I
  I389     1.0000 0.94272  0.05728  0.94272  Biso   1.000  I
  I390     1.0000 0.05728  0.55728  0.55728  Biso   1.000  I
  I391     1.0000 0.05728  0.44272  0.44272  Biso   1.000  I
  I392     1.0000 0.94272  0.55728  0.44272  Biso   1.000  I
  I393     1.0000 0.30728  0.30728  0.19272  Biso   1.000  I
  I394     1.0000 0.69272  0.30728  0.80728  Biso   1.000  I
  I395     1.0000 0.19272  0.80728  0.80728  Biso   1.000  I
  I396     1.0000 0.19272  0.19272  0.19272  Biso   1.000  I
  I397     1.0000 0.19272  0.69272  0.69272  Biso   1.000  I
  I398     1.0000 0.19272  0.30728  0.30728  Biso   1.000  I
  I399     1.0000 0.80728  0.30728  0.69272  Biso   1.000  I
  I400     1.0000 0.19272  0.69272  0.69272  Biso   1.000  I
  I401     1.0000 0.19272  0.30728  0.30728  Biso   1.000  I
  I402     1.0000 0.30728  0.30728  0.19272  Biso   1.000  I
  I403     1.0000 0.69272  0.69272  0.19272  Biso   1.000  I
  I404     1.0000 0.19272  0.80728  0.80728  Biso   1.000  I
  I405     1.0000 0.19272  0.19272  0.19272  Biso   1.000  I
  I406     1.0000 0.80728  0.80728  0.19272  Biso   1.000  I
  I407     1.0000 0.19272  0.30728  0.30728  Biso   1.000  I
  I408     1.0000 0.80728  0.30728  0.69272  Biso   1.000  I
  I409     1.0000 0.30728  0.30728  0.19272  Biso   1.000  I
  I410     1.0000 0.69272  0.69272  0.19272  Biso   1.000  I
  I411     1.0000 0.69272  0.30728  0.80728  Biso   1.000  I
  I412     1.0000 0.19272  0.19272  0.19272  Biso   1.000  I
  I413     1.0000 0.80728  0.80728  0.19272  Biso   1.000  I
  I414     1.0000 0.37502  0.12502  0.37502  Biso   1.000  I
  I415     1.0000 0.37502  0.87502  0.62502  Biso   1.000  I
  I416     1.0000 0.37502  0.62502  0.87502  Biso   1.000  I
  I417     1.0000 0.51290  0.51290  0.01290  Biso   1.000  I
  I418     1.0000 0.37502  0.37502  0.12502  Biso   1.000  I
  I419     1.0000 0.62502  0.37502  0.87502  Biso   1.000  I
  I420     1.0000 0.87502  0.37502  0.62502  Biso   1.000  I
  I421     1.0000 0.01290  0.51290  0.51290  Biso   1.000  I
  I422     1.0000 0.12502  0.37502  0.37502  Biso   1.000  I
  I423     1.0000 0.87502  0.62502  0.37502  Biso   1.000  I
  I424     1.0000 0.37502  0.12502  0.37502  Biso   1.000  I
  I425     1.0000 0.62502  0.87502  0.37502  Biso   1.000  I
  I426     1.0000 0.12502  0.37502  0.37502  Biso   1.000  I
  I427     1.0000 0.87502  0.62502  0.37502  Biso   1.000  I
  I428     1.0000 0.37502  0.37502  0.12502  Biso   1.000  I
  I429     1.0000 0.37502  0.62502  0.87502  Biso   1.000  I
  I430     1.0000 0.62502  0.87502  0.37502  Biso   1.000  I
  I431     1.0000 0.51290  0.01290  0.51290  Biso   1.000  I
  I432     1.0000 0.37502  0.12502  0.37502  Biso   1.000  I
  I433     1.0000 0.37502  0.87502  0.62502  Biso   1.000  I
  I434     1.0000 0.51290  0.48710  0.98710  Biso   1.000  I
  I435     1.0000 0.37502  0.37502  0.12502  Biso   1.000  I
  I436     1.0000 0.62502  0.62502  0.12502  Biso   1.000  I
  I437     1.0000 0.37502  0.62502  0.87502  Biso   1.000  I
  I438     1.0000 0.37502  0.12502  0.37502  Biso   1.000  I
  I439     1.0000 0.62502  0.12502  0.62502  Biso   1.000  I
  I440     1.0000 0.01290  0.98710  0.98710  Biso   1.000  I
  I441     1.0000 0.87502  0.12502  0.87502  Biso   1.000  I
  I442     1.0000 0.12502  0.12502  0.12502  Biso   1.000  I
  I443     1.0000 0.87502  0.87502  0.12502  Biso   1.000  I
  I444     1.0000 0.51290  0.98710  0.48710  Biso   1.000  I
  I445     1.0000 0.37502  0.12502  0.37502  Biso   1.000  I
  I446     1.0000 0.62502  0.12502  0.62502  Biso   1.000  I
  I447     1.0000 0.37502  0.87502  0.62502  Biso   1.000  I
  I448     1.0000 0.12502  0.12502  0.12502  Biso   1.000  I
  I449     1.0000 0.87502  0.12502  0.87502  Biso   1.000  I
  I450     1.0000 0.48710  0.98710  0.51290  Biso   1.000  I
  I451     1.0000 0.37502  0.12502  0.37502  Biso   1.000  I
  I452     1.0000 0.62502  0.12502  0.62502  Biso   1.000  I
  I453     1.0000 0.62502  0.87502  0.37502  Biso   1.000  I
  I454     1.0000 0.98710  0.98710  0.01290  Biso   1.000  I
  I455     1.0000 0.12502  0.87502  0.87502  Biso   1.000  I
  I456     1.0000 0.12502  0.12502  0.12502  Biso   1.000  I
  I457     1.0000 0.87502  0.12502  0.87502  Biso   1.000  I
  I458     1.0000 0.98710  0.48710  0.51290  Biso   1.000  I
  I459     1.0000 0.12502  0.62502  0.62502  Biso   1.000  I
  I460     1.0000 0.12502  0.37502  0.37502  Biso   1.000  I
  I461     1.0000 0.87502  0.62502  0.37502  Biso   1.000  I
  I462     1.0000 0.26290  0.23710  0.26290  Biso   1.000  I
  I463     1.0000 0.23710  0.23710  0.23710  Biso   1.000  I
  I464     1.0000 0.23710  0.26290  0.26290  Biso   1.000  I
  I465     1.0000 0.73710  0.23710  0.73710  Biso   1.000  I
  I466     1.0000 0.76290  0.23710  0.76290  Biso   1.000  I
  I467     1.0000 0.76290  0.26290  0.73710  Biso   1.000  I
  I468     1.0000 0.26290  0.76290  0.73710  Biso   1.000  I
  I469     1.0000 0.23710  0.73710  0.73710  Biso   1.000  I
  I470     1.0000 0.26290  0.73710  0.76290  Biso   1.000  I
  I471     1.0000 0.26290  0.26290  0.23710  Biso   1.000  I
  I472     1.0000 0.23710  0.26290  0.26290  Biso   1.000  I
  I473     1.0000 0.26290  0.23710  0.26290  Biso   1.000  I
  I474     1.0000 0.23710  0.76290  0.76290  Biso   1.000  I
  I475     1.0000 0.26290  0.76290  0.73710  Biso   1.000  I
  I476     1.0000 0.26290  0.73710  0.76290  Biso   1.000  I
  I477     1.0000 0.26290  0.26290  0.23710  Biso   1.000  I
  I478     1.0000 0.26290  0.23710  0.26290  Biso   1.000  I
  I479     1.0000 0.23710  0.23710  0.23710  Biso   1.000  I
  I480     1.0000 0.73710  0.23710  0.73710  Biso   1.000  I
  I481     1.0000 0.76290  0.23710  0.76290  Biso   1.000  I
  I482     1.0000 0.73710  0.26290  0.76290  Biso   1.000  I
  I483     1.0000 0.23710  0.76290  0.76290  Biso   1.000  I
  I484     1.0000 0.26290  0.76290  0.73710  Biso   1.000  I
  I485     1.0000 0.26290  0.73710  0.76290  Biso   1.000  I
  I486     1.0000 0.23710  0.23710  0.23710  Biso   1.000  I
  I487     1.0000 0.23710  0.26290  0.26290  Biso   1.000  I
  I488     1.0000 0.26290  0.23710  0.26290  Biso   1.000  I
  I489     1.0000 0.23710  0.23710  0.23710  Biso   1.000  I
  I490     1.0000 0.76290  0.73710  0.26290  Biso   1.000  I
  I491     1.0000 0.76290  0.76290  0.23710  Biso   1.000  I
  I492     1.0000 0.73710  0.76290  0.26290  Biso   1.000  I
  I493     1.0000 0.23710  0.73710  0.73710  Biso   1.000  I
  I494     1.0000 0.26290  0.26290  0.23710  Biso   1.000  I
  I495     1.0000 0.23710  0.26290  0.26290  Biso   1.000  I
  I496     1.0000 0.26290  0.23710  0.26290  Biso   1.000  I
  I497     1.0000 0.76290  0.73710  0.26290  Biso   1.000  I
  I498     1.0000 0.73710  0.76290  0.26290  Biso   1.000  I
  I499     1.0000 0.73710  0.73710  0.23710  Biso   1.000  I
  I500     1.0000 0.26290  0.26290  0.23710  Biso   1.000  I
  I501     1.0000 0.73710  0.23710  0.73710  Biso   1.000  I
  I502     1.0000 0.76290  0.23710  0.76290  Biso   1.000  I
  I503     1.0000 0.73710  0.26290  0.76290  Biso   1.000  I
  I504     1.0000 0.23710  0.26290  0.26290  Biso   1.000  I
  I505     1.0000 0.26290  0.23710  0.26290  Biso   1.000  I
  I506     1.0000 0.23710  0.23710  0.23710  Biso   1.000  I
  I507     1.0000 0.76290  0.76290  0.23710  Biso   1.000  I
  I508     1.0000 0.76290  0.26290  0.73710  Biso   1.000  I
  I509     1.0000 0.26290  0.26290  0.23710  Biso   1.000  I
  I510     1.0000 0.76290  0.73710  0.26290  Biso   1.000  I
  I511     1.0000 0.73710  0.73710  0.23710  Biso   1.000  I
  I512     1.0000 0.73710  0.76290  0.26290  Biso   1.000  I
  I513     1.0000 0.30728  0.19272  0.30728  Biso   1.000  I
  I514     1.0000 0.30728  0.80728  0.69272  Biso   1.000  I
  I515     1.0000 0.30728  0.69272  0.80728  Biso   1.000  I
  I516     1.0000 0.30728  0.30728  0.19272  Biso   1.000  I
  I517     1.0000 0.69272  0.30728  0.80728  Biso   1.000  I
  I518     1.0000 0.80728  0.30728  0.69272  Biso   1.000  I
  I519     1.0000 0.19272  0.30728  0.30728  Biso   1.000  I
  I520     1.0000 0.80728  0.69272  0.30728  Biso   1.000  I
  I521     1.0000 0.30728  0.19272  0.30728  Biso   1.000  I
  I522     1.0000 0.69272  0.80728  0.30728  Biso   1.000  I
  I523     1.0000 0.19272  0.30728  0.30728  Biso   1.000  I
  I524     1.0000 0.80728  0.69272  0.30728  Biso   1.000  I
  I525     1.0000 0.30728  0.30728  0.19272  Biso   1.000  I
  I526     1.0000 0.30728  0.69272  0.80728  Biso   1.000  I
  I527     1.0000 0.69272  0.80728  0.30728  Biso   1.000  I
  I528     1.0000 0.30728  0.19272  0.30728  Biso   1.000  I
  I529     1.0000 0.30728  0.80728  0.69272  Biso   1.000  I
  I530     1.0000 0.30728  0.30728  0.19272  Biso   1.000  I
  I531     1.0000 0.69272  0.69272  0.19272  Biso   1.000  I
  I532     1.0000 0.30728  0.69272  0.80728  Biso   1.000  I
  I533     1.0000 0.30728  0.19272  0.30728  Biso   1.000  I
  I534     1.0000 0.69272  0.19272  0.69272  Biso   1.000  I
  I535     1.0000 0.80728  0.19272  0.80728  Biso   1.000  I
  I536     1.0000 0.19272  0.19272  0.19272  Biso   1.000  I
  I537     1.0000 0.80728  0.80728  0.19272  Biso   1.000  I
  I538     1.0000 0.30728  0.19272  0.30728  Biso   1.000  I
  I539     1.0000 0.69272  0.19272  0.69272  Biso   1.000  I
  I540     1.0000 0.30728  0.80728  0.69272  Biso   1.000  I
  I541     1.0000 0.19272  0.19272  0.19272  Biso   1.000  I
  I542     1.0000 0.80728  0.19272  0.80728  Biso   1.000  I
  I543     1.0000 0.30728  0.19272  0.30728  Biso   1.000  I
  I544     1.0000 0.69272  0.19272  0.69272  Biso   1.000  I
  I545     1.0000 0.69272  0.80728  0.30728  Biso   1.000  I
  I546     1.0000 0.19272  0.80728  0.80728  Biso   1.000  I
  I547     1.0000 0.19272  0.19272  0.19272  Biso   1.000  I
  I548     1.0000 0.80728  0.19272  0.80728  Biso   1.000  I
  I549     1.0000 0.19272  0.69272  0.69272  Biso   1.000  I
  I550     1.0000 0.19272  0.30728  0.30728  Biso   1.000  I
  I551     1.0000 0.80728  0.69272  0.30728  Biso   1.000  I
  I552     1.0000 0.19272  0.19272  0.19272  Biso   1.000  I
  I553     1.0000 0.30728  0.19272  0.30728  Biso   1.000  I
  I554     1.0000 0.80728  0.30728  0.69272  Biso   1.000  I
  I555     1.0000 0.80728  0.19272  0.80728  Biso   1.000  I
  I556     1.0000 0.69272  0.19272  0.69272  Biso   1.000  I
  I557     1.0000 0.19272  0.69272  0.69272  Biso   1.000  I
  I558     1.0000 0.30728  0.69272  0.80728  Biso   1.000  I
  I559     1.0000 0.30728  0.80728  0.69272  Biso   1.000  I
  I560     1.0000 0.30728  0.19272  0.30728  Biso   1.000  I
  I561     1.0000 0.30728  0.30728  0.19272  Biso   1.000  I
  I562     1.0000 0.30728  0.69272  0.80728  Biso   1.000  I
  I563     1.0000 0.30728  0.80728  0.69272  Biso   1.000  I
  I564     1.0000 0.19272  0.19272  0.19272  Biso   1.000  I
  I565     1.0000 0.30728  0.19272  0.30728  Biso   1.000  I
  I566     1.0000 0.30728  0.30728  0.19272  Biso   1.000  I
  I567     1.0000 0.80728  0.19272  0.80728  Biso   1.000  I
  I568     1.0000 0.69272  0.19272  0.69272  Biso   1.000  I
  I569     1.0000 0.30728  0.69272  0.80728  Biso   1.000  I
  I570     1.0000 0.30728  0.80728  0.69272  Biso   1.000  I
  I571     1.0000 0.19272  0.80728  0.80728  Biso   1.000  I
  I572     1.0000 0.30728  0.19272  0.30728  Biso   1.000  I
  I573     1.0000 0.19272  0.30728  0.30728  Biso   1.000  I
  I574     1.0000 0.69272  0.80728  0.30728  Biso   1.000  I
  I575     1.0000 0.80728  0.80728  0.19272  Biso   1.000  I
  I576     1.0000 0.80728  0.69272  0.30728  Biso   1.000  I
  I577     1.0000 0.30728  0.19272  0.30728  Biso   1.000  I
  I578     1.0000 0.19272  0.30728  0.30728  Biso   1.000  I
  I579     1.0000 0.30728  0.30728  0.19272  Biso   1.000  I
  I580     1.0000 0.69272  0.80728  0.30728  Biso   1.000  I
  I581     1.0000 0.80728  0.69272  0.30728  Biso   1.000  I
  I582     1.0000 0.69272  0.30728  0.80728  Biso   1.000  I
  I583     1.0000 0.80728  0.19272  0.80728  Biso   1.000  I
  I584     1.0000 0.69272  0.19272  0.69272  Biso   1.000  I
  I585     1.0000 0.19272  0.19272  0.19272  Biso   1.000  I
  I586     1.0000 0.30728  0.19272  0.30728  Biso   1.000  I
  I587     1.0000 0.19272  0.30728  0.30728  Biso   1.000  I
  I588     1.0000 0.69272  0.69272  0.19272  Biso   1.000  I
  I589     1.0000 0.69272  0.80728  0.30728  Biso   1.000  I
  I590     1.0000 0.80728  0.69272  0.30728  Biso   1.000  I
  I591     1.0000 0.26290  0.26290  0.23710  Biso   1.000  I
  I592     1.0000 0.23710  0.26290  0.26290  Biso   1.000  I
  I593     1.0000 0.23710  0.23710  0.23710  Biso   1.000  I
  I594     1.0000 0.23710  0.76290  0.76290  Biso   1.000  I
  I595     1.0000 0.23710  0.73710  0.73710  Biso   1.000  I
  I596     1.0000 0.26290  0.73710  0.76290  Biso   1.000  I
  I597     1.0000 0.23710  0.76290  0.76290  Biso   1.000  I
  I598     1.0000 0.26290  0.76290  0.73710  Biso   1.000  I
  I599     1.0000 0.23710  0.73710  0.73710  Biso   1.000  I
  I600     1.0000 0.23710  0.26290  0.26290  Biso   1.000  I
  I601     1.0000 0.26290  0.23710  0.26290  Biso   1.000  I
  I602     1.0000 0.23710  0.23710  0.23710  Biso   1.000  I
  I603     1.0000 0.73710  0.23710  0.73710  Biso   1.000  I
  I604     1.0000 0.76290  0.23710  0.76290  Biso   1.000  I
  I605     1.0000 0.76290  0.26290  0.73710  Biso   1.000  I
  I606     1.0000 0.73710  0.26290  0.76290  Biso   1.000  I
  I607     1.0000 0.26290  0.26290  0.23710  Biso   1.000  I
  I608     1.0000 0.26290  0.23710  0.26290  Biso   1.000  I
  I609     1.0000 0.23710  0.23710  0.23710  Biso   1.000  I
  I610     1.0000 0.73710  0.73710  0.23710  Biso   1.000  I
  I611     1.0000 0.76290  0.76290  0.23710  Biso   1.000  I
  I612     1.0000 0.73710  0.76290  0.26290  Biso   1.000  I
  I613     1.0000 0.26290  0.26290  0.23710  Biso   1.000  I
  I614     1.0000 0.23710  0.23710  0.23710  Biso   1.000  I
  I615     1.0000 0.23710  0.26290  0.26290  Biso   1.000  I
  I616     1.0000 0.76290  0.73710  0.26290  Biso   1.000  I
  I617     1.0000 0.73710  0.73710  0.23710  Biso   1.000  I
  I618     1.0000 0.76290  0.76290  0.23710  Biso   1.000  I
  I619     1.0000 0.26290  0.23710  0.26290  Biso   1.000  I
  I620     1.0000 0.73710  0.73710  0.23710  Biso   1.000  I
  I621     1.0000 0.76290  0.76290  0.23710  Biso   1.000  I
  I622     1.0000 0.73710  0.76290  0.26290  Biso   1.000  I
  I623     1.0000 0.26290  0.23710  0.26290  Biso   1.000  I
  I624     1.0000 0.23710  0.76290  0.76290  Biso   1.000  I
  I625     1.0000 0.26290  0.76290  0.73710  Biso   1.000  I
  I626     1.0000 0.23710  0.73710  0.73710  Biso   1.000  I
  I627     1.0000 0.76290  0.73710  0.26290  Biso   1.000  I
  I628     1.0000 0.26290  0.26290  0.23710  Biso   1.000  I
  I629     1.0000 0.23710  0.26290  0.26290  Biso   1.000  I
  I630     1.0000 0.23710  0.23710  0.23710  Biso   1.000  I
  I631     1.0000 0.26290  0.73710  0.76290  Biso   1.000  I
  I632     1.0000 0.23710  0.26290  0.26290  Biso   1.000  I
  I633     1.0000 0.26290  0.23710  0.26290  Biso   1.000  I
  I634     1.0000 0.23710  0.23710  0.23710  Biso   1.000  I
  I635     1.0000 0.76290  0.73710  0.26290  Biso   1.000  I
  I636     1.0000 0.76290  0.76290  0.23710  Biso   1.000  I
  I637     1.0000 0.73710  0.76290  0.26290  Biso   1.000  I
  I638     1.0000 0.23710  0.76290  0.76290  Biso   1.000  I
  I639     1.0000 0.26290  0.76290  0.73710  Biso   1.000  I
  I640     1.0000 0.23710  0.73710  0.73710  Biso   1.000  I
  I641     1.0000 0.26290  0.26290  0.23710  Biso   1.000  I
  I642     1.0000 0.23710  0.26290  0.26290  Biso   1.000  I
  I643     1.0000 0.23710  0.23710  0.23710  Biso   1.000  I
  I644     1.0000 0.76290  0.23710  0.76290  Biso   1.000  I
  I645     1.0000 0.73710  0.26290  0.76290  Biso   1.000  I
  I646     1.0000 0.76290  0.26290  0.73710  Biso   1.000  I
  I647     1.0000 0.73710  0.26290  0.76290  Biso   1.000  I
  I648     1.0000 0.76290  0.26290  0.73710  Biso   1.000  I
  I649     1.0000 0.73710  0.23710  0.73710  Biso   1.000  I
  I650     1.0000 0.26290  0.26290  0.23710  Biso   1.000  I
  I651     1.0000 0.23710  0.26290  0.26290  Biso   1.000  I
  I652     1.0000 0.26290  0.23710  0.26290  Biso   1.000  I
  I653     1.0000 0.73710  0.73710  0.23710  Biso   1.000  I
  I654     1.0000 0.26290  0.26290  0.23710  Biso   1.000  I
  I655     1.0000 0.23710  0.26290  0.26290  Biso   1.000  I
  I656     1.0000 0.23710  0.23710  0.23710  Biso   1.000  I
  I657     1.0000 0.76290  0.23710  0.76290  Biso   1.000  I
  I658     1.0000 0.26290  0.73710  0.76290  Biso   1.000  I
  I659     1.0000 0.26290  0.23710  0.26290  Biso   1.000  I
  I660     1.0000 0.73710  0.23710  0.73710  Biso   1.000  I
  I661     1.0000 0.73710  0.26290  0.76290  Biso   1.000  I
  I662     1.0000 0.76290  0.26290  0.73710  Biso   1.000  I
  I663     1.0000 0.26290  0.26290  0.23710  Biso   1.000  I
  I664     1.0000 0.23710  0.26290  0.26290  Biso   1.000  I
  I665     1.0000 0.23710  0.23710  0.23710  Biso   1.000  I
  I666     1.0000 0.76290  0.23710  0.76290  Biso   1.000  I
  I667     1.0000 0.73710  0.26290  0.76290  Biso   1.000  I
  I668     1.0000 0.76290  0.26290  0.73710  Biso   1.000  I
  I669     1.0000 0.76290  0.73710  0.26290  Biso   1.000  I
  I670     1.0000 0.73710  0.73710  0.23710  Biso   1.000  I
  I671     1.0000 0.76290  0.76290  0.23710  Biso   1.000  I
  I672     1.0000 0.26290  0.76290  0.73710  Biso   1.000  I
  I673     1.0000 0.26290  0.73710  0.76290  Biso   1.000  I
  I674     1.0000 0.23710  0.73710  0.73710  Biso   1.000  I
  I675     1.0000 0.26290  0.26290  0.23710  Biso   1.000  I
  I676     1.0000 0.23710  0.26290  0.26290  Biso   1.000  I
  I677     1.0000 0.26290  0.23710  0.26290  Biso   1.000  I
  I678     1.0000 0.73710  0.23710  0.73710  Biso   1.000  I
  I679     1.0000 0.23710  0.76290  0.76290  Biso   1.000  I
  I680     1.0000 0.26290  0.26290  0.23710  Biso   1.000  I
  I681     1.0000 0.26290  0.23710  0.26290  Biso   1.000  I
  I682     1.0000 0.23710  0.23710  0.23710  Biso   1.000  I
  I683     1.0000 0.73710  0.76290  0.26290  Biso   1.000  I
  I684     1.0000 0.12502  0.12502  0.12502  Biso   1.000  I
  I685     1.0000 0.37502  0.12502  0.37502  Biso   1.000  I
  I686     1.0000 0.87502  0.37502  0.62502  Biso   1.000  I
  I687     1.0000 0.73710  0.26290  0.76290  Biso   1.000  I
  I688     1.0000 0.87502  0.12502  0.87502  Biso   1.000  I
  I689     1.0000 0.62502  0.12502  0.62502  Biso   1.000  I
  I690     1.0000 0.12502  0.62502  0.62502  Biso   1.000  I
  I691     1.0000 0.23710  0.76290  0.76290  Biso   1.000  I
  I692     1.0000 0.37502  0.62502  0.87502  Biso   1.000  I
  I693     1.0000 0.37502  0.87502  0.62502  Biso   1.000  I
  I694     1.0000 0.37502  0.12502  0.37502  Biso   1.000  I
  I695     1.0000 0.37502  0.37502  0.12502  Biso   1.000  I
  I696     1.0000 0.37502  0.62502  0.87502  Biso   1.000  I
  I697     1.0000 0.37502  0.87502  0.62502  Biso   1.000  I
  I698     1.0000 0.12502  0.12502  0.12502  Biso   1.000  I
  I699     1.0000 0.23710  0.26290  0.26290  Biso   1.000  I
  I700     1.0000 0.37502  0.12502  0.37502  Biso   1.000  I
  I701     1.0000 0.37502  0.37502  0.12502  Biso   1.000  I
  I702     1.0000 0.87502  0.12502  0.87502  Biso   1.000  I
  I703     1.0000 0.62502  0.12502  0.62502  Biso   1.000  I
  I704     1.0000 0.37502  0.62502  0.87502  Biso   1.000  I
  I705     1.0000 0.23710  0.73710  0.73710  Biso   1.000  I
  I706     1.0000 0.37502  0.87502  0.62502  Biso   1.000  I
  I707     1.0000 0.12502  0.87502  0.87502  Biso   1.000  I
  I708     1.0000 0.37502  0.12502  0.37502  Biso   1.000  I
  I709     1.0000 0.12502  0.37502  0.37502  Biso   1.000  I
  I710     1.0000 0.62502  0.87502  0.37502  Biso   1.000  I
  I711     1.0000 0.73710  0.73710  0.23710  Biso   1.000  I
  I712     1.0000 0.87502  0.87502  0.12502  Biso   1.000  I
  I713     1.0000 0.87502  0.62502  0.37502  Biso   1.000  I
  I714     1.0000 0.37502  0.12502  0.37502  Biso   1.000  I
  I715     1.0000 0.23710  0.23710  0.23710  Biso   1.000  I
  I716     1.0000 0.12502  0.37502  0.37502  Biso   1.000  I
  I717     1.0000 0.37502  0.37502  0.12502  Biso   1.000  I
  I718     1.0000 0.62502  0.87502  0.37502  Biso   1.000  I
  I719     1.0000 0.87502  0.62502  0.37502  Biso   1.000  I
  I720     1.0000 0.62502  0.37502  0.87502  Biso   1.000  I
  I721     1.0000 0.76290  0.26290  0.73710  Biso   1.000  I
  I722     1.0000 0.87502  0.12502  0.87502  Biso   1.000  I
  I723     1.0000 0.62502  0.12502  0.62502  Biso   1.000  I
  I724     1.0000 0.12502  0.12502  0.12502  Biso   1.000  I
  I725     1.0000 0.26290  0.26290  0.23710  Biso   1.000  I
  I726     1.0000 0.37502  0.12502  0.37502  Biso   1.000  I
  I727     1.0000 0.12502  0.37502  0.37502  Biso   1.000  I
  I728     1.0000 0.62502  0.62502  0.12502  Biso   1.000  I
  I729     1.0000 0.76290  0.76290  0.23710  Biso   1.000  I
  I730     1.0000 0.62502  0.87502  0.37502  Biso   1.000  I
  I731     1.0000 0.87502  0.62502  0.37502  Biso   1.000  I
  I732     1.0000 0.19272  0.19272  0.19272  Biso   1.000  I
  I733     1.0000 0.19272  0.30728  0.30728  Biso   1.000  I
  I734     1.0000 0.30728  0.69272  0.80728  Biso   1.000  I
  I735     1.0000 0.19272  0.69272  0.69272  Biso   1.000  I
  I736     1.0000 0.19272  0.80728  0.80728  Biso   1.000  I
  I737     1.0000 0.19272  0.69272  0.69272  Biso   1.000  I
  I738     1.0000 0.19272  0.80728  0.80728  Biso   1.000  I
  I739     1.0000 0.19272  0.19272  0.19272  Biso   1.000  I
  I740     1.0000 0.30728  0.19272  0.30728  Biso   1.000  I
  I741     1.0000 0.19272  0.30728  0.30728  Biso   1.000  I
  I742     1.0000 0.80728  0.19272  0.80728  Biso   1.000  I
  I743     1.0000 0.69272  0.19272  0.69272  Biso   1.000  I
  I744     1.0000 0.19272  0.19272  0.19272  Biso   1.000  I
  I745     1.0000 0.30728  0.19272  0.30728  Biso   1.000  I
  I746     1.0000 0.30728  0.30728  0.19272  Biso   1.000  I
  I747     1.0000 0.80728  0.80728  0.19272  Biso   1.000  I
  I748     1.0000 0.69272  0.69272  0.19272  Biso   1.000  I
  I749     1.0000 0.19272  0.19272  0.19272  Biso   1.000  I
  I750     1.0000 0.30728  0.30728  0.19272  Biso   1.000  I
  I751     1.0000 0.80728  0.80728  0.19272  Biso   1.000  I
  I752     1.0000 0.69272  0.69272  0.19272  Biso   1.000  I
  I753     1.0000 0.80728  0.69272  0.30728  Biso   1.000  I
  I754     1.0000 0.69272  0.80728  0.30728  Biso   1.000  I
  I755     1.0000 0.80728  0.80728  0.19272  Biso   1.000  I
  I756     1.0000 0.69272  0.69272  0.19272  Biso   1.000  I
  I757     1.0000 0.19272  0.69272  0.69272  Biso   1.000  I
  I758     1.0000 0.30728  0.80728  0.69272  Biso   1.000  I
  I759     1.0000 0.19272  0.80728  0.80728  Biso   1.000  I
  I760     1.0000 0.19272  0.19272  0.19272  Biso   1.000  I
  I761     1.0000 0.19272  0.30728  0.30728  Biso   1.000  I
  I762     1.0000 0.30728  0.30728  0.19272  Biso   1.000  I
  I763     1.0000 0.19272  0.19272  0.19272  Biso   1.000  I
  I764     1.0000 0.30728  0.19272  0.30728  Biso   1.000  I
  I765     1.0000 0.19272  0.30728  0.30728  Biso   1.000  I
  I766     1.0000 0.69272  0.80728  0.30728  Biso   1.000  I
  I767     1.0000 0.80728  0.69272  0.30728  Biso   1.000  I
  I768     1.0000 0.19272  0.69272  0.69272  Biso   1.000  I
  I769     1.0000 0.19272  0.80728  0.80728  Biso   1.000  I
  I770     1.0000 0.19272  0.30728  0.30728  Biso   1.000  I
  I771     1.0000 0.30728  0.30728  0.19272  Biso   1.000  I
  I772     1.0000 0.80728  0.30728  0.69272  Biso   1.000  I
  I773     1.0000 0.69272  0.30728  0.80728  Biso   1.000  I
  I774     1.0000 0.80728  0.19272  0.80728  Biso   1.000  I
  I775     1.0000 0.80728  0.30728  0.69272  Biso   1.000  I
  I776     1.0000 0.69272  0.30728  0.80728  Biso   1.000  I
  I777     1.0000 0.30728  0.19272  0.30728  Biso   1.000  I
  I778     1.0000 0.19272  0.30728  0.30728  Biso   1.000  I
  I779     1.0000 0.30728  0.30728  0.19272  Biso   1.000  I
  I780     1.0000 0.19272  0.19272  0.19272  Biso   1.000  I
  I781     1.0000 0.19272  0.30728  0.30728  Biso   1.000  I
  I782     1.0000 0.30728  0.30728  0.19272  Biso   1.000  I
  I783     1.0000 0.80728  0.30728  0.69272  Biso   1.000  I
  I784     1.0000 0.69272  0.30728  0.80728  Biso   1.000  I
  I785     1.0000 0.69272  0.19272  0.69272  Biso   1.000  I
  I786     1.0000 0.19272  0.19272  0.19272  Biso   1.000  I
  I787     1.0000 0.19272  0.30728  0.30728  Biso   1.000  I
  I788     1.0000 0.30728  0.30728  0.19272  Biso   1.000  I
  I789     1.0000 0.80728  0.30728  0.69272  Biso   1.000  I
  I790     1.0000 0.69272  0.30728  0.80728  Biso   1.000  I
  I791     1.0000 0.80728  0.80728  0.19272  Biso   1.000  I
  I792     1.0000 0.69272  0.69272  0.19272  Biso   1.000  I
  I793     1.0000 0.30728  0.69272  0.80728  Biso   1.000  I
  I794     1.0000 0.30728  0.80728  0.69272  Biso   1.000  I
  I795     1.0000 0.30728  0.19272  0.30728  Biso   1.000  I
  I796     1.0000 0.19272  0.30728  0.30728  Biso   1.000  I
  I797     1.0000 0.30728  0.30728  0.19272  Biso   1.000  I
  I798     1.0000 0.19272  0.19272  0.19272  Biso   1.000  I
  I799     1.0000 0.30728  0.19272  0.30728  Biso   1.000  I
  I800     1.0000 0.30728  0.30728  0.19272  Biso   1.000  I
  I801     1.0000 0.05728  0.05728  0.05728  Biso   1.000  I
  I802     1.0000 0.44272  0.05728  0.44272  Biso   1.000  I
  I803     1.0000 0.94272  0.44272  0.55728  Biso   1.000  I
  I804     1.0000 0.94272  0.05728  0.94272  Biso   1.000  I
  I805     1.0000 0.55728  0.05728  0.55728  Biso   1.000  I
  I806     1.0000 0.05728  0.55728  0.55728  Biso   1.000  I
  I807     1.0000 0.44272  0.55728  0.94272  Biso   1.000  I
  I808     1.0000 0.44272  0.94272  0.55728  Biso   1.000  I
  I809     1.0000 0.44272  0.05728  0.44272  Biso   1.000  I
  I810     1.0000 0.44272  0.44272  0.05728  Biso   1.000  I
  I811     1.0000 0.44272  0.55728  0.94272  Biso   1.000  I
  I812     1.0000 0.44272  0.94272  0.55728  Biso   1.000  I
  I813     1.0000 0.05728  0.05728  0.05728  Biso   1.000  I
  I814     1.0000 0.44272  0.05728  0.44272  Biso   1.000  I
  I815     1.0000 0.44272  0.44272  0.05728  Biso   1.000  I
  I816     1.0000 0.94272  0.05728  0.94272  Biso   1.000  I
  I817     1.0000 0.55728  0.05728  0.55728  Biso   1.000  I
  I818     1.0000 0.44272  0.55728  0.94272  Biso   1.000  I
  I819     1.0000 0.44272  0.94272  0.55728  Biso   1.000  I
  I820     1.0000 0.05728  0.94272  0.94272  Biso   1.000  I
  I821     1.0000 0.44272  0.05728  0.44272  Biso   1.000  I
  I822     1.0000 0.05728  0.44272  0.44272  Biso   1.000  I
  I823     1.0000 0.55728  0.94272  0.44272  Biso   1.000  I
  I824     1.0000 0.94272  0.94272  0.05728  Biso   1.000  I
  I825     1.0000 0.94272  0.55728  0.44272  Biso   1.000  I
  I826     1.0000 0.44272  0.05728  0.44272  Biso   1.000  I
  I827     1.0000 0.05728  0.44272  0.44272  Biso   1.000  I
  I828     1.0000 0.44272  0.44272  0.05728  Biso   1.000  I
  I829     1.0000 0.55728  0.94272  0.44272  Biso   1.000  I
  I830     1.0000 0.94272  0.55728  0.44272  Biso   1.000  I
  I831     1.0000 0.55728  0.44272  0.94272  Biso   1.000  I
  I832     1.0000 0.94272  0.05728  0.94272  Biso   1.000  I
  I833     1.0000 0.55728  0.05728  0.55728  Biso   1.000  I
  I834     1.0000 0.05728  0.05728  0.05728  Biso   1.000  I
  I835     1.0000 0.44272  0.05728  0.44272  Biso   1.000  I
  I836     1.0000 0.05728  0.44272  0.44272  Biso   1.000  I
  I837     1.0000 0.55728  0.55728  0.05728  Biso   1.000  I
  I838     1.0000 0.55728  0.94272  0.44272  Biso   1.000  I
  I839     1.0000 0.94272  0.55728  0.44272  Biso   1.000  I
  I840     1.0000 0.12502  0.12502  0.12502  Biso   1.000  I
  I841     1.0000 0.12502  0.37502  0.37502  Biso   1.000  I
  I842     1.0000 0.37502  0.62502  0.87502  Biso   1.000  I
  I843     1.0000 0.26290  0.76290  0.73710  Biso   1.000  I
  I844     1.0000 0.12502  0.62502  0.62502  Biso   1.000  I
  I845     1.0000 0.12502  0.87502  0.87502  Biso   1.000  I
  I846     1.0000 0.12502  0.62502  0.62502  Biso   1.000  I
  I847     1.0000 0.12502  0.87502  0.87502  Biso   1.000  I
  I848     1.0000 0.12502  0.12502  0.12502  Biso   1.000  I
  I849     1.0000 0.26290  0.26290  0.23710  Biso   1.000  I
  I850     1.0000 0.37502  0.12502  0.37502  Biso   1.000  I
  I851     1.0000 0.12502  0.37502  0.37502  Biso   1.000  I
  I852     1.0000 0.87502  0.12502  0.87502  Biso   1.000  I
  I853     1.0000 0.62502  0.12502  0.62502  Biso   1.000  I
  I854     1.0000 0.12502  0.12502  0.12502  Biso   1.000  I
  I855     1.0000 0.23710  0.26290  0.26290  Biso   1.000  I
  I856     1.0000 0.37502  0.12502  0.37502  Biso   1.000  I
  I857     1.0000 0.37502  0.37502  0.12502  Biso   1.000  I
  I858     1.0000 0.87502  0.87502  0.12502  Biso   1.000  I
  I859     1.0000 0.62502  0.62502  0.12502  Biso   1.000  I
  I860     1.0000 0.12502  0.12502  0.12502  Biso   1.000  I
  I861     1.0000 0.37502  0.37502  0.12502  Biso   1.000  I
  I862     1.0000 0.87502  0.87502  0.12502  Biso   1.000  I
  I863     1.0000 0.73710  0.76290  0.26290  Biso   1.000  I
  I864     1.0000 0.62502  0.62502  0.12502  Biso   1.000  I
  I865     1.0000 0.87502  0.62502  0.37502  Biso   1.000  I
  I866     1.0000 0.62502  0.87502  0.37502  Biso   1.000  I
  I867     1.0000 0.76290  0.73710  0.26290  Biso   1.000  I
  I868     1.0000 0.87502  0.87502  0.12502  Biso   1.000  I
  I869     1.0000 0.62502  0.62502  0.12502  Biso   1.000  I
  I870     1.0000 0.12502  0.62502  0.62502  Biso   1.000  I
  I871     1.0000 0.26290  0.73710  0.76290  Biso   1.000  I
  I872     1.0000 0.37502  0.87502  0.62502  Biso   1.000  I
  I873     1.0000 0.12502  0.87502  0.87502  Biso   1.000  I
  I874     1.0000 0.12502  0.12502  0.12502  Biso   1.000  I
  I875     1.0000 0.26290  0.23710  0.26290  Biso   1.000  I
  I876     1.0000 0.12502  0.37502  0.37502  Biso   1.000  I
  I877     1.0000 0.37502  0.37502  0.12502  Biso   1.000  I
  I878     1.0000 0.12502  0.12502  0.12502  Biso   1.000  I
  I879     1.0000 0.26290  0.26290  0.23710  Biso   1.000  I
  I880     1.0000 0.37502  0.12502  0.37502  Biso   1.000  I
  I881     1.0000 0.12502  0.37502  0.37502  Biso   1.000  I
  I882     1.0000 0.62502  0.87502  0.37502  Biso   1.000  I
  I883     1.0000 0.87502  0.62502  0.37502  Biso   1.000  I
  I884     1.0000 0.12502  0.62502  0.62502  Biso   1.000  I
  I885     1.0000 0.12502  0.87502  0.87502  Biso   1.000  I
  I886     1.0000 0.12502  0.37502  0.37502  Biso   1.000  I
  I887     1.0000 0.37502  0.37502  0.12502  Biso   1.000  I
  I888     1.0000 0.87502  0.37502  0.62502  Biso   1.000  I
  I889     1.0000 0.73710  0.23710  0.73710  Biso   1.000  I
  I890     1.0000 0.62502  0.37502  0.87502  Biso   1.000  I
  I891     1.0000 0.87502  0.12502  0.87502  Biso   1.000  I
  I892     1.0000 0.87502  0.37502  0.62502  Biso   1.000  I
  I893     1.0000 0.62502  0.37502  0.87502  Biso   1.000  I
  I894     1.0000 0.37502  0.12502  0.37502  Biso   1.000  I
  I895     1.0000 0.23710  0.23710  0.23710  Biso   1.000  I
  I896     1.0000 0.12502  0.37502  0.37502  Biso   1.000  I
  I897     1.0000 0.37502  0.37502  0.12502  Biso   1.000  I
  I898     1.0000 0.12502  0.12502  0.12502  Biso   1.000  I
  I899     1.0000 0.26290  0.23710  0.26290  Biso   1.000  I
  I900     1.0000 0.12502  0.37502  0.37502  Biso   1.000  I
  I901     1.0000 0.37502  0.37502  0.12502  Biso   1.000  I
  I902     1.0000 0.76290  0.23710  0.76290  Biso   1.000  I
  I903     1.0000 0.87502  0.37502  0.62502  Biso   1.000  I
  I904     1.0000 0.62502  0.37502  0.87502  Biso   1.000  I
  I905     1.0000 0.62502  0.12502  0.62502  Biso   1.000  I
  I906     1.0000 0.12502  0.12502  0.12502  Biso   1.000  I
  I907     1.0000 0.26290  0.23710  0.26290  Biso   1.000  I
  I908     1.0000 0.12502  0.37502  0.37502  Biso   1.000  I
  I909     1.0000 0.37502  0.37502  0.12502  Biso   1.000  I
  I910     1.0000 0.87502  0.37502  0.62502  Biso   1.000  I
  I911     1.0000 0.62502  0.37502  0.87502  Biso   1.000  I
  I912     1.0000 0.87502  0.87502  0.12502  Biso   1.000  I
  I913     1.0000 0.62502  0.62502  0.12502  Biso   1.000  I
  I914     1.0000 0.37502  0.62502  0.87502  Biso   1.000  I
  I915     1.0000 0.37502  0.87502  0.62502  Biso   1.000  I
  I916     1.0000 0.37502  0.12502  0.37502  Biso   1.000  I
  I917     1.0000 0.23710  0.23710  0.23710  Biso   1.000  I
  I918     1.0000 0.12502  0.37502  0.37502  Biso   1.000  I
  I919     1.0000 0.37502  0.37502  0.12502  Biso   1.000  I
  I920     1.0000 0.12502  0.12502  0.12502  Biso   1.000  I
  I921     1.0000 0.23710  0.26290  0.26290  Biso   1.000  I
  I922     1.0000 0.37502  0.12502  0.37502  Biso   1.000  I
  I923     1.0000 0.37502  0.37502  0.12502  Biso   1.000  I
  I924     1.0000 0.98710  0.01290  0.98710  Biso   1.000  I
  I925     1.0000 0.51290  0.01290  0.51290  Biso   1.000  I
  I926     1.0000 0.98710  0.51290  0.48710  Biso   1.000  I
  I927     1.0000 0.01290  0.51290  0.51290  Biso   1.000  I
  I928     1.0000 0.01290  0.48710  0.48710  Biso   1.000  I
  I929     1.0000 0.01290  0.01290  0.01290  Biso   1.000  I
  I930     1.0000 0.48710  0.01290  0.48710  Biso   1.000  I
  I931     1.0000 0.98710  0.48710  0.51290  Biso   1.000  I
  I932     1.0000 0.51290  0.48710  0.98710  Biso   1.000  I
  I933     1.0000 0.51290  0.51290  0.01290  Biso   1.000  I
  I934     1.0000 0.48710  0.48710  0.01290  Biso   1.000  I
  I935     1.0000 0.51290  0.98710  0.48710  Biso   1.000  I
  I936     1.0000 0.48710  0.01290  0.48710  Biso   1.000  I
  I937     1.0000 0.51290  0.01290  0.51290  Biso   1.000  I
  I938     1.0000 0.48710  0.98710  0.51290  Biso   1.000  I
  I939     1.0000 0.51290  0.98710  0.48710  Biso   1.000  I
  I940     1.0000 0.51290  0.01290  0.51290  Biso   1.000  I
  I941     1.0000 0.51290  0.48710  0.98710  Biso   1.000  I
  I942     1.0000 0.48710  0.51290  0.98710  Biso   1.000  I
  I943     1.0000 0.51290  0.51290  0.01290  Biso   1.000  I
  I944     1.0000 0.51290  0.48710  0.98710  Biso   1.000  I
  I945     1.0000 0.51290  0.51290  0.01290  Biso   1.000  I
  I946     1.0000 0.48710  0.48710  0.01290  Biso   1.000  I
  I947     1.0000 0.48710  0.01290  0.48710  Biso   1.000  I
  I948     1.0000 0.98710  0.01290  0.98710  Biso   1.000  I
  I949     1.0000 0.51290  0.01290  0.51290  Biso   1.000  I
  I950     1.0000 0.48710  0.51290  0.98710  Biso   1.000  I
  I951     1.0000 0.01290  0.01290  0.01290  Biso   1.000  I
  I952     1.0000 0.48710  0.01290  0.48710  Biso   1.000  I
  I953     1.0000 0.51290  0.48710  0.98710  Biso   1.000  I
  I954     1.0000 0.51290  0.51290  0.01290  Biso   1.000  I
  I955     1.0000 0.48710  0.48710  0.01290  Biso   1.000  I
  I956     1.0000 0.51290  0.98710  0.48710  Biso   1.000  I
  I957     1.0000 0.48710  0.01290  0.48710  Biso   1.000  I
  I958     1.0000 0.51290  0.01290  0.51290  Biso   1.000  I
  I959     1.0000 0.98710  0.98710  0.01290  Biso   1.000  I
  I960     1.0000 0.98710  0.01290  0.98710  Biso   1.000  I
  I961     1.0000 0.01290  0.01290  0.01290  Biso   1.000  I
  I962     1.0000 0.48710  0.98710  0.51290  Biso   1.000  I
  I963     1.0000 0.51290  0.98710  0.48710  Biso   1.000  I
  I964     1.0000 0.51290  0.01290  0.51290  Biso   1.000  I
  I965     1.0000 0.98710  0.48710  0.51290  Biso   1.000  I
  I966     1.0000 0.01290  0.51290  0.51290  Biso   1.000  I
  I967     1.0000 0.98710  0.51290  0.48710  Biso   1.000  I
  I968     1.0000 0.48710  0.98710  0.51290  Biso   1.000  I
  I969     1.0000 0.48710  0.01290  0.48710  Biso   1.000  I
  I970     1.0000 0.51290  0.01290  0.51290  Biso   1.000  I
  I971     1.0000 0.01290  0.98710  0.98710  Biso   1.000  I
  I972     1.0000 0.98710  0.48710  0.51290  Biso   1.000  I
  I973     1.0000 0.01290  0.51290  0.51290  Biso   1.000  I
  I974     1.0000 0.01290  0.48710  0.48710  Biso   1.000  I
  I975     1.0000 0.48710  0.98710  0.51290  Biso   1.000  I
  I976     1.0000 0.51290  0.98710  0.48710  Biso   1.000  I
  I977     1.0000 0.51290  0.01290  0.51290  Biso   1.000  I
  I978     1.0000 0.98710  0.51290  0.48710  Biso   1.000  I
  I979     1.0000 0.48710  0.51290  0.98710  Biso   1.000  I
  I980     1.0000 0.48710  0.01290  0.48710  Biso   1.000  I
  I981     1.0000 0.98710  0.48710  0.51290  Biso   1.000  I
  I982     1.0000 0.01290  0.51290  0.51290  Biso   1.000  I
  I983     1.0000 0.01290  0.48710  0.48710  Biso   1.000  I
  I984     1.0000 0.51290  0.51290  0.01290  Biso   1.000  I
  I985     1.0000 0.48710  0.48710  0.01290  Biso   1.000  I
  I986     1.0000 0.48710  0.51290  0.98710  Biso   1.000  I
  I987     1.0000 0.01290  0.01290  0.01290  Biso   1.000  I
  I988     1.0000 0.48710  0.01290  0.48710  Biso   1.000  I
  I989     1.0000 0.98710  0.01290  0.98710  Biso   1.000  I
  I990     1.0000 0.51290  0.01290  0.51290  Biso   1.000  I
  I991     1.0000 0.98710  0.48710  0.51290  Biso   1.000  I
  I992     1.0000 0.01290  0.51290  0.51290  Biso   1.000  I
  I993     1.0000 0.98710  0.51290  0.48710  Biso   1.000  I
  I994     1.0000 0.51290  0.48710  0.98710  Biso   1.000  I
  I995     1.0000 0.48710  0.98710  0.51290  Biso   1.000  I
  I996     1.0000 0.51290  0.01290  0.51290  Biso   1.000  I
  I997     1.0000 0.48710  0.01290  0.48710  Biso   1.000  I
  I998     1.0000 0.01290  0.48710  0.48710  Biso   1.000  I
  I999     1.0000 0.05728  0.05728  0.05728  Biso   1.000  I
  I1000    1.0000 0.05728  0.44272  0.44272  Biso   1.000  I
  I1001    1.0000 0.44272  0.55728  0.94272  Biso   1.000  I
  I1002    1.0000 0.05728  0.55728  0.55728  Biso   1.000  I
  I1003    1.0000 0.05728  0.94272  0.94272  Biso   1.000  I
  I1004    1.0000 0.05728  0.55728  0.55728  Biso   1.000  I
  I1005    1.0000 0.05728  0.94272  0.94272  Biso   1.000  I
  I1006    1.0000 0.05728  0.05728  0.05728  Biso   1.000  I
  I1007    1.0000 0.44272  0.05728  0.44272  Biso   1.000  I
  I1008    1.0000 0.05728  0.44272  0.44272  Biso   1.000  I
  I1009    1.0000 0.94272  0.05728  0.94272  Biso   1.000  I
  I1010    1.0000 0.55728  0.05728  0.55728  Biso   1.000  I
  I1011    1.0000 0.05728  0.05728  0.05728  Biso   1.000  I
  I1012    1.0000 0.44272  0.05728  0.44272  Biso   1.000  I
  I1013    1.0000 0.44272  0.44272  0.05728  Biso   1.000  I
  I1014    1.0000 0.94272  0.94272  0.05728  Biso   1.000  I
  I1015    1.0000 0.55728  0.55728  0.05728  Biso   1.000  I
  I1016    1.0000 0.05728  0.05728  0.05728  Biso   1.000  I
  I1017    1.0000 0.44272  0.44272  0.05728  Biso   1.000  I
  I1018    1.0000 0.94272  0.94272  0.05728  Biso   1.000  I
  I1019    1.0000 0.55728  0.55728  0.05728  Biso   1.000  I
  I1020    1.0000 0.94272  0.55728  0.44272  Biso   1.000  I
  I1021    1.0000 0.55728  0.94272  0.44272  Biso   1.000  I
  I1022    1.0000 0.94272  0.94272  0.05728  Biso   1.000  I
  I1023    1.0000 0.55728  0.55728  0.05728  Biso   1.000  I
  I1024    1.0000 0.05728  0.55728  0.55728  Biso   1.000  I
  I1025    1.0000 0.44272  0.94272  0.55728  Biso   1.000  I
  I1026    1.0000 0.05728  0.94272  0.94272  Biso   1.000  I
  I1027    1.0000 0.05728  0.05728  0.05728  Biso   1.000  I
  I1028    1.0000 0.05728  0.44272  0.44272  Biso   1.000  I
  I1029    1.0000 0.44272  0.44272  0.05728  Biso   1.000  I
  I1030    1.0000 0.05728  0.05728  0.05728  Biso   1.000  I
  I1031    1.0000 0.44272  0.05728  0.44272  Biso   1.000  I
  I1032    1.0000 0.05728  0.44272  0.44272  Biso   1.000  I
  I1033    1.0000 0.55728  0.94272  0.44272  Biso   1.000  I
  I1034    1.0000 0.94272  0.55728  0.44272  Biso   1.000  I
  I1035    1.0000 0.05728  0.55728  0.55728  Biso   1.000  I
  I1036    1.0000 0.05728  0.94272  0.94272  Biso   1.000  I
  I1037    1.0000 0.05728  0.44272  0.44272  Biso   1.000  I
  I1038    1.0000 0.44272  0.44272  0.05728  Biso   1.000  I
  I1039    1.0000 0.94272  0.44272  0.55728  Biso   1.000  I
  I1040    1.0000 0.55728  0.44272  0.94272  Biso   1.000  I
  I1041    1.0000 0.94272  0.05728  0.94272  Biso   1.000  I
  I1042    1.0000 0.94272  0.44272  0.55728  Biso   1.000  I
  I1043    1.0000 0.55728  0.44272  0.94272  Biso   1.000  I
  I1044    1.0000 0.44272  0.05728  0.44272  Biso   1.000  I
  I1045    1.0000 0.05728  0.44272  0.44272  Biso   1.000  I
  I1046    1.0000 0.44272  0.44272  0.05728  Biso   1.000  I
  I1047    1.0000 0.05728  0.05728  0.05728  Biso   1.000  I
  I1048    1.0000 0.05728  0.44272  0.44272  Biso   1.000  I
  I1049    1.0000 0.44272  0.44272  0.05728  Biso   1.000  I
  I1050    1.0000 0.94272  0.44272  0.55728  Biso   1.000  I
  I1051    1.0000 0.55728  0.44272  0.94272  Biso   1.000  I
  I1052    1.0000 0.55728  0.05728  0.55728  Biso   1.000  I
  I1053    1.0000 0.05728  0.05728  0.05728  Biso   1.000  I
  I1054    1.0000 0.05728  0.44272  0.44272  Biso   1.000  I
  I1055    1.0000 0.44272  0.44272  0.05728  Biso   1.000  I
  I1056    1.0000 0.94272  0.44272  0.55728  Biso   1.000  I
  I1057    1.0000 0.55728  0.44272  0.94272  Biso   1.000  I
  I1058    1.0000 0.94272  0.94272  0.05728  Biso   1.000  I
  I1059    1.0000 0.55728  0.55728  0.05728  Biso   1.000  I
  I1060    1.0000 0.44272  0.55728  0.94272  Biso   1.000  I
  I1061    1.0000 0.44272  0.94272  0.55728  Biso   1.000  I
  I1062    1.0000 0.44272  0.05728  0.44272  Biso   1.000  I
  I1063    1.0000 0.05728  0.44272  0.44272  Biso   1.000  I
  I1064    1.0000 0.44272  0.44272  0.05728  Biso   1.000  I
  I1065    1.0000 0.05728  0.05728  0.05728  Biso   1.000  I
  I1066    1.0000 0.44272  0.05728  0.44272  Biso   1.000  I
  I1067    1.0000 0.44272  0.44272  0.05728  Biso   1.000  I
  I1068    1.0000 0.05728  0.44272  0.44272  Biso   1.000  I
  I1069    1.0000 0.55728  0.55728  0.05728  Biso   1.000  I
  I1070    1.0000 0.55728  0.44272  0.94272  Biso   1.000  I
  I1071    1.0000 0.55728  0.05728  0.55728  Biso   1.000  I
  I1072    1.0000 0.55728  0.94272  0.44272  Biso   1.000  I
  I1073    1.0000 0.55728  0.94272  0.44272  Biso   1.000  I
  I1074    1.0000 0.55728  0.05728  0.55728  Biso   1.000  I
  I1075    1.0000 0.55728  0.55728  0.05728  Biso   1.000  I
  I1076    1.0000 0.55728  0.44272  0.94272  Biso   1.000  I
  I1077    1.0000 0.44272  0.44272  0.05728  Biso   1.000  I
  I1078    1.0000 0.55728  0.55728  0.05728  Biso   1.000  I
  I1079    1.0000 0.55728  0.44272  0.94272  Biso   1.000  I
  I1080    1.0000 0.55728  0.55728  0.05728  Biso   1.000  I
  I1081    1.0000 0.55728  0.44272  0.94272  Biso   1.000  I
  I1082    1.0000 0.55728  0.05728  0.55728  Biso   1.000  I
  I1083    1.0000 0.55728  0.94272  0.44272  Biso   1.000  I
  I1084    1.0000 0.05728  0.05728  0.05728  Biso   1.000  I
  I1085    1.0000 0.55728  0.05728  0.55728  Biso   1.000  I
  I1086    1.0000 0.44272  0.94272  0.55728  Biso   1.000  I
  I1087    1.0000 0.05728  0.55728  0.55728  Biso   1.000  I
  I1088    1.0000 0.94272  0.44272  0.55728  Biso   1.000  I
  I1089    1.0000 0.55728  0.05728  0.55728  Biso   1.000  I
  I1090    1.0000 0.44272  0.94272  0.55728  Biso   1.000  I
  I1091    1.0000 0.05728  0.55728  0.55728  Biso   1.000  I
  I1092    1.0000 0.94272  0.44272  0.55728  Biso   1.000  I
  I1093    1.0000 0.55728  0.94272  0.44272  Biso   1.000  I
  I1094    1.0000 0.55728  0.05728  0.55728  Biso   1.000  I
  I1095    1.0000 0.44272  0.94272  0.55728  Biso   1.000  I
  I1096    1.0000 0.05728  0.55728  0.55728  Biso   1.000  I
  I1097    1.0000 0.05728  0.44272  0.44272  Biso   1.000  I
  I1098    1.0000 0.94272  0.44272  0.55728  Biso   1.000  I
  I1099    1.0000 0.44272  0.44272  0.05728  Biso   1.000  I
  I1100    1.0000 0.05728  0.55728  0.55728  Biso   1.000  I
  I1101    1.0000 0.94272  0.44272  0.55728  Biso   1.000  I
  I1102    1.0000 0.55728  0.05728  0.55728  Biso   1.000  I
  I1103    1.0000 0.44272  0.94272  0.55728  Biso   1.000  I
  I1104    1.0000 0.01290  0.98710  0.98710  Biso   1.000  I
  I1105    1.0000 0.01290  0.51290  0.51290  Biso   1.000  I
  I1106    1.0000 0.01290  0.48710  0.48710  Biso   1.000  I
  I1107    1.0000 0.01290  0.01290  0.01290  Biso   1.000  I
  I1108    1.0000 0.01290  0.48710  0.48710  Biso   1.000  I
  I1109    1.0000 0.01290  0.01290  0.01290  Biso   1.000  I
  I1110    1.0000 0.51290  0.01290  0.51290  Biso   1.000  I
  I1111    1.0000 0.01290  0.51290  0.51290  Biso   1.000  I
  I1112    1.0000 0.01290  0.01290  0.01290  Biso   1.000  I
  I1113    1.0000 0.48710  0.01290  0.48710  Biso   1.000  I
  I1114    1.0000 0.51290  0.01290  0.51290  Biso   1.000  I
  I1115    1.0000 0.51290  0.51290  0.01290  Biso   1.000  I
  I1116    1.0000 0.01290  0.01290  0.01290  Biso   1.000  I
  I1117    1.0000 0.48710  0.48710  0.01290  Biso   1.000  I
  I1118    1.0000 0.98710  0.98710  0.01290  Biso   1.000  I
  I1119    1.0000 0.51290  0.51290  0.01290  Biso   1.000  I
  I1120    1.0000 0.01290  0.01290  0.01290  Biso   1.000  I
  I1121    1.0000 0.48710  0.48710  0.01290  Biso   1.000  I
  I1122    1.0000 0.48710  0.98710  0.51290  Biso   1.000  I
  I1123    1.0000 0.48710  0.01290  0.48710  Biso   1.000  I
  I1124    1.0000 0.51290  0.01290  0.51290  Biso   1.000  I
  I1125    1.0000 0.01290  0.01290  0.01290  Biso   1.000  I
  I1126    1.0000 0.48710  0.48710  0.01290  Biso   1.000  I
  I1127    1.0000 0.01290  0.48710  0.48710  Biso   1.000  I
  I1128    1.0000 0.51290  0.98710  0.48710  Biso   1.000  I
  I1129    1.0000 0.01290  0.01290  0.01290  Biso   1.000  I
  I1130    1.0000 0.01290  0.51290  0.51290  Biso   1.000  I
  I1131    1.0000 0.51290  0.51290  0.01290  Biso   1.000  I
  I1132    1.0000 0.01290  0.98710  0.98710  Biso   1.000  I
  I1133    1.0000 0.51290  0.98710  0.48710  Biso   1.000  I
  I1134    1.0000 0.01290  0.51290  0.51290  Biso   1.000  I
  I1135    1.0000 0.48710  0.98710  0.51290  Biso   1.000  I
  I1136    1.0000 0.48710  0.01290  0.48710  Biso   1.000  I
  I1137    1.0000 0.51290  0.01290  0.51290  Biso   1.000  I
  I1138    1.0000 0.01290  0.48710  0.48710  Biso   1.000  I
  I1139    1.0000 0.01290  0.48710  0.48710  Biso   1.000  I
  I1140    1.0000 0.01290  0.01290  0.01290  Biso   1.000  I
  I1141    1.0000 0.98710  0.51290  0.48710  Biso   1.000  I
  I1142    1.0000 0.98710  0.48710  0.51290  Biso   1.000  I
  I1143    1.0000 0.01290  0.51290  0.51290  Biso   1.000  I
  I1144    1.0000 0.48710  0.51290  0.98710  Biso   1.000  I
  I1145    1.0000 0.51290  0.51290  0.01290  Biso   1.000  I
  I1146    1.0000 0.51290  0.48710  0.98710  Biso   1.000  I
  I1147    1.0000 0.98710  0.51290  0.48710  Biso   1.000  I
  I1148    1.0000 0.01290  0.51290  0.51290  Biso   1.000  I
  I1149    1.0000 0.01290  0.48710  0.48710  Biso   1.000  I
  I1150    1.0000 0.48710  0.51290  0.98710  Biso   1.000  I
  I1151    1.0000 0.51290  0.51290  0.01290  Biso   1.000  I
  I1152    1.0000 0.48710  0.48710  0.01290  Biso   1.000  I
  I1153    1.0000 0.01290  0.48710  0.48710  Biso   1.000  I
  I1154    1.0000 0.48710  0.51290  0.98710  Biso   1.000  I
  I1155    1.0000 0.51290  0.51290  0.01290  Biso   1.000  I
  I1156    1.0000 0.48710  0.48710  0.01290  Biso   1.000  I
  I1157    1.0000 0.51290  0.98710  0.48710  Biso   1.000  I
  I1158    1.0000 0.98710  0.51290  0.48710  Biso   1.000  I
  I1159    1.0000 0.98710  0.48710  0.51290  Biso   1.000  I
  I1160    1.0000 0.01290  0.51290  0.51290  Biso   1.000  I
  I1161    1.0000 0.51290  0.48710  0.98710  Biso   1.000  I
  I1162    1.0000 0.01290  0.98710  0.98710  Biso   1.000  I
  I1163    1.0000 0.01290  0.51290  0.51290  Biso   1.000  I
  I1164    1.0000 0.48710  0.51290  0.98710  Biso   1.000  I
  I1165    1.0000 0.51290  0.51290  0.01290  Biso   1.000  I
  I1166    1.0000 0.51290  0.48710  0.98710  Biso   1.000  I
  I1167    1.0000 0.98710  0.51290  0.48710  Biso   1.000  I
  I1168    1.0000 0.01290  0.51290  0.51290  Biso   1.000  I
  I1169    1.0000 0.01290  0.48710  0.48710  Biso   1.000  I
  I1170    1.0000 0.48710  0.48710  0.01290  Biso   1.000  I
  I1171    1.0000 0.98710  0.98710  0.01290  Biso   1.000  I
  I1172    1.0000 0.98710  0.48710  0.51290  Biso   1.000  I
  I1173    1.0000 0.51290  0.51290  0.01290  Biso   1.000  I
  I1174    1.0000 0.98710  0.51290  0.48710  Biso   1.000  I
  I1175    1.0000 0.01290  0.51290  0.51290  Biso   1.000  I
  I1176    1.0000 0.01290  0.48710  0.48710  Biso   1.000  I
  I1177    1.0000 0.48710  0.48710  0.01290  Biso   1.000  I
  I1178    1.0000 0.01290  0.01290  0.01290  Biso   1.000  I
  I1179    1.0000 0.48710  0.48710  0.01290  Biso   1.000  I
  I1180    1.0000 0.48710  0.48710  0.01290  Biso   1.000  I
  I1181    1.0000 0.51290  0.98710  0.48710  Biso   1.000  I
  I1182    1.0000 0.48710  0.01290  0.48710  Biso   1.000  I
  I1183    1.0000 0.51290  0.01290  0.51290  Biso   1.000  I
  I1184    1.0000 0.48710  0.98710  0.51290  Biso   1.000  I
  I1185    1.0000 0.98710  0.48710  0.51290  Biso   1.000  I
  I1186    1.0000 0.51290  0.48710  0.98710  Biso   1.000  I
  I1187    1.0000 0.48710  0.51290  0.98710  Biso   1.000  I
  I1188    1.0000 0.51290  0.51290  0.01290  Biso   1.000  I
  I1189    1.0000 0.98710  0.98710  0.01290  Biso   1.000  I
  I1190    1.0000 0.48710  0.98710  0.51290  Biso   1.000  I
  I1191    1.0000 0.51290  0.51290  0.01290  Biso   1.000  I
  I1192    1.0000 0.12502  0.37502  0.37502  Biso   1.000  I
  I1193    1.0000 0.62502  0.62502  0.12502  Biso   1.000  I
  I1194    1.0000 0.62502  0.37502  0.87502  Biso   1.000  I
  I1195    1.0000 0.62502  0.12502  0.62502  Biso   1.000  I
  I1196    1.0000 0.62502  0.87502  0.37502  Biso   1.000  I
  I1197    1.0000 0.62502  0.87502  0.37502  Biso   1.000  I
  I1198    1.0000 0.62502  0.12502  0.62502  Biso   1.000  I
  I1199    1.0000 0.62502  0.62502  0.12502  Biso   1.000  I
  I1200    1.0000 0.62502  0.37502  0.87502  Biso   1.000  I
  I1201    1.0000 0.48710  0.51290  0.98710  Biso   1.000  I
  I1202    1.0000 0.37502  0.37502  0.12502  Biso   1.000  I
  I1203    1.0000 0.62502  0.62502  0.12502  Biso   1.000  I
  I1204    1.0000 0.62502  0.37502  0.87502  Biso   1.000  I
  I1205    1.0000 0.62502  0.62502  0.12502  Biso   1.000  I
  I1206    1.0000 0.62502  0.37502  0.87502  Biso   1.000  I
  I1207    1.0000 0.62502  0.12502  0.62502  Biso   1.000  I
  I1208    1.0000 0.62502  0.87502  0.37502  Biso   1.000  I
  I1209    1.0000 0.12502  0.12502  0.12502  Biso   1.000  I
  I1210    1.0000 0.62502  0.12502  0.62502  Biso   1.000  I
  I1211    1.0000 0.37502  0.87502  0.62502  Biso   1.000  I
  I1212    1.0000 0.12502  0.62502  0.62502  Biso   1.000  I
  I1213    1.0000 0.87502  0.37502  0.62502  Biso   1.000  I
  I1214    1.0000 0.62502  0.12502  0.62502  Biso   1.000  I
  I1215    1.0000 0.37502  0.87502  0.62502  Biso   1.000  I
  I1216    1.0000 0.12502  0.62502  0.62502  Biso   1.000  I
  I1217    1.0000 0.87502  0.37502  0.62502  Biso   1.000  I
  I1218    1.0000 0.62502  0.87502  0.37502  Biso   1.000  I
  I1219    1.0000 0.48710  0.01290  0.48710  Biso   1.000  I
  I1220    1.0000 0.62502  0.12502  0.62502  Biso   1.000  I
  I1221    1.0000 0.37502  0.87502  0.62502  Biso   1.000  I
  I1222    1.0000 0.98710  0.51290  0.48710  Biso   1.000  I
  I1223    1.0000 0.12502  0.62502  0.62502  Biso   1.000  I
  I1224    1.0000 0.12502  0.37502  0.37502  Biso   1.000  I
  I1225    1.0000 0.87502  0.37502  0.62502  Biso   1.000  I
  I1226    1.0000 0.37502  0.37502  0.12502  Biso   1.000  I
  I1227    1.0000 0.12502  0.62502  0.62502  Biso   1.000  I
  I1228    1.0000 0.87502  0.37502  0.62502  Biso   1.000  I
  I1229    1.0000 0.62502  0.12502  0.62502  Biso   1.000  I
  I1230    1.0000 0.37502  0.87502  0.62502  Biso   1.000  I
  I1231    1.0000 0.44272  0.05728  0.44272  Biso   1.000  I
  I1232    1.0000 0.44272  0.05728  0.44272  Biso   1.000  I
  I1233    1.0000 0.55728  0.05728  0.55728  Biso   1.000  I
  I1234    1.0000 0.44272  0.94272  0.55728  Biso   1.000  I
  I1235    1.0000 0.05728  0.55728  0.55728  Biso   1.000  I
  I1236    1.0000 0.94272  0.55728  0.44272  Biso   1.000  I
  I1237    1.0000 0.55728  0.55728  0.05728  Biso   1.000  I
  I1238    1.0000 0.44272  0.55728  0.94272  Biso   1.000  I
  I1239    1.0000 0.05728  0.55728  0.55728  Biso   1.000  I
  I1240    1.0000 0.94272  0.55728  0.44272  Biso   1.000  I
  I1241    1.0000 0.55728  0.55728  0.05728  Biso   1.000  I
  I1242    1.0000 0.44272  0.55728  0.94272  Biso   1.000  I
  I1243    1.0000 0.44272  0.44272  0.05728  Biso   1.000  I
  I1244    1.0000 0.55728  0.55728  0.05728  Biso   1.000  I
  I1245    1.0000 0.44272  0.55728  0.94272  Biso   1.000  I
  I1246    1.0000 0.94272  0.44272  0.55728  Biso   1.000  I
  I1247    1.0000 0.05728  0.55728  0.55728  Biso   1.000  I
  I1248    1.0000 0.94272  0.55728  0.44272  Biso   1.000  I
  I1249    1.0000 0.55728  0.55728  0.05728  Biso   1.000  I
  I1250    1.0000 0.44272  0.55728  0.94272  Biso   1.000  I
  I1251    1.0000 0.05728  0.55728  0.55728  Biso   1.000  I
  I1252    1.0000 0.94272  0.55728  0.44272  Biso   1.000  I
  I1253    1.0000 0.05728  0.55728  0.55728  Biso   1.000  I
  I1254    1.0000 0.05728  0.44272  0.44272  Biso   1.000  I
  I1255    1.0000 0.94272  0.55728  0.44272  Biso   1.000  I
  I1256    1.0000 0.44272  0.05728  0.44272  Biso   1.000  I
  I1257    1.0000 0.55728  0.05728  0.55728  Biso   1.000  I
  I1258    1.0000 0.55728  0.94272  0.44272  Biso   1.000  I
  I1259    1.0000 0.44272  0.55728  0.94272  Biso   1.000  I
  I1260    1.0000 0.55728  0.55728  0.05728  Biso   1.000  I
  I1261    1.0000 0.55728  0.44272  0.94272  Biso   1.000  I
  I1262    1.0000 0.19272  0.30728  0.30728  Biso   1.000  I
  I1263    1.0000 0.69272  0.69272  0.19272  Biso   1.000  I
  I1264    1.0000 0.69272  0.30728  0.80728  Biso   1.000  I
  I1265    1.0000 0.69272  0.19272  0.69272  Biso   1.000  I
  I1266    1.0000 0.69272  0.80728  0.30728  Biso   1.000  I
  I1267    1.0000 0.69272  0.80728  0.30728  Biso   1.000  I
  I1268    1.0000 0.69272  0.19272  0.69272  Biso   1.000  I
  I1269    1.0000 0.69272  0.69272  0.19272  Biso   1.000  I
  I1270    1.0000 0.69272  0.30728  0.80728  Biso   1.000  I
  I1271    1.0000 0.30728  0.30728  0.19272  Biso   1.000  I
  I1272    1.0000 0.69272  0.69272  0.19272  Biso   1.000  I
  I1273    1.0000 0.69272  0.30728  0.80728  Biso   1.000  I
  I1274    1.0000 0.69272  0.69272  0.19272  Biso   1.000  I
  I1275    1.0000 0.69272  0.30728  0.80728  Biso   1.000  I
  I1276    1.0000 0.69272  0.19272  0.69272  Biso   1.000  I
  I1277    1.0000 0.69272  0.80728  0.30728  Biso   1.000  I
  I1278    1.0000 0.19272  0.19272  0.19272  Biso   1.000  I
  I1279    1.0000 0.69272  0.19272  0.69272  Biso   1.000  I
  I1280    1.0000 0.30728  0.80728  0.69272  Biso   1.000  I
  I1281    1.0000 0.19272  0.69272  0.69272  Biso   1.000  I
  I1282    1.0000 0.80728  0.30728  0.69272  Biso   1.000  I
  I1283    1.0000 0.69272  0.19272  0.69272  Biso   1.000  I
  I1284    1.0000 0.30728  0.80728  0.69272  Biso   1.000  I
  I1285    1.0000 0.19272  0.69272  0.69272  Biso   1.000  I
  I1286    1.0000 0.80728  0.30728  0.69272  Biso   1.000  I
  I1287    1.0000 0.69272  0.80728  0.30728  Biso   1.000  I
  I1288    1.0000 0.69272  0.19272  0.69272  Biso   1.000  I
  I1289    1.0000 0.30728  0.80728  0.69272  Biso   1.000  I
  I1290    1.0000 0.19272  0.69272  0.69272  Biso   1.000  I
  I1291    1.0000 0.19272  0.30728  0.30728  Biso   1.000  I
  I1292    1.0000 0.80728  0.30728  0.69272  Biso   1.000  I
  I1293    1.0000 0.30728  0.30728  0.19272  Biso   1.000  I
  I1294    1.0000 0.19272  0.69272  0.69272  Biso   1.000  I
  I1295    1.0000 0.80728  0.30728  0.69272  Biso   1.000  I
  I1296    1.0000 0.69272  0.19272  0.69272  Biso   1.000  I
  I1297    1.0000 0.30728  0.80728  0.69272  Biso   1.000  I
  I1298    1.0000 0.37502  0.12502  0.37502  Biso   1.000  I
  I1299    1.0000 0.51290  0.98710  0.48710  Biso   1.000  I
  I1300    1.0000 0.37502  0.12502  0.37502  Biso   1.000  I
  I1301    1.0000 0.62502  0.12502  0.62502  Biso   1.000  I
  I1302    1.0000 0.37502  0.87502  0.62502  Biso   1.000  I
  I1303    1.0000 0.12502  0.62502  0.62502  Biso   1.000  I
  I1304    1.0000 0.87502  0.62502  0.37502  Biso   1.000  I
  I1305    1.0000 0.62502  0.62502  0.12502  Biso   1.000  I
  I1306    1.0000 0.37502  0.62502  0.87502  Biso   1.000  I
  I1307    1.0000 0.12502  0.62502  0.62502  Biso   1.000  I
  I1308    1.0000 0.87502  0.62502  0.37502  Biso   1.000  I
  I1309    1.0000 0.62502  0.62502  0.12502  Biso   1.000  I
  I1310    1.0000 0.37502  0.62502  0.87502  Biso   1.000  I
  I1311    1.0000 0.51290  0.48710  0.98710  Biso   1.000  I
  I1312    1.0000 0.37502  0.37502  0.12502  Biso   1.000  I
  I1313    1.0000 0.62502  0.62502  0.12502  Biso   1.000  I
  I1314    1.0000 0.37502  0.62502  0.87502  Biso   1.000  I
  I1315    1.0000 0.87502  0.37502  0.62502  Biso   1.000  I
  I1316    1.0000 0.01290  0.48710  0.48710  Biso   1.000  I
  I1317    1.0000 0.12502  0.62502  0.62502  Biso   1.000  I
  I1318    1.0000 0.87502  0.62502  0.37502  Biso   1.000  I
  I1319    1.0000 0.62502  0.62502  0.12502  Biso   1.000  I
  I1320    1.0000 0.37502  0.62502  0.87502  Biso   1.000  I
  I1321    1.0000 0.12502  0.62502  0.62502  Biso   1.000  I
  I1322    1.0000 0.87502  0.62502  0.37502  Biso   1.000  I
  I1323    1.0000 0.98710  0.48710  0.51290  Biso   1.000  I
  I1324    1.0000 0.12502  0.62502  0.62502  Biso   1.000  I
  I1325    1.0000 0.12502  0.37502  0.37502  Biso   1.000  I
  I1326    1.0000 0.87502  0.62502  0.37502  Biso   1.000  I
  I1327    1.0000 0.48710  0.98710  0.51290  Biso   1.000  I
  I1328    1.0000 0.37502  0.12502  0.37502  Biso   1.000  I
  I1329    1.0000 0.62502  0.12502  0.62502  Biso   1.000  I
  I1330    1.0000 0.62502  0.87502  0.37502  Biso   1.000  I
  I1331    1.0000 0.37502  0.62502  0.87502  Biso   1.000  I
  I1332    1.0000 0.48710  0.48710  0.01290  Biso   1.000  I
  I1333    1.0000 0.62502  0.62502  0.12502  Biso   1.000  I
  I1334    1.0000 0.62502  0.37502  0.87502  Biso   1.000  I
  I1335    1.0000 0.26290  0.26290  0.23710  Biso   1.000  I
  I1336    1.0000 0.26290  0.23710  0.26290  Biso   1.000  I
  I1337    1.0000 0.23710  0.23710  0.23710  Biso   1.000  I
  I1338    1.0000 0.76290  0.73710  0.26290  Biso   1.000  I
  I1339    1.0000 0.76290  0.76290  0.23710  Biso   1.000  I
  I1340    1.0000 0.73710  0.76290  0.26290  Biso   1.000  I
  I1341    1.0000 0.73710  0.23710  0.73710  Biso   1.000  I
  I1342    1.0000 0.76290  0.23710  0.76290  Biso   1.000  I
  I1343    1.0000 0.76290  0.26290  0.73710  Biso   1.000  I
  I1344    1.0000 0.76290  0.23710  0.76290  Biso   1.000  I
  I1345    1.0000 0.73710  0.26290  0.76290  Biso   1.000  I
  I1346    1.0000 0.76290  0.26290  0.73710  Biso   1.000  I
  I1347    1.0000 0.76290  0.73710  0.26290  Biso   1.000  I
  I1348    1.0000 0.73710  0.73710  0.23710  Biso   1.000  I
  I1349    1.0000 0.76290  0.76290  0.23710  Biso   1.000  I
  I1350    1.0000 0.73710  0.73710  0.23710  Biso   1.000  I
  I1351    1.0000 0.76290  0.23710  0.76290  Biso   1.000  I
  I1352    1.0000 0.73710  0.26290  0.76290  Biso   1.000  I
  I1353    1.0000 0.76290  0.26290  0.73710  Biso   1.000  I
  I1354    1.0000 0.76290  0.73710  0.26290  Biso   1.000  I
  I1355    1.0000 0.76290  0.76290  0.23710  Biso   1.000  I
  I1356    1.0000 0.73710  0.76290  0.26290  Biso   1.000  I
  I1357    1.0000 0.73710  0.23710  0.73710  Biso   1.000  I
  I1358    1.0000 0.26290  0.23710  0.26290  Biso   1.000  I
  I1359    1.0000 0.23710  0.23710  0.23710  Biso   1.000  I
  I1360    1.0000 0.23710  0.26290  0.26290  Biso   1.000  I
  I1361    1.0000 0.76290  0.73710  0.26290  Biso   1.000  I
  I1362    1.0000 0.76290  0.76290  0.23710  Biso   1.000  I
  I1363    1.0000 0.73710  0.76290  0.26290  Biso   1.000  I
  I1364    1.0000 0.73710  0.23710  0.73710  Biso   1.000  I
  I1365    1.0000 0.76290  0.23710  0.76290  Biso   1.000  I
  I1366    1.0000 0.76290  0.26290  0.73710  Biso   1.000  I
  I1367    1.0000 0.76290  0.73710  0.26290  Biso   1.000  I
  I1368    1.0000 0.76290  0.76290  0.23710  Biso   1.000  I
  I1369    1.0000 0.73710  0.76290  0.26290  Biso   1.000  I
  I1370    1.0000 0.73710  0.23710  0.73710  Biso   1.000  I
  I1371    1.0000 0.76290  0.23710  0.76290  Biso   1.000  I
  I1372    1.0000 0.73710  0.26290  0.76290  Biso   1.000  I
  I1373    1.0000 0.76290  0.26290  0.73710  Biso   1.000  I
  I1374    1.0000 0.73710  0.73710  0.23710  Biso   1.000  I
  I1375    1.0000 0.26290  0.26290  0.23710  Biso   1.000  I
  I1376    1.0000 0.23710  0.26290  0.26290  Biso   1.000  I
  I1377    1.0000 0.26290  0.23710  0.26290  Biso   1.000  I
  I1378    1.0000 0.76290  0.23710  0.76290  Biso   1.000  I
  I1379    1.0000 0.73710  0.26290  0.76290  Biso   1.000  I
  I1380    1.0000 0.76290  0.26290  0.73710  Biso   1.000  I
  I1381    1.0000 0.23710  0.76290  0.76290  Biso   1.000  I
  I1382    1.0000 0.23710  0.73710  0.73710  Biso   1.000  I
  I1383    1.0000 0.26290  0.73710  0.76290  Biso   1.000  I
  I1384    1.0000 0.23710  0.76290  0.76290  Biso   1.000  I
  I1385    1.0000 0.26290  0.76290  0.73710  Biso   1.000  I
  I1386    1.0000 0.26290  0.73710  0.76290  Biso   1.000  I
  I1387    1.0000 0.76290  0.23710  0.76290  Biso   1.000  I
  I1388    1.0000 0.73710  0.26290  0.76290  Biso   1.000  I
  I1389    1.0000 0.73710  0.23710  0.73710  Biso   1.000  I
  I1390    1.0000 0.76290  0.23710  0.76290  Biso   1.000  I
  I1391    1.0000 0.73710  0.26290  0.76290  Biso   1.000  I
  I1392    1.0000 0.76290  0.26290  0.73710  Biso   1.000  I
  I1393    1.0000 0.23710  0.73710  0.73710  Biso   1.000  I
  I1394    1.0000 0.23710  0.76290  0.76290  Biso   1.000  I
  I1395    1.0000 0.26290  0.76290  0.73710  Biso   1.000  I
  I1396    1.0000 0.26290  0.73710  0.76290  Biso   1.000  I
  I1397    1.0000 0.73710  0.23710  0.73710  Biso   1.000  I
  I1398    1.0000 0.73710  0.73710  0.23710  Biso   1.000  I
  I1399    1.0000 0.76290  0.23710  0.76290  Biso   1.000  I
  I1400    1.0000 0.73710  0.26290  0.76290  Biso   1.000  I
  I1401    1.0000 0.76290  0.26290  0.73710  Biso   1.000  I
  I1402    1.0000 0.23710  0.76290  0.76290  Biso   1.000  I
  I1403    1.0000 0.26290  0.73710  0.76290  Biso   1.000  I
  I1404    1.0000 0.23710  0.73710  0.73710  Biso   1.000  I
  I1405    1.0000 0.26290  0.76290  0.73710  Biso   1.000  I
  I1406    1.0000 0.26290  0.26290  0.23710  Biso   1.000  I
  I1407    1.0000 0.73710  0.23710  0.73710  Biso   1.000  I
  I1408    1.0000 0.76290  0.23710  0.76290  Biso   1.000  I
  I1409    1.0000 0.73710  0.26290  0.76290  Biso   1.000  I
  I1410    1.0000 0.23710  0.26290  0.26290  Biso   1.000  I
  I1411    1.0000 0.26290  0.23710  0.26290  Biso   1.000  I
  I1412    1.0000 0.23710  0.23710  0.23710  Biso   1.000  I
  I1413    1.0000 0.26290  0.76290  0.73710  Biso   1.000  I
  I1414    1.0000 0.73710  0.23710  0.73710  Biso   1.000  I
  I1415    1.0000 0.76290  0.23710  0.76290  Biso   1.000  I
  I1416    1.0000 0.73710  0.26290  0.76290  Biso   1.000  I
  I1417    1.0000 0.76290  0.26290  0.73710  Biso   1.000  I
  I1418    1.0000 0.23710  0.76290  0.76290  Biso   1.000  I
  I1419    1.0000 0.23710  0.73710  0.73710  Biso   1.000  I
  I1420    1.0000 0.26290  0.73710  0.76290  Biso   1.000  I
  I1421    1.0000 0.30728  0.19272  0.30728  Biso   1.000  I
  I1422    1.0000 0.30728  0.19272  0.30728  Biso   1.000  I
  I1423    1.0000 0.69272  0.19272  0.69272  Biso   1.000  I
  I1424    1.0000 0.30728  0.80728  0.69272  Biso   1.000  I
  I1425    1.0000 0.19272  0.69272  0.69272  Biso   1.000  I
  I1426    1.0000 0.80728  0.69272  0.30728  Biso   1.000  I
  I1427    1.0000 0.69272  0.69272  0.19272  Biso   1.000  I
  I1428    1.0000 0.30728  0.69272  0.80728  Biso   1.000  I
  I1429    1.0000 0.19272  0.69272  0.69272  Biso   1.000  I
  I1430    1.0000 0.80728  0.69272  0.30728  Biso   1.000  I
  I1431    1.0000 0.69272  0.69272  0.19272  Biso   1.000  I
  I1432    1.0000 0.30728  0.69272  0.80728  Biso   1.000  I
  I1433    1.0000 0.30728  0.30728  0.19272  Biso   1.000  I
  I1434    1.0000 0.69272  0.69272  0.19272  Biso   1.000  I
  I1435    1.0000 0.30728  0.69272  0.80728  Biso   1.000  I
  I1436    1.0000 0.80728  0.30728  0.69272  Biso   1.000  I
  I1437    1.0000 0.19272  0.69272  0.69272  Biso   1.000  I
  I1438    1.0000 0.80728  0.69272  0.30728  Biso   1.000  I
  I1439    1.0000 0.69272  0.69272  0.19272  Biso   1.000  I
  I1440    1.0000 0.30728  0.69272  0.80728  Biso   1.000  I
  I1441    1.0000 0.19272  0.69272  0.69272  Biso   1.000  I
  I1442    1.0000 0.80728  0.69272  0.30728  Biso   1.000  I
  I1443    1.0000 0.19272  0.69272  0.69272  Biso   1.000  I
  I1444    1.0000 0.19272  0.30728  0.30728  Biso   1.000  I
  I1445    1.0000 0.80728  0.69272  0.30728  Biso   1.000  I
  I1446    1.0000 0.30728  0.19272  0.30728  Biso   1.000  I
  I1447    1.0000 0.69272  0.19272  0.69272  Biso   1.000  I
  I1448    1.0000 0.69272  0.80728  0.30728  Biso   1.000  I
  I1449    1.0000 0.30728  0.69272  0.80728  Biso   1.000  I
  I1450    1.0000 0.69272  0.69272  0.19272  Biso   1.000  I
  I1451    1.0000 0.69272  0.30728  0.80728  Biso   1.000  I
  I1452    1.0000 0.19272  0.19272  0.19272  Biso   1.000  I
  I1453    1.0000 0.30728  0.19272  0.30728  Biso   1.000  I
  I1454    1.0000 0.30728  0.30728  0.19272  Biso   1.000  I
  I1455    1.0000 0.80728  0.80728  0.19272  Biso   1.000  I
  I1456    1.0000 0.80728  0.69272  0.30728  Biso   1.000  I
  I1457    1.0000 0.80728  0.30728  0.69272  Biso   1.000  I
  I1458    1.0000 0.80728  0.19272  0.80728  Biso   1.000  I
  I1459    1.0000 0.69272  0.19272  0.69272  Biso   1.000  I
  I1460    1.0000 0.80728  0.30728  0.69272  Biso   1.000  I
  I1461    1.0000 0.80728  0.19272  0.80728  Biso   1.000  I
  I1462    1.0000 0.80728  0.80728  0.19272  Biso   1.000  I
  I1463    1.0000 0.69272  0.69272  0.19272  Biso   1.000  I
  I1464    1.0000 0.80728  0.69272  0.30728  Biso   1.000  I
  I1465    1.0000 0.80728  0.30728  0.69272  Biso   1.000  I
  I1466    1.0000 0.80728  0.19272  0.80728  Biso   1.000  I
  I1467    1.0000 0.80728  0.80728  0.19272  Biso   1.000  I
  I1468    1.0000 0.80728  0.69272  0.30728  Biso   1.000  I
  I1469    1.0000 0.19272  0.19272  0.19272  Biso   1.000  I
  I1470    1.0000 0.30728  0.19272  0.30728  Biso   1.000  I
  I1471    1.0000 0.80728  0.80728  0.19272  Biso   1.000  I
  I1472    1.0000 0.80728  0.69272  0.30728  Biso   1.000  I
  I1473    1.0000 0.80728  0.30728  0.69272  Biso   1.000  I
  I1474    1.0000 0.80728  0.19272  0.80728  Biso   1.000  I
  I1475    1.0000 0.69272  0.19272  0.69272  Biso   1.000  I
  I1476    1.0000 0.69272  0.80728  0.30728  Biso   1.000  I
  I1477    1.0000 0.80728  0.80728  0.19272  Biso   1.000  I
  I1478    1.0000 0.80728  0.69272  0.30728  Biso   1.000  I
  I1479    1.0000 0.80728  0.30728  0.69272  Biso   1.000  I
  I1480    1.0000 0.69272  0.30728  0.80728  Biso   1.000  I
  I1481    1.0000 0.80728  0.19272  0.80728  Biso   1.000  I
  I1482    1.0000 0.30728  0.19272  0.30728  Biso   1.000  I
  I1483    1.0000 0.19272  0.30728  0.30728  Biso   1.000  I
  I1484    1.0000 0.30728  0.30728  0.19272  Biso   1.000  I
  I1485    1.0000 0.69272  0.30728  0.80728  Biso   1.000  I
  I1486    1.0000 0.80728  0.19272  0.80728  Biso   1.000  I
  I1487    1.0000 0.30728  0.69272  0.80728  Biso   1.000  I
  I1488    1.0000 0.19272  0.80728  0.80728  Biso   1.000  I
  I1489    1.0000 0.30728  0.69272  0.80728  Biso   1.000  I
  I1490    1.0000 0.19272  0.80728  0.80728  Biso   1.000  I
  I1491    1.0000 0.69272  0.30728  0.80728  Biso   1.000  I
  I1492    1.0000 0.80728  0.19272  0.80728  Biso   1.000  I
  I1493    1.0000 0.80728  0.30728  0.69272  Biso   1.000  I
  I1494    1.0000 0.69272  0.30728  0.80728  Biso   1.000  I
  I1495    1.0000 0.80728  0.19272  0.80728  Biso   1.000  I
  I1496    1.0000 0.30728  0.69272  0.80728  Biso   1.000  I
  I1497    1.0000 0.30728  0.80728  0.69272  Biso   1.000  I
  I1498    1.0000 0.19272  0.80728  0.80728  Biso   1.000  I
  I1499    1.0000 0.80728  0.30728  0.69272  Biso   1.000  I
  I1500    1.0000 0.69272  0.30728  0.80728  Biso   1.000  I
  I1501    1.0000 0.80728  0.19272  0.80728  Biso   1.000  I
  I1502    1.0000 0.30728  0.69272  0.80728  Biso   1.000  I
  I1503    1.0000 0.19272  0.80728  0.80728  Biso   1.000  I
  I1504    1.0000 0.69272  0.30728  0.80728  Biso   1.000  I
  I1505    1.0000 0.80728  0.19272  0.80728  Biso   1.000  I
  I1506    1.0000 0.69272  0.19272  0.69272  Biso   1.000  I
  I1507    1.0000 0.19272  0.19272  0.19272  Biso   1.000  I
  I1508    1.0000 0.30728  0.19272  0.30728  Biso   1.000  I
  I1509    1.0000 0.19272  0.30728  0.30728  Biso   1.000  I
  I1510    1.0000 0.69272  0.30728  0.80728  Biso   1.000  I
  I1511    1.0000 0.80728  0.19272  0.80728  Biso   1.000  I
  I1512    1.0000 0.69272  0.19272  0.69272  Biso   1.000  I
  I1513    1.0000 0.30728  0.69272  0.80728  Biso   1.000  I
  I1514    1.0000 0.19272  0.69272  0.69272  Biso   1.000  I
  I1515    1.0000 0.19272  0.80728  0.80728  Biso   1.000  I
  I1516    1.0000 0.26290  0.26290  0.23710  Biso   1.000  I
  I1517    1.0000 0.23710  0.26290  0.26290  Biso   1.000  I
  I1518    1.0000 0.23710  0.23710  0.23710  Biso   1.000  I
  I1519    1.0000 0.26290  0.26290  0.23710  Biso   1.000  I
  I1520    1.0000 0.23710  0.26290  0.26290  Biso   1.000  I
  I1521    1.0000 0.23710  0.23710  0.23710  Biso   1.000  I
  I1522    1.0000 0.76290  0.23710  0.76290  Biso   1.000  I
  I1523    1.0000 0.73710  0.26290  0.76290  Biso   1.000  I
  I1524    1.0000 0.76290  0.26290  0.73710  Biso   1.000  I
  I1525    1.0000 0.23710  0.76290  0.76290  Biso   1.000  I
  I1526    1.0000 0.23710  0.73710  0.73710  Biso   1.000  I
  I1527    1.0000 0.26290  0.73710  0.76290  Biso   1.000  I
  I1528    1.0000 0.23710  0.76290  0.76290  Biso   1.000  I
  I1529    1.0000 0.26290  0.76290  0.73710  Biso   1.000  I
  I1530    1.0000 0.26290  0.73710  0.76290  Biso   1.000  I
  I1531    1.0000 0.76290  0.76290  0.23710  Biso   1.000  I
  I1532    1.0000 0.73710  0.76290  0.26290  Biso   1.000  I
  I1533    1.0000 0.73710  0.73710  0.23710  Biso   1.000  I
  I1534    1.0000 0.76290  0.73710  0.26290  Biso   1.000  I
  I1535    1.0000 0.76290  0.76290  0.23710  Biso   1.000  I
  I1536    1.0000 0.73710  0.76290  0.26290  Biso   1.000  I
  I1537    1.0000 0.23710  0.76290  0.76290  Biso   1.000  I
  I1538    1.0000 0.26290  0.76290  0.73710  Biso   1.000  I
  I1539    1.0000 0.23710  0.73710  0.73710  Biso   1.000  I
  I1540    1.0000 0.23710  0.76290  0.76290  Biso   1.000  I
  I1541    1.0000 0.26290  0.76290  0.73710  Biso   1.000  I
  I1542    1.0000 0.26290  0.73710  0.76290  Biso   1.000  I
  I1543    1.0000 0.73710  0.73710  0.23710  Biso   1.000  I
  I1544    1.0000 0.76290  0.73710  0.26290  Biso   1.000  I
  I1545    1.0000 0.76290  0.76290  0.23710  Biso   1.000  I
  I1546    1.0000 0.73710  0.76290  0.26290  Biso   1.000  I
  I1547    1.0000 0.23710  0.73710  0.73710  Biso   1.000  I
  I1548    1.0000 0.26290  0.23710  0.26290  Biso   1.000  I
  I1549    1.0000 0.76290  0.73710  0.26290  Biso   1.000  I
  I1550    1.0000 0.76290  0.76290  0.23710  Biso   1.000  I
  I1551    1.0000 0.73710  0.76290  0.26290  Biso   1.000  I
  I1552    1.0000 0.23710  0.76290  0.76290  Biso   1.000  I
  I1553    1.0000 0.26290  0.76290  0.73710  Biso   1.000  I
  I1554    1.0000 0.23710  0.73710  0.73710  Biso   1.000  I
  I1555    1.0000 0.73710  0.23710  0.73710  Biso   1.000  I
  I1556    1.0000 0.23710  0.76290  0.76290  Biso   1.000  I
  I1557    1.0000 0.26290  0.76290  0.73710  Biso   1.000  I
  I1558    1.0000 0.26290  0.73710  0.76290  Biso   1.000  I
  I1559    1.0000 0.73710  0.73710  0.23710  Biso   1.000  I
  I1560    1.0000 0.76290  0.73710  0.26290  Biso   1.000  I
  I1561    1.0000 0.23710  0.76290  0.76290  Biso   1.000  I
  I1562    1.0000 0.26290  0.76290  0.73710  Biso   1.000  I
  I1563    1.0000 0.23710  0.73710  0.73710  Biso   1.000  I
  I1564    1.0000 0.26290  0.73710  0.76290  Biso   1.000  I
  I1565    1.0000 0.73710  0.73710  0.23710  Biso   1.000  I
  I1566    1.0000 0.76290  0.76290  0.23710  Biso   1.000  I
  I1567    1.0000 0.73710  0.76290  0.26290  Biso   1.000  I
  I1568    1.0000 0.23710  0.76290  0.76290  Biso   1.000  I
  I1569    1.0000 0.26290  0.76290  0.73710  Biso   1.000  I
  I1570    1.0000 0.26290  0.73710  0.76290  Biso   1.000  I
  I1571    1.0000 0.26290  0.26290  0.23710  Biso   1.000  I
  I1572    1.0000 0.26290  0.23710  0.26290  Biso   1.000  I
  I1573    1.0000 0.23710  0.23710  0.23710  Biso   1.000  I
  I1574    1.0000 0.73710  0.73710  0.23710  Biso   1.000  I
  I1575    1.0000 0.76290  0.76290  0.23710  Biso   1.000  I
  I1576    1.0000 0.73710  0.76290  0.26290  Biso   1.000  I
  I1577    1.0000 0.23710  0.26290  0.26290  Biso   1.000  I
  I1578    1.0000 0.76290  0.23710  0.76290  Biso   1.000  I
  I1579    1.0000 0.73710  0.26290  0.76290  Biso   1.000  I
  I1580    1.0000 0.76290  0.26290  0.73710  Biso   1.000  I
  I1581    1.0000 0.76290  0.73710  0.26290  Biso   1.000  I
  I1582    1.0000 0.73710  0.73710  0.23710  Biso   1.000  I
  I1583    1.0000 0.76290  0.76290  0.23710  Biso   1.000  I
  I1584    1.0000 0.23710  0.73710  0.73710  Biso   1.000  I
  I1585    1.0000 0.76290  0.73710  0.26290  Biso   1.000  I
  I1586    1.0000 0.76290  0.76290  0.23710  Biso   1.000  I
  I1587    1.0000 0.73710  0.76290  0.26290  Biso   1.000  I
  I1588    1.0000 0.73710  0.23710  0.73710  Biso   1.000  I
  I1589    1.0000 0.12502  0.12502  0.12502  Biso   1.000  I
  I1590    1.0000 0.23710  0.26290  0.26290  Biso   1.000  I
  I1591    1.0000 0.37502  0.12502  0.37502  Biso   1.000  I
  I1592    1.0000 0.37502  0.37502  0.12502  Biso   1.000  I
  I1593    1.0000 0.87502  0.87502  0.12502  Biso   1.000  I
  I1594    1.0000 0.87502  0.62502  0.37502  Biso   1.000  I
  I1595    1.0000 0.87502  0.37502  0.62502  Biso   1.000  I
  I1596    1.0000 0.73710  0.26290  0.76290  Biso   1.000  I
  I1597    1.0000 0.87502  0.12502  0.87502  Biso   1.000  I
  I1598    1.0000 0.62502  0.12502  0.62502  Biso   1.000  I
  I1599    1.0000 0.87502  0.37502  0.62502  Biso   1.000  I
  I1600    1.0000 0.87502  0.12502  0.87502  Biso   1.000  I
  I1601    1.0000 0.87502  0.87502  0.12502  Biso   1.000  I
  I1602    1.0000 0.73710  0.76290  0.26290  Biso   1.000  I
  I1603    1.0000 0.62502  0.62502  0.12502  Biso   1.000  I
  I1604    1.0000 0.87502  0.62502  0.37502  Biso   1.000  I
  I1605    1.0000 0.87502  0.37502  0.62502  Biso   1.000  I
  I1606    1.0000 0.87502  0.12502  0.87502  Biso   1.000  I
  I1607    1.0000 0.87502  0.87502  0.12502  Biso   1.000  I
  I1608    1.0000 0.87502  0.62502  0.37502  Biso   1.000  I
  I1609    1.0000 0.12502  0.12502  0.12502  Biso   1.000  I
  I1610    1.0000 0.37502  0.12502  0.37502  Biso   1.000  I
  I1611    1.0000 0.87502  0.87502  0.12502  Biso   1.000  I
  I1612    1.0000 0.87502  0.62502  0.37502  Biso   1.000  I
  I1613    1.0000 0.87502  0.37502  0.62502  Biso   1.000  I
  I1614    1.0000 0.73710  0.26290  0.76290  Biso   1.000  I
  I1615    1.0000 0.87502  0.12502  0.87502  Biso   1.000  I
  I1616    1.0000 0.62502  0.12502  0.62502  Biso   1.000  I
  I1617    1.0000 0.62502  0.87502  0.37502  Biso   1.000  I
  I1618    1.0000 0.73710  0.73710  0.23710  Biso   1.000  I
  I1619    1.0000 0.87502  0.87502  0.12502  Biso   1.000  I
  I1620    1.0000 0.87502  0.62502  0.37502  Biso   1.000  I
  I1621    1.0000 0.87502  0.37502  0.62502  Biso   1.000  I
  I1622    1.0000 0.73710  0.23710  0.73710  Biso   1.000  I
  I1623    1.0000 0.62502  0.37502  0.87502  Biso   1.000  I
  I1624    1.0000 0.87502  0.12502  0.87502  Biso   1.000  I
  I1625    1.0000 0.37502  0.12502  0.37502  Biso   1.000  I
  I1626    1.0000 0.23710  0.23710  0.23710  Biso   1.000  I
  I1627    1.0000 0.12502  0.37502  0.37502  Biso   1.000  I
  I1628    1.0000 0.37502  0.37502  0.12502  Biso   1.000  I
  I1629    1.0000 0.62502  0.37502  0.87502  Biso   1.000  I
  I1630    1.0000 0.87502  0.12502  0.87502  Biso   1.000  I
  I1631    1.0000 0.37502  0.62502  0.87502  Biso   1.000  I
  I1632    1.0000 0.12502  0.87502  0.87502  Biso   1.000  I
  I1633    1.0000 0.37502  0.62502  0.87502  Biso   1.000  I
  I1634    1.0000 0.12502  0.87502  0.87502  Biso   1.000  I
  I1635    1.0000 0.62502  0.37502  0.87502  Biso   1.000  I
  I1636    1.0000 0.87502  0.12502  0.87502  Biso   1.000  I
  I1637    1.0000 0.87502  0.37502  0.62502  Biso   1.000  I
  I1638    1.0000 0.73710  0.23710  0.73710  Biso   1.000  I
  I1639    1.0000 0.62502  0.37502  0.87502  Biso   1.000  I
  I1640    1.0000 0.87502  0.12502  0.87502  Biso   1.000  I
  I1641    1.0000 0.37502  0.62502  0.87502  Biso   1.000  I
  I1642    1.0000 0.23710  0.73710  0.73710  Biso   1.000  I
  I1643    1.0000 0.37502  0.87502  0.62502  Biso   1.000  I
  I1644    1.0000 0.12502  0.87502  0.87502  Biso   1.000  I
  I1645    1.0000 0.87502  0.37502  0.62502  Biso   1.000  I
  I1646    1.0000 0.73710  0.23710  0.73710  Biso   1.000  I
  I1647    1.0000 0.62502  0.37502  0.87502  Biso   1.000  I
  I1648    1.0000 0.87502  0.12502  0.87502  Biso   1.000  I
  I1649    1.0000 0.37502  0.62502  0.87502  Biso   1.000  I
  I1650    1.0000 0.12502  0.87502  0.87502  Biso   1.000  I
  I1651    1.0000 0.62502  0.37502  0.87502  Biso   1.000  I
  I1652    1.0000 0.76290  0.26290  0.73710  Biso   1.000  I
  I1653    1.0000 0.87502  0.12502  0.87502  Biso   1.000  I
  I1654    1.0000 0.62502  0.12502  0.62502  Biso   1.000  I
  I1655    1.0000 0.12502  0.12502  0.12502  Biso   1.000  I
  I1656    1.0000 0.26290  0.26290  0.23710  Biso   1.000  I
  I1657    1.0000 0.37502  0.12502  0.37502  Biso   1.000  I
  I1658    1.0000 0.12502  0.37502  0.37502  Biso   1.000  I
  I1659    1.0000 0.62502  0.37502  0.87502  Biso   1.000  I
  I1660    1.0000 0.76290  0.26290  0.73710  Biso   1.000  I
  I1661    1.0000 0.87502  0.12502  0.87502  Biso   1.000  I
  I1662    1.0000 0.62502  0.12502  0.62502  Biso   1.000  I
  I1663    1.0000 0.37502  0.62502  0.87502  Biso   1.000  I
  I1664    1.0000 0.26290  0.76290  0.73710  Biso   1.000  I
  I1665    1.0000 0.12502  0.62502  0.62502  Biso   1.000  I
  I1666    1.0000 0.12502  0.87502  0.87502  Biso   1.000  I
  I1667    1.0000 0.19272  0.19272  0.19272  Biso   1.000  I
  I1668    1.0000 0.19272  0.30728  0.30728  Biso   1.000  I
  I1669    1.0000 0.30728  0.30728  0.19272  Biso   1.000  I
  I1670    1.0000 0.19272  0.19272  0.19272  Biso   1.000  I
  I1671    1.0000 0.19272  0.30728  0.30728  Biso   1.000  I
  I1672    1.0000 0.69272  0.30728  0.80728  Biso   1.000  I
  I1673    1.0000 0.80728  0.19272  0.80728  Biso   1.000  I
  I1674    1.0000 0.30728  0.69272  0.80728  Biso   1.000  I
  I1675    1.0000 0.19272  0.69272  0.69272  Biso   1.000  I
  I1676    1.0000 0.19272  0.80728  0.80728  Biso   1.000  I
  I1677    1.0000 0.30728  0.80728  0.69272  Biso   1.000  I
  I1678    1.0000 0.19272  0.80728  0.80728  Biso   1.000  I
  I1679    1.0000 0.69272  0.80728  0.30728  Biso   1.000  I
  I1680    1.0000 0.80728  0.80728  0.19272  Biso   1.000  I
  I1681    1.0000 0.69272  0.80728  0.30728  Biso   1.000  I
  I1682    1.0000 0.80728  0.80728  0.19272  Biso   1.000  I
  I1683    1.0000 0.30728  0.80728  0.69272  Biso   1.000  I
  I1684    1.0000 0.19272  0.80728  0.80728  Biso   1.000  I
  I1685    1.0000 0.30728  0.69272  0.80728  Biso   1.000  I
  I1686    1.0000 0.30728  0.80728  0.69272  Biso   1.000  I
  I1687    1.0000 0.19272  0.80728  0.80728  Biso   1.000  I
  I1688    1.0000 0.69272  0.80728  0.30728  Biso   1.000  I
  I1689    1.0000 0.80728  0.80728  0.19272  Biso   1.000  I
  I1690    1.0000 0.80728  0.69272  0.30728  Biso   1.000  I
  I1691    1.0000 0.69272  0.80728  0.30728  Biso   1.000  I
  I1692    1.0000 0.80728  0.80728  0.19272  Biso   1.000  I
  I1693    1.0000 0.19272  0.69272  0.69272  Biso   1.000  I
  I1694    1.0000 0.30728  0.80728  0.69272  Biso   1.000  I
  I1695    1.0000 0.19272  0.80728  0.80728  Biso   1.000  I
  I1696    1.0000 0.30728  0.69272  0.80728  Biso   1.000  I
  I1697    1.0000 0.30728  0.80728  0.69272  Biso   1.000  I
  I1698    1.0000 0.19272  0.80728  0.80728  Biso   1.000  I
  I1699    1.0000 0.19272  0.69272  0.69272  Biso   1.000  I
  I1700    1.0000 0.30728  0.80728  0.69272  Biso   1.000  I
  I1701    1.0000 0.19272  0.80728  0.80728  Biso   1.000  I
  I1702    1.0000 0.69272  0.80728  0.30728  Biso   1.000  I
  I1703    1.0000 0.80728  0.80728  0.19272  Biso   1.000  I
  I1704    1.0000 0.69272  0.69272  0.19272  Biso   1.000  I
  I1705    1.0000 0.30728  0.80728  0.69272  Biso   1.000  I
  I1706    1.0000 0.19272  0.80728  0.80728  Biso   1.000  I
  I1707    1.0000 0.19272  0.19272  0.19272  Biso   1.000  I
  I1708    1.0000 0.30728  0.30728  0.19272  Biso   1.000  I
  I1709    1.0000 0.69272  0.80728  0.30728  Biso   1.000  I
  I1710    1.0000 0.80728  0.80728  0.19272  Biso   1.000  I
  I1711    1.0000 0.69272  0.69272  0.19272  Biso   1.000  I
  I1712    1.0000 0.80728  0.30728  0.69272  Biso   1.000  I
  I1713    1.0000 0.80728  0.19272  0.80728  Biso   1.000  I
  I1714    1.0000 0.80728  0.80728  0.19272  Biso   1.000  I
  I1715    1.0000 0.69272  0.69272  0.19272  Biso   1.000  I
  I1716    1.0000 0.80728  0.69272  0.30728  Biso   1.000  I
  I1717    1.0000 0.69272  0.80728  0.30728  Biso   1.000  I
  I1718    1.0000 0.80728  0.80728  0.19272  Biso   1.000  I
  I1719    1.0000 0.80728  0.69272  0.30728  Biso   1.000  I
  I1720    1.0000 0.05728  0.05728  0.05728  Biso   1.000  I
  I1721    1.0000 0.44272  0.05728  0.44272  Biso   1.000  I
  I1722    1.0000 0.44272  0.44272  0.05728  Biso   1.000  I
  I1723    1.0000 0.94272  0.94272  0.05728  Biso   1.000  I
  I1724    1.0000 0.94272  0.55728  0.44272  Biso   1.000  I
  I1725    1.0000 0.94272  0.44272  0.55728  Biso   1.000  I
  I1726    1.0000 0.94272  0.05728  0.94272  Biso   1.000  I
  I1727    1.0000 0.55728  0.05728  0.55728  Biso   1.000  I
  I1728    1.0000 0.94272  0.44272  0.55728  Biso   1.000  I
  I1729    1.0000 0.94272  0.05728  0.94272  Biso   1.000  I
  I1730    1.0000 0.94272  0.94272  0.05728  Biso   1.000  I
  I1731    1.0000 0.55728  0.55728  0.05728  Biso   1.000  I
  I1732    1.0000 0.94272  0.55728  0.44272  Biso   1.000  I
  I1733    1.0000 0.94272  0.44272  0.55728  Biso   1.000  I
  I1734    1.0000 0.94272  0.05728  0.94272  Biso   1.000  I
  I1735    1.0000 0.94272  0.94272  0.05728  Biso   1.000  I
  I1736    1.0000 0.94272  0.55728  0.44272  Biso   1.000  I
  I1737    1.0000 0.05728  0.05728  0.05728  Biso   1.000  I
  I1738    1.0000 0.44272  0.05728  0.44272  Biso   1.000  I
  I1739    1.0000 0.94272  0.94272  0.05728  Biso   1.000  I
  I1740    1.0000 0.94272  0.55728  0.44272  Biso   1.000  I
  I1741    1.0000 0.94272  0.44272  0.55728  Biso   1.000  I
  I1742    1.0000 0.94272  0.05728  0.94272  Biso   1.000  I
  I1743    1.0000 0.55728  0.05728  0.55728  Biso   1.000  I
  I1744    1.0000 0.55728  0.94272  0.44272  Biso   1.000  I
  I1745    1.0000 0.94272  0.94272  0.05728  Biso   1.000  I
  I1746    1.0000 0.94272  0.55728  0.44272  Biso   1.000  I
  I1747    1.0000 0.94272  0.44272  0.55728  Biso   1.000  I
  I1748    1.0000 0.55728  0.44272  0.94272  Biso   1.000  I
  I1749    1.0000 0.94272  0.05728  0.94272  Biso   1.000  I
  I1750    1.0000 0.44272  0.05728  0.44272  Biso   1.000  I
  I1751    1.0000 0.05728  0.44272  0.44272  Biso   1.000  I
  I1752    1.0000 0.44272  0.44272  0.05728  Biso   1.000  I
  I1753    1.0000 0.55728  0.44272  0.94272  Biso   1.000  I
  I1754    1.0000 0.94272  0.05728  0.94272  Biso   1.000  I
  I1755    1.0000 0.44272  0.55728  0.94272  Biso   1.000  I
  I1756    1.0000 0.05728  0.94272  0.94272  Biso   1.000  I
  I1757    1.0000 0.44272  0.55728  0.94272  Biso   1.000  I
  I1758    1.0000 0.05728  0.94272  0.94272  Biso   1.000  I
  I1759    1.0000 0.55728  0.44272  0.94272  Biso   1.000  I
  I1760    1.0000 0.94272  0.05728  0.94272  Biso   1.000  I
  I1761    1.0000 0.94272  0.44272  0.55728  Biso   1.000  I
  I1762    1.0000 0.55728  0.44272  0.94272  Biso   1.000  I
  I1763    1.0000 0.94272  0.05728  0.94272  Biso   1.000  I
  I1764    1.0000 0.44272  0.55728  0.94272  Biso   1.000  I
  I1765    1.0000 0.44272  0.94272  0.55728  Biso   1.000  I
  I1766    1.0000 0.05728  0.94272  0.94272  Biso   1.000  I
  I1767    1.0000 0.94272  0.44272  0.55728  Biso   1.000  I
  I1768    1.0000 0.55728  0.44272  0.94272  Biso   1.000  I
  I1769    1.0000 0.94272  0.05728  0.94272  Biso   1.000  I
  I1770    1.0000 0.44272  0.55728  0.94272  Biso   1.000  I
  I1771    1.0000 0.05728  0.94272  0.94272  Biso   1.000  I
  I1772    1.0000 0.55728  0.44272  0.94272  Biso   1.000  I
  I1773    1.0000 0.94272  0.05728  0.94272  Biso   1.000  I
  I1774    1.0000 0.55728  0.05728  0.55728  Biso   1.000  I
  I1775    1.0000 0.05728  0.05728  0.05728  Biso   1.000  I
  I1776    1.0000 0.44272  0.05728  0.44272  Biso   1.000  I
  I1777    1.0000 0.05728  0.44272  0.44272  Biso   1.000  I
  I1778    1.0000 0.55728  0.44272  0.94272  Biso   1.000  I
  I1779    1.0000 0.94272  0.05728  0.94272  Biso   1.000  I
  I1780    1.0000 0.55728  0.05728  0.55728  Biso   1.000  I
  I1781    1.0000 0.44272  0.55728  0.94272  Biso   1.000  I
  I1782    1.0000 0.05728  0.55728  0.55728  Biso   1.000  I
  I1783    1.0000 0.05728  0.94272  0.94272  Biso   1.000  I
  I1784    1.0000 0.12502  0.12502  0.12502  Biso   1.000  I
  I1785    1.0000 0.26290  0.23710  0.26290  Biso   1.000  I
  I1786    1.0000 0.12502  0.37502  0.37502  Biso   1.000  I
  I1787    1.0000 0.37502  0.37502  0.12502  Biso   1.000  I
  I1788    1.0000 0.12502  0.12502  0.12502  Biso   1.000  I
  I1789    1.0000 0.12502  0.37502  0.37502  Biso   1.000  I
  I1790    1.0000 0.62502  0.37502  0.87502  Biso   1.000  I
  I1791    1.0000 0.87502  0.12502  0.87502  Biso   1.000  I
  I1792    1.0000 0.37502  0.62502  0.87502  Biso   1.000  I
  I1793    1.0000 0.26290  0.76290  0.73710  Biso   1.000  I
  I1794    1.0000 0.12502  0.62502  0.62502  Biso   1.000  I
  I1795    1.0000 0.12502  0.87502  0.87502  Biso   1.000  I
  I1796    1.0000 0.37502  0.87502  0.62502  Biso   1.000  I
  I1797    1.0000 0.12502  0.87502  0.87502  Biso   1.000  I
  I1798    1.0000 0.62502  0.87502  0.37502  Biso   1.000  I
  I1799    1.0000 0.87502  0.87502  0.12502  Biso   1.000  I
  I1800    1.0000 0.62502  0.87502  0.37502  Biso   1.000  I
  I1801    1.0000 0.87502  0.87502  0.12502  Biso   1.000  I
  I1802    1.0000 0.37502  0.87502  0.62502  Biso   1.000  I
  I1803    1.0000 0.12502  0.87502  0.87502  Biso   1.000  I
  I1804    1.0000 0.37502  0.62502  0.87502  Biso   1.000  I
  I1805    1.0000 0.23710  0.73710  0.73710  Biso   1.000  I
  I1806    1.0000 0.37502  0.87502  0.62502  Biso   1.000  I
  I1807    1.0000 0.12502  0.87502  0.87502  Biso   1.000  I
  I1808    1.0000 0.62502  0.87502  0.37502  Biso   1.000  I
  I1809    1.0000 0.73710  0.73710  0.23710  Biso   1.000  I
  I1810    1.0000 0.87502  0.87502  0.12502  Biso   1.000  I
  I1811    1.0000 0.87502  0.62502  0.37502  Biso   1.000  I
  I1812    1.0000 0.62502  0.87502  0.37502  Biso   1.000  I
  I1813    1.0000 0.87502  0.87502  0.12502  Biso   1.000  I
  I1814    1.0000 0.12502  0.62502  0.62502  Biso   1.000  I
  I1815    1.0000 0.26290  0.73710  0.76290  Biso   1.000  I
  I1816    1.0000 0.37502  0.87502  0.62502  Biso   1.000  I
  I1817    1.0000 0.12502  0.87502  0.87502  Biso   1.000  I
  I1818    1.0000 0.37502  0.62502  0.87502  Biso   1.000  I
  I1819    1.0000 0.23710  0.73710  0.73710  Biso   1.000  I
  I1820    1.0000 0.37502  0.87502  0.62502  Biso   1.000  I
  I1821    1.0000 0.12502  0.87502  0.87502  Biso   1.000  I
  I1822    1.0000 0.12502  0.62502  0.62502  Biso   1.000  I
  I1823    1.0000 0.26290  0.73710  0.76290  Biso   1.000  I
  I1824    1.0000 0.37502  0.87502  0.62502  Biso   1.000  I
  I1825    1.0000 0.12502  0.87502  0.87502  Biso   1.000  I
  I1826    1.0000 0.62502  0.87502  0.37502  Biso   1.000  I
  I1827    1.0000 0.76290  0.73710  0.26290  Biso   1.000  I
  I1828    1.0000 0.87502  0.87502  0.12502  Biso   1.000  I
  I1829    1.0000 0.62502  0.62502  0.12502  Biso   1.000  I
  I1830    1.0000 0.37502  0.87502  0.62502  Biso   1.000  I
  I1831    1.0000 0.12502  0.87502  0.87502  Biso   1.000  I
  I1832    1.0000 0.12502  0.12502  0.12502  Biso   1.000  I
  I1833    1.0000 0.37502  0.37502  0.12502  Biso   1.000  I
  I1834    1.0000 0.62502  0.87502  0.37502  Biso   1.000  I
  I1835    1.0000 0.76290  0.73710  0.26290  Biso   1.000  I
  I1836    1.0000 0.87502  0.87502  0.12502  Biso   1.000  I
  I1837    1.0000 0.62502  0.62502  0.12502  Biso   1.000  I
  I1838    1.0000 0.87502  0.37502  0.62502  Biso   1.000  I
  I1839    1.0000 0.87502  0.12502  0.87502  Biso   1.000  I
  I1840    1.0000 0.87502  0.87502  0.12502  Biso   1.000  I
  I1841    1.0000 0.73710  0.76290  0.26290  Biso   1.000  I
  I1842    1.0000 0.62502  0.62502  0.12502  Biso   1.000  I
  I1843    1.0000 0.87502  0.62502  0.37502  Biso   1.000  I
  I1844    1.0000 0.62502  0.87502  0.37502  Biso   1.000  I
  I1845    1.0000 0.73710  0.73710  0.23710  Biso   1.000  I
  I1846    1.0000 0.87502  0.87502  0.12502  Biso   1.000  I
  I1847    1.0000 0.87502  0.62502  0.37502  Biso   1.000  I
  I1848    1.0000 0.51290  0.01290  0.51290  Biso   1.000  I
  I1849    1.0000 0.51290  0.51290  0.01290  Biso   1.000  I
  I1850    1.0000 0.98710  0.01290  0.98710  Biso   1.000  I
  I1851    1.0000 0.98710  0.48710  0.51290  Biso   1.000  I
  I1852    1.0000 0.98710  0.51290  0.48710  Biso   1.000  I
  I1853    1.0000 0.48710  0.01290  0.48710  Biso   1.000  I
  I1854    1.0000 0.98710  0.51290  0.48710  Biso   1.000  I
  I1855    1.0000 0.98710  0.98710  0.01290  Biso   1.000  I
  I1856    1.0000 0.48710  0.48710  0.01290  Biso   1.000  I
  I1857    1.0000 0.98710  0.48710  0.51290  Biso   1.000  I
  I1858    1.0000 0.98710  0.51290  0.48710  Biso   1.000  I
  I1859    1.0000 0.98710  0.98710  0.01290  Biso   1.000  I
  I1860    1.0000 0.98710  0.01290  0.98710  Biso   1.000  I
  I1861    1.0000 0.98710  0.48710  0.51290  Biso   1.000  I
  I1862    1.0000 0.98710  0.01290  0.98710  Biso   1.000  I
  I1863    1.0000 0.51290  0.01290  0.51290  Biso   1.000  I
  I1864    1.0000 0.98710  0.01290  0.98710  Biso   1.000  I
  I1865    1.0000 0.98710  0.48710  0.51290  Biso   1.000  I
  I1866    1.0000 0.98710  0.51290  0.48710  Biso   1.000  I
  I1867    1.0000 0.48710  0.01290  0.48710  Biso   1.000  I
  I1868    1.0000 0.48710  0.98710  0.51290  Biso   1.000  I
  I1869    1.0000 0.48710  0.01290  0.48710  Biso   1.000  I
  I1870    1.0000 0.51290  0.01290  0.51290  Biso   1.000  I
  I1871    1.0000 0.98710  0.01290  0.98710  Biso   1.000  I
  I1872    1.0000 0.98710  0.48710  0.51290  Biso   1.000  I
  I1873    1.0000 0.98710  0.51290  0.48710  Biso   1.000  I
  I1874    1.0000 0.48710  0.51290  0.98710  Biso   1.000  I
  I1875    1.0000 0.51290  0.51290  0.01290  Biso   1.000  I
  I1876    1.0000 0.48710  0.48710  0.01290  Biso   1.000  I
  I1877    1.0000 0.98710  0.98710  0.01290  Biso   1.000  I
  I1878    1.0000 0.51290  0.98710  0.48710  Biso   1.000  I
  I1879    1.0000 0.98710  0.51290  0.48710  Biso   1.000  I
  I1880    1.0000 0.98710  0.48710  0.51290  Biso   1.000  I
  I1881    1.0000 0.01290  0.51290  0.51290  Biso   1.000  I
  I1882    1.0000 0.51290  0.48710  0.98710  Biso   1.000  I
  I1883    1.0000 0.48710  0.51290  0.98710  Biso   1.000  I
  I1884    1.0000 0.01290  0.98710  0.98710  Biso   1.000  I
  I1885    1.0000 0.51290  0.48710  0.98710  Biso   1.000  I
  I1886    1.0000 0.98710  0.01290  0.98710  Biso   1.000  I
  I1887    1.0000 0.51290  0.48710  0.98710  Biso   1.000  I
  I1888    1.0000 0.98710  0.01290  0.98710  Biso   1.000  I
  I1889    1.0000 0.48710  0.51290  0.98710  Biso   1.000  I
  I1890    1.0000 0.01290  0.98710  0.98710  Biso   1.000  I
  I1891    1.0000 0.01290  0.48710  0.48710  Biso   1.000  I
  I1892    1.0000 0.48710  0.51290  0.98710  Biso   1.000  I
  I1893    1.0000 0.01290  0.98710  0.98710  Biso   1.000  I
  I1894    1.0000 0.51290  0.48710  0.98710  Biso   1.000  I
  I1895    1.0000 0.98710  0.01290  0.98710  Biso   1.000  I
  I1896    1.0000 0.98710  0.51290  0.48710  Biso   1.000  I
  I1897    1.0000 0.48710  0.51290  0.98710  Biso   1.000  I
  I1898    1.0000 0.51290  0.48710  0.98710  Biso   1.000  I
  I1899    1.0000 0.98710  0.01290  0.98710  Biso   1.000  I
  I1900    1.0000 0.48710  0.51290  0.98710  Biso   1.000  I
  I1901    1.0000 0.48710  0.01290  0.48710  Biso   1.000  I
  I1902    1.0000 0.51290  0.01290  0.51290  Biso   1.000  I
  I1903    1.0000 0.01290  0.51290  0.51290  Biso   1.000  I
  I1904    1.0000 0.48710  0.51290  0.98710  Biso   1.000  I
  I1905    1.0000 0.48710  0.01290  0.48710  Biso   1.000  I
  I1906    1.0000 0.51290  0.48710  0.98710  Biso   1.000  I
  I1907    1.0000 0.01290  0.48710  0.48710  Biso   1.000  I
  I1908    1.0000 0.05728  0.05728  0.05728  Biso   1.000  I
  I1909    1.0000 0.05728  0.44272  0.44272  Biso   1.000  I
  I1910    1.0000 0.44272  0.44272  0.05728  Biso   1.000  I
  I1911    1.0000 0.05728  0.05728  0.05728  Biso   1.000  I
  I1912    1.0000 0.05728  0.44272  0.44272  Biso   1.000  I
  I1913    1.0000 0.55728  0.44272  0.94272  Biso   1.000  I
  I1914    1.0000 0.94272  0.05728  0.94272  Biso   1.000  I
  I1915    1.0000 0.44272  0.55728  0.94272  Biso   1.000  I
  I1916    1.0000 0.05728  0.55728  0.55728  Biso   1.000  I
  I1917    1.0000 0.05728  0.94272  0.94272  Biso   1.000  I
  I1918    1.0000 0.44272  0.94272  0.55728  Biso   1.000  I
  I1919    1.0000 0.05728  0.94272  0.94272  Biso   1.000  I
  I1920    1.0000 0.55728  0.94272  0.44272  Biso   1.000  I
  I1921    1.0000 0.94272  0.94272  0.05728  Biso   1.000  I
  I1922    1.0000 0.55728  0.94272  0.44272  Biso   1.000  I
  I1923    1.0000 0.94272  0.94272  0.05728  Biso   1.000  I
  I1924    1.0000 0.44272  0.94272  0.55728  Biso   1.000  I
  I1925    1.0000 0.05728  0.94272  0.94272  Biso   1.000  I
  I1926    1.0000 0.44272  0.55728  0.94272  Biso   1.000  I
  I1927    1.0000 0.44272  0.94272  0.55728  Biso   1.000  I
  I1928    1.0000 0.05728  0.94272  0.94272  Biso   1.000  I
  I1929    1.0000 0.55728  0.94272  0.44272  Biso   1.000  I
  I1930    1.0000 0.94272  0.94272  0.05728  Biso   1.000  I
  I1931    1.0000 0.94272  0.55728  0.44272  Biso   1.000  I
  I1932    1.0000 0.55728  0.94272  0.44272  Biso   1.000  I
  I1933    1.0000 0.94272  0.94272  0.05728  Biso   1.000  I
  I1934    1.0000 0.05728  0.55728  0.55728  Biso   1.000  I
  I1935    1.0000 0.44272  0.94272  0.55728  Biso   1.000  I
  I1936    1.0000 0.05728  0.94272  0.94272  Biso   1.000  I
  I1937    1.0000 0.44272  0.55728  0.94272  Biso   1.000  I
  I1938    1.0000 0.44272  0.94272  0.55728  Biso   1.000  I
  I1939    1.0000 0.05728  0.94272  0.94272  Biso   1.000  I
  I1940    1.0000 0.05728  0.55728  0.55728  Biso   1.000  I
  I1941    1.0000 0.44272  0.94272  0.55728  Biso   1.000  I
  I1942    1.0000 0.05728  0.94272  0.94272  Biso   1.000  I
  I1943    1.0000 0.55728  0.94272  0.44272  Biso   1.000  I
  I1944    1.0000 0.94272  0.94272  0.05728  Biso   1.000  I
  I1945    1.0000 0.55728  0.55728  0.05728  Biso   1.000  I
  I1946    1.0000 0.44272  0.94272  0.55728  Biso   1.000  I
  I1947    1.0000 0.05728  0.94272  0.94272  Biso   1.000  I
  I1948    1.0000 0.05728  0.05728  0.05728  Biso   1.000  I
  I1949    1.0000 0.44272  0.44272  0.05728  Biso   1.000  I
  I1950    1.0000 0.55728  0.94272  0.44272  Biso   1.000  I
  I1951    1.0000 0.94272  0.94272  0.05728  Biso   1.000  I
  I1952    1.0000 0.55728  0.55728  0.05728  Biso   1.000  I
  I1953    1.0000 0.94272  0.44272  0.55728  Biso   1.000  I
  I1954    1.0000 0.94272  0.05728  0.94272  Biso   1.000  I
  I1955    1.0000 0.94272  0.94272  0.05728  Biso   1.000  I
  I1956    1.0000 0.55728  0.55728  0.05728  Biso   1.000  I
  I1957    1.0000 0.94272  0.55728  0.44272  Biso   1.000  I
  I1958    1.0000 0.55728  0.94272  0.44272  Biso   1.000  I
  I1959    1.0000 0.94272  0.94272  0.05728  Biso   1.000  I
  I1960    1.0000 0.94272  0.55728  0.44272  Biso   1.000  I
  I1961    1.0000 0.55728  0.05728  0.55728  Biso   1.000  I
  I1962    1.0000 0.55728  0.55728  0.05728  Biso   1.000  I
  I1963    1.0000 0.05728  0.55728  0.55728  Biso   1.000  I
  I1964    1.0000 0.01290  0.51290  0.51290  Biso   1.000  I
  I1965    1.0000 0.51290  0.51290  0.01290  Biso   1.000  I
  I1966    1.0000 0.01290  0.98710  0.98710  Biso   1.000  I
  I1967    1.0000 0.01290  0.51290  0.51290  Biso   1.000  I
  I1968    1.0000 0.48710  0.51290  0.98710  Biso   1.000  I
  I1969    1.0000 0.01290  0.98710  0.98710  Biso   1.000  I
  I1970    1.0000 0.51290  0.48710  0.98710  Biso   1.000  I
  I1971    1.0000 0.01290  0.48710  0.48710  Biso   1.000  I
  I1972    1.0000 0.51290  0.98710  0.48710  Biso   1.000  I
  I1973    1.0000 0.98710  0.98710  0.01290  Biso   1.000  I
  I1974    1.0000 0.48710  0.98710  0.51290  Biso   1.000  I
  I1975    1.0000 0.01290  0.98710  0.98710  Biso   1.000  I
  I1976    1.0000 0.48710  0.98710  0.51290  Biso   1.000  I
  I1977    1.0000 0.01290  0.98710  0.98710  Biso   1.000  I
  I1978    1.0000 0.51290  0.98710  0.48710  Biso   1.000  I
  I1979    1.0000 0.98710  0.98710  0.01290  Biso   1.000  I
  I1980    1.0000 0.51290  0.98710  0.48710  Biso   1.000  I
  I1981    1.0000 0.98710  0.98710  0.01290  Biso   1.000  I
  I1982    1.0000 0.48710  0.98710  0.51290  Biso   1.000  I
  I1983    1.0000 0.01290  0.98710  0.98710  Biso   1.000  I
  I1984    1.0000 0.48710  0.98710  0.51290  Biso   1.000  I
  I1985    1.0000 0.01290  0.98710  0.98710  Biso   1.000  I
  I1986    1.0000 0.01290  0.48710  0.48710  Biso   1.000  I
  I1987    1.0000 0.51290  0.98710  0.48710  Biso   1.000  I
  I1988    1.0000 0.51290  0.48710  0.98710  Biso   1.000  I
  I1989    1.0000 0.51290  0.98710  0.48710  Biso   1.000  I
  I1990    1.0000 0.01290  0.48710  0.48710  Biso   1.000  I
  I1991    1.0000 0.51290  0.98710  0.48710  Biso   1.000  I
  I1992    1.0000 0.48710  0.98710  0.51290  Biso   1.000  I
  I1993    1.0000 0.48710  0.48710  0.01290  Biso   1.000  I
  I1994    1.0000 0.51290  0.98710  0.48710  Biso   1.000  I
  I1995    1.0000 0.98710  0.98710  0.01290  Biso   1.000  I
  I1996    1.0000 0.98710  0.98710  0.01290  Biso   1.000  I
  I1997    1.0000 0.51290  0.51290  0.01290  Biso   1.000  I
  I1998    1.0000 0.48710  0.98710  0.51290  Biso   1.000  I
  I1999    1.0000 0.48710  0.48710  0.01290  Biso   1.000  I
  I2000    1.0000 0.98710  0.51290  0.48710  Biso   1.000  I
  I2001    1.0000 0.98710  0.98710  0.01290  Biso   1.000  I
  I2002    1.0000 0.48710  0.48710  0.01290  Biso   1.000  I
  I2003    1.0000 0.98710  0.48710  0.51290  Biso   1.000  I
  I2004    1.0000 0.48710  0.98710  0.51290  Biso   1.000  I
  I2005    1.0000 0.98710  0.48710  0.51290  Biso   1.000  I
  I2006    1.0000 0.62502  0.12502  0.62502  Biso   1.000  I
  I2007    1.0000 0.62502  0.62502  0.12502  Biso   1.000  I
  I2008    1.0000 0.12502  0.62502  0.62502  Biso   1.000  I
  I2009    1.0000 0.69272  0.19272  0.69272  Biso   1.000  I
  I2010    1.0000 0.69272  0.69272  0.19272  Biso   1.000  I
  I2011    1.0000 0.19272  0.69272  0.69272  Biso   1.000  I
  I2012    1.0000 0.76290  0.23710  0.76290  Biso   1.000  I
  I2013    1.0000 0.73710  0.26290  0.76290  Biso   1.000  I
  I2014    1.0000 0.76290  0.26290  0.73710  Biso   1.000  I
  I2015    1.0000 0.76290  0.73710  0.26290  Biso   1.000  I
  I2016    1.0000 0.76290  0.76290  0.23710  Biso   1.000  I
  I2017    1.0000 0.73710  0.76290  0.26290  Biso   1.000  I
  I2018    1.0000 0.23710  0.76290  0.76290  Biso   1.000  I
  I2019    1.0000 0.26290  0.76290  0.73710  Biso   1.000  I
  I2020    1.0000 0.26290  0.73710  0.76290  Biso   1.000  I
  I2021    1.0000 0.80728  0.30728  0.69272  Biso   1.000  I
  I2022    1.0000 0.69272  0.30728  0.80728  Biso   1.000  I
  I2023    1.0000 0.80728  0.19272  0.80728  Biso   1.000  I
  I2024    1.0000 0.69272  0.80728  0.30728  Biso   1.000  I
  I2025    1.0000 0.80728  0.80728  0.19272  Biso   1.000  I
  I2026    1.0000 0.80728  0.69272  0.30728  Biso   1.000  I
  I2027    1.0000 0.30728  0.69272  0.80728  Biso   1.000  I
  I2028    1.0000 0.30728  0.80728  0.69272  Biso   1.000  I
  I2029    1.0000 0.19272  0.80728  0.80728  Biso   1.000  I
  I2030    1.0000 0.87502  0.37502  0.62502  Biso   1.000  I
  I2031    1.0000 0.73710  0.23710  0.73710  Biso   1.000  I
  I2032    1.0000 0.62502  0.37502  0.87502  Biso   1.000  I
  I2033    1.0000 0.87502  0.12502  0.87502  Biso   1.000  I
  I2034    1.0000 0.62502  0.87502  0.37502  Biso   1.000  I
  I2035    1.0000 0.73710  0.73710  0.23710  Biso   1.000  I
  I2036    1.0000 0.87502  0.87502  0.12502  Biso   1.000  I
  I2037    1.0000 0.87502  0.62502  0.37502  Biso   1.000  I
  I2038    1.0000 0.37502  0.62502  0.87502  Biso   1.000  I
  I2039    1.0000 0.23710  0.73710  0.73710  Biso   1.000  I
  I2040    1.0000 0.37502  0.87502  0.62502  Biso   1.000  I
  I2041    1.0000 0.12502  0.87502  0.87502  Biso   1.000  I
  I2042    1.0000 0.94272  0.44272  0.55728  Biso   1.000  I
  I2043    1.0000 0.55728  0.44272  0.94272  Biso   1.000  I
  I2044    1.0000 0.94272  0.05728  0.94272  Biso   1.000  I
  I2045    1.0000 0.55728  0.94272  0.44272  Biso   1.000  I
  I2046    1.0000 0.94272  0.94272  0.05728  Biso   1.000  I
  I2047    1.0000 0.94272  0.55728  0.44272  Biso   1.000  I
  I2048    1.0000 0.44272  0.55728  0.94272  Biso   1.000  I
  I2049    1.0000 0.44272  0.94272  0.55728  Biso   1.000  I
  I2050    1.0000 0.05728  0.94272  0.94272  Biso   1.000  I
  I2051    1.0000 0.98710  0.51290  0.48710  Biso   1.000  I
  I2052    1.0000 0.48710  0.51290  0.98710  Biso   1.000  I
  I2053    1.0000 0.48710  0.98710  0.51290  Biso   1.000  I
  I2054    1.0000 0.98710  0.48710  0.51290  Biso   1.000  I
  I2055    1.0000 0.51290  0.48710  0.98710  Biso   1.000  I
  I2056    1.0000 0.51290  0.98710  0.48710  Biso   1.000  I
  Ne1      1.0000 0.50000  0.50000  0.50000  Biso   1.000  Ne
  He1      1.0000 0.26654  0.26654  0.73346  Biso   1.000  He
  He2      1.0000 0.72452  0.72452  0.72452  Biso   1.000  He
  He3      1.0000 0.26650  0.26650  0.73350  Biso   1.000  He
  He4      1.0000 0.72515  0.72515  0.72515  Biso   1.000  He
  He5      1.0000 0.72390  0.72390  0.72390  Biso   1.000  He
  He6      1.0000 0.27001  0.27001  0.73000  Biso   1.000  He
  He7      1.0000 0.26353  0.73646  0.26354  Biso   1.000  He
  He8      1.0000 0.72500  0.27504  0.27504  Biso   1.000  He
  He9      1.0000 0.27552  0.72452  0.27552  Biso   1.000  He
  He10     1.0000 0.72817  0.27183  0.27183  Biso   1.000  He
  He11     1.0000 0.53545  0.46459  0.46460  Biso   1.000  He
  He12     1.0000 0.27318  0.72682  0.27318  Biso   1.000  He
  Ar1      1.0000 0.50000  0.50000  0.50000  Biso   1.000  Ar
  Ne2      1.0000 0.25000  0.25000  0.25000  Biso   1.000  Ne
  He13     1.0000 0.18611  0.31389  0.31389  Biso   1.000  He
  He14     1.0000 0.31342  0.18658  0.31342  Biso   1.000  He
  He15     1.0000 0.18345  0.18345  0.18345  Biso   1.000  He
  He16     1.0000 0.31586  0.31586  0.18414  Biso   1.000  He
  Ar2      1.0000 0.25000  0.25000  0.25000  Biso   1.000  Ar
  Ne3      1.0000 0.50000  0.50000  0.00000  Biso   1.000  Ne
  He17     1.0000 0.43455  0.43455  0.06545  Biso   1.000  He
  He18     1.0000 0.56486  0.56486  0.06486  Biso   1.000  He
  He19     1.0000 0.56157  0.43843  0.93843  Biso   1.000  He
  He20     1.0000 0.43456  0.56544  0.93456  Biso   1.000  He
  Ar3      1.0000 0.50000  0.50000  0.00000  Biso   1.000  Ar
  Ne4      1.0000 0.50000  0.00000  0.50000  Biso   1.000  Ne
  He21     1.0000 0.43455  0.93455  0.56545  Biso   1.000  He
  He22     1.0000 0.56486  0.06486  0.56486  Biso   1.000  He
  He23     1.0000 0.56157  0.93843  0.43843  Biso   1.000  He
  He24     1.0000 0.43456  0.06544  0.43456  Biso   1.000  He
  Ar4      1.0000 0.50000  0.00000  0.50000  Biso   1.000  Ar
  Ne5      1.0000 0.00000  0.50000  0.50000  Biso   1.000  Ne
  He25     1.0000 0.93455  0.43455  0.56545  Biso   1.000  He
  He26     1.0000 0.06486  0.56486  0.56486  Biso   1.000  He
  He27     1.0000 0.06157  0.43843  0.43843  Biso   1.000  He
  He28     1.0000 0.93456  0.56544  0.43456  Biso   1.000  He
  Ar5      1.0000 0.00000  0.50000  0.50000  Biso   1.000  Ar
  Ne6      1.0000 0.75000  0.75000  0.25000  Biso   1.000  Ne
  He29     1.0000 0.68611  0.81389  0.31389  Biso   1.000  He
  He30     1.0000 0.81342  0.68658  0.31342  Biso   1.000  He
  He31     1.0000 0.68345  0.68345  0.18345  Biso   1.000  He
  He32     1.0000 0.81586  0.81586  0.18414  Biso   1.000  He
  Ar6      1.0000 0.75000  0.75000  0.25000  Biso   1.000  Ar
  Ne7      1.0000 0.75000  0.25000  0.75000  Biso   1.000  Ne
  He33     1.0000 0.68611  0.31389  0.81389  Biso   1.000  He
  He34     1.0000 0.81342  0.18658  0.81342  Biso   1.000  He
  He35     1.0000 0.68345  0.18345  0.68345  Biso   1.000  He
  He36     1.0000 0.81586  0.31586  0.68414  Biso   1.000  He
  Ar7      1.0000 0.75000  0.25000  0.75000  Biso   1.000  Ar
  Ne8      1.0000 0.25000  0.75000  0.75000  Biso   1.000  Ne
  He37     1.0000 0.18611  0.81389  0.81389  Biso   1.000  He
  He38     1.0000 0.31342  0.68658  0.81342  Biso   1.000  He
  He39     1.0000 0.18345  0.68345  0.68345  Biso   1.000  He
  He40     1.0000 0.31586  0.81586  0.68414  Biso   1.000  He
  Ar8      1.0000 0.25000  0.75000  0.75000  Biso   1.000  Ar
