data_image0
_cell_length_a       24.893
_cell_length_b       24.893
_cell_length_c       24.893
_cell_angle_alpha    90
_cell_angle_beta     90
_cell_angle_gamma    90

_symmetry_space_group_name_H-M    "P 1"
_symmetry_int_tables_number       1

loop_
  _symmetry_equiv_pos_as_xyz
  'x, y, z'

loop_
  _atom_site_label
  _atom_site_occupancy
  _atom_site_fract_x
  _atom_site_fract_y
  _atom_site_fract_z
  _atom_site_thermal_displace_type
  _atom_site_B_iso_or_equiv
  _atom_site_type_symbol
  C1       1.0000 0.50609  0.36938  0.47270  Biso   1.000  C
  C2       1.0000 0.54308  0.31981  0.46049  Biso   1.000  C
  H1       1.0000 0.52448  0.40240  0.46310  Biso   1.000  H
  H2       1.0000 0.47339  0.36709  0.45169  Biso   1.000  H
  C3       1.0000 0.49391  0.36938  0.52730  Biso   1.000  C
  C4       1.0000 0.50958  0.26851  0.47162  Biso   1.000  C
  H3       1.0000 0.55481  0.32049  0.42329  Biso   1.000  H
  H4       1.0000 0.57470  0.32061  0.48339  Biso   1.000  H
  C5       1.0000 0.45692  0.31981  0.53951  Biso   1.000  C
  H5       1.0000 0.47552  0.40240  0.53690  Biso   1.000  H
  H6       1.0000 0.52661  0.36709  0.54831  Biso   1.000  H
  N1       1.0000 0.54521  0.22231  0.46338  Biso   1.000  N
  H7       1.0000 0.47909  0.26658  0.44691  Biso   1.000  H
  C6       1.0000 0.49042  0.26851  0.52838  Biso   1.000  C
  H8       1.0000 0.44519  0.32049  0.57671  Biso   1.000  H
  H9       1.0000 0.42530  0.32061  0.51661  Biso   1.000  H
  C7       1.0000 0.53272  0.18849  0.42871  Biso   1.000  C
  N2       1.0000 0.45479  0.22231  0.53662  Biso   1.000  N
  H10      1.0000 0.52091  0.26658  0.55309  Biso   1.000  H
  C8       1.0000 0.56618  0.14181  0.41530  Biso   1.000  C
  H11      1.0000 0.50038  0.19311  0.41040  Biso   1.000  H
  C9       1.0000 0.46728  0.18849  0.57129  Biso   1.000  C
  C10      1.0000 0.61049  0.12839  0.44599  Biso   1.000  C
  C11      1.0000 0.55401  0.11051  0.37159  Biso   1.000  C
  C12      1.0000 0.43382  0.14181  0.58470  Biso   1.000  C
  H12      1.0000 0.49962  0.19311  0.58960  Biso   1.000  H
  H13      1.0000 0.61929  0.14940  0.47560  Biso   1.000  H
  C13      1.0000 0.64179  0.08468  0.43382  Biso   1.000  C
  H14      1.0000 0.52440  0.11931  0.35058  Biso   1.000  H
  C14      1.0000 0.58470  0.06620  0.35821  Biso   1.000  C
  C15      1.0000 0.38951  0.12839  0.55401  Biso   1.000  C
  C16      1.0000 0.44599  0.11051  0.62841  Biso   1.000  C
  C17      1.0000 0.62841  0.05399  0.38951  Biso   1.000  C
  C18      1.0000 0.68851  0.07131  0.46728  Biso   1.000  C
  C19      1.0000 0.57129  0.03270  0.31149  Biso   1.000  C
  H15      1.0000 0.38071  0.14940  0.52440  Biso   1.000  H
  C20      1.0000 0.35821  0.08468  0.56618  Biso   1.000  C
  H16      1.0000 0.47560  0.11931  0.64942  Biso   1.000  H
  C21      1.0000 0.41530  0.06620  0.64179  Biso   1.000  C
  H17      1.0000 0.64942  0.02438  0.38071  Biso   1.000  H
  N3       1.0000 0.72229  0.03660  0.45479  Biso   1.000  N
  H18      1.0000 0.69309  0.08958  0.49962  Biso   1.000  H
  N4       1.0000 0.53662  0.04519  0.27771  Biso   1.000  N
  H19      1.0000 0.58960  0.00040  0.30691  Biso   1.000  H
  C22      1.0000 0.37159  0.05399  0.61049  Biso   1.000  C
  C23      1.0000 0.31149  0.07131  0.53272  Biso   1.000  C
  C24      1.0000 0.42871  0.03270  0.68851  Biso   1.000  C
  C25      1.0000 0.76849  0.02836  0.49042  Biso   1.000  C
  C26      1.0000 0.52838  0.00960  0.23151  Biso   1.000  C
  H20      1.0000 0.35058  0.02438  0.61929  Biso   1.000  H
  N5       1.0000 0.27771  0.03660  0.54521  Biso   1.000  N
  H21      1.0000 0.30691  0.08958  0.50038  Biso   1.000  H
  N6       1.0000 0.46338  0.04519  0.72229  Biso   1.000  N
  H22      1.0000 0.41040  0.00040  0.69309  Biso   1.000  H
  H23      1.0000 0.76660  0.05311  0.52091  Biso   1.000  H
  C27      1.0000 0.81979  0.03949  0.45692  Biso   1.000  C
  C28      1.0000 0.76849  0.97164  0.50958  Biso   1.000  C
  C29      1.0000 0.53951  0.04310  0.18021  Biso   1.000  C
  C30      1.0000 0.47162  0.99040  0.23151  Biso   1.000  C
  H24      1.0000 0.55309  0.97911  0.23340  Biso   1.000  H
  C31      1.0000 0.23151  0.02836  0.50958  Biso   1.000  C
  C32      1.0000 0.47162  0.00960  0.76849  Biso   1.000  C
  H25      1.0000 0.82051  0.07669  0.44519  Biso   1.000  H
  H26      1.0000 0.82059  0.01659  0.42530  Biso   1.000  H
  C33      1.0000 0.86940  0.02732  0.49391  Biso   1.000  C
  N7       1.0000 0.72229  0.96340  0.54521  Biso   1.000  N
  H27      1.0000 0.76660  0.94689  0.47909  Biso   1.000  H
  C34      1.0000 0.81979  0.96051  0.54308  Biso   1.000  C
  H28      1.0000 0.57671  0.05479  0.17949  Biso   1.000  H
  H29      1.0000 0.51661  0.07472  0.17941  Biso   1.000  H
  C35      1.0000 0.52730  0.00611  0.13060  Biso   1.000  C
  H30      1.0000 0.44691  0.02089  0.23340  Biso   1.000  H
  N8       1.0000 0.46338  0.95481  0.27771  Biso   1.000  N
  C36      1.0000 0.46049  0.95690  0.18021  Biso   1.000  C
  H31      1.0000 0.23340  0.05311  0.47909  Biso   1.000  H
  C37      1.0000 0.18021  0.03949  0.54308  Biso   1.000  C
  C38      1.0000 0.23151  0.97164  0.49042  Biso   1.000  C
  C39      1.0000 0.46049  0.04310  0.81979  Biso   1.000  C
  C40      1.0000 0.52838  0.99040  0.76849  Biso   1.000  C
  H32      1.0000 0.44691  0.97911  0.76660  Biso   1.000  H
  H33      1.0000 0.90238  0.03692  0.47552  Biso   1.000  H
  H34      1.0000 0.86711  0.04829  0.52661  Biso   1.000  H
  C41      1.0000 0.86940  0.97268  0.50609  Biso   1.000  C
  C42      1.0000 0.68851  0.92869  0.53272  Biso   1.000  C
  H35      1.0000 0.82051  0.92331  0.55481  Biso   1.000  H
  H36      1.0000 0.82059  0.98341  0.57470  Biso   1.000  H
  H37      1.0000 0.53690  0.02450  0.09762  Biso   1.000  H
  C43      1.0000 0.47270  0.99389  0.13060  Biso   1.000  C
  H38      1.0000 0.54831  0.97341  0.13289  Biso   1.000  H
  C44      1.0000 0.42871  0.96730  0.31149  Biso   1.000  C
  H39      1.0000 0.42329  0.94521  0.17949  Biso   1.000  H
  H40      1.0000 0.48339  0.92528  0.17941  Biso   1.000  H
  H41      1.0000 0.17949  0.07669  0.55481  Biso   1.000  H
  H42      1.0000 0.17941  0.01659  0.57470  Biso   1.000  H
  C45      1.0000 0.13060  0.02732  0.50609  Biso   1.000  C
  N9       1.0000 0.27771  0.96340  0.45479  Biso   1.000  N
  H43      1.0000 0.23340  0.94689  0.52091  Biso   1.000  H
  C46      1.0000 0.18021  0.96051  0.45692  Biso   1.000  C
  H44      1.0000 0.42329  0.05479  0.82051  Biso   1.000  H
  H45      1.0000 0.48339  0.07472  0.82059  Biso   1.000  H
  C47      1.0000 0.47270  0.00611  0.86940  Biso   1.000  C
  H46      1.0000 0.55309  0.02089  0.76660  Biso   1.000  H
  N10      1.0000 0.53662  0.95481  0.72229  Biso   1.000  N
  C48      1.0000 0.53951  0.95690  0.81979  Biso   1.000  C
  H47      1.0000 0.90238  0.96308  0.52448  Biso   1.000  H
  H48      1.0000 0.86711  0.95171  0.47339  Biso   1.000  H
  C49      1.0000 0.64179  0.91532  0.56618  Biso   1.000  C
  H49      1.0000 0.69309  0.91042  0.50038  Biso   1.000  H
  H50      1.0000 0.45169  0.02659  0.13289  Biso   1.000  H
  H51      1.0000 0.46310  0.97550  0.09762  Biso   1.000  H
  C50      1.0000 0.41530  0.93380  0.35821  Biso   1.000  C
  H52      1.0000 0.41040  0.99960  0.30691  Biso   1.000  H
  H53      1.0000 0.09762  0.03692  0.52448  Biso   1.000  H
  H54      1.0000 0.13289  0.04829  0.47339  Biso   1.000  H
  C51      1.0000 0.13060  0.97268  0.49391  Biso   1.000  C
  C52      1.0000 0.31149  0.92869  0.46728  Biso   1.000  C
  H55      1.0000 0.17949  0.92331  0.44519  Biso   1.000  H
  H56      1.0000 0.17941  0.98341  0.42530  Biso   1.000  H
  H57      1.0000 0.46310  0.02450  0.90238  Biso   1.000  H
  C53      1.0000 0.52730  0.99389  0.86940  Biso   1.000  C
  H58      1.0000 0.45169  0.97341  0.86711  Biso   1.000  H
  C54      1.0000 0.57129  0.96730  0.68851  Biso   1.000  C
  H59      1.0000 0.57671  0.94521  0.82051  Biso   1.000  H
  H60      1.0000 0.51661  0.92528  0.82059  Biso   1.000  H
  C55      1.0000 0.62841  0.94601  0.61049  Biso   1.000  C
  C56      1.0000 0.61049  0.87161  0.55401  Biso   1.000  C
  C57      1.0000 0.44599  0.88949  0.37159  Biso   1.000  C
  C58      1.0000 0.37159  0.94601  0.38951  Biso   1.000  C
  H61      1.0000 0.09762  0.96308  0.47552  Biso   1.000  H
  H62      1.0000 0.13289  0.95171  0.52661  Biso   1.000  H
  C59      1.0000 0.35821  0.91532  0.43382  Biso   1.000  C
  H63      1.0000 0.30691  0.91042  0.49962  Biso   1.000  H
  H64      1.0000 0.54831  0.02659  0.86711  Biso   1.000  H
  H65      1.0000 0.53690  0.97550  0.90238  Biso   1.000  H
  C60      1.0000 0.58470  0.93380  0.64179  Biso   1.000  C
  H66      1.0000 0.58960  0.99960  0.69309  Biso   1.000  H
  H67      1.0000 0.64942  0.97562  0.61929  Biso   1.000  H
  H68      1.0000 0.61929  0.85060  0.52440  Biso   1.000  H
  C61      1.0000 0.56618  0.85819  0.58470  Biso   1.000  C
  H69      1.0000 0.47560  0.88069  0.35058  Biso   1.000  H
  C62      1.0000 0.43382  0.85819  0.41530  Biso   1.000  C
  H70      1.0000 0.35058  0.97562  0.38071  Biso   1.000  H
  C63      1.0000 0.38951  0.87161  0.44599  Biso   1.000  C
  C64      1.0000 0.55401  0.88949  0.62841  Biso   1.000  C
  C65      1.0000 0.53272  0.81151  0.57129  Biso   1.000  C
  C66      1.0000 0.46728  0.81151  0.42871  Biso   1.000  C
  H71      1.0000 0.38071  0.85060  0.47560  Biso   1.000  H
  H72      1.0000 0.52440  0.88069  0.64942  Biso   1.000  H
  N11      1.0000 0.54521  0.77769  0.53662  Biso   1.000  N
  H73      1.0000 0.50038  0.80689  0.58960  Biso   1.000  H
  N12      1.0000 0.45479  0.77769  0.46338  Biso   1.000  N
  H74      1.0000 0.49962  0.80689  0.41040  Biso   1.000  H
  C67      1.0000 0.50958  0.73149  0.52838  Biso   1.000  C
  C68      1.0000 0.49042  0.73149  0.47162  Biso   1.000  C
  H75      1.0000 0.47909  0.73342  0.55309  Biso   1.000  H
  C69      1.0000 0.54308  0.68019  0.53951  Biso   1.000  C
  H76      1.0000 0.52091  0.73342  0.44691  Biso   1.000  H
  C70      1.0000 0.45692  0.68019  0.46049  Biso   1.000  C
  H77      1.0000 0.55481  0.67951  0.57671  Biso   1.000  H
  H78      1.0000 0.57470  0.67939  0.51661  Biso   1.000  H
  C71      1.0000 0.50609  0.63062  0.52730  Biso   1.000  C
  H79      1.0000 0.44519  0.67951  0.42329  Biso   1.000  H
  H80      1.0000 0.42530  0.67939  0.48339  Biso   1.000  H
  C72      1.0000 0.49391  0.63062  0.47270  Biso   1.000  C
  H81      1.0000 0.52448  0.59760  0.53690  Biso   1.000  H
  H82      1.0000 0.47339  0.63291  0.54831  Biso   1.000  H
  H83      1.0000 0.47552  0.59760  0.46310  Biso   1.000  H
  H84      1.0000 0.52661  0.63291  0.45169  Biso   1.000  H
  C73      1.0000 0.50609  0.36938  0.47270  Biso   1.000  C
  C74      1.0000 0.54308  0.31981  0.46049  Biso   1.000  C
  H85      1.0000 0.52448  0.40240  0.46310  Biso   1.000  H
  H86      1.0000 0.47339  0.36709  0.45169  Biso   1.000  H
  C75      1.0000 0.49391  0.36938  0.52730  Biso   1.000  C
  C76      1.0000 0.50958  0.26851  0.47162  Biso   1.000  C
  H87      1.0000 0.55481  0.32049  0.42329  Biso   1.000  H
  H88      1.0000 0.57470  0.32061  0.48339  Biso   1.000  H
  C77      1.0000 0.45692  0.31981  0.53951  Biso   1.000  C
  H89      1.0000 0.47552  0.40240  0.53690  Biso   1.000  H
  H90      1.0000 0.52661  0.36709  0.54831  Biso   1.000  H
  N13      1.0000 0.54521  0.22231  0.46338  Biso   1.000  N
  H91      1.0000 0.47909  0.26658  0.44691  Biso   1.000  H
  C78      1.0000 0.49042  0.26851  0.52838  Biso   1.000  C
  H92      1.0000 0.44519  0.32049  0.57671  Biso   1.000  H
  H93      1.0000 0.42530  0.32061  0.51661  Biso   1.000  H
  C79      1.0000 0.53272  0.18849  0.42871  Biso   1.000  C
  N14      1.0000 0.45479  0.22231  0.53662  Biso   1.000  N
  H94      1.0000 0.52091  0.26658  0.55309  Biso   1.000  H
  C80      1.0000 0.56618  0.14181  0.41530  Biso   1.000  C
  H95      1.0000 0.50038  0.19311  0.41040  Biso   1.000  H
  C81      1.0000 0.46728  0.18849  0.57129  Biso   1.000  C
  C82      1.0000 0.61049  0.12839  0.44599  Biso   1.000  C
  C83      1.0000 0.55401  0.11051  0.37159  Biso   1.000  C
  C84      1.0000 0.43382  0.14181  0.58470  Biso   1.000  C
  H96      1.0000 0.49962  0.19311  0.58960  Biso   1.000  H
  H97      1.0000 0.61929  0.14940  0.47560  Biso   1.000  H
  C85      1.0000 0.64179  0.08468  0.43382  Biso   1.000  C
  H98      1.0000 0.52440  0.11931  0.35058  Biso   1.000  H
  C86      1.0000 0.58470  0.06620  0.35821  Biso   1.000  C
  C87      1.0000 0.38951  0.12839  0.55401  Biso   1.000  C
  C88      1.0000 0.44599  0.11051  0.62841  Biso   1.000  C
  C89      1.0000 0.62841  0.05399  0.38951  Biso   1.000  C
  C90      1.0000 0.68851  0.07131  0.46728  Biso   1.000  C
  C91      1.0000 0.57129  0.03270  0.31149  Biso   1.000  C
  H99      1.0000 0.38071  0.14940  0.52440  Biso   1.000  H
  C92      1.0000 0.35821  0.08468  0.56618  Biso   1.000  C
  H100     1.0000 0.47560  0.11931  0.64942  Biso   1.000  H
  C93      1.0000 0.41530  0.06620  0.64179  Biso   1.000  C
  H101     1.0000 0.64942  0.02438  0.38071  Biso   1.000  H
  N15      1.0000 0.72229  0.03660  0.45479  Biso   1.000  N
  H102     1.0000 0.69309  0.08958  0.49962  Biso   1.000  H
  N16      1.0000 0.53662  0.04519  0.27771  Biso   1.000  N
  H103     1.0000 0.58960  0.00040  0.30691  Biso   1.000  H
  C94      1.0000 0.37159  0.05399  0.61049  Biso   1.000  C
  C95      1.0000 0.31149  0.07131  0.53272  Biso   1.000  C
  C96      1.0000 0.42871  0.03270  0.68851  Biso   1.000  C
  C97      1.0000 0.76849  0.02836  0.49042  Biso   1.000  C
  C98      1.0000 0.52838  0.00960  0.23151  Biso   1.000  C
  H104     1.0000 0.35058  0.02438  0.61929  Biso   1.000  H
  N17      1.0000 0.27771  0.03660  0.54521  Biso   1.000  N
  H105     1.0000 0.30691  0.08958  0.50038  Biso   1.000  H
  N18      1.0000 0.46338  0.04519  0.72229  Biso   1.000  N
  H106     1.0000 0.41040  0.00040  0.69309  Biso   1.000  H
  H107     1.0000 0.76660  0.05311  0.52091  Biso   1.000  H
  C99      1.0000 0.81979  0.03949  0.45692  Biso   1.000  C
  C100     1.0000 0.76849  0.97164  0.50958  Biso   1.000  C
  C101     1.0000 0.53951  0.04310  0.18021  Biso   1.000  C
  C102     1.0000 0.47162  0.99040  0.23151  Biso   1.000  C
  H108     1.0000 0.55309  0.97911  0.23340  Biso   1.000  H
  C103     1.0000 0.23151  0.02836  0.50958  Biso   1.000  C
  C104     1.0000 0.47162  0.00960  0.76849  Biso   1.000  C
  H109     1.0000 0.82051  0.07669  0.44519  Biso   1.000  H
  H110     1.0000 0.82059  0.01659  0.42530  Biso   1.000  H
  C105     1.0000 0.86940  0.02732  0.49391  Biso   1.000  C
  N19      1.0000 0.72229  0.96340  0.54521  Biso   1.000  N
  H111     1.0000 0.76660  0.94689  0.47909  Biso   1.000  H
  C106     1.0000 0.81979  0.96051  0.54308  Biso   1.000  C
  H112     1.0000 0.57671  0.05479  0.17949  Biso   1.000  H
  H113     1.0000 0.51661  0.07472  0.17941  Biso   1.000  H
  C107     1.0000 0.52730  0.00611  0.13060  Biso   1.000  C
  H114     1.0000 0.44691  0.02089  0.23340  Biso   1.000  H
  N20      1.0000 0.46338  0.95481  0.27771  Biso   1.000  N
  C108     1.0000 0.46049  0.95690  0.18021  Biso   1.000  C
  H115     1.0000 0.23340  0.05311  0.47909  Biso   1.000  H
  C109     1.0000 0.18021  0.03949  0.54308  Biso   1.000  C
  C110     1.0000 0.23151  0.97164  0.49042  Biso   1.000  C
  C111     1.0000 0.46049  0.04310  0.81979  Biso   1.000  C
  C112     1.0000 0.52838  0.99040  0.76849  Biso   1.000  C
  H116     1.0000 0.44691  0.97911  0.76660  Biso   1.000  H
  H117     1.0000 0.90238  0.03692  0.47552  Biso   1.000  H
  H118     1.0000 0.86711  0.04829  0.52661  Biso   1.000  H
  C113     1.0000 0.86940  0.97268  0.50609  Biso   1.000  C
  C114     1.0000 0.68851  0.92869  0.53272  Biso   1.000  C
  H119     1.0000 0.82051  0.92331  0.55481  Biso   1.000  H
  H120     1.0000 0.82059  0.98341  0.57470  Biso   1.000  H
  H121     1.0000 0.53690  0.02450  0.09762  Biso   1.000  H
  C115     1.0000 0.47270  0.99389  0.13060  Biso   1.000  C
  H122     1.0000 0.54831  0.97341  0.13289  Biso   1.000  H
  C116     1.0000 0.42871  0.96730  0.31149  Biso   1.000  C
  H123     1.0000 0.42329  0.94521  0.17949  Biso   1.000  H
  H124     1.0000 0.48339  0.92528  0.17941  Biso   1.000  H
  H125     1.0000 0.17949  0.07669  0.55481  Biso   1.000  H
  H126     1.0000 0.17941  0.01659  0.57470  Biso   1.000  H
  C117     1.0000 0.13060  0.02732  0.50609  Biso   1.000  C
  N21      1.0000 0.27771  0.96340  0.45479  Biso   1.000  N
  H127     1.0000 0.23340  0.94689  0.52091  Biso   1.000  H
  C118     1.0000 0.18021  0.96051  0.45692  Biso   1.000  C
  H128     1.0000 0.42329  0.05479  0.82051  Biso   1.000  H
  H129     1.0000 0.48339  0.07472  0.82059  Biso   1.000  H
  C119     1.0000 0.47270  0.00611  0.86940  Biso   1.000  C
  H130     1.0000 0.55309  0.02089  0.76660  Biso   1.000  H
  N22      1.0000 0.53662  0.95481  0.72229  Biso   1.000  N
  C120     1.0000 0.53951  0.95690  0.81979  Biso   1.000  C
  H131     1.0000 0.90238  0.96308  0.52448  Biso   1.000  H
  H132     1.0000 0.86711  0.95171  0.47339  Biso   1.000  H
  C121     1.0000 0.64179  0.91532  0.56618  Biso   1.000  C
  H133     1.0000 0.69309  0.91042  0.50038  Biso   1.000  H
  H134     1.0000 0.45169  0.02659  0.13289  Biso   1.000  H
  H135     1.0000 0.46310  0.97550  0.09762  Biso   1.000  H
  C122     1.0000 0.41530  0.93380  0.35821  Biso   1.000  C
  H136     1.0000 0.41040  0.99960  0.30691  Biso   1.000  H
  H137     1.0000 0.09762  0.03692  0.52448  Biso   1.000  H
  H138     1.0000 0.13289  0.04829  0.47339  Biso   1.000  H
  C123     1.0000 0.13060  0.97268  0.49391  Biso   1.000  C
  C124     1.0000 0.31149  0.92869  0.46728  Biso   1.000  C
  H139     1.0000 0.17949  0.92331  0.44519  Biso   1.000  H
  H140     1.0000 0.17941  0.98341  0.42530  Biso   1.000  H
  H141     1.0000 0.46310  0.02450  0.90238  Biso   1.000  H
  C125     1.0000 0.52730  0.99389  0.86940  Biso   1.000  C
  H142     1.0000 0.45169  0.97341  0.86711  Biso   1.000  H
  C126     1.0000 0.57129  0.96730  0.68851  Biso   1.000  C
  H143     1.0000 0.57671  0.94521  0.82051  Biso   1.000  H
  H144     1.0000 0.51661  0.92528  0.82059  Biso   1.000  H
  C127     1.0000 0.62841  0.94601  0.61049  Biso   1.000  C
  C128     1.0000 0.61049  0.87161  0.55401  Biso   1.000  C
  C129     1.0000 0.44599  0.88949  0.37159  Biso   1.000  C
  C130     1.0000 0.37159  0.94601  0.38951  Biso   1.000  C
  H145     1.0000 0.09762  0.96308  0.47552  Biso   1.000  H
  H146     1.0000 0.13289  0.95171  0.52661  Biso   1.000  H
  C131     1.0000 0.35821  0.91532  0.43382  Biso   1.000  C
  H147     1.0000 0.30691  0.91042  0.49962  Biso   1.000  H
  H148     1.0000 0.54831  0.02659  0.86711  Biso   1.000  H
  H149     1.0000 0.53690  0.97550  0.90238  Biso   1.000  H
  C132     1.0000 0.58470  0.93380  0.64179  Biso   1.000  C
  H150     1.0000 0.58960  0.99960  0.69309  Biso   1.000  H
  H151     1.0000 0.64942  0.97562  0.61929  Biso   1.000  H
  H152     1.0000 0.61929  0.85060  0.52440  Biso   1.000  H
  C133     1.0000 0.56618  0.85819  0.58470  Biso   1.000  C
  H153     1.0000 0.47560  0.88069  0.35058  Biso   1.000  H
  C134     1.0000 0.43382  0.85819  0.41530  Biso   1.000  C
  H154     1.0000 0.35058  0.97562  0.38071  Biso   1.000  H
  C135     1.0000 0.38951  0.87161  0.44599  Biso   1.000  C
  C136     1.0000 0.55401  0.88949  0.62841  Biso   1.000  C
  C137     1.0000 0.53272  0.81151  0.57129  Biso   1.000  C
  C138     1.0000 0.46728  0.81151  0.42871  Biso   1.000  C
  H155     1.0000 0.38071  0.85060  0.47560  Biso   1.000  H
  H156     1.0000 0.52440  0.88069  0.64942  Biso   1.000  H
  N23      1.0000 0.54521  0.77769  0.53662  Biso   1.000  N
  H157     1.0000 0.50038  0.80689  0.58960  Biso   1.000  H
  N24      1.0000 0.45479  0.77769  0.46338  Biso   1.000  N
  H158     1.0000 0.49962  0.80689  0.41040  Biso   1.000  H
  C139     1.0000 0.50958  0.73149  0.52838  Biso   1.000  C
  C140     1.0000 0.49042  0.73149  0.47162  Biso   1.000  C
  H159     1.0000 0.47909  0.73342  0.55309  Biso   1.000  H
  C141     1.0000 0.54308  0.68019  0.53951  Biso   1.000  C
  H160     1.0000 0.52091  0.73342  0.44691  Biso   1.000  H
  C142     1.0000 0.45692  0.68019  0.46049  Biso   1.000  C
  H161     1.0000 0.55481  0.67951  0.57671  Biso   1.000  H
  H162     1.0000 0.57470  0.67939  0.51661  Biso   1.000  H
  C143     1.0000 0.50609  0.63062  0.52730  Biso   1.000  C
  H163     1.0000 0.44519  0.67951  0.42329  Biso   1.000  H
  H164     1.0000 0.42530  0.67939  0.48339  Biso   1.000  H
  C144     1.0000 0.49391  0.63062  0.47270  Biso   1.000  C
  H165     1.0000 0.52448  0.59760  0.53690  Biso   1.000  H
  H166     1.0000 0.47339  0.63291  0.54831  Biso   1.000  H
  H167     1.0000 0.47552  0.59760  0.46310  Biso   1.000  H
  H168     1.0000 0.52661  0.63291  0.45169  Biso   1.000  H
  C145     1.0000 0.47270  0.50609  0.36938  Biso   1.000  C
  C146     1.0000 0.46049  0.54308  0.31981  Biso   1.000  C
  C147     1.0000 0.52730  0.49391  0.36938  Biso   1.000  C
  H169     1.0000 0.46310  0.52448  0.40240  Biso   1.000  H
  H170     1.0000 0.45169  0.47339  0.36709  Biso   1.000  H
  C148     1.0000 0.47162  0.50958  0.26851  Biso   1.000  C
  H171     1.0000 0.42329  0.55481  0.32049  Biso   1.000  H
  H172     1.0000 0.48339  0.57470  0.32061  Biso   1.000  H
  C149     1.0000 0.53951  0.45692  0.31981  Biso   1.000  C
  H173     1.0000 0.53690  0.47552  0.40240  Biso   1.000  H
  H174     1.0000 0.54831  0.52661  0.36709  Biso   1.000  H
  C150     1.0000 0.52838  0.49042  0.26851  Biso   1.000  C
  N25      1.0000 0.46338  0.54521  0.22231  Biso   1.000  N
  H175     1.0000 0.44691  0.47909  0.26658  Biso   1.000  H
  H176     1.0000 0.57671  0.44519  0.32049  Biso   1.000  H
  H177     1.0000 0.51661  0.42530  0.32061  Biso   1.000  H
  N26      1.0000 0.53662  0.45479  0.22231  Biso   1.000  N
  H178     1.0000 0.55309  0.52091  0.26658  Biso   1.000  H
  C151     1.0000 0.42871  0.53272  0.18849  Biso   1.000  C
  C152     1.0000 0.57129  0.46728  0.18849  Biso   1.000  C
  C153     1.0000 0.41530  0.56618  0.14181  Biso   1.000  C
  H179     1.0000 0.41040  0.50038  0.19311  Biso   1.000  H
  C154     1.0000 0.58470  0.43382  0.14181  Biso   1.000  C
  H180     1.0000 0.58960  0.49962  0.19311  Biso   1.000  H
  C155     1.0000 0.37159  0.55401  0.11051  Biso   1.000  C
  C156     1.0000 0.44599  0.61049  0.12839  Biso   1.000  C
  C157     1.0000 0.55401  0.38951  0.12839  Biso   1.000  C
  C158     1.0000 0.62841  0.44599  0.11051  Biso   1.000  C
  H181     1.0000 0.35058  0.52440  0.11931  Biso   1.000  H
  C159     1.0000 0.35821  0.58470  0.06620  Biso   1.000  C
  H182     1.0000 0.47560  0.61929  0.14940  Biso   1.000  H
  C160     1.0000 0.43382  0.64179  0.08468  Biso   1.000  C
  C161     1.0000 0.56618  0.35821  0.08468  Biso   1.000  C
  H183     1.0000 0.52440  0.38071  0.14940  Biso   1.000  H
  C162     1.0000 0.64179  0.41530  0.06620  Biso   1.000  C
  H184     1.0000 0.64942  0.47560  0.11931  Biso   1.000  H
  C163     1.0000 0.38951  0.62841  0.05399  Biso   1.000  C
  C164     1.0000 0.31149  0.57129  0.03270  Biso   1.000  C
  C165     1.0000 0.46728  0.68851  0.07131  Biso   1.000  C
  C166     1.0000 0.53272  0.31149  0.07131  Biso   1.000  C
  C167     1.0000 0.61049  0.37159  0.05399  Biso   1.000  C
  C168     1.0000 0.68851  0.42871  0.03270  Biso   1.000  C
  H185     1.0000 0.38071  0.64942  0.02438  Biso   1.000  H
  N27      1.0000 0.27771  0.53662  0.04519  Biso   1.000  N
  H186     1.0000 0.30691  0.58960  0.00040  Biso   1.000  H
  N28      1.0000 0.45479  0.72229  0.03660  Biso   1.000  N
  H187     1.0000 0.49962  0.69309  0.08958  Biso   1.000  H
  N29      1.0000 0.54521  0.27771  0.03660  Biso   1.000  N
  H188     1.0000 0.50038  0.30691  0.08958  Biso   1.000  H
  H189     1.0000 0.61929  0.35058  0.02438  Biso   1.000  H
  N30      1.0000 0.72229  0.46338  0.04519  Biso   1.000  N
  H190     1.0000 0.69309  0.41040  0.00040  Biso   1.000  H
  C169     1.0000 0.23151  0.52838  0.00960  Biso   1.000  C
  C170     1.0000 0.49042  0.76849  0.02836  Biso   1.000  C
  C171     1.0000 0.50958  0.23151  0.02836  Biso   1.000  C
  C172     1.0000 0.76849  0.47162  0.00960  Biso   1.000  C
  C173     1.0000 0.23151  0.47162  0.99040  Biso   1.000  C
  C174     1.0000 0.18021  0.53951  0.04310  Biso   1.000  C
  H191     1.0000 0.23340  0.55309  0.97911  Biso   1.000  H
  C175     1.0000 0.50958  0.76849  0.97164  Biso   1.000  C
  H192     1.0000 0.52091  0.76660  0.05311  Biso   1.000  H
  C176     1.0000 0.45692  0.81979  0.03949  Biso   1.000  C
  H193     1.0000 0.47909  0.23340  0.05311  Biso   1.000  H
  C177     1.0000 0.54308  0.18021  0.03949  Biso   1.000  C
  C178     1.0000 0.49042  0.23151  0.97164  Biso   1.000  C
  C179     1.0000 0.81979  0.46049  0.04310  Biso   1.000  C
  C180     1.0000 0.76849  0.52838  0.99040  Biso   1.000  C
  H194     1.0000 0.76660  0.44691  0.97911  Biso   1.000  H
  N31      1.0000 0.27771  0.46338  0.95481  Biso   1.000  N
  H195     1.0000 0.23340  0.44691  0.02089  Biso   1.000  H
  C181     1.0000 0.18021  0.46049  0.95690  Biso   1.000  C
  H196     1.0000 0.17949  0.57671  0.05479  Biso   1.000  H
  H197     1.0000 0.17941  0.51661  0.07472  Biso   1.000  H
  C182     1.0000 0.13060  0.52730  0.00611  Biso   1.000  C
  N32      1.0000 0.54521  0.72229  0.96340  Biso   1.000  N
  H198     1.0000 0.47909  0.76660  0.94689  Biso   1.000  H
  C183     1.0000 0.54308  0.81979  0.96051  Biso   1.000  C
  H199     1.0000 0.44519  0.82051  0.07669  Biso   1.000  H
  H200     1.0000 0.42530  0.82059  0.01659  Biso   1.000  H
  C184     1.0000 0.49391  0.86940  0.02732  Biso   1.000  C
  H201     1.0000 0.55481  0.17949  0.07669  Biso   1.000  H
  H202     1.0000 0.57470  0.17941  0.01659  Biso   1.000  H
  C185     1.0000 0.50609  0.13060  0.02732  Biso   1.000  C
  N33      1.0000 0.45479  0.27771  0.96340  Biso   1.000  N
  H203     1.0000 0.52091  0.23340  0.94689  Biso   1.000  H
  C186     1.0000 0.45692  0.18021  0.96051  Biso   1.000  C
  H204     1.0000 0.82051  0.42329  0.05479  Biso   1.000  H
  H205     1.0000 0.82059  0.48339  0.07472  Biso   1.000  H
  C187     1.0000 0.86940  0.47270  0.00611  Biso   1.000  C
  H206     1.0000 0.76660  0.55309  0.02089  Biso   1.000  H
  N34      1.0000 0.72229  0.53662  0.95481  Biso   1.000  N
  C188     1.0000 0.81979  0.53951  0.95690  Biso   1.000  C
  C189     1.0000 0.31149  0.42871  0.96730  Biso   1.000  C
  H207     1.0000 0.17949  0.42329  0.94521  Biso   1.000  H
  H208     1.0000 0.17941  0.48339  0.92528  Biso   1.000  H
  C190     1.0000 0.13060  0.47270  0.99389  Biso   1.000  C
  H209     1.0000 0.09762  0.53690  0.02450  Biso   1.000  H
  H210     1.0000 0.13289  0.54831  0.97341  Biso   1.000  H
  C191     1.0000 0.53272  0.68851  0.92869  Biso   1.000  C
  H211     1.0000 0.55481  0.82051  0.92331  Biso   1.000  H
  H212     1.0000 0.57470  0.82059  0.98341  Biso   1.000  H
  C192     1.0000 0.50609  0.86940  0.97268  Biso   1.000  C
  H213     1.0000 0.47552  0.90238  0.03692  Biso   1.000  H
  H214     1.0000 0.52661  0.86711  0.04829  Biso   1.000  H
  H215     1.0000 0.52448  0.09762  0.03692  Biso   1.000  H
  H216     1.0000 0.47339  0.13289  0.04829  Biso   1.000  H
  C193     1.0000 0.49391  0.13060  0.97268  Biso   1.000  C
  C194     1.0000 0.46728  0.31149  0.92869  Biso   1.000  C
  H217     1.0000 0.44519  0.17949  0.92331  Biso   1.000  H
  H218     1.0000 0.42530  0.17941  0.98341  Biso   1.000  H
  H219     1.0000 0.90238  0.46310  0.02450  Biso   1.000  H
  C195     1.0000 0.86940  0.52730  0.99389  Biso   1.000  C
  H220     1.0000 0.86711  0.45169  0.97341  Biso   1.000  H
  C196     1.0000 0.68851  0.57129  0.96730  Biso   1.000  C
  H221     1.0000 0.82051  0.57671  0.94521  Biso   1.000  H
  H222     1.0000 0.82059  0.51661  0.92528  Biso   1.000  H
  C197     1.0000 0.35821  0.41530  0.93380  Biso   1.000  C
  H223     1.0000 0.30691  0.41040  0.99960  Biso   1.000  H
  H224     1.0000 0.13289  0.45169  0.02659  Biso   1.000  H
  H225     1.0000 0.09762  0.46310  0.97550  Biso   1.000  H
  C198     1.0000 0.56618  0.64179  0.91532  Biso   1.000  C
  H226     1.0000 0.50038  0.69309  0.91042  Biso   1.000  H
  H227     1.0000 0.52448  0.90238  0.96308  Biso   1.000  H
  H228     1.0000 0.47339  0.86711  0.95171  Biso   1.000  H
  H229     1.0000 0.47552  0.09762  0.96308  Biso   1.000  H
  H230     1.0000 0.52661  0.13289  0.95171  Biso   1.000  H
  C199     1.0000 0.43382  0.35821  0.91532  Biso   1.000  C
  H231     1.0000 0.49962  0.30691  0.91042  Biso   1.000  H
  H232     1.0000 0.86711  0.54831  0.02659  Biso   1.000  H
  H233     1.0000 0.90238  0.53690  0.97550  Biso   1.000  H
  C200     1.0000 0.64179  0.58470  0.93380  Biso   1.000  C
  H234     1.0000 0.69309  0.58960  0.99960  Biso   1.000  H
  C201     1.0000 0.38951  0.37159  0.94601  Biso   1.000  C
  C202     1.0000 0.37159  0.44599  0.88949  Biso   1.000  C
  C203     1.0000 0.61049  0.62841  0.94601  Biso   1.000  C
  C204     1.0000 0.55401  0.61049  0.87161  Biso   1.000  C
  C205     1.0000 0.44599  0.38951  0.87161  Biso   1.000  C
  C206     1.0000 0.62841  0.55401  0.88949  Biso   1.000  C
  H235     1.0000 0.38071  0.35058  0.97562  Biso   1.000  H
  C207     1.0000 0.41530  0.43382  0.85819  Biso   1.000  C
  H236     1.0000 0.35058  0.47560  0.88069  Biso   1.000  H
  H237     1.0000 0.61929  0.64942  0.97562  Biso   1.000  H
  C208     1.0000 0.58470  0.56618  0.85819  Biso   1.000  C
  H238     1.0000 0.52440  0.61929  0.85060  Biso   1.000  H
  H239     1.0000 0.47560  0.38071  0.85060  Biso   1.000  H
  H240     1.0000 0.64942  0.52440  0.88069  Biso   1.000  H
  C209     1.0000 0.42871  0.46728  0.81151  Biso   1.000  C
  C210     1.0000 0.57129  0.53272  0.81151  Biso   1.000  C
  N35      1.0000 0.46338  0.45479  0.77769  Biso   1.000  N
  H241     1.0000 0.41040  0.49962  0.80689  Biso   1.000  H
  N36      1.0000 0.53662  0.54521  0.77769  Biso   1.000  N
  H242     1.0000 0.58960  0.50038  0.80689  Biso   1.000  H
  C211     1.0000 0.47162  0.49042  0.73149  Biso   1.000  C
  C212     1.0000 0.52838  0.50958  0.73149  Biso   1.000  C
  H243     1.0000 0.44691  0.52091  0.73342  Biso   1.000  H
  C213     1.0000 0.46049  0.45692  0.68019  Biso   1.000  C
  H244     1.0000 0.55309  0.47909  0.73342  Biso   1.000  H
  C214     1.0000 0.53951  0.54308  0.68019  Biso   1.000  C
  H245     1.0000 0.42329  0.44519  0.67951  Biso   1.000  H
  H246     1.0000 0.48339  0.42530  0.67939  Biso   1.000  H
  C215     1.0000 0.47270  0.49391  0.63062  Biso   1.000  C
  H247     1.0000 0.57671  0.55481  0.67951  Biso   1.000  H
  H248     1.0000 0.51661  0.57470  0.67939  Biso   1.000  H
  C216     1.0000 0.52730  0.50609  0.63062  Biso   1.000  C
  H249     1.0000 0.46310  0.47552  0.59760  Biso   1.000  H
  H250     1.0000 0.45169  0.52661  0.63291  Biso   1.000  H
  H251     1.0000 0.53690  0.52448  0.59760  Biso   1.000  H
  H252     1.0000 0.54831  0.47339  0.63291  Biso   1.000  H
  C217     1.0000 0.47270  0.50609  0.36938  Biso   1.000  C
  C218     1.0000 0.46049  0.54308  0.31981  Biso   1.000  C
  C219     1.0000 0.52730  0.49391  0.36938  Biso   1.000  C
  H253     1.0000 0.46310  0.52448  0.40240  Biso   1.000  H
  H254     1.0000 0.45169  0.47339  0.36709  Biso   1.000  H
  C220     1.0000 0.47162  0.50958  0.26851  Biso   1.000  C
  H255     1.0000 0.42329  0.55481  0.32049  Biso   1.000  H
  H256     1.0000 0.48339  0.57470  0.32061  Biso   1.000  H
  C221     1.0000 0.53951  0.45692  0.31981  Biso   1.000  C
  H257     1.0000 0.53690  0.47552  0.40240  Biso   1.000  H
  H258     1.0000 0.54831  0.52661  0.36709  Biso   1.000  H
  C222     1.0000 0.52838  0.49042  0.26851  Biso   1.000  C
  N37      1.0000 0.46338  0.54521  0.22231  Biso   1.000  N
  H259     1.0000 0.44691  0.47909  0.26658  Biso   1.000  H
  H260     1.0000 0.57671  0.44519  0.32049  Biso   1.000  H
  H261     1.0000 0.51661  0.42530  0.32061  Biso   1.000  H
  N38      1.0000 0.53662  0.45479  0.22231  Biso   1.000  N
  H262     1.0000 0.55309  0.52091  0.26658  Biso   1.000  H
  C223     1.0000 0.42871  0.53272  0.18849  Biso   1.000  C
  C224     1.0000 0.57129  0.46728  0.18849  Biso   1.000  C
  C225     1.0000 0.41530  0.56618  0.14181  Biso   1.000  C
  H263     1.0000 0.41040  0.50038  0.19311  Biso   1.000  H
  C226     1.0000 0.58470  0.43382  0.14181  Biso   1.000  C
  H264     1.0000 0.58960  0.49962  0.19311  Biso   1.000  H
  C227     1.0000 0.37159  0.55401  0.11051  Biso   1.000  C
  C228     1.0000 0.44599  0.61049  0.12839  Biso   1.000  C
  C229     1.0000 0.55401  0.38951  0.12839  Biso   1.000  C
  C230     1.0000 0.62841  0.44599  0.11051  Biso   1.000  C
  H265     1.0000 0.35058  0.52440  0.11931  Biso   1.000  H
  C231     1.0000 0.35821  0.58470  0.06620  Biso   1.000  C
  H266     1.0000 0.47560  0.61929  0.14940  Biso   1.000  H
  C232     1.0000 0.43382  0.64179  0.08468  Biso   1.000  C
  C233     1.0000 0.56618  0.35821  0.08468  Biso   1.000  C
  H267     1.0000 0.52440  0.38071  0.14940  Biso   1.000  H
  C234     1.0000 0.64179  0.41530  0.06620  Biso   1.000  C
  H268     1.0000 0.64942  0.47560  0.11931  Biso   1.000  H
  C235     1.0000 0.38951  0.62841  0.05399  Biso   1.000  C
  C236     1.0000 0.31149  0.57129  0.03270  Biso   1.000  C
  C237     1.0000 0.46728  0.68851  0.07131  Biso   1.000  C
  C238     1.0000 0.53272  0.31149  0.07131  Biso   1.000  C
  C239     1.0000 0.61049  0.37159  0.05399  Biso   1.000  C
  C240     1.0000 0.68851  0.42871  0.03270  Biso   1.000  C
  H269     1.0000 0.38071  0.64942  0.02438  Biso   1.000  H
  N39      1.0000 0.27771  0.53662  0.04519  Biso   1.000  N
  H270     1.0000 0.30691  0.58960  0.00040  Biso   1.000  H
  N40      1.0000 0.45479  0.72229  0.03660  Biso   1.000  N
  H271     1.0000 0.49962  0.69309  0.08958  Biso   1.000  H
  N41      1.0000 0.54521  0.27771  0.03660  Biso   1.000  N
  H272     1.0000 0.50038  0.30691  0.08958  Biso   1.000  H
  H273     1.0000 0.61929  0.35058  0.02438  Biso   1.000  H
  N42      1.0000 0.72229  0.46338  0.04519  Biso   1.000  N
  H274     1.0000 0.69309  0.41040  0.00040  Biso   1.000  H
  C241     1.0000 0.23151  0.52838  0.00960  Biso   1.000  C
  C242     1.0000 0.49042  0.76849  0.02836  Biso   1.000  C
  C243     1.0000 0.50958  0.23151  0.02836  Biso   1.000  C
  C244     1.0000 0.76849  0.47162  0.00960  Biso   1.000  C
  C245     1.0000 0.23151  0.47162  0.99040  Biso   1.000  C
  C246     1.0000 0.18021  0.53951  0.04310  Biso   1.000  C
  H275     1.0000 0.23340  0.55309  0.97911  Biso   1.000  H
  C247     1.0000 0.50958  0.76849  0.97164  Biso   1.000  C
  H276     1.0000 0.52091  0.76660  0.05311  Biso   1.000  H
  C248     1.0000 0.45692  0.81979  0.03949  Biso   1.000  C
  H277     1.0000 0.47909  0.23340  0.05311  Biso   1.000  H
  C249     1.0000 0.54308  0.18021  0.03949  Biso   1.000  C
  C250     1.0000 0.49042  0.23151  0.97164  Biso   1.000  C
  C251     1.0000 0.81979  0.46049  0.04310  Biso   1.000  C
  C252     1.0000 0.76849  0.52838  0.99040  Biso   1.000  C
  H278     1.0000 0.76660  0.44691  0.97911  Biso   1.000  H
  N43      1.0000 0.27771  0.46338  0.95481  Biso   1.000  N
  H279     1.0000 0.23340  0.44691  0.02089  Biso   1.000  H
  C253     1.0000 0.18021  0.46049  0.95690  Biso   1.000  C
  H280     1.0000 0.17949  0.57671  0.05479  Biso   1.000  H
  H281     1.0000 0.17941  0.51661  0.07472  Biso   1.000  H
  C254     1.0000 0.13060  0.52730  0.00611  Biso   1.000  C
  N44      1.0000 0.54521  0.72229  0.96340  Biso   1.000  N
  H282     1.0000 0.47909  0.76660  0.94689  Biso   1.000  H
  C255     1.0000 0.54308  0.81979  0.96051  Biso   1.000  C
  H283     1.0000 0.44519  0.82051  0.07669  Biso   1.000  H
  H284     1.0000 0.42530  0.82059  0.01659  Biso   1.000  H
  C256     1.0000 0.49391  0.86940  0.02732  Biso   1.000  C
  H285     1.0000 0.55481  0.17949  0.07669  Biso   1.000  H
  H286     1.0000 0.57470  0.17941  0.01659  Biso   1.000  H
  C257     1.0000 0.50609  0.13060  0.02732  Biso   1.000  C
  N45      1.0000 0.45479  0.27771  0.96340  Biso   1.000  N
  H287     1.0000 0.52091  0.23340  0.94689  Biso   1.000  H
  C258     1.0000 0.45692  0.18021  0.96051  Biso   1.000  C
  H288     1.0000 0.82051  0.42329  0.05479  Biso   1.000  H
  H289     1.0000 0.82059  0.48339  0.07472  Biso   1.000  H
  C259     1.0000 0.86940  0.47270  0.00611  Biso   1.000  C
  H290     1.0000 0.76660  0.55309  0.02089  Biso   1.000  H
  N46      1.0000 0.72229  0.53662  0.95481  Biso   1.000  N
  C260     1.0000 0.81979  0.53951  0.95690  Biso   1.000  C
  C261     1.0000 0.31149  0.42871  0.96730  Biso   1.000  C
  H291     1.0000 0.17949  0.42329  0.94521  Biso   1.000  H
  H292     1.0000 0.17941  0.48339  0.92528  Biso   1.000  H
  C262     1.0000 0.13060  0.47270  0.99389  Biso   1.000  C
  H293     1.0000 0.09762  0.53690  0.02450  Biso   1.000  H
  H294     1.0000 0.13289  0.54831  0.97341  Biso   1.000  H
  C263     1.0000 0.53272  0.68851  0.92869  Biso   1.000  C
  H295     1.0000 0.55481  0.82051  0.92331  Biso   1.000  H
  H296     1.0000 0.57470  0.82059  0.98341  Biso   1.000  H
  C264     1.0000 0.50609  0.86940  0.97268  Biso   1.000  C
  H297     1.0000 0.47552  0.90238  0.03692  Biso   1.000  H
  H298     1.0000 0.52661  0.86711  0.04829  Biso   1.000  H
  H299     1.0000 0.52448  0.09762  0.03692  Biso   1.000  H
  H300     1.0000 0.47339  0.13289  0.04829  Biso   1.000  H
  C265     1.0000 0.49391  0.13060  0.97268  Biso   1.000  C
  C266     1.0000 0.46728  0.31149  0.92869  Biso   1.000  C
  H301     1.0000 0.44519  0.17949  0.92331  Biso   1.000  H
  H302     1.0000 0.42530  0.17941  0.98341  Biso   1.000  H
  H303     1.0000 0.90238  0.46310  0.02450  Biso   1.000  H
  C267     1.0000 0.86940  0.52730  0.99389  Biso   1.000  C
  H304     1.0000 0.86711  0.45169  0.97341  Biso   1.000  H
  C268     1.0000 0.68851  0.57129  0.96730  Biso   1.000  C
  H305     1.0000 0.82051  0.57671  0.94521  Biso   1.000  H
  H306     1.0000 0.82059  0.51661  0.92528  Biso   1.000  H
  C269     1.0000 0.35821  0.41530  0.93380  Biso   1.000  C
  H307     1.0000 0.30691  0.41040  0.99960  Biso   1.000  H
  H308     1.0000 0.13289  0.45169  0.02659  Biso   1.000  H
  H309     1.0000 0.09762  0.46310  0.97550  Biso   1.000  H
  C270     1.0000 0.56618  0.64179  0.91532  Biso   1.000  C
  H310     1.0000 0.50038  0.69309  0.91042  Biso   1.000  H
  H311     1.0000 0.52448  0.90238  0.96308  Biso   1.000  H
  H312     1.0000 0.47339  0.86711  0.95171  Biso   1.000  H
  H313     1.0000 0.47552  0.09762  0.96308  Biso   1.000  H
  H314     1.0000 0.52661  0.13289  0.95171  Biso   1.000  H
  C271     1.0000 0.43382  0.35821  0.91532  Biso   1.000  C
  H315     1.0000 0.49962  0.30691  0.91042  Biso   1.000  H
  H316     1.0000 0.86711  0.54831  0.02659  Biso   1.000  H
  H317     1.0000 0.90238  0.53690  0.97550  Biso   1.000  H
  C272     1.0000 0.64179  0.58470  0.93380  Biso   1.000  C
  H318     1.0000 0.69309  0.58960  0.99960  Biso   1.000  H
  C273     1.0000 0.38951  0.37159  0.94601  Biso   1.000  C
  C274     1.0000 0.37159  0.44599  0.88949  Biso   1.000  C
  C275     1.0000 0.61049  0.62841  0.94601  Biso   1.000  C
  C276     1.0000 0.55401  0.61049  0.87161  Biso   1.000  C
  C277     1.0000 0.44599  0.38951  0.87161  Biso   1.000  C
  C278     1.0000 0.62841  0.55401  0.88949  Biso   1.000  C
  H319     1.0000 0.38071  0.35058  0.97562  Biso   1.000  H
  C279     1.0000 0.41530  0.43382  0.85819  Biso   1.000  C
  H320     1.0000 0.35058  0.47560  0.88069  Biso   1.000  H
  H321     1.0000 0.61929  0.64942  0.97562  Biso   1.000  H
  C280     1.0000 0.58470  0.56618  0.85819  Biso   1.000  C
  H322     1.0000 0.52440  0.61929  0.85060  Biso   1.000  H
  H323     1.0000 0.47560  0.38071  0.85060  Biso   1.000  H
  H324     1.0000 0.64942  0.52440  0.88069  Biso   1.000  H
  C281     1.0000 0.42871  0.46728  0.81151  Biso   1.000  C
  C282     1.0000 0.57129  0.53272  0.81151  Biso   1.000  C
  N47      1.0000 0.46338  0.45479  0.77769  Biso   1.000  N
  H325     1.0000 0.41040  0.49962  0.80689  Biso   1.000  H
  N48      1.0000 0.53662  0.54521  0.77769  Biso   1.000  N
  H326     1.0000 0.58960  0.50038  0.80689  Biso   1.000  H
  C283     1.0000 0.47162  0.49042  0.73149  Biso   1.000  C
  C284     1.0000 0.52838  0.50958  0.73149  Biso   1.000  C
  H327     1.0000 0.44691  0.52091  0.73342  Biso   1.000  H
  C285     1.0000 0.46049  0.45692  0.68019  Biso   1.000  C
  H328     1.0000 0.55309  0.47909  0.73342  Biso   1.000  H
  C286     1.0000 0.53951  0.54308  0.68019  Biso   1.000  C
  H329     1.0000 0.42329  0.44519  0.67951  Biso   1.000  H
  H330     1.0000 0.48339  0.42530  0.67939  Biso   1.000  H
  C287     1.0000 0.47270  0.49391  0.63062  Biso   1.000  C
  H331     1.0000 0.57671  0.55481  0.67951  Biso   1.000  H
  H332     1.0000 0.51661  0.57470  0.67939  Biso   1.000  H
  C288     1.0000 0.52730  0.50609  0.63062  Biso   1.000  C
  H333     1.0000 0.46310  0.47552  0.59760  Biso   1.000  H
  H334     1.0000 0.45169  0.52661  0.63291  Biso   1.000  H
  H335     1.0000 0.53690  0.52448  0.59760  Biso   1.000  H
  H336     1.0000 0.54831  0.47339  0.63291  Biso   1.000  H
  C289     1.0000 0.36938  0.47270  0.50609  Biso   1.000  C
  C290     1.0000 0.31981  0.46049  0.54308  Biso   1.000  C
  C291     1.0000 0.36938  0.52730  0.49391  Biso   1.000  C
  H337     1.0000 0.40240  0.46310  0.52448  Biso   1.000  H
  H338     1.0000 0.36709  0.45169  0.47339  Biso   1.000  H
  C292     1.0000 0.26851  0.47162  0.50958  Biso   1.000  C
  H339     1.0000 0.32049  0.42329  0.55481  Biso   1.000  H
  H340     1.0000 0.32061  0.48339  0.57470  Biso   1.000  H
  C293     1.0000 0.31981  0.53951  0.45692  Biso   1.000  C
  H341     1.0000 0.40240  0.53690  0.47552  Biso   1.000  H
  H342     1.0000 0.36709  0.54831  0.52661  Biso   1.000  H
  N49      1.0000 0.22231  0.46338  0.54521  Biso   1.000  N
  C294     1.0000 0.26851  0.52838  0.49042  Biso   1.000  C
  H343     1.0000 0.26658  0.44691  0.47909  Biso   1.000  H
  H344     1.0000 0.32049  0.57671  0.44519  Biso   1.000  H
  H345     1.0000 0.32061  0.51661  0.42530  Biso   1.000  H
  C295     1.0000 0.18849  0.42871  0.53272  Biso   1.000  C
  N50      1.0000 0.22231  0.53662  0.45479  Biso   1.000  N
  H346     1.0000 0.26658  0.55309  0.52091  Biso   1.000  H
  C296     1.0000 0.14181  0.41530  0.56618  Biso   1.000  C
  H347     1.0000 0.19311  0.41040  0.50038  Biso   1.000  H
  C297     1.0000 0.18849  0.57129  0.46728  Biso   1.000  C
  C298     1.0000 0.12839  0.44599  0.61049  Biso   1.000  C
  C299     1.0000 0.11051  0.37159  0.55401  Biso   1.000  C
  C300     1.0000 0.14181  0.58470  0.43382  Biso   1.000  C
  H348     1.0000 0.19311  0.58960  0.49962  Biso   1.000  H
  H349     1.0000 0.14940  0.47560  0.61929  Biso   1.000  H
  C301     1.0000 0.08468  0.43382  0.64179  Biso   1.000  C
  H350     1.0000 0.11931  0.35058  0.52440  Biso   1.000  H
  C302     1.0000 0.06620  0.35821  0.58470  Biso   1.000  C
  C303     1.0000 0.11051  0.62841  0.44599  Biso   1.000  C
  C304     1.0000 0.12839  0.55401  0.38951  Biso   1.000  C
  C305     1.0000 0.05399  0.38951  0.62841  Biso   1.000  C
  C306     1.0000 0.07131  0.46728  0.68851  Biso   1.000  C
  C307     1.0000 0.03270  0.31149  0.57129  Biso   1.000  C
  H351     1.0000 0.11931  0.64942  0.47560  Biso   1.000  H
  C308     1.0000 0.06620  0.64179  0.41530  Biso   1.000  C
  H352     1.0000 0.14940  0.52440  0.38071  Biso   1.000  H
  C309     1.0000 0.08468  0.56618  0.35821  Biso   1.000  C
  H353     1.0000 0.02438  0.38071  0.64942  Biso   1.000  H
  N51      1.0000 0.03660  0.45479  0.72229  Biso   1.000  N
  H354     1.0000 0.08958  0.49962  0.69309  Biso   1.000  H
  N52      1.0000 0.04519  0.27771  0.53662  Biso   1.000  N
  H355     1.0000 0.00040  0.30691  0.58960  Biso   1.000  H
  C310     1.0000 0.05399  0.61049  0.37159  Biso   1.000  C
  C311     1.0000 0.03270  0.68851  0.42871  Biso   1.000  C
  C312     1.0000 0.07131  0.53272  0.31149  Biso   1.000  C
  C313     1.0000 0.02836  0.49042  0.76849  Biso   1.000  C
  C314     1.0000 0.00960  0.23151  0.52838  Biso   1.000  C
  H356     1.0000 0.02438  0.61929  0.35058  Biso   1.000  H
  N53      1.0000 0.04519  0.72229  0.46338  Biso   1.000  N
  H357     1.0000 0.00040  0.69309  0.41040  Biso   1.000  H
  N54      1.0000 0.03660  0.54521  0.27771  Biso   1.000  N
  H358     1.0000 0.08958  0.50038  0.30691  Biso   1.000  H
  H359     1.0000 0.05311  0.52091  0.76660  Biso   1.000  H
  C315     1.0000 0.03949  0.45692  0.81979  Biso   1.000  C
  C316     1.0000 0.97164  0.50958  0.76849  Biso   1.000  C
  C317     1.0000 0.04310  0.18021  0.53951  Biso   1.000  C
  C318     1.0000 0.99040  0.23151  0.47162  Biso   1.000  C
  H360     1.0000 0.97911  0.23340  0.55309  Biso   1.000  H
  C319     1.0000 0.00960  0.76849  0.47162  Biso   1.000  C
  C320     1.0000 0.02836  0.50958  0.23151  Biso   1.000  C
  H361     1.0000 0.07669  0.44519  0.82051  Biso   1.000  H
  H362     1.0000 0.01659  0.42530  0.82059  Biso   1.000  H
  C321     1.0000 0.02732  0.49391  0.86940  Biso   1.000  C
  N55      1.0000 0.96340  0.54521  0.72229  Biso   1.000  N
  H363     1.0000 0.94689  0.47909  0.76660  Biso   1.000  H
  C322     1.0000 0.96051  0.54308  0.81979  Biso   1.000  C
  H364     1.0000 0.05479  0.17949  0.57671  Biso   1.000  H
  H365     1.0000 0.07472  0.17941  0.51661  Biso   1.000  H
  C323     1.0000 0.00611  0.13060  0.52730  Biso   1.000  C
  H366     1.0000 0.02089  0.23340  0.44691  Biso   1.000  H
  N56      1.0000 0.95481  0.27771  0.46338  Biso   1.000  N
  C324     1.0000 0.95690  0.18021  0.46049  Biso   1.000  C
  C325     1.0000 0.04310  0.81979  0.46049  Biso   1.000  C
  C326     1.0000 0.99040  0.76849  0.52838  Biso   1.000  C
  H367     1.0000 0.97911  0.76660  0.44691  Biso   1.000  H
  H368     1.0000 0.05311  0.47909  0.23340  Biso   1.000  H
  C327     1.0000 0.03949  0.54308  0.18021  Biso   1.000  C
  C328     1.0000 0.97164  0.49042  0.23151  Biso   1.000  C
  H369     1.0000 0.03692  0.47552  0.90238  Biso   1.000  H
  H370     1.0000 0.04829  0.52661  0.86711  Biso   1.000  H
  C329     1.0000 0.97268  0.50609  0.86940  Biso   1.000  C
  C330     1.0000 0.92869  0.53272  0.68851  Biso   1.000  C
  H371     1.0000 0.92331  0.55481  0.82051  Biso   1.000  H
  H372     1.0000 0.98341  0.57470  0.82059  Biso   1.000  H
  H373     1.0000 0.02450  0.09762  0.53690  Biso   1.000  H
  C331     1.0000 0.99389  0.13060  0.47270  Biso   1.000  C
  H374     1.0000 0.97341  0.13289  0.54831  Biso   1.000  H
  C332     1.0000 0.96730  0.31149  0.42871  Biso   1.000  C
  H375     1.0000 0.94521  0.17949  0.42329  Biso   1.000  H
  H376     1.0000 0.92528  0.17941  0.48339  Biso   1.000  H
  H377     1.0000 0.05479  0.82051  0.42329  Biso   1.000  H
  H378     1.0000 0.07472  0.82059  0.48339  Biso   1.000  H
  C333     1.0000 0.00611  0.86940  0.47270  Biso   1.000  C
  H379     1.0000 0.02089  0.76660  0.55309  Biso   1.000  H
  N57      1.0000 0.95481  0.72229  0.53662  Biso   1.000  N
  C334     1.0000 0.95690  0.81979  0.53951  Biso   1.000  C
  H380     1.0000 0.07669  0.55481  0.17949  Biso   1.000  H
  H381     1.0000 0.01659  0.57470  0.17941  Biso   1.000  H
  C335     1.0000 0.02732  0.50609  0.13060  Biso   1.000  C
  N58      1.0000 0.96340  0.45479  0.27771  Biso   1.000  N
  H382     1.0000 0.94689  0.52091  0.23340  Biso   1.000  H
  C336     1.0000 0.96051  0.45692  0.18021  Biso   1.000  C
  H383     1.0000 0.96308  0.52448  0.90238  Biso   1.000  H
  H384     1.0000 0.95171  0.47339  0.86711  Biso   1.000  H
  C337     1.0000 0.91532  0.56618  0.64179  Biso   1.000  C
  H385     1.0000 0.91042  0.50038  0.69309  Biso   1.000  H
  H386     1.0000 0.02659  0.13289  0.45169  Biso   1.000  H
  H387     1.0000 0.97550  0.09762  0.46310  Biso   1.000  H
  C338     1.0000 0.93380  0.35821  0.41530  Biso   1.000  C
  H388     1.0000 0.99960  0.30691  0.41040  Biso   1.000  H
  H389     1.0000 0.02450  0.90238  0.46310  Biso   1.000  H
  C339     1.0000 0.99389  0.86940  0.52730  Biso   1.000  C
  H390     1.0000 0.97341  0.86711  0.45169  Biso   1.000  H
  C340     1.0000 0.96730  0.68851  0.57129  Biso   1.000  C
  H391     1.0000 0.94521  0.82051  0.57671  Biso   1.000  H
  H392     1.0000 0.92528  0.82059  0.51661  Biso   1.000  H
  H393     1.0000 0.03692  0.52448  0.09762  Biso   1.000  H
  H394     1.0000 0.04829  0.47339  0.13289  Biso   1.000  H
  C341     1.0000 0.97268  0.49391  0.13060  Biso   1.000  C
  C342     1.0000 0.92869  0.46728  0.31149  Biso   1.000  C
  H395     1.0000 0.92331  0.44519  0.17949  Biso   1.000  H
  H396     1.0000 0.98341  0.42530  0.17941  Biso   1.000  H
  C343     1.0000 0.87161  0.55401  0.61049  Biso   1.000  C
  C344     1.0000 0.94601  0.61049  0.62841  Biso   1.000  C
  C345     1.0000 0.94601  0.38951  0.37159  Biso   1.000  C
  C346     1.0000 0.88949  0.37159  0.44599  Biso   1.000  C
  H397     1.0000 0.02659  0.86711  0.54831  Biso   1.000  H
  H398     1.0000 0.97550  0.90238  0.53690  Biso   1.000  H
  C347     1.0000 0.93380  0.64179  0.58470  Biso   1.000  C
  H399     1.0000 0.99960  0.69309  0.58960  Biso   1.000  H
  H400     1.0000 0.96308  0.47552  0.09762  Biso   1.000  H
  H401     1.0000 0.95171  0.52661  0.13289  Biso   1.000  H
  C348     1.0000 0.91532  0.43382  0.35821  Biso   1.000  C
  H402     1.0000 0.91042  0.49962  0.30691  Biso   1.000  H
  H403     1.0000 0.85060  0.52440  0.61929  Biso   1.000  H
  C349     1.0000 0.85819  0.58470  0.56618  Biso   1.000  C
  H404     1.0000 0.97562  0.61929  0.64942  Biso   1.000  H
  H405     1.0000 0.97562  0.38071  0.35058  Biso   1.000  H
  H406     1.0000 0.88069  0.35058  0.47560  Biso   1.000  H
  C350     1.0000 0.85819  0.41530  0.43382  Biso   1.000  C
  C351     1.0000 0.88949  0.62841  0.55401  Biso   1.000  C
  C352     1.0000 0.87161  0.44599  0.38951  Biso   1.000  C
  C353     1.0000 0.81151  0.57129  0.53272  Biso   1.000  C
  C354     1.0000 0.81151  0.42871  0.46728  Biso   1.000  C
  H407     1.0000 0.88069  0.64942  0.52440  Biso   1.000  H
  H408     1.0000 0.85060  0.47560  0.38071  Biso   1.000  H
  N59      1.0000 0.77769  0.53662  0.54521  Biso   1.000  N
  H409     1.0000 0.80689  0.58960  0.50038  Biso   1.000  H
  N60      1.0000 0.77769  0.46338  0.45479  Biso   1.000  N
  H410     1.0000 0.80689  0.41040  0.49962  Biso   1.000  H
  C355     1.0000 0.73149  0.52838  0.50958  Biso   1.000  C
  C356     1.0000 0.73149  0.47162  0.49042  Biso   1.000  C
  H411     1.0000 0.73342  0.55309  0.47909  Biso   1.000  H
  C357     1.0000 0.68019  0.53951  0.54308  Biso   1.000  C
  H412     1.0000 0.73342  0.44691  0.52091  Biso   1.000  H
  C358     1.0000 0.68019  0.46049  0.45692  Biso   1.000  C
  H413     1.0000 0.67951  0.57671  0.55481  Biso   1.000  H
  H414     1.0000 0.67939  0.51661  0.57470  Biso   1.000  H
  C359     1.0000 0.63062  0.52730  0.50609  Biso   1.000  C
  H415     1.0000 0.67951  0.42329  0.44519  Biso   1.000  H
  H416     1.0000 0.67939  0.48339  0.42530  Biso   1.000  H
  C360     1.0000 0.63062  0.47270  0.49391  Biso   1.000  C
  H417     1.0000 0.59760  0.53690  0.52448  Biso   1.000  H
  H418     1.0000 0.63291  0.54831  0.47339  Biso   1.000  H
  H419     1.0000 0.59760  0.46310  0.47552  Biso   1.000  H
  H420     1.0000 0.63291  0.45169  0.52661  Biso   1.000  H
  C361     1.0000 0.36938  0.47270  0.50609  Biso   1.000  C
  C362     1.0000 0.31981  0.46049  0.54308  Biso   1.000  C
  C363     1.0000 0.36938  0.52730  0.49391  Biso   1.000  C
  H421     1.0000 0.40240  0.46310  0.52448  Biso   1.000  H
  H422     1.0000 0.36709  0.45169  0.47339  Biso   1.000  H
  C364     1.0000 0.26851  0.47162  0.50958  Biso   1.000  C
  H423     1.0000 0.32049  0.42329  0.55481  Biso   1.000  H
  H424     1.0000 0.32061  0.48339  0.57470  Biso   1.000  H
  C365     1.0000 0.31981  0.53951  0.45692  Biso   1.000  C
  H425     1.0000 0.40240  0.53690  0.47552  Biso   1.000  H
  H426     1.0000 0.36709  0.54831  0.52661  Biso   1.000  H
  N61      1.0000 0.22231  0.46338  0.54521  Biso   1.000  N
  C366     1.0000 0.26851  0.52838  0.49042  Biso   1.000  C
  H427     1.0000 0.26658  0.44691  0.47909  Biso   1.000  H
  H428     1.0000 0.32049  0.57671  0.44519  Biso   1.000  H
  H429     1.0000 0.32061  0.51661  0.42530  Biso   1.000  H
  C367     1.0000 0.18849  0.42871  0.53272  Biso   1.000  C
  N62      1.0000 0.22231  0.53662  0.45479  Biso   1.000  N
  H430     1.0000 0.26658  0.55309  0.52091  Biso   1.000  H
  C368     1.0000 0.14181  0.41530  0.56618  Biso   1.000  C
  H431     1.0000 0.19311  0.41040  0.50038  Biso   1.000  H
  C369     1.0000 0.18849  0.57129  0.46728  Biso   1.000  C
  C370     1.0000 0.12839  0.44599  0.61049  Biso   1.000  C
  C371     1.0000 0.11051  0.37159  0.55401  Biso   1.000  C
  C372     1.0000 0.14181  0.58470  0.43382  Biso   1.000  C
  H432     1.0000 0.19311  0.58960  0.49962  Biso   1.000  H
  H433     1.0000 0.14940  0.47560  0.61929  Biso   1.000  H
  C373     1.0000 0.08468  0.43382  0.64179  Biso   1.000  C
  H434     1.0000 0.11931  0.35058  0.52440  Biso   1.000  H
  C374     1.0000 0.06620  0.35821  0.58470  Biso   1.000  C
  C375     1.0000 0.11051  0.62841  0.44599  Biso   1.000  C
  C376     1.0000 0.12839  0.55401  0.38951  Biso   1.000  C
  C377     1.0000 0.05399  0.38951  0.62841  Biso   1.000  C
  C378     1.0000 0.07131  0.46728  0.68851  Biso   1.000  C
  C379     1.0000 0.03270  0.31149  0.57129  Biso   1.000  C
  H435     1.0000 0.11931  0.64942  0.47560  Biso   1.000  H
  C380     1.0000 0.06620  0.64179  0.41530  Biso   1.000  C
  H436     1.0000 0.14940  0.52440  0.38071  Biso   1.000  H
  C381     1.0000 0.08468  0.56618  0.35821  Biso   1.000  C
  H437     1.0000 0.02438  0.38071  0.64942  Biso   1.000  H
  N63      1.0000 0.03660  0.45479  0.72229  Biso   1.000  N
  H438     1.0000 0.08958  0.49962  0.69309  Biso   1.000  H
  N64      1.0000 0.04519  0.27771  0.53662  Biso   1.000  N
  H439     1.0000 0.00040  0.30691  0.58960  Biso   1.000  H
  C382     1.0000 0.05399  0.61049  0.37159  Biso   1.000  C
  C383     1.0000 0.03270  0.68851  0.42871  Biso   1.000  C
  C384     1.0000 0.07131  0.53272  0.31149  Biso   1.000  C
  C385     1.0000 0.02836  0.49042  0.76849  Biso   1.000  C
  C386     1.0000 0.00960  0.23151  0.52838  Biso   1.000  C
  H440     1.0000 0.02438  0.61929  0.35058  Biso   1.000  H
  N65      1.0000 0.04519  0.72229  0.46338  Biso   1.000  N
  H441     1.0000 0.00040  0.69309  0.41040  Biso   1.000  H
  N66      1.0000 0.03660  0.54521  0.27771  Biso   1.000  N
  H442     1.0000 0.08958  0.50038  0.30691  Biso   1.000  H
  H443     1.0000 0.05311  0.52091  0.76660  Biso   1.000  H
  C387     1.0000 0.03949  0.45692  0.81979  Biso   1.000  C
  C388     1.0000 0.97164  0.50958  0.76849  Biso   1.000  C
  C389     1.0000 0.04310  0.18021  0.53951  Biso   1.000  C
  C390     1.0000 0.99040  0.23151  0.47162  Biso   1.000  C
  H444     1.0000 0.97911  0.23340  0.55309  Biso   1.000  H
  C391     1.0000 0.00960  0.76849  0.47162  Biso   1.000  C
  C392     1.0000 0.02836  0.50958  0.23151  Biso   1.000  C
  H445     1.0000 0.07669  0.44519  0.82051  Biso   1.000  H
  H446     1.0000 0.01659  0.42530  0.82059  Biso   1.000  H
  C393     1.0000 0.02732  0.49391  0.86940  Biso   1.000  C
  N67      1.0000 0.96340  0.54521  0.72229  Biso   1.000  N
  H447     1.0000 0.94689  0.47909  0.76660  Biso   1.000  H
  C394     1.0000 0.96051  0.54308  0.81979  Biso   1.000  C
  H448     1.0000 0.05479  0.17949  0.57671  Biso   1.000  H
  H449     1.0000 0.07472  0.17941  0.51661  Biso   1.000  H
  C395     1.0000 0.00611  0.13060  0.52730  Biso   1.000  C
  H450     1.0000 0.02089  0.23340  0.44691  Biso   1.000  H
  N68      1.0000 0.95481  0.27771  0.46338  Biso   1.000  N
  C396     1.0000 0.95690  0.18021  0.46049  Biso   1.000  C
  C397     1.0000 0.04310  0.81979  0.46049  Biso   1.000  C
  C398     1.0000 0.99040  0.76849  0.52838  Biso   1.000  C
  H451     1.0000 0.97911  0.76660  0.44691  Biso   1.000  H
  H452     1.0000 0.05311  0.47909  0.23340  Biso   1.000  H
  C399     1.0000 0.03949  0.54308  0.18021  Biso   1.000  C
  C400     1.0000 0.97164  0.49042  0.23151  Biso   1.000  C
  H453     1.0000 0.03692  0.47552  0.90238  Biso   1.000  H
  H454     1.0000 0.04829  0.52661  0.86711  Biso   1.000  H
  C401     1.0000 0.97268  0.50609  0.86940  Biso   1.000  C
  C402     1.0000 0.92869  0.53272  0.68851  Biso   1.000  C
  H455     1.0000 0.92331  0.55481  0.82051  Biso   1.000  H
  H456     1.0000 0.98341  0.57470  0.82059  Biso   1.000  H
  H457     1.0000 0.02450  0.09762  0.53690  Biso   1.000  H
  C403     1.0000 0.99389  0.13060  0.47270  Biso   1.000  C
  H458     1.0000 0.97341  0.13289  0.54831  Biso   1.000  H
  C404     1.0000 0.96730  0.31149  0.42871  Biso   1.000  C
  H459     1.0000 0.94521  0.17949  0.42329  Biso   1.000  H
  H460     1.0000 0.92528  0.17941  0.48339  Biso   1.000  H
  H461     1.0000 0.05479  0.82051  0.42329  Biso   1.000  H
  H462     1.0000 0.07472  0.82059  0.48339  Biso   1.000  H
  C405     1.0000 0.00611  0.86940  0.47270  Biso   1.000  C
  H463     1.0000 0.02089  0.76660  0.55309  Biso   1.000  H
  N69      1.0000 0.95481  0.72229  0.53662  Biso   1.000  N
  C406     1.0000 0.95690  0.81979  0.53951  Biso   1.000  C
  H464     1.0000 0.07669  0.55481  0.17949  Biso   1.000  H
  H465     1.0000 0.01659  0.57470  0.17941  Biso   1.000  H
  C407     1.0000 0.02732  0.50609  0.13060  Biso   1.000  C
  N70      1.0000 0.96340  0.45479  0.27771  Biso   1.000  N
  H466     1.0000 0.94689  0.52091  0.23340  Biso   1.000  H
  C408     1.0000 0.96051  0.45692  0.18021  Biso   1.000  C
  H467     1.0000 0.96308  0.52448  0.90238  Biso   1.000  H
  H468     1.0000 0.95171  0.47339  0.86711  Biso   1.000  H
  C409     1.0000 0.91532  0.56618  0.64179  Biso   1.000  C
  H469     1.0000 0.91042  0.50038  0.69309  Biso   1.000  H
  H470     1.0000 0.02659  0.13289  0.45169  Biso   1.000  H
  H471     1.0000 0.97550  0.09762  0.46310  Biso   1.000  H
  C410     1.0000 0.93380  0.35821  0.41530  Biso   1.000  C
  H472     1.0000 0.99960  0.30691  0.41040  Biso   1.000  H
  H473     1.0000 0.02450  0.90238  0.46310  Biso   1.000  H
  C411     1.0000 0.99389  0.86940  0.52730  Biso   1.000  C
  H474     1.0000 0.97341  0.86711  0.45169  Biso   1.000  H
  C412     1.0000 0.96730  0.68851  0.57129  Biso   1.000  C
  H475     1.0000 0.94521  0.82051  0.57671  Biso   1.000  H
  H476     1.0000 0.92528  0.82059  0.51661  Biso   1.000  H
  H477     1.0000 0.03692  0.52448  0.09762  Biso   1.000  H
  H478     1.0000 0.04829  0.47339  0.13289  Biso   1.000  H
  C413     1.0000 0.97268  0.49391  0.13060  Biso   1.000  C
  C414     1.0000 0.92869  0.46728  0.31149  Biso   1.000  C
  H479     1.0000 0.92331  0.44519  0.17949  Biso   1.000  H
  H480     1.0000 0.98341  0.42530  0.17941  Biso   1.000  H
  C415     1.0000 0.87161  0.55401  0.61049  Biso   1.000  C
  C416     1.0000 0.94601  0.61049  0.62841  Biso   1.000  C
  C417     1.0000 0.94601  0.38951  0.37159  Biso   1.000  C
  C418     1.0000 0.88949  0.37159  0.44599  Biso   1.000  C
  H481     1.0000 0.02659  0.86711  0.54831  Biso   1.000  H
  H482     1.0000 0.97550  0.90238  0.53690  Biso   1.000  H
  C419     1.0000 0.93380  0.64179  0.58470  Biso   1.000  C
  H483     1.0000 0.99960  0.69309  0.58960  Biso   1.000  H
  H484     1.0000 0.96308  0.47552  0.09762  Biso   1.000  H
  H485     1.0000 0.95171  0.52661  0.13289  Biso   1.000  H
  C420     1.0000 0.91532  0.43382  0.35821  Biso   1.000  C
  H486     1.0000 0.91042  0.49962  0.30691  Biso   1.000  H
  H487     1.0000 0.85060  0.52440  0.61929  Biso   1.000  H
  C421     1.0000 0.85819  0.58470  0.56618  Biso   1.000  C
  H488     1.0000 0.97562  0.61929  0.64942  Biso   1.000  H
  H489     1.0000 0.97562  0.38071  0.35058  Biso   1.000  H
  H490     1.0000 0.88069  0.35058  0.47560  Biso   1.000  H
  C422     1.0000 0.85819  0.41530  0.43382  Biso   1.000  C
  C423     1.0000 0.88949  0.62841  0.55401  Biso   1.000  C
  C424     1.0000 0.87161  0.44599  0.38951  Biso   1.000  C
  C425     1.0000 0.81151  0.57129  0.53272  Biso   1.000  C
  C426     1.0000 0.81151  0.42871  0.46728  Biso   1.000  C
  H491     1.0000 0.88069  0.64942  0.52440  Biso   1.000  H
  H492     1.0000 0.85060  0.47560  0.38071  Biso   1.000  H
  N71      1.0000 0.77769  0.53662  0.54521  Biso   1.000  N
  H493     1.0000 0.80689  0.58960  0.50038  Biso   1.000  H
  N72      1.0000 0.77769  0.46338  0.45479  Biso   1.000  N
  H494     1.0000 0.80689  0.41040  0.49962  Biso   1.000  H
  C427     1.0000 0.73149  0.52838  0.50958  Biso   1.000  C
  C428     1.0000 0.73149  0.47162  0.49042  Biso   1.000  C
  H495     1.0000 0.73342  0.55309  0.47909  Biso   1.000  H
  C429     1.0000 0.68019  0.53951  0.54308  Biso   1.000  C
  H496     1.0000 0.73342  0.44691  0.52091  Biso   1.000  H
  C430     1.0000 0.68019  0.46049  0.45692  Biso   1.000  C
  H497     1.0000 0.67951  0.57671  0.55481  Biso   1.000  H
  H498     1.0000 0.67939  0.51661  0.57470  Biso   1.000  H
  C431     1.0000 0.63062  0.52730  0.50609  Biso   1.000  C
  H499     1.0000 0.67951  0.42329  0.44519  Biso   1.000  H
  H500     1.0000 0.67939  0.48339  0.42530  Biso   1.000  H
  C432     1.0000 0.63062  0.47270  0.49391  Biso   1.000  C
  H501     1.0000 0.59760  0.53690  0.52448  Biso   1.000  H
  H502     1.0000 0.63291  0.54831  0.47339  Biso   1.000  H
  H503     1.0000 0.59760  0.46310  0.47552  Biso   1.000  H
  H504     1.0000 0.63291  0.45169  0.52661  Biso   1.000  H
  C433     1.0000 0.37842  0.36050  0.30398  Biso   1.000  C
  C434     1.0000 0.39180  0.31619  0.33471  Biso   1.000  C
  H505     1.0000 0.39939  0.36930  0.27441  Biso   1.000  H
  C435     1.0000 0.33471  0.39180  0.31619  Biso   1.000  C
  C436     1.0000 0.43852  0.28269  0.32130  Biso   1.000  C
  C437     1.0000 0.36050  0.30398  0.37842  Biso   1.000  C
  C438     1.0000 0.30398  0.37842  0.36050  Biso   1.000  C
  C439     1.0000 0.32130  0.43852  0.28269  Biso   1.000  C
  N73      1.0000 0.47230  0.29518  0.28659  Biso   1.000  N
  H506     1.0000 0.44310  0.25039  0.33961  Biso   1.000  H
  H507     1.0000 0.36930  0.27441  0.39939  Biso   1.000  H
  C440     1.0000 0.31619  0.33471  0.39180  Biso   1.000  C
  H508     1.0000 0.27441  0.39939  0.36930  Biso   1.000  H
  N74      1.0000 0.28659  0.47230  0.29518  Biso   1.000  N
  H509     1.0000 0.33961  0.44310  0.25039  Biso   1.000  H
  C441     1.0000 0.51850  0.25959  0.27839  Biso   1.000  C
  C442     1.0000 0.28269  0.32130  0.43852  Biso   1.000  C
  C443     1.0000 0.27839  0.51850  0.25959  Biso   1.000  C
  C444     1.0000 0.51850  0.24039  0.22163  Biso   1.000  C
  H510     1.0000 0.51661  0.22910  0.30310  Biso   1.000  H
  C445     1.0000 0.56980  0.29309  0.28952  Biso   1.000  C
  N75      1.0000 0.29518  0.28659  0.47230  Biso   1.000  N
  H511     1.0000 0.25039  0.33961  0.44310  Biso   1.000  H
  C446     1.0000 0.22163  0.51850  0.24039  Biso   1.000  C
  H512     1.0000 0.30310  0.51661  0.22910  Biso   1.000  H
  C447     1.0000 0.28952  0.56980  0.29309  Biso   1.000  C
  N76      1.0000 0.47230  0.20480  0.21339  Biso   1.000  N
  H513     1.0000 0.51661  0.27092  0.19688  Biso   1.000  H
  C448     1.0000 0.56980  0.20689  0.21050  Biso   1.000  C
  C449     1.0000 0.61941  0.25610  0.27731  Biso   1.000  C
  H514     1.0000 0.57048  0.30478  0.32672  Biso   1.000  H
  H515     1.0000 0.57060  0.32471  0.26658  Biso   1.000  H
  C450     1.0000 0.25959  0.27839  0.51850  Biso   1.000  C
  N77      1.0000 0.21339  0.47230  0.20480  Biso   1.000  N
  H516     1.0000 0.19688  0.51661  0.27092  Biso   1.000  H
  C451     1.0000 0.21050  0.56980  0.20689  Biso   1.000  C
  H517     1.0000 0.32672  0.57048  0.30478  Biso   1.000  H
  H518     1.0000 0.26658  0.57060  0.32471  Biso   1.000  H
  C452     1.0000 0.27731  0.61941  0.25610  Biso   1.000  C
  C453     1.0000 0.43852  0.21729  0.17868  Biso   1.000  C
  H519     1.0000 0.57048  0.19520  0.17330  Biso   1.000  H
  H520     1.0000 0.57060  0.17531  0.23340  Biso   1.000  H
  C454     1.0000 0.61941  0.24388  0.22271  Biso   1.000  C
  H521     1.0000 0.65239  0.27449  0.28691  Biso   1.000  H
  H522     1.0000 0.61708  0.22340  0.29832  Biso   1.000  H
  C455     1.0000 0.24039  0.22163  0.51850  Biso   1.000  C
  H523     1.0000 0.22910  0.30310  0.51661  Biso   1.000  H
  C456     1.0000 0.29309  0.28952  0.56980  Biso   1.000  C
  C457     1.0000 0.17868  0.43852  0.21729  Biso   1.000  C
  H524     1.0000 0.17330  0.57048  0.19520  Biso   1.000  H
  H525     1.0000 0.23340  0.57060  0.17531  Biso   1.000  H
  C458     1.0000 0.22271  0.61941  0.24388  Biso   1.000  C
  H526     1.0000 0.28691  0.65239  0.27449  Biso   1.000  H
  H527     1.0000 0.29832  0.61708  0.22340  Biso   1.000  H
  C459     1.0000 0.39180  0.18379  0.16531  Biso   1.000  C
  H528     1.0000 0.44310  0.24959  0.16041  Biso   1.000  H
  H529     1.0000 0.65239  0.22549  0.21311  Biso   1.000  H
  H530     1.0000 0.61708  0.27658  0.20170  Biso   1.000  H
  N78      1.0000 0.20480  0.21339  0.47230  Biso   1.000  N
  H531     1.0000 0.27092  0.19688  0.51661  Biso   1.000  H
  C460     1.0000 0.20689  0.21050  0.56980  Biso   1.000  C
  H532     1.0000 0.30478  0.32672  0.57048  Biso   1.000  H
  H533     1.0000 0.32471  0.26658  0.57060  Biso   1.000  H
  C461     1.0000 0.25610  0.27731  0.61941  Biso   1.000  C
  C462     1.0000 0.16531  0.39180  0.18379  Biso   1.000  C
  H534     1.0000 0.16041  0.44310  0.24959  Biso   1.000  H
  H535     1.0000 0.21311  0.65239  0.22549  Biso   1.000  H
  H536     1.0000 0.20170  0.61708  0.27658  Biso   1.000  H
  C463     1.0000 0.37842  0.13952  0.19600  Biso   1.000  C
  C464     1.0000 0.36050  0.19600  0.12160  Biso   1.000  C
  C465     1.0000 0.21729  0.17868  0.43852  Biso   1.000  C
  H537     1.0000 0.19520  0.17330  0.57048  Biso   1.000  H
  H538     1.0000 0.17531  0.23340  0.57060  Biso   1.000  H
  C466     1.0000 0.24388  0.22271  0.61941  Biso   1.000  C
  H539     1.0000 0.27449  0.28691  0.65239  Biso   1.000  H
  H540     1.0000 0.22340  0.29832  0.61708  Biso   1.000  H
  C467     1.0000 0.19600  0.37842  0.13952  Biso   1.000  C
  C468     1.0000 0.12160  0.36050  0.19600  Biso   1.000  C
  H541     1.0000 0.39939  0.13072  0.22561  Biso   1.000  H
  C469     1.0000 0.33471  0.10818  0.18379  Biso   1.000  C
  H542     1.0000 0.36930  0.22561  0.10059  Biso   1.000  H
  C470     1.0000 0.31619  0.16531  0.10818  Biso   1.000  C
  C471     1.0000 0.18379  0.16531  0.39180  Biso   1.000  C
  H543     1.0000 0.24959  0.16041  0.44310  Biso   1.000  H
  H544     1.0000 0.22549  0.21311  0.65239  Biso   1.000  H
  H545     1.0000 0.27658  0.20170  0.61708  Biso   1.000  H
  C472     1.0000 0.18379  0.33471  0.10818  Biso   1.000  C
  H546     1.0000 0.22561  0.39939  0.13072  Biso   1.000  H
  C473     1.0000 0.10818  0.31619  0.16531  Biso   1.000  C
  H547     1.0000 0.10059  0.36930  0.22561  Biso   1.000  H
  C474     1.0000 0.30398  0.12160  0.13952  Biso   1.000  C
  C475     1.0000 0.32130  0.06150  0.21729  Biso   1.000  C
  C476     1.0000 0.28269  0.17868  0.06150  Biso   1.000  C
  C477     1.0000 0.19600  0.12160  0.36050  Biso   1.000  C
  C478     1.0000 0.13952  0.19600  0.37842  Biso   1.000  C
  C479     1.0000 0.21729  0.32130  0.06150  Biso   1.000  C
  C480     1.0000 0.13952  0.30398  0.12160  Biso   1.000  C
  C481     1.0000 0.06150  0.28269  0.17868  Biso   1.000  C
  H548     1.0000 0.27441  0.10059  0.13072  Biso   1.000  H
  N79      1.0000 0.28659  0.02772  0.20480  Biso   1.000  N
  H549     1.0000 0.33961  0.05688  0.24959  Biso   1.000  H
  N80      1.0000 0.29518  0.21339  0.02772  Biso   1.000  N
  H550     1.0000 0.25039  0.16041  0.05688  Biso   1.000  H
  C482     1.0000 0.16531  0.10818  0.31619  Biso   1.000  C
  H551     1.0000 0.22561  0.10059  0.36930  Biso   1.000  H
  C483     1.0000 0.10818  0.18379  0.33471  Biso   1.000  C
  H552     1.0000 0.13072  0.22561  0.39939  Biso   1.000  H
  N81      1.0000 0.20480  0.28659  0.02772  Biso   1.000  N
  H553     1.0000 0.24959  0.33961  0.05688  Biso   1.000  H
  H554     1.0000 0.13072  0.27441  0.10059  Biso   1.000  H
  N82      1.0000 0.02772  0.29518  0.21339  Biso   1.000  N
  H555     1.0000 0.05688  0.25039  0.16041  Biso   1.000  H
  C484     1.0000 0.27839  0.98148  0.24039  Biso   1.000  C
  C485     1.0000 0.25959  0.22163  0.98148  Biso   1.000  C
  C486     1.0000 0.17868  0.06150  0.28269  Biso   1.000  C
  C487     1.0000 0.12160  0.13952  0.30398  Biso   1.000  C
  C488     1.0000 0.06150  0.21729  0.32130  Biso   1.000  C
  C489     1.0000 0.24039  0.27839  0.98148  Biso   1.000  C
  C490     1.0000 0.98148  0.25959  0.22163  Biso   1.000  C
  C491     1.0000 0.22163  0.98148  0.25959  Biso   1.000  C
  H556     1.0000 0.30310  0.98341  0.27092  Biso   1.000  H
  C492     1.0000 0.28952  0.93018  0.20689  Biso   1.000  C
  H557     1.0000 0.22910  0.19688  0.98341  Biso   1.000  H
  C493     1.0000 0.29309  0.21050  0.93018  Biso   1.000  C
  N83      1.0000 0.21339  0.02772  0.29518  Biso   1.000  N
  H558     1.0000 0.16041  0.05688  0.25039  Biso   1.000  H
  H559     1.0000 0.10059  0.13072  0.27441  Biso   1.000  H
  N84      1.0000 0.02772  0.20480  0.28659  Biso   1.000  N
  H560     1.0000 0.05688  0.24959  0.33961  Biso   1.000  H
  H561     1.0000 0.27092  0.30310  0.98341  Biso   1.000  H
  C494     1.0000 0.20689  0.28952  0.93018  Biso   1.000  C
  C495     1.0000 0.98148  0.24039  0.27839  Biso   1.000  C
  H562     1.0000 0.98341  0.22910  0.19688  Biso   1.000  H
  C496     1.0000 0.93018  0.29309  0.21050  Biso   1.000  C
  H563     1.0000 0.19688  0.98341  0.22910  Biso   1.000  H
  C497     1.0000 0.21050  0.93018  0.29309  Biso   1.000  C
  H564     1.0000 0.32672  0.92950  0.19520  Biso   1.000  H
  H565     1.0000 0.26658  0.92942  0.17531  Biso   1.000  H
  C498     1.0000 0.27731  0.88061  0.24388  Biso   1.000  C
  H566     1.0000 0.30478  0.17330  0.92950  Biso   1.000  H
  H567     1.0000 0.32471  0.23340  0.92942  Biso   1.000  H
  C499     1.0000 0.25610  0.22271  0.88061  Biso   1.000  C
  H568     1.0000 0.19520  0.32672  0.92950  Biso   1.000  H
  H569     1.0000 0.17531  0.26658  0.92942  Biso   1.000  H
  C500     1.0000 0.24388  0.27731  0.88061  Biso   1.000  C
  H570     1.0000 0.98341  0.27092  0.30310  Biso   1.000  H
  C501     1.0000 0.93018  0.20689  0.28952  Biso   1.000  C
  H571     1.0000 0.92950  0.30478  0.17330  Biso   1.000  H
  H572     1.0000 0.92942  0.32471  0.23340  Biso   1.000  H
  C502     1.0000 0.88061  0.25610  0.22271  Biso   1.000  C
  H573     1.0000 0.17330  0.92950  0.30478  Biso   1.000  H
  H574     1.0000 0.23340  0.92942  0.32471  Biso   1.000  H
  C503     1.0000 0.22271  0.88061  0.25610  Biso   1.000  C
  H575     1.0000 0.28691  0.84759  0.22549  Biso   1.000  H
  H576     1.0000 0.29832  0.88290  0.27658  Biso   1.000  H
  H577     1.0000 0.27449  0.21311  0.84759  Biso   1.000  H
  H578     1.0000 0.22340  0.20170  0.88290  Biso   1.000  H
  H579     1.0000 0.22549  0.28691  0.84759  Biso   1.000  H
  H580     1.0000 0.27658  0.29832  0.88290  Biso   1.000  H
  H581     1.0000 0.92950  0.19520  0.32672  Biso   1.000  H
  H582     1.0000 0.92942  0.17531  0.26658  Biso   1.000  H
  C504     1.0000 0.88061  0.24388  0.27731  Biso   1.000  C
  H583     1.0000 0.84759  0.27449  0.21311  Biso   1.000  H
  H584     1.0000 0.88290  0.22340  0.20170  Biso   1.000  H
  H585     1.0000 0.21311  0.84759  0.27449  Biso   1.000  H
  H586     1.0000 0.20170  0.88290  0.22340  Biso   1.000  H
  H587     1.0000 0.84759  0.22549  0.28691  Biso   1.000  H
  H588     1.0000 0.88290  0.27658  0.29832  Biso   1.000  H
  C505     1.0000 0.63950  0.30398  0.62158  Biso   1.000  C
  C506     1.0000 0.68381  0.33471  0.60820  Biso   1.000  C
  C507     1.0000 0.60820  0.31619  0.66529  Biso   1.000  C
  H589     1.0000 0.63070  0.27441  0.60061  Biso   1.000  H
  C508     1.0000 0.71731  0.32130  0.56148  Biso   1.000  C
  C509     1.0000 0.69602  0.37842  0.63950  Biso   1.000  C
  C510     1.0000 0.62158  0.36050  0.69602  Biso   1.000  C
  C511     1.0000 0.56148  0.28269  0.67870  Biso   1.000  C
  N85      1.0000 0.70482  0.28659  0.52770  Biso   1.000  N
  H590     1.0000 0.74961  0.33961  0.55690  Biso   1.000  H
  H591     1.0000 0.72559  0.39939  0.63070  Biso   1.000  H
  C512     1.0000 0.66529  0.39180  0.68381  Biso   1.000  C
  H592     1.0000 0.60061  0.36930  0.72559  Biso   1.000  H
  N86      1.0000 0.52770  0.29518  0.71341  Biso   1.000  N
  H593     1.0000 0.55690  0.25039  0.66039  Biso   1.000  H
  C513     1.0000 0.74041  0.27839  0.48150  Biso   1.000  C
  C514     1.0000 0.67870  0.43852  0.71731  Biso   1.000  C
  C515     1.0000 0.48150  0.25959  0.72161  Biso   1.000  C
  C516     1.0000 0.70691  0.28952  0.43020  Biso   1.000  C
  C517     1.0000 0.75961  0.22163  0.48150  Biso   1.000  C
  H594     1.0000 0.77090  0.30310  0.48339  Biso   1.000  H
  N87      1.0000 0.71341  0.47230  0.70482  Biso   1.000  N
  H595     1.0000 0.66039  0.44310  0.74961  Biso   1.000  H
  H596     1.0000 0.48339  0.22910  0.69690  Biso   1.000  H
  C518     1.0000 0.43020  0.29309  0.71048  Biso   1.000  C
  C519     1.0000 0.48150  0.24039  0.77837  Biso   1.000  C
  H597     1.0000 0.69522  0.32672  0.42952  Biso   1.000  H
  H598     1.0000 0.67529  0.26658  0.42940  Biso   1.000  H
  C520     1.0000 0.74390  0.27731  0.38059  Biso   1.000  C
  N88      1.0000 0.79520  0.21339  0.52770  Biso   1.000  N
  H599     1.0000 0.72908  0.19688  0.48339  Biso   1.000  H
  C521     1.0000 0.79311  0.21050  0.43020  Biso   1.000  C
  C522     1.0000 0.72161  0.51850  0.74041  Biso   1.000  C
  H600     1.0000 0.42952  0.30478  0.67328  Biso   1.000  H
  H601     1.0000 0.42940  0.32471  0.73342  Biso   1.000  H
  C523     1.0000 0.38059  0.25610  0.72269  Biso   1.000  C
  N89      1.0000 0.52770  0.20480  0.78661  Biso   1.000  N
  H602     1.0000 0.48339  0.27092  0.80312  Biso   1.000  H
  C524     1.0000 0.43020  0.20689  0.78950  Biso   1.000  C
  C525     1.0000 0.75612  0.22271  0.38059  Biso   1.000  C
  H603     1.0000 0.72551  0.28691  0.34761  Biso   1.000  H
  H604     1.0000 0.77660  0.29832  0.38292  Biso   1.000  H
  C526     1.0000 0.78271  0.17868  0.56148  Biso   1.000  C
  H605     1.0000 0.80480  0.17330  0.42952  Biso   1.000  H
  H606     1.0000 0.82469  0.23340  0.42940  Biso   1.000  H
  C527     1.0000 0.77837  0.51850  0.75961  Biso   1.000  C
  H607     1.0000 0.69690  0.51661  0.77090  Biso   1.000  H
  C528     1.0000 0.71048  0.56980  0.70691  Biso   1.000  C
  H608     1.0000 0.34761  0.27449  0.71309  Biso   1.000  H
  H609     1.0000 0.38292  0.22340  0.70168  Biso   1.000  H
  C529     1.0000 0.38059  0.24388  0.77729  Biso   1.000  C
  C530     1.0000 0.56148  0.21729  0.82132  Biso   1.000  C
  H610     1.0000 0.42952  0.19520  0.82670  Biso   1.000  H
  H611     1.0000 0.42940  0.17531  0.76660  Biso   1.000  H
  H612     1.0000 0.77451  0.21311  0.34761  Biso   1.000  H
  H613     1.0000 0.72342  0.20170  0.38292  Biso   1.000  H
  C531     1.0000 0.81621  0.16531  0.60820  Biso   1.000  C
  H614     1.0000 0.75041  0.16041  0.55690  Biso   1.000  H
  N90      1.0000 0.78661  0.47230  0.79520  Biso   1.000  N
  H615     1.0000 0.80312  0.51661  0.72908  Biso   1.000  H
  C532     1.0000 0.78950  0.56980  0.79311  Biso   1.000  C
  H616     1.0000 0.67328  0.57048  0.69522  Biso   1.000  H
  H617     1.0000 0.73342  0.57060  0.67529  Biso   1.000  H
  C533     1.0000 0.72269  0.61941  0.74390  Biso   1.000  C
  H618     1.0000 0.34761  0.22549  0.78689  Biso   1.000  H
  H619     1.0000 0.38292  0.27658  0.79830  Biso   1.000  H
  C534     1.0000 0.60820  0.18379  0.83469  Biso   1.000  C
  H620     1.0000 0.55690  0.24959  0.83959  Biso   1.000  H
  C535     1.0000 0.86048  0.19600  0.62158  Biso   1.000  C
  C536     1.0000 0.80400  0.12160  0.63950  Biso   1.000  C
  C537     1.0000 0.82132  0.43852  0.78271  Biso   1.000  C
  H621     1.0000 0.82670  0.57048  0.80480  Biso   1.000  H
  H622     1.0000 0.76660  0.57060  0.82469  Biso   1.000  H
  C538     1.0000 0.77729  0.61941  0.75612  Biso   1.000  C
  H623     1.0000 0.71309  0.65239  0.72551  Biso   1.000  H
  H624     1.0000 0.70168  0.61708  0.77660  Biso   1.000  H
  C539     1.0000 0.62158  0.13952  0.80400  Biso   1.000  C
  C540     1.0000 0.63950  0.19600  0.87840  Biso   1.000  C
  H625     1.0000 0.86928  0.22561  0.60061  Biso   1.000  H
  C541     1.0000 0.89182  0.18379  0.66529  Biso   1.000  C
  H626     1.0000 0.77439  0.10059  0.63070  Biso   1.000  H
  C542     1.0000 0.83469  0.10818  0.68381  Biso   1.000  C
  C543     1.0000 0.83469  0.39180  0.81621  Biso   1.000  C
  H627     1.0000 0.83959  0.44310  0.75041  Biso   1.000  H
  H628     1.0000 0.78689  0.65239  0.77451  Biso   1.000  H
  H629     1.0000 0.79830  0.61708  0.72342  Biso   1.000  H
  C544     1.0000 0.66529  0.10818  0.81621  Biso   1.000  C
  H630     1.0000 0.60061  0.13072  0.77439  Biso   1.000  H
  H631     1.0000 0.63070  0.22561  0.89941  Biso   1.000  H
  C545     1.0000 0.68381  0.16531  0.89182  Biso   1.000  C
  C546     1.0000 0.87840  0.13952  0.69602  Biso   1.000  C
  C547     1.0000 0.93850  0.21729  0.67870  Biso   1.000  C
  C548     1.0000 0.82132  0.06150  0.71731  Biso   1.000  C
  C549     1.0000 0.80400  0.37842  0.86048  Biso   1.000  C
  C550     1.0000 0.87840  0.36050  0.80400  Biso   1.000  C
  C551     1.0000 0.67870  0.06150  0.78271  Biso   1.000  C
  C552     1.0000 0.69602  0.12160  0.86048  Biso   1.000  C
  C553     1.0000 0.71731  0.17868  0.93850  Biso   1.000  C
  H632     1.0000 0.89941  0.13072  0.72559  Biso   1.000  H
  N91      1.0000 0.97228  0.20480  0.71341  Biso   1.000  N
  H633     1.0000 0.94312  0.24959  0.66039  Biso   1.000  H
  N92      1.0000 0.78661  0.02772  0.70482  Biso   1.000  N
  H634     1.0000 0.83959  0.05688  0.74961  Biso   1.000  H
  H635     1.0000 0.77439  0.39939  0.86928  Biso   1.000  H
  C554     1.0000 0.81621  0.33471  0.89182  Biso   1.000  C
  C555     1.0000 0.89182  0.31619  0.83469  Biso   1.000  C
  H636     1.0000 0.89941  0.36930  0.77439  Biso   1.000  H
  N93      1.0000 0.71341  0.02772  0.79520  Biso   1.000  N
  H637     1.0000 0.66039  0.05688  0.75041  Biso   1.000  H
  H638     1.0000 0.72559  0.10059  0.86928  Biso   1.000  H
  N94      1.0000 0.70482  0.21339  0.97228  Biso   1.000  N
  H639     1.0000 0.74961  0.16041  0.94312  Biso   1.000  H
  C556     1.0000 0.01852  0.24039  0.72161  Biso   1.000  C
  C557     1.0000 0.77837  0.98148  0.74041  Biso   1.000  C
  C558     1.0000 0.86048  0.30398  0.87840  Biso   1.000  C
  C559     1.0000 0.78271  0.32130  0.93850  Biso   1.000  C
  C560     1.0000 0.93850  0.28269  0.82132  Biso   1.000  C
  C561     1.0000 0.72161  0.98148  0.75961  Biso   1.000  C
  C562     1.0000 0.74041  0.22163  0.01852  Biso   1.000  C
  C563     1.0000 0.01852  0.25959  0.77837  Biso   1.000  C
  H640     1.0000 0.01659  0.27092  0.69690  Biso   1.000  H
  C564     1.0000 0.06982  0.20689  0.71048  Biso   1.000  C
  H641     1.0000 0.80312  0.98341  0.77090  Biso   1.000  H
  C565     1.0000 0.78950  0.93018  0.70691  Biso   1.000  C
  H642     1.0000 0.86928  0.27441  0.89941  Biso   1.000  H
  N95      1.0000 0.79520  0.28659  0.97228  Biso   1.000  N
  H643     1.0000 0.75041  0.33961  0.94312  Biso   1.000  H
  N96      1.0000 0.97228  0.29518  0.78661  Biso   1.000  N
  H644     1.0000 0.94312  0.25039  0.83959  Biso   1.000  H
  H645     1.0000 0.69690  0.98341  0.72908  Biso   1.000  H
  C566     1.0000 0.71048  0.93018  0.79311  Biso   1.000  C
  C567     1.0000 0.75961  0.27839  0.01852  Biso   1.000  C
  H646     1.0000 0.77090  0.19688  0.01659  Biso   1.000  H
  C568     1.0000 0.70691  0.21050  0.06982  Biso   1.000  C
  H647     1.0000 0.01659  0.22910  0.80312  Biso   1.000  H
  C569     1.0000 0.06982  0.29309  0.78950  Biso   1.000  C
  H648     1.0000 0.07050  0.19520  0.67328  Biso   1.000  H
  H649     1.0000 0.07058  0.17531  0.73342  Biso   1.000  H
  C570     1.0000 0.11939  0.24388  0.72269  Biso   1.000  C
  H650     1.0000 0.82670  0.92950  0.69522  Biso   1.000  H
  H651     1.0000 0.76660  0.92942  0.67529  Biso   1.000  H
  C571     1.0000 0.77729  0.88061  0.74390  Biso   1.000  C
  H652     1.0000 0.67328  0.92950  0.80480  Biso   1.000  H
  H653     1.0000 0.73342  0.92942  0.82469  Biso   1.000  H
  C572     1.0000 0.72269  0.88061  0.75612  Biso   1.000  C
  H654     1.0000 0.72908  0.30310  0.01659  Biso   1.000  H
  C573     1.0000 0.79311  0.28952  0.06982  Biso   1.000  C
  H655     1.0000 0.69522  0.17330  0.07050  Biso   1.000  H
  H656     1.0000 0.67529  0.23340  0.07058  Biso   1.000  H
  C574     1.0000 0.74390  0.22271  0.11939  Biso   1.000  C
  H657     1.0000 0.07050  0.30478  0.82670  Biso   1.000  H
  H658     1.0000 0.07058  0.32471  0.76660  Biso   1.000  H
  C575     1.0000 0.11939  0.25610  0.77729  Biso   1.000  C
  H659     1.0000 0.15241  0.22549  0.71309  Biso   1.000  H
  H660     1.0000 0.11710  0.27658  0.70168  Biso   1.000  H
  H661     1.0000 0.78689  0.84759  0.72551  Biso   1.000  H
  H662     1.0000 0.79830  0.88290  0.77660  Biso   1.000  H
  H663     1.0000 0.71309  0.84759  0.77451  Biso   1.000  H
  H664     1.0000 0.70168  0.88290  0.72342  Biso   1.000  H
  H665     1.0000 0.80480  0.32672  0.07050  Biso   1.000  H
  H666     1.0000 0.82469  0.26658  0.07058  Biso   1.000  H
  C576     1.0000 0.75612  0.27731  0.11939  Biso   1.000  C
  H667     1.0000 0.72551  0.21311  0.15241  Biso   1.000  H
  H668     1.0000 0.77660  0.20170  0.11710  Biso   1.000  H
  H669     1.0000 0.15241  0.27449  0.78689  Biso   1.000  H
  H670     1.0000 0.11710  0.22340  0.79830  Biso   1.000  H
  H671     1.0000 0.77451  0.28691  0.15241  Biso   1.000  H
  H672     1.0000 0.72342  0.29832  0.11710  Biso   1.000  H
  C577     1.0000 0.62158  0.63950  0.30398  Biso   1.000  C
  C578     1.0000 0.66529  0.60820  0.31619  Biso   1.000  C
  H673     1.0000 0.60061  0.63070  0.27441  Biso   1.000  H
  C579     1.0000 0.60820  0.68381  0.33471  Biso   1.000  C
  C580     1.0000 0.67870  0.56148  0.28269  Biso   1.000  C
  C581     1.0000 0.69602  0.62158  0.36050  Biso   1.000  C
  C582     1.0000 0.63950  0.69602  0.37842  Biso   1.000  C
  C583     1.0000 0.56148  0.71731  0.32130  Biso   1.000  C
  N97      1.0000 0.71341  0.52770  0.29518  Biso   1.000  N
  H674     1.0000 0.66039  0.55690  0.25039  Biso   1.000  H
  H675     1.0000 0.72559  0.60061  0.36930  Biso   1.000  H
  C584     1.0000 0.68381  0.66529  0.39180  Biso   1.000  C
  H676     1.0000 0.63070  0.72559  0.39939  Biso   1.000  H
  N98      1.0000 0.52770  0.70482  0.28659  Biso   1.000  N
  H677     1.0000 0.55690  0.74961  0.33961  Biso   1.000  H
  C585     1.0000 0.72161  0.48150  0.25959  Biso   1.000  C
  C586     1.0000 0.71731  0.67870  0.43852  Biso   1.000  C
  C587     1.0000 0.48150  0.74041  0.27839  Biso   1.000  C
  C588     1.0000 0.71048  0.43020  0.29309  Biso   1.000  C
  C589     1.0000 0.77837  0.48150  0.24039  Biso   1.000  C
  H678     1.0000 0.69690  0.48339  0.22910  Biso   1.000  H
  N99      1.0000 0.70482  0.71341  0.47230  Biso   1.000  N
  H679     1.0000 0.74961  0.66039  0.44310  Biso   1.000  H
  C590     1.0000 0.48150  0.75961  0.22163  Biso   1.000  C
  H680     1.0000 0.48339  0.77090  0.30310  Biso   1.000  H
  C591     1.0000 0.43020  0.70691  0.28952  Biso   1.000  C
  C592     1.0000 0.72269  0.38059  0.25610  Biso   1.000  C
  H681     1.0000 0.67328  0.42952  0.30478  Biso   1.000  H
  H682     1.0000 0.73342  0.42940  0.32471  Biso   1.000  H
  C593     1.0000 0.78950  0.43020  0.20689  Biso   1.000  C
  N100     1.0000 0.78661  0.52770  0.20480  Biso   1.000  N
  H683     1.0000 0.80312  0.48339  0.27092  Biso   1.000  H
  C594     1.0000 0.74041  0.72161  0.51850  Biso   1.000  C
  N101     1.0000 0.52770  0.79520  0.21339  Biso   1.000  N
  H684     1.0000 0.48339  0.72908  0.19688  Biso   1.000  H
  C595     1.0000 0.43020  0.79311  0.21050  Biso   1.000  C
  H685     1.0000 0.42952  0.69522  0.32672  Biso   1.000  H
  H686     1.0000 0.42940  0.67529  0.26658  Biso   1.000  H
  C596     1.0000 0.38059  0.74390  0.27731  Biso   1.000  C
  C597     1.0000 0.77729  0.38059  0.24388  Biso   1.000  C
  H687     1.0000 0.71309  0.34761  0.27449  Biso   1.000  H
  H688     1.0000 0.70168  0.38292  0.22340  Biso   1.000  H
  H689     1.0000 0.82670  0.42952  0.19520  Biso   1.000  H
  H690     1.0000 0.76660  0.42940  0.17531  Biso   1.000  H
  C598     1.0000 0.82132  0.56148  0.21729  Biso   1.000  C
  C599     1.0000 0.75961  0.77837  0.51850  Biso   1.000  C
  H691     1.0000 0.77090  0.69690  0.51661  Biso   1.000  H
  C600     1.0000 0.70691  0.71048  0.56980  Biso   1.000  C
  C601     1.0000 0.56148  0.78271  0.17868  Biso   1.000  C
  H692     1.0000 0.42952  0.80480  0.17330  Biso   1.000  H
  H693     1.0000 0.42940  0.82469  0.23340  Biso   1.000  H
  C602     1.0000 0.38059  0.75612  0.22271  Biso   1.000  C
  H694     1.0000 0.34761  0.72551  0.28691  Biso   1.000  H
  H695     1.0000 0.38292  0.77660  0.29832  Biso   1.000  H
  H696     1.0000 0.78689  0.34761  0.22549  Biso   1.000  H
  H697     1.0000 0.79830  0.38292  0.27658  Biso   1.000  H
  C603     1.0000 0.83469  0.60820  0.18379  Biso   1.000  C
  H698     1.0000 0.83959  0.55690  0.24959  Biso   1.000  H
  N102     1.0000 0.79520  0.78661  0.47230  Biso   1.000  N
  H699     1.0000 0.72908  0.80312  0.51661  Biso   1.000  H
  C604     1.0000 0.79311  0.78950  0.56980  Biso   1.000  C
  H700     1.0000 0.69522  0.67328  0.57048  Biso   1.000  H
  H701     1.0000 0.67529  0.73342  0.57060  Biso   1.000  H
  C605     1.0000 0.74390  0.72269  0.61941  Biso   1.000  C
  C606     1.0000 0.60820  0.81621  0.16531  Biso   1.000  C
  H702     1.0000 0.55690  0.75041  0.16041  Biso   1.000  H
  H703     1.0000 0.34761  0.77451  0.21311  Biso   1.000  H
  H704     1.0000 0.38292  0.72342  0.20170  Biso   1.000  H
  C607     1.0000 0.87840  0.63950  0.19600  Biso   1.000  C
  C608     1.0000 0.80400  0.62158  0.13952  Biso   1.000  C
  C609     1.0000 0.78271  0.82132  0.43852  Biso   1.000  C
  H705     1.0000 0.80480  0.82670  0.57048  Biso   1.000  H
  H706     1.0000 0.82469  0.76660  0.57060  Biso   1.000  H
  C610     1.0000 0.75612  0.77729  0.61941  Biso   1.000  C
  H707     1.0000 0.72551  0.71309  0.65239  Biso   1.000  H
  H708     1.0000 0.77660  0.70168  0.61708  Biso   1.000  H
  C611     1.0000 0.63950  0.80400  0.12160  Biso   1.000  C
  C612     1.0000 0.62158  0.86048  0.19600  Biso   1.000  C
  H709     1.0000 0.89941  0.63070  0.22561  Biso   1.000  H
  C613     1.0000 0.89182  0.68381  0.16531  Biso   1.000  C
  H710     1.0000 0.77439  0.60061  0.13072  Biso   1.000  H
  C614     1.0000 0.81621  0.66529  0.10818  Biso   1.000  C
  C615     1.0000 0.81621  0.83469  0.39180  Biso   1.000  C
  H711     1.0000 0.75041  0.83959  0.44310  Biso   1.000  H
  H712     1.0000 0.77451  0.78689  0.65239  Biso   1.000  H
  H713     1.0000 0.72342  0.79830  0.61708  Biso   1.000  H
  C616     1.0000 0.68381  0.83469  0.10818  Biso   1.000  C
  H714     1.0000 0.63070  0.77439  0.10059  Biso   1.000  H
  H715     1.0000 0.60061  0.86928  0.22561  Biso   1.000  H
  C617     1.0000 0.66529  0.89182  0.18379  Biso   1.000  C
  C618     1.0000 0.86048  0.69602  0.12160  Biso   1.000  C
  C619     1.0000 0.93850  0.71731  0.17868  Biso   1.000  C
  C620     1.0000 0.78271  0.67870  0.06150  Biso   1.000  C
  C621     1.0000 0.80400  0.87840  0.36050  Biso   1.000  C
  C622     1.0000 0.86048  0.80400  0.37842  Biso   1.000  C
  C623     1.0000 0.71731  0.82132  0.06150  Biso   1.000  C
  C624     1.0000 0.69602  0.87840  0.13952  Biso   1.000  C
  C625     1.0000 0.67870  0.93850  0.21729  Biso   1.000  C
  H716     1.0000 0.86928  0.72559  0.10059  Biso   1.000  H
  N103     1.0000 0.97228  0.70482  0.21339  Biso   1.000  N
  H717     1.0000 0.94312  0.74961  0.16041  Biso   1.000  H
  N104     1.0000 0.79520  0.71341  0.02772  Biso   1.000  N
  H718     1.0000 0.75041  0.66039  0.05688  Biso   1.000  H
  H719     1.0000 0.77439  0.89941  0.36930  Biso   1.000  H
  C626     1.0000 0.83469  0.89182  0.31619  Biso   1.000  C
  C627     1.0000 0.89182  0.81621  0.33471  Biso   1.000  C
  H720     1.0000 0.86928  0.77439  0.39939  Biso   1.000  H
  N105     1.0000 0.70482  0.78661  0.02772  Biso   1.000  N
  H721     1.0000 0.74961  0.83959  0.05688  Biso   1.000  H
  H722     1.0000 0.72559  0.89941  0.13072  Biso   1.000  H
  N106     1.0000 0.71341  0.97228  0.20480  Biso   1.000  N
  H723     1.0000 0.66039  0.94312  0.24959  Biso   1.000  H
  C628     1.0000 0.01852  0.74041  0.22163  Biso   1.000  C
  C629     1.0000 0.75961  0.72161  0.98148  Biso   1.000  C
  C630     1.0000 0.87840  0.86048  0.30398  Biso   1.000  C
  C631     1.0000 0.82132  0.93850  0.28269  Biso   1.000  C
  C632     1.0000 0.93850  0.78271  0.32130  Biso   1.000  C
  C633     1.0000 0.74041  0.77837  0.98148  Biso   1.000  C
  C634     1.0000 0.72161  0.01852  0.24039  Biso   1.000  C
  C635     1.0000 0.01852  0.75961  0.27839  Biso   1.000  C
  H724     1.0000 0.01659  0.77090  0.19688  Biso   1.000  H
  C636     1.0000 0.06982  0.70691  0.21050  Biso   1.000  C
  H725     1.0000 0.72908  0.69690  0.98341  Biso   1.000  H
  C637     1.0000 0.79311  0.71048  0.93018  Biso   1.000  C
  H726     1.0000 0.89941  0.86928  0.27441  Biso   1.000  H
  N107     1.0000 0.78661  0.97228  0.29518  Biso   1.000  N
  H727     1.0000 0.83959  0.94312  0.25039  Biso   1.000  H
  N108     1.0000 0.97228  0.79520  0.28659  Biso   1.000  N
  H728     1.0000 0.94312  0.75041  0.33961  Biso   1.000  H
  H729     1.0000 0.77090  0.80312  0.98341  Biso   1.000  H
  C638     1.0000 0.70691  0.78950  0.93018  Biso   1.000  C
  C639     1.0000 0.77837  0.01852  0.25959  Biso   1.000  C
  H730     1.0000 0.69690  0.01659  0.27092  Biso   1.000  H
  C640     1.0000 0.71048  0.06982  0.20689  Biso   1.000  C
  H731     1.0000 0.01659  0.72908  0.30310  Biso   1.000  H
  C641     1.0000 0.06982  0.79311  0.28952  Biso   1.000  C
  H732     1.0000 0.07050  0.69522  0.17330  Biso   1.000  H
  H733     1.0000 0.07058  0.67529  0.23340  Biso   1.000  H
  C642     1.0000 0.11939  0.74390  0.22271  Biso   1.000  C
  H734     1.0000 0.80480  0.67328  0.92950  Biso   1.000  H
  H735     1.0000 0.82469  0.73342  0.92942  Biso   1.000  H
  C643     1.0000 0.75612  0.72269  0.88061  Biso   1.000  C
  H736     1.0000 0.69522  0.82670  0.92950  Biso   1.000  H
  H737     1.0000 0.67529  0.76660  0.92942  Biso   1.000  H
  C644     1.0000 0.74390  0.77729  0.88061  Biso   1.000  C
  H738     1.0000 0.80312  0.01659  0.22910  Biso   1.000  H
  C645     1.0000 0.78950  0.06982  0.29309  Biso   1.000  C
  H739     1.0000 0.67328  0.07050  0.19520  Biso   1.000  H
  H740     1.0000 0.73342  0.07058  0.17531  Biso   1.000  H
  C646     1.0000 0.72269  0.11939  0.24388  Biso   1.000  C
  H741     1.0000 0.07050  0.80480  0.32672  Biso   1.000  H
  H742     1.0000 0.07058  0.82469  0.26658  Biso   1.000  H
  C647     1.0000 0.11939  0.75612  0.27731  Biso   1.000  C
  H743     1.0000 0.15241  0.72551  0.21311  Biso   1.000  H
  H744     1.0000 0.11710  0.77660  0.20170  Biso   1.000  H
  H745     1.0000 0.77451  0.71309  0.84759  Biso   1.000  H
  H746     1.0000 0.72342  0.70168  0.88290  Biso   1.000  H
  H747     1.0000 0.72551  0.78689  0.84759  Biso   1.000  H
  H748     1.0000 0.77660  0.79830  0.88290  Biso   1.000  H
  H749     1.0000 0.82670  0.07050  0.30478  Biso   1.000  H
  H750     1.0000 0.76660  0.07058  0.32471  Biso   1.000  H
  C648     1.0000 0.77729  0.11939  0.25610  Biso   1.000  C
  H751     1.0000 0.71309  0.15241  0.22549  Biso   1.000  H
  H752     1.0000 0.70168  0.11710  0.27658  Biso   1.000  H
  H753     1.0000 0.15241  0.77451  0.28691  Biso   1.000  H
  H754     1.0000 0.11710  0.72342  0.29832  Biso   1.000  H
  H755     1.0000 0.78689  0.15241  0.27449  Biso   1.000  H
  H756     1.0000 0.79830  0.11710  0.22340  Biso   1.000  H
  C649     1.0000 0.30398  0.62158  0.63950  Biso   1.000  C
  C650     1.0000 0.31619  0.66529  0.60820  Biso   1.000  C
  H757     1.0000 0.27441  0.60061  0.63070  Biso   1.000  H
  C651     1.0000 0.33471  0.60820  0.68381  Biso   1.000  C
  C652     1.0000 0.28269  0.67870  0.56148  Biso   1.000  C
  C653     1.0000 0.36050  0.69602  0.62158  Biso   1.000  C
  C654     1.0000 0.37842  0.63950  0.69602  Biso   1.000  C
  C655     1.0000 0.32130  0.56148  0.71731  Biso   1.000  C
  N109     1.0000 0.29518  0.71341  0.52770  Biso   1.000  N
  H758     1.0000 0.25039  0.66039  0.55690  Biso   1.000  H
  H759     1.0000 0.36930  0.72559  0.60061  Biso   1.000  H
  C656     1.0000 0.39180  0.68381  0.66529  Biso   1.000  C
  H760     1.0000 0.39939  0.63070  0.72559  Biso   1.000  H
  N110     1.0000 0.28659  0.52770  0.70482  Biso   1.000  N
  H761     1.0000 0.33961  0.55690  0.74961  Biso   1.000  H
  C657     1.0000 0.25959  0.72161  0.48150  Biso   1.000  C
  C658     1.0000 0.43852  0.71731  0.67870  Biso   1.000  C
  C659     1.0000 0.27839  0.48150  0.74041  Biso   1.000  C
  C660     1.0000 0.29309  0.71048  0.43020  Biso   1.000  C
  C661     1.0000 0.24039  0.77837  0.48150  Biso   1.000  C
  H762     1.0000 0.22910  0.69690  0.48339  Biso   1.000  H
  N111     1.0000 0.47230  0.70482  0.71341  Biso   1.000  N
  H763     1.0000 0.44310  0.74961  0.66039  Biso   1.000  H
  C662     1.0000 0.22163  0.48150  0.75961  Biso   1.000  C
  H764     1.0000 0.30310  0.48339  0.77090  Biso   1.000  H
  C663     1.0000 0.28952  0.43020  0.70691  Biso   1.000  C
  C664     1.0000 0.25610  0.72269  0.38059  Biso   1.000  C
  H765     1.0000 0.30478  0.67328  0.42952  Biso   1.000  H
  H766     1.0000 0.32471  0.73342  0.42940  Biso   1.000  H
  C665     1.0000 0.20689  0.78950  0.43020  Biso   1.000  C
  N112     1.0000 0.20480  0.78661  0.52770  Biso   1.000  N
  H767     1.0000 0.27092  0.80312  0.48339  Biso   1.000  H
  C666     1.0000 0.51850  0.74041  0.72161  Biso   1.000  C
  N113     1.0000 0.21339  0.52770  0.79520  Biso   1.000  N
  H768     1.0000 0.19688  0.48339  0.72908  Biso   1.000  H
  C667     1.0000 0.21050  0.43020  0.79311  Biso   1.000  C
  H769     1.0000 0.32672  0.42952  0.69522  Biso   1.000  H
  H770     1.0000 0.26658  0.42940  0.67529  Biso   1.000  H
  C668     1.0000 0.27731  0.38059  0.74390  Biso   1.000  C
  C669     1.0000 0.24388  0.77729  0.38059  Biso   1.000  C
  H771     1.0000 0.27449  0.71309  0.34761  Biso   1.000  H
  H772     1.0000 0.22340  0.70168  0.38292  Biso   1.000  H
  H773     1.0000 0.19520  0.82670  0.42952  Biso   1.000  H
  H774     1.0000 0.17531  0.76660  0.42940  Biso   1.000  H
  C670     1.0000 0.21729  0.82132  0.56148  Biso   1.000  C
  C671     1.0000 0.51850  0.75961  0.77837  Biso   1.000  C
  H775     1.0000 0.51661  0.77090  0.69690  Biso   1.000  H
  C672     1.0000 0.56980  0.70691  0.71048  Biso   1.000  C
  C673     1.0000 0.17868  0.56148  0.78271  Biso   1.000  C
  H776     1.0000 0.17330  0.42952  0.80480  Biso   1.000  H
  H777     1.0000 0.23340  0.42940  0.82469  Biso   1.000  H
  C674     1.0000 0.22271  0.38059  0.75612  Biso   1.000  C
  H778     1.0000 0.28691  0.34761  0.72551  Biso   1.000  H
  H779     1.0000 0.29832  0.38292  0.77660  Biso   1.000  H
  H780     1.0000 0.22549  0.78689  0.34761  Biso   1.000  H
  H781     1.0000 0.27658  0.79830  0.38292  Biso   1.000  H
  C675     1.0000 0.18379  0.83469  0.60820  Biso   1.000  C
  H782     1.0000 0.24959  0.83959  0.55690  Biso   1.000  H
  N114     1.0000 0.47230  0.79520  0.78661  Biso   1.000  N
  H783     1.0000 0.51661  0.72908  0.80312  Biso   1.000  H
  C676     1.0000 0.56980  0.79311  0.78950  Biso   1.000  C
  H784     1.0000 0.57048  0.69522  0.67328  Biso   1.000  H
  H785     1.0000 0.57060  0.67529  0.73342  Biso   1.000  H
  C677     1.0000 0.61941  0.74390  0.72269  Biso   1.000  C
  C678     1.0000 0.16531  0.60820  0.81621  Biso   1.000  C
  H786     1.0000 0.16041  0.55690  0.75041  Biso   1.000  H
  H787     1.0000 0.21311  0.34761  0.77451  Biso   1.000  H
  H788     1.0000 0.20170  0.38292  0.72342  Biso   1.000  H
  C679     1.0000 0.13952  0.80400  0.62158  Biso   1.000  C
  C680     1.0000 0.19600  0.87840  0.63950  Biso   1.000  C
  C681     1.0000 0.43852  0.78271  0.82132  Biso   1.000  C
  H789     1.0000 0.57048  0.80480  0.82670  Biso   1.000  H
  H790     1.0000 0.57060  0.82469  0.76660  Biso   1.000  H
  C682     1.0000 0.61941  0.75612  0.77729  Biso   1.000  C
  H791     1.0000 0.65239  0.72551  0.71309  Biso   1.000  H
  H792     1.0000 0.61708  0.77660  0.70168  Biso   1.000  H
  C683     1.0000 0.12160  0.63950  0.80400  Biso   1.000  C
  C684     1.0000 0.19600  0.62158  0.86048  Biso   1.000  C
  H793     1.0000 0.13072  0.77439  0.60061  Biso   1.000  H
  C685     1.0000 0.10818  0.81621  0.66529  Biso   1.000  C
  H794     1.0000 0.22561  0.89941  0.63070  Biso   1.000  H
  C686     1.0000 0.16531  0.89182  0.68381  Biso   1.000  C
  C687     1.0000 0.39180  0.81621  0.83469  Biso   1.000  C
  H795     1.0000 0.44310  0.75041  0.83959  Biso   1.000  H
  H796     1.0000 0.65239  0.77451  0.78689  Biso   1.000  H
  H797     1.0000 0.61708  0.72342  0.79830  Biso   1.000  H
  C688     1.0000 0.10818  0.68381  0.83469  Biso   1.000  C
  H798     1.0000 0.10059  0.63070  0.77439  Biso   1.000  H
  H799     1.0000 0.22561  0.60061  0.86928  Biso   1.000  H
  C689     1.0000 0.18379  0.66529  0.89182  Biso   1.000  C
  C690     1.0000 0.12160  0.86048  0.69602  Biso   1.000  C
  C691     1.0000 0.06150  0.78271  0.67870  Biso   1.000  C
  C692     1.0000 0.17868  0.93850  0.71731  Biso   1.000  C
  C693     1.0000 0.36050  0.80400  0.87840  Biso   1.000  C
  C694     1.0000 0.37842  0.86048  0.80400  Biso   1.000  C
  C695     1.0000 0.06150  0.71731  0.82132  Biso   1.000  C
  C696     1.0000 0.13952  0.69602  0.87840  Biso   1.000  C
  C697     1.0000 0.21729  0.67870  0.93850  Biso   1.000  C
  H800     1.0000 0.10059  0.86928  0.72559  Biso   1.000  H
  N115     1.0000 0.02772  0.79520  0.71341  Biso   1.000  N
  H801     1.0000 0.05688  0.75041  0.66039  Biso   1.000  H
  N116     1.0000 0.21339  0.97228  0.70482  Biso   1.000  N
  H802     1.0000 0.16041  0.94312  0.74961  Biso   1.000  H
  H803     1.0000 0.36930  0.77439  0.89941  Biso   1.000  H
  C698     1.0000 0.31619  0.83469  0.89182  Biso   1.000  C
  C699     1.0000 0.33471  0.89182  0.81621  Biso   1.000  C
  H804     1.0000 0.39939  0.86928  0.77439  Biso   1.000  H
  N117     1.0000 0.02772  0.70482  0.78661  Biso   1.000  N
  H805     1.0000 0.05688  0.74961  0.83959  Biso   1.000  H
  H806     1.0000 0.13072  0.72559  0.89941  Biso   1.000  H
  N118     1.0000 0.20480  0.71341  0.97228  Biso   1.000  N
  H807     1.0000 0.24959  0.66039  0.94312  Biso   1.000  H
  C700     1.0000 0.98148  0.75961  0.72161  Biso   1.000  C
  C701     1.0000 0.22163  0.01852  0.74041  Biso   1.000  C
  C702     1.0000 0.30398  0.87840  0.86048  Biso   1.000  C
  C703     1.0000 0.28269  0.82132  0.93850  Biso   1.000  C
  C704     1.0000 0.32130  0.93850  0.78271  Biso   1.000  C
  C705     1.0000 0.98148  0.74041  0.77837  Biso   1.000  C
  C706     1.0000 0.24039  0.72161  0.01852  Biso   1.000  C
  H808     1.0000 0.98341  0.72908  0.69690  Biso   1.000  H
  C707     1.0000 0.93018  0.79311  0.71048  Biso   1.000  C
  C708     1.0000 0.27839  0.01852  0.75961  Biso   1.000  C
  H809     1.0000 0.19688  0.01659  0.77090  Biso   1.000  H
  C709     1.0000 0.21050  0.06982  0.70691  Biso   1.000  C
  H810     1.0000 0.27441  0.89941  0.86928  Biso   1.000  H
  N119     1.0000 0.29518  0.78661  0.97228  Biso   1.000  N
  H811     1.0000 0.25039  0.83959  0.94312  Biso   1.000  H
  N120     1.0000 0.28659  0.97228  0.79520  Biso   1.000  N
  H812     1.0000 0.33961  0.94312  0.75041  Biso   1.000  H
  H813     1.0000 0.98341  0.77090  0.80312  Biso   1.000  H
  C710     1.0000 0.93018  0.70691  0.78950  Biso   1.000  C
  C711     1.0000 0.25959  0.77837  0.01852  Biso   1.000  C
  H814     1.0000 0.27092  0.69690  0.01659  Biso   1.000  H
  C712     1.0000 0.20689  0.71048  0.06982  Biso   1.000  C
  H815     1.0000 0.92950  0.80480  0.67328  Biso   1.000  H
  H816     1.0000 0.92942  0.82469  0.73342  Biso   1.000  H
  C713     1.0000 0.88061  0.75612  0.72269  Biso   1.000  C
  H817     1.0000 0.30310  0.01659  0.72908  Biso   1.000  H
  C714     1.0000 0.28952  0.06982  0.79311  Biso   1.000  C
  H818     1.0000 0.17330  0.07050  0.69522  Biso   1.000  H
  H819     1.0000 0.23340  0.07058  0.67529  Biso   1.000  H
  C715     1.0000 0.22271  0.11939  0.74390  Biso   1.000  C
  H820     1.0000 0.92950  0.69522  0.82670  Biso   1.000  H
  H821     1.0000 0.92942  0.67529  0.76660  Biso   1.000  H
  C716     1.0000 0.88061  0.74390  0.77729  Biso   1.000  C
  H822     1.0000 0.22910  0.80312  0.01659  Biso   1.000  H
  C717     1.0000 0.29309  0.78950  0.06982  Biso   1.000  C
  H823     1.0000 0.19520  0.67328  0.07050  Biso   1.000  H
  H824     1.0000 0.17531  0.73342  0.07058  Biso   1.000  H
  C718     1.0000 0.24388  0.72269  0.11939  Biso   1.000  C
  H825     1.0000 0.84759  0.77451  0.71309  Biso   1.000  H
  H826     1.0000 0.88290  0.72342  0.70168  Biso   1.000  H
  H827     1.0000 0.32672  0.07050  0.80480  Biso   1.000  H
  H828     1.0000 0.26658  0.07058  0.82469  Biso   1.000  H
  C719     1.0000 0.27731  0.11939  0.75612  Biso   1.000  C
  H829     1.0000 0.21311  0.15241  0.72551  Biso   1.000  H
  H830     1.0000 0.20170  0.11710  0.77660  Biso   1.000  H
  H831     1.0000 0.84759  0.72551  0.78689  Biso   1.000  H
  H832     1.0000 0.88290  0.77660  0.79830  Biso   1.000  H
  H833     1.0000 0.30478  0.82670  0.07050  Biso   1.000  H
  H834     1.0000 0.32471  0.76660  0.07058  Biso   1.000  H
  C720     1.0000 0.25610  0.77729  0.11939  Biso   1.000  C
  H835     1.0000 0.22549  0.71309  0.15241  Biso   1.000  H
  H836     1.0000 0.27658  0.70168  0.11710  Biso   1.000  H
  H837     1.0000 0.28691  0.15241  0.77451  Biso   1.000  H
  H838     1.0000 0.29832  0.11710  0.72342  Biso   1.000  H
  H839     1.0000 0.27449  0.78689  0.15241  Biso   1.000  H
  H840     1.0000 0.22340  0.79830  0.11710  Biso   1.000  H
  I1       1.0000 0.30969  0.19029  0.30969  Biso   1.000  I
  I2       1.0000 0.23601  0.26401  0.26401  Biso   1.000  I
  I3       1.0000 0.23601  0.23601  0.23601  Biso   1.000  I
  I4       1.0000 0.26401  0.26401  0.23601  Biso   1.000  I
  I5       1.0000 0.37501  0.12502  0.37501  Biso   1.000  I
  I6       1.0000 0.30969  0.30969  0.19029  Biso   1.000  I
  I7       1.0000 0.19029  0.19029  0.19029  Biso   1.000  I
  I8       1.0000 0.19029  0.30969  0.30969  Biso   1.000  I
  I9       1.0000 0.44028  0.05970  0.44028  Biso   1.000  I
  I10      1.0000 0.26401  0.23601  0.26401  Biso   1.000  I
  I11      1.0000 0.37501  0.37501  0.12502  Biso   1.000  I
  I12      1.0000 0.12502  0.12502  0.12502  Biso   1.000  I
  I13      1.0000 0.12502  0.37501  0.37501  Biso   1.000  I
  I14      1.0000 0.51400  0.01402  0.51400  Biso   1.000  I
  I15      1.0000 0.48600  0.98598  0.51400  Biso   1.000  I
  I16      1.0000 0.51400  0.98598  0.48600  Biso   1.000  I
  I17      1.0000 0.44028  0.44028  0.05970  Biso   1.000  I
  I18      1.0000 0.05970  0.05970  0.05970  Biso   1.000  I
  I19      1.0000 0.05970  0.44028  0.44028  Biso   1.000  I
  I20      1.0000 0.44028  0.94030  0.55972  Biso   1.000  I
  I21      1.0000 0.55972  0.94030  0.44028  Biso   1.000  I
  I22      1.0000 0.55972  0.05970  0.55972  Biso   1.000  I
  I23      1.0000 0.51400  0.51400  0.01402  Biso   1.000  I
  I24      1.0000 0.51400  0.48600  0.98598  Biso   1.000  I
  I25      1.0000 0.48600  0.51400  0.98598  Biso   1.000  I
  I26      1.0000 0.98598  0.98598  0.01402  Biso   1.000  I
  I27      1.0000 0.98598  0.01402  0.98598  Biso   1.000  I
  I28      1.0000 0.01402  0.98598  0.98598  Biso   1.000  I
  I29      1.0000 0.01402  0.51400  0.51400  Biso   1.000  I
  I30      1.0000 0.98598  0.51400  0.48600  Biso   1.000  I
  I31      1.0000 0.98598  0.48600  0.51400  Biso   1.000  I
  I32      1.0000 0.48600  0.01402  0.48600  Biso   1.000  I
  I33      1.0000 0.37501  0.87498  0.62499  Biso   1.000  I
  I34      1.0000 0.62499  0.87498  0.37501  Biso   1.000  I
  I35      1.0000 0.62499  0.12502  0.62499  Biso   1.000  I
  I36      1.0000 0.55972  0.44028  0.94030  Biso   1.000  I
  I37      1.0000 0.44028  0.55972  0.94030  Biso   1.000  I
  I38      1.0000 0.55972  0.55972  0.05970  Biso   1.000  I
  I39      1.0000 0.94030  0.05970  0.94030  Biso   1.000  I
  I40      1.0000 0.05970  0.94030  0.94030  Biso   1.000  I
  I41      1.0000 0.94030  0.94030  0.05970  Biso   1.000  I
  I42      1.0000 0.94030  0.55972  0.44028  Biso   1.000  I
  I43      1.0000 0.94030  0.44028  0.55972  Biso   1.000  I
  I44      1.0000 0.05970  0.55972  0.55972  Biso   1.000  I
  I45      1.0000 0.30969  0.80971  0.69031  Biso   1.000  I
  I46      1.0000 0.69031  0.80971  0.30969  Biso   1.000  I
  I47      1.0000 0.69031  0.19029  0.69031  Biso   1.000  I
  I48      1.0000 0.48600  0.48600  0.01402  Biso   1.000  I
  I49      1.0000 0.62499  0.37501  0.87498  Biso   1.000  I
  I50      1.0000 0.37501  0.62499  0.87498  Biso   1.000  I
  I51      1.0000 0.62499  0.62499  0.12502  Biso   1.000  I
  I52      1.0000 0.01402  0.01402  0.01402  Biso   1.000  I
  I53      1.0000 0.87498  0.12502  0.87498  Biso   1.000  I
  I54      1.0000 0.12502  0.87498  0.87498  Biso   1.000  I
  I55      1.0000 0.87498  0.87498  0.12502  Biso   1.000  I
  I56      1.0000 0.01402  0.48600  0.48600  Biso   1.000  I
  I57      1.0000 0.87498  0.62499  0.37501  Biso   1.000  I
  I58      1.0000 0.87498  0.37501  0.62499  Biso   1.000  I
  I59      1.0000 0.12502  0.62499  0.62499  Biso   1.000  I
  I60      1.0000 0.23601  0.76399  0.76399  Biso   1.000  I
  I61      1.0000 0.23601  0.73599  0.73599  Biso   1.000  I
  I62      1.0000 0.26401  0.73599  0.76399  Biso   1.000  I
  I63      1.0000 0.76399  0.73599  0.26401  Biso   1.000  I
  I64      1.0000 0.76399  0.76399  0.23601  Biso   1.000  I
  I65      1.0000 0.73599  0.73599  0.23601  Biso   1.000  I
  I66      1.0000 0.73599  0.26401  0.76399  Biso   1.000  I
  I67      1.0000 0.76399  0.23601  0.76399  Biso   1.000  I
  I68      1.0000 0.76399  0.26401  0.73599  Biso   1.000  I
  I69      1.0000 0.69031  0.30969  0.80971  Biso   1.000  I
  I70      1.0000 0.30969  0.69031  0.80971  Biso   1.000  I
  I71      1.0000 0.69031  0.69031  0.19029  Biso   1.000  I
  I72      1.0000 0.80971  0.19029  0.80971  Biso   1.000  I
  I73      1.0000 0.19029  0.80971  0.80971  Biso   1.000  I
  I74      1.0000 0.80971  0.80971  0.19029  Biso   1.000  I
  I75      1.0000 0.80971  0.69031  0.30969  Biso   1.000  I
  I76      1.0000 0.80971  0.30969  0.69031  Biso   1.000  I
  I77      1.0000 0.19029  0.69031  0.69031  Biso   1.000  I
  I78      1.0000 0.19029  0.69031  0.69031  Biso   1.000  I
  I79      1.0000 0.30969  0.69031  0.80971  Biso   1.000  I
  I80      1.0000 0.19029  0.80971  0.80971  Biso   1.000  I
  I81      1.0000 0.80971  0.80971  0.19029  Biso   1.000  I
  I82      1.0000 0.69031  0.69031  0.19029  Biso   1.000  I
  I83      1.0000 0.80971  0.69031  0.30969  Biso   1.000  I
  I84      1.0000 0.80971  0.19029  0.80971  Biso   1.000  I
  I85      1.0000 0.80971  0.30969  0.69031  Biso   1.000  I
  I86      1.0000 0.69031  0.30969  0.80971  Biso   1.000  I
  I87      1.0000 0.73599  0.23601  0.73599  Biso   1.000  I
  I88      1.0000 0.76399  0.23601  0.76399  Biso   1.000  I
  I89      1.0000 0.76399  0.26401  0.73599  Biso   1.000  I
  I90      1.0000 0.23601  0.76399  0.76399  Biso   1.000  I
  I91      1.0000 0.23601  0.73599  0.73599  Biso   1.000  I
  I92      1.0000 0.26401  0.76399  0.73599  Biso   1.000  I
  I93      1.0000 0.76399  0.73599  0.26401  Biso   1.000  I
  I94      1.0000 0.76399  0.76399  0.23601  Biso   1.000  I
  I95      1.0000 0.73599  0.76399  0.26401  Biso   1.000  I
  I96      1.0000 0.73599  0.23601  0.73599  Biso   1.000  I
  I97      1.0000 0.73599  0.26401  0.76399  Biso   1.000  I
  I98      1.0000 0.76399  0.26401  0.73599  Biso   1.000  I
  I99      1.0000 0.23601  0.73599  0.73599  Biso   1.000  I
  I100     1.0000 0.26401  0.76399  0.73599  Biso   1.000  I
  I101     1.0000 0.26401  0.73599  0.76399  Biso   1.000  I
  I102     1.0000 0.76399  0.73599  0.26401  Biso   1.000  I
  I103     1.0000 0.73599  0.73599  0.23601  Biso   1.000  I
  I104     1.0000 0.73599  0.76399  0.26401  Biso   1.000  I
  I105     1.0000 0.76399  0.76399  0.23601  Biso   1.000  I
  I106     1.0000 0.73599  0.73599  0.23601  Biso   1.000  I
  I107     1.0000 0.73599  0.76399  0.26401  Biso   1.000  I
  I108     1.0000 0.73599  0.23601  0.73599  Biso   1.000  I
  I109     1.0000 0.73599  0.26401  0.76399  Biso   1.000  I
  I110     1.0000 0.76399  0.23601  0.76399  Biso   1.000  I
  I111     1.0000 0.23601  0.76399  0.76399  Biso   1.000  I
  I112     1.0000 0.26401  0.76399  0.73599  Biso   1.000  I
  I113     1.0000 0.26401  0.73599  0.76399  Biso   1.000  I
  I114     1.0000 0.12502  0.62499  0.62499  Biso   1.000  I
  I115     1.0000 0.26401  0.76399  0.73599  Biso   1.000  I
  I116     1.0000 0.37501  0.62499  0.87498  Biso   1.000  I
  I117     1.0000 0.12502  0.87498  0.87498  Biso   1.000  I
  I118     1.0000 0.87498  0.87498  0.12502  Biso   1.000  I
  I119     1.0000 0.73599  0.76399  0.26401  Biso   1.000  I
  I120     1.0000 0.62499  0.62499  0.12502  Biso   1.000  I
  I121     1.0000 0.87498  0.62499  0.37501  Biso   1.000  I
  I122     1.0000 0.87498  0.12502  0.87498  Biso   1.000  I
  I123     1.0000 0.73599  0.23601  0.73599  Biso   1.000  I
  I124     1.0000 0.87498  0.37501  0.62499  Biso   1.000  I
  I125     1.0000 0.62499  0.37501  0.87498  Biso   1.000  I
  I126     1.0000 0.80971  0.19029  0.80971  Biso   1.000  I
  I127     1.0000 0.80971  0.30969  0.69031  Biso   1.000  I
  I128     1.0000 0.69031  0.19029  0.69031  Biso   1.000  I
  I129     1.0000 0.19029  0.69031  0.69031  Biso   1.000  I
  I130     1.0000 0.30969  0.80971  0.69031  Biso   1.000  I
  I131     1.0000 0.19029  0.80971  0.80971  Biso   1.000  I
  I132     1.0000 0.80971  0.80971  0.19029  Biso   1.000  I
  I133     1.0000 0.69031  0.80971  0.30969  Biso   1.000  I
  I134     1.0000 0.80971  0.69031  0.30969  Biso   1.000  I
  I135     1.0000 0.69031  0.30969  0.80971  Biso   1.000  I
  I136     1.0000 0.80971  0.30969  0.69031  Biso   1.000  I
  I137     1.0000 0.69031  0.19029  0.69031  Biso   1.000  I
  I138     1.0000 0.30969  0.80971  0.69031  Biso   1.000  I
  I139     1.0000 0.30969  0.69031  0.80971  Biso   1.000  I
  I140     1.0000 0.19029  0.69031  0.69031  Biso   1.000  I
  I141     1.0000 0.69031  0.69031  0.19029  Biso   1.000  I
  I142     1.0000 0.69031  0.80971  0.30969  Biso   1.000  I
  I143     1.0000 0.80971  0.69031  0.30969  Biso   1.000  I
  I144     1.0000 0.69031  0.69031  0.19029  Biso   1.000  I
  I145     1.0000 0.69031  0.80971  0.30969  Biso   1.000  I
  I146     1.0000 0.80971  0.80971  0.19029  Biso   1.000  I
  I147     1.0000 0.69031  0.30969  0.80971  Biso   1.000  I
  I148     1.0000 0.80971  0.19029  0.80971  Biso   1.000  I
  I149     1.0000 0.69031  0.19029  0.69031  Biso   1.000  I
  I150     1.0000 0.30969  0.80971  0.69031  Biso   1.000  I
  I151     1.0000 0.30969  0.69031  0.80971  Biso   1.000  I
  I152     1.0000 0.19029  0.80971  0.80971  Biso   1.000  I
  I153     1.0000 0.05970  0.55972  0.55972  Biso   1.000  I
  I154     1.0000 0.44028  0.55972  0.94030  Biso   1.000  I
  I155     1.0000 0.05970  0.94030  0.94030  Biso   1.000  I
  I156     1.0000 0.94030  0.94030  0.05970  Biso   1.000  I
  I157     1.0000 0.55972  0.55972  0.05970  Biso   1.000  I
  I158     1.0000 0.94030  0.55972  0.44028  Biso   1.000  I
  I159     1.0000 0.94030  0.05970  0.94030  Biso   1.000  I
  I160     1.0000 0.94030  0.44028  0.55972  Biso   1.000  I
  I161     1.0000 0.55972  0.44028  0.94030  Biso   1.000  I
  I162     1.0000 0.87498  0.12502  0.87498  Biso   1.000  I
  I163     1.0000 0.73599  0.26401  0.76399  Biso   1.000  I
  I164     1.0000 0.87498  0.37501  0.62499  Biso   1.000  I
  I165     1.0000 0.62499  0.12502  0.62499  Biso   1.000  I
  I166     1.0000 0.12502  0.62499  0.62499  Biso   1.000  I
  I167     1.0000 0.26401  0.73599  0.76399  Biso   1.000  I
  I168     1.0000 0.37501  0.87498  0.62499  Biso   1.000  I
  I169     1.0000 0.12502  0.87498  0.87498  Biso   1.000  I
  I170     1.0000 0.87498  0.87498  0.12502  Biso   1.000  I
  I171     1.0000 0.73599  0.73599  0.23601  Biso   1.000  I
  I172     1.0000 0.62499  0.87498  0.37501  Biso   1.000  I
  I173     1.0000 0.87498  0.62499  0.37501  Biso   1.000  I
  I174     1.0000 0.62499  0.37501  0.87498  Biso   1.000  I
  I175     1.0000 0.76399  0.23601  0.76399  Biso   1.000  I
  I176     1.0000 0.87498  0.37501  0.62499  Biso   1.000  I
  I177     1.0000 0.62499  0.12502  0.62499  Biso   1.000  I
  I178     1.0000 0.37501  0.87498  0.62499  Biso   1.000  I
  I179     1.0000 0.23601  0.76399  0.76399  Biso   1.000  I
  I180     1.0000 0.37501  0.62499  0.87498  Biso   1.000  I
  I181     1.0000 0.12502  0.62499  0.62499  Biso   1.000  I
  I182     1.0000 0.62499  0.62499  0.12502  Biso   1.000  I
  I183     1.0000 0.76399  0.76399  0.23601  Biso   1.000  I
  I184     1.0000 0.62499  0.87498  0.37501  Biso   1.000  I
  I185     1.0000 0.87498  0.62499  0.37501  Biso   1.000  I
  I186     1.0000 0.62499  0.62499  0.12502  Biso   1.000  I
  I187     1.0000 0.76399  0.73599  0.26401  Biso   1.000  I
  I188     1.0000 0.62499  0.87498  0.37501  Biso   1.000  I
  I189     1.0000 0.87498  0.87498  0.12502  Biso   1.000  I
  I190     1.0000 0.62499  0.37501  0.87498  Biso   1.000  I
  I191     1.0000 0.76399  0.26401  0.73599  Biso   1.000  I
  I192     1.0000 0.87498  0.12502  0.87498  Biso   1.000  I
  I193     1.0000 0.62499  0.12502  0.62499  Biso   1.000  I
  I194     1.0000 0.37501  0.87498  0.62499  Biso   1.000  I
  I195     1.0000 0.23601  0.73599  0.73599  Biso   1.000  I
  I196     1.0000 0.37501  0.62499  0.87498  Biso   1.000  I
  I197     1.0000 0.12502  0.87498  0.87498  Biso   1.000  I
  I198     1.0000 0.98598  0.48600  0.51400  Biso   1.000  I
  I199     1.0000 0.01402  0.48600  0.48600  Biso   1.000  I
  I200     1.0000 0.98598  0.51400  0.48600  Biso   1.000  I
  I201     1.0000 0.51400  0.48600  0.98598  Biso   1.000  I
  I202     1.0000 0.48600  0.48600  0.01402  Biso   1.000  I
  I203     1.0000 0.51400  0.51400  0.01402  Biso   1.000  I
  I204     1.0000 0.98598  0.98598  0.01402  Biso   1.000  I
  I205     1.0000 0.01402  0.01402  0.01402  Biso   1.000  I
  I206     1.0000 0.98598  0.01402  0.98598  Biso   1.000  I
  I207     1.0000 0.01402  0.98598  0.98598  Biso   1.000  I
  I208     1.0000 0.01402  0.01402  0.01402  Biso   1.000  I
  I209     1.0000 0.98598  0.01402  0.98598  Biso   1.000  I
  I210     1.0000 0.51400  0.48600  0.98598  Biso   1.000  I
  I211     1.0000 0.48600  0.48600  0.01402  Biso   1.000  I
  I212     1.0000 0.48600  0.51400  0.98598  Biso   1.000  I
  I213     1.0000 0.98598  0.48600  0.51400  Biso   1.000  I
  I214     1.0000 0.01402  0.51400  0.51400  Biso   1.000  I
  I215     1.0000 0.01402  0.48600  0.48600  Biso   1.000  I
  I216     1.0000 0.98598  0.98598  0.01402  Biso   1.000  I
  I217     1.0000 0.01402  0.98598  0.98598  Biso   1.000  I
  I218     1.0000 0.01402  0.01402  0.01402  Biso   1.000  I
  I219     1.0000 0.01402  0.51400  0.51400  Biso   1.000  I
  I220     1.0000 0.01402  0.48600  0.48600  Biso   1.000  I
  I221     1.0000 0.98598  0.51400  0.48600  Biso   1.000  I
  I222     1.0000 0.48600  0.48600  0.01402  Biso   1.000  I
  I223     1.0000 0.51400  0.51400  0.01402  Biso   1.000  I
  I224     1.0000 0.48600  0.51400  0.98598  Biso   1.000  I
  I225     1.0000 0.94030  0.05970  0.94030  Biso   1.000  I
  I226     1.0000 0.94030  0.44028  0.55972  Biso   1.000  I
  I227     1.0000 0.55972  0.05970  0.55972  Biso   1.000  I
  I228     1.0000 0.05970  0.55972  0.55972  Biso   1.000  I
  I229     1.0000 0.44028  0.94030  0.55972  Biso   1.000  I
  I230     1.0000 0.05970  0.94030  0.94030  Biso   1.000  I
  I231     1.0000 0.94030  0.94030  0.05970  Biso   1.000  I
  I232     1.0000 0.55972  0.94030  0.44028  Biso   1.000  I
  I233     1.0000 0.94030  0.55972  0.44028  Biso   1.000  I
  I234     1.0000 0.55972  0.44028  0.94030  Biso   1.000  I
  I235     1.0000 0.94030  0.44028  0.55972  Biso   1.000  I
  I236     1.0000 0.55972  0.05970  0.55972  Biso   1.000  I
  I237     1.0000 0.44028  0.94030  0.55972  Biso   1.000  I
  I238     1.0000 0.44028  0.55972  0.94030  Biso   1.000  I
  I239     1.0000 0.05970  0.55972  0.55972  Biso   1.000  I
  I240     1.0000 0.55972  0.55972  0.05970  Biso   1.000  I
  I241     1.0000 0.55972  0.94030  0.44028  Biso   1.000  I
  I242     1.0000 0.94030  0.55972  0.44028  Biso   1.000  I
  I243     1.0000 0.55972  0.55972  0.05970  Biso   1.000  I
  I244     1.0000 0.55972  0.94030  0.44028  Biso   1.000  I
  I245     1.0000 0.94030  0.94030  0.05970  Biso   1.000  I
  I246     1.0000 0.55972  0.44028  0.94030  Biso   1.000  I
  I247     1.0000 0.94030  0.05970  0.94030  Biso   1.000  I
  I248     1.0000 0.55972  0.05970  0.55972  Biso   1.000  I
  I249     1.0000 0.44028  0.94030  0.55972  Biso   1.000  I
  I250     1.0000 0.44028  0.55972  0.94030  Biso   1.000  I
  I251     1.0000 0.05970  0.94030  0.94030  Biso   1.000  I
  I252     1.0000 0.05970  0.44028  0.44028  Biso   1.000  I
  I253     1.0000 0.94030  0.44028  0.55972  Biso   1.000  I
  I254     1.0000 0.44028  0.44028  0.05970  Biso   1.000  I
  I255     1.0000 0.55972  0.55972  0.05970  Biso   1.000  I
  I256     1.0000 0.55972  0.44028  0.94030  Biso   1.000  I
  I257     1.0000 0.05970  0.05970  0.05970  Biso   1.000  I
  I258     1.0000 0.94030  0.94030  0.05970  Biso   1.000  I
  I259     1.0000 0.05970  0.05970  0.05970  Biso   1.000  I
  I260     1.0000 0.05970  0.94030  0.94030  Biso   1.000  I
  I261     1.0000 0.44028  0.44028  0.05970  Biso   1.000  I
  I262     1.0000 0.55972  0.44028  0.94030  Biso   1.000  I
  I263     1.0000 0.05970  0.55972  0.55972  Biso   1.000  I
  I264     1.0000 0.05970  0.44028  0.44028  Biso   1.000  I
  I265     1.0000 0.94030  0.44028  0.55972  Biso   1.000  I
  I266     1.0000 0.05970  0.94030  0.94030  Biso   1.000  I
  I267     1.0000 0.05970  0.05970  0.05970  Biso   1.000  I
  I268     1.0000 0.94030  0.94030  0.05970  Biso   1.000  I
  I269     1.0000 0.05970  0.44028  0.44028  Biso   1.000  I
  I270     1.0000 0.05970  0.55972  0.55972  Biso   1.000  I
  I271     1.0000 0.55972  0.55972  0.05970  Biso   1.000  I
  I272     1.0000 0.44028  0.44028  0.05970  Biso   1.000  I
  I273     1.0000 0.98598  0.98598  0.01402  Biso   1.000  I
  I274     1.0000 0.98598  0.51400  0.48600  Biso   1.000  I
  I275     1.0000 0.01402  0.51400  0.51400  Biso   1.000  I
  I276     1.0000 0.01402  0.48600  0.48600  Biso   1.000  I
  I277     1.0000 0.48600  0.98598  0.51400  Biso   1.000  I
  I278     1.0000 0.51400  0.98598  0.48600  Biso   1.000  I
  I279     1.0000 0.48600  0.01402  0.48600  Biso   1.000  I
  I280     1.0000 0.98598  0.51400  0.48600  Biso   1.000  I
  I281     1.0000 0.98598  0.48600  0.51400  Biso   1.000  I
  I282     1.0000 0.01402  0.48600  0.48600  Biso   1.000  I
  I283     1.0000 0.51400  0.98598  0.48600  Biso   1.000  I
  I284     1.0000 0.48600  0.01402  0.48600  Biso   1.000  I
  I285     1.0000 0.51400  0.01402  0.51400  Biso   1.000  I
  I286     1.0000 0.98598  0.98598  0.01402  Biso   1.000  I
  I287     1.0000 0.98598  0.01402  0.98598  Biso   1.000  I
  I288     1.0000 0.01402  0.01402  0.01402  Biso   1.000  I
  I289     1.0000 0.98598  0.01402  0.98598  Biso   1.000  I
  I290     1.0000 0.01402  0.98598  0.98598  Biso   1.000  I
  I291     1.0000 0.01402  0.01402  0.01402  Biso   1.000  I
  I292     1.0000 0.48600  0.98598  0.51400  Biso   1.000  I
  I293     1.0000 0.48600  0.01402  0.48600  Biso   1.000  I
  I294     1.0000 0.51400  0.01402  0.51400  Biso   1.000  I
  I295     1.0000 0.98598  0.48600  0.51400  Biso   1.000  I
  I296     1.0000 0.48600  0.51400  0.98598  Biso   1.000  I
  I297     1.0000 0.48600  0.48600  0.01402  Biso   1.000  I
  I298     1.0000 0.51400  0.51400  0.01402  Biso   1.000  I
  I299     1.0000 0.01402  0.51400  0.51400  Biso   1.000  I
  I300     1.0000 0.48600  0.98598  0.51400  Biso   1.000  I
  I301     1.0000 0.51400  0.98598  0.48600  Biso   1.000  I
  I302     1.0000 0.48600  0.01402  0.48600  Biso   1.000  I
  I303     1.0000 0.51400  0.01402  0.51400  Biso   1.000  I
  I304     1.0000 0.51400  0.51400  0.01402  Biso   1.000  I
  I305     1.0000 0.98598  0.51400  0.48600  Biso   1.000  I
  I306     1.0000 0.98598  0.48600  0.51400  Biso   1.000  I
  I307     1.0000 0.01402  0.48600  0.48600  Biso   1.000  I
  I308     1.0000 0.51400  0.48600  0.98598  Biso   1.000  I
  I309     1.0000 0.48600  0.51400  0.98598  Biso   1.000  I
  I310     1.0000 0.48600  0.48600  0.01402  Biso   1.000  I
  I311     1.0000 0.48600  0.98598  0.51400  Biso   1.000  I
  I312     1.0000 0.48600  0.01402  0.48600  Biso   1.000  I
  I313     1.0000 0.51400  0.01402  0.51400  Biso   1.000  I
  I314     1.0000 0.01402  0.51400  0.51400  Biso   1.000  I
  I315     1.0000 0.51400  0.48600  0.98598  Biso   1.000  I
  I316     1.0000 0.48600  0.98598  0.51400  Biso   1.000  I
  I317     1.0000 0.48600  0.01402  0.48600  Biso   1.000  I
  I318     1.0000 0.51400  0.01402  0.51400  Biso   1.000  I
  I319     1.0000 0.01402  0.98598  0.98598  Biso   1.000  I
  I320     1.0000 0.48600  0.51400  0.98598  Biso   1.000  I
  I321     1.0000 0.48600  0.48600  0.01402  Biso   1.000  I
  I322     1.0000 0.51400  0.51400  0.01402  Biso   1.000  I
  I323     1.0000 0.01402  0.98598  0.98598  Biso   1.000  I
  I324     1.0000 0.51400  0.98598  0.48600  Biso   1.000  I
  I325     1.0000 0.51400  0.98598  0.48600  Biso   1.000  I
  I326     1.0000 0.51400  0.48600  0.98598  Biso   1.000  I
  I327     1.0000 0.98598  0.98598  0.01402  Biso   1.000  I
  I328     1.0000 0.98598  0.01402  0.98598  Biso   1.000  I
  I329     1.0000 0.01402  0.01402  0.01402  Biso   1.000  I
  I330     1.0000 0.12502  0.37501  0.37501  Biso   1.000  I
  I331     1.0000 0.87498  0.37501  0.62499  Biso   1.000  I
  I332     1.0000 0.48600  0.51400  0.98598  Biso   1.000  I
  I333     1.0000 0.37501  0.37501  0.12502  Biso   1.000  I
  I334     1.0000 0.62499  0.62499  0.12502  Biso   1.000  I
  I335     1.0000 0.62499  0.37501  0.87498  Biso   1.000  I
  I336     1.0000 0.12502  0.12502  0.12502  Biso   1.000  I
  I337     1.0000 0.87498  0.87498  0.12502  Biso   1.000  I
  I338     1.0000 0.12502  0.12502  0.12502  Biso   1.000  I
  I339     1.0000 0.12502  0.87498  0.87498  Biso   1.000  I
  I340     1.0000 0.37501  0.37501  0.12502  Biso   1.000  I
  I341     1.0000 0.62499  0.37501  0.87498  Biso   1.000  I
  I342     1.0000 0.98598  0.51400  0.48600  Biso   1.000  I
  I343     1.0000 0.12502  0.62499  0.62499  Biso   1.000  I
  I344     1.0000 0.12502  0.37501  0.37501  Biso   1.000  I
  I345     1.0000 0.87498  0.37501  0.62499  Biso   1.000  I
  I346     1.0000 0.98598  0.01402  0.98598  Biso   1.000  I
  I347     1.0000 0.12502  0.87498  0.87498  Biso   1.000  I
  I348     1.0000 0.12502  0.12502  0.12502  Biso   1.000  I
  I349     1.0000 0.87498  0.87498  0.12502  Biso   1.000  I
  I350     1.0000 0.12502  0.37501  0.37501  Biso   1.000  I
  I351     1.0000 0.12502  0.62499  0.62499  Biso   1.000  I
  I352     1.0000 0.62499  0.62499  0.12502  Biso   1.000  I
  I353     1.0000 0.37501  0.37501  0.12502  Biso   1.000  I
  I354     1.0000 0.05970  0.55972  0.55972  Biso   1.000  I
  I355     1.0000 0.05970  0.44028  0.44028  Biso   1.000  I
  I356     1.0000 0.94030  0.55972  0.44028  Biso   1.000  I
  I357     1.0000 0.55972  0.94030  0.44028  Biso   1.000  I
  I358     1.0000 0.44028  0.05970  0.44028  Biso   1.000  I
  I359     1.0000 0.05970  0.44028  0.44028  Biso   1.000  I
  I360     1.0000 0.94030  0.55972  0.44028  Biso   1.000  I
  I361     1.0000 0.44028  0.05970  0.44028  Biso   1.000  I
  I362     1.0000 0.55972  0.05970  0.55972  Biso   1.000  I
  I363     1.0000 0.55972  0.94030  0.44028  Biso   1.000  I
  I364     1.0000 0.94030  0.05970  0.94030  Biso   1.000  I
  I365     1.0000 0.05970  0.05970  0.05970  Biso   1.000  I
  I366     1.0000 0.05970  0.94030  0.94030  Biso   1.000  I
  I367     1.0000 0.05970  0.05970  0.05970  Biso   1.000  I
  I368     1.0000 0.94030  0.05970  0.94030  Biso   1.000  I
  I369     1.0000 0.44028  0.05970  0.44028  Biso   1.000  I
  I370     1.0000 0.55972  0.05970  0.55972  Biso   1.000  I
  I371     1.0000 0.44028  0.44028  0.05970  Biso   1.000  I
  I372     1.0000 0.44028  0.55972  0.94030  Biso   1.000  I
  I373     1.0000 0.55972  0.94030  0.44028  Biso   1.000  I
  I374     1.0000 0.44028  0.05970  0.44028  Biso   1.000  I
  I375     1.0000 0.44028  0.94030  0.55972  Biso   1.000  I
  I376     1.0000 0.94030  0.44028  0.55972  Biso   1.000  I
  I377     1.0000 0.05970  0.44028  0.44028  Biso   1.000  I
  I378     1.0000 0.94030  0.55972  0.44028  Biso   1.000  I
  I379     1.0000 0.44028  0.55972  0.94030  Biso   1.000  I
  I380     1.0000 0.44028  0.44028  0.05970  Biso   1.000  I
  I381     1.0000 0.55972  0.44028  0.94030  Biso   1.000  I
  I382     1.0000 0.44028  0.05970  0.44028  Biso   1.000  I
  I383     1.0000 0.44028  0.94030  0.55972  Biso   1.000  I
  I384     1.0000 0.44028  0.05970  0.44028  Biso   1.000  I
  I385     1.0000 0.55972  0.05970  0.55972  Biso   1.000  I
  I386     1.0000 0.44028  0.94030  0.55972  Biso   1.000  I
  I387     1.0000 0.44028  0.44028  0.05970  Biso   1.000  I
  I388     1.0000 0.55972  0.55972  0.05970  Biso   1.000  I
  I389     1.0000 0.44028  0.55972  0.94030  Biso   1.000  I
  I390     1.0000 0.94030  0.05970  0.94030  Biso   1.000  I
  I391     1.0000 0.05970  0.05970  0.05970  Biso   1.000  I
  I392     1.0000 0.94030  0.94030  0.05970  Biso   1.000  I
  I393     1.0000 0.19029  0.30969  0.30969  Biso   1.000  I
  I394     1.0000 0.80971  0.30969  0.69031  Biso   1.000  I
  I395     1.0000 0.30969  0.30969  0.19029  Biso   1.000  I
  I396     1.0000 0.69031  0.69031  0.19029  Biso   1.000  I
  I397     1.0000 0.69031  0.30969  0.80971  Biso   1.000  I
  I398     1.0000 0.19029  0.19029  0.19029  Biso   1.000  I
  I399     1.0000 0.80971  0.80971  0.19029  Biso   1.000  I
  I400     1.0000 0.19029  0.19029  0.19029  Biso   1.000  I
  I401     1.0000 0.19029  0.80971  0.80971  Biso   1.000  I
  I402     1.0000 0.30969  0.30969  0.19029  Biso   1.000  I
  I403     1.0000 0.69031  0.30969  0.80971  Biso   1.000  I
  I404     1.0000 0.19029  0.69031  0.69031  Biso   1.000  I
  I405     1.0000 0.19029  0.30969  0.30969  Biso   1.000  I
  I406     1.0000 0.80971  0.30969  0.69031  Biso   1.000  I
  I407     1.0000 0.19029  0.80971  0.80971  Biso   1.000  I
  I408     1.0000 0.19029  0.19029  0.19029  Biso   1.000  I
  I409     1.0000 0.80971  0.80971  0.19029  Biso   1.000  I
  I410     1.0000 0.19029  0.30969  0.30969  Biso   1.000  I
  I411     1.0000 0.19029  0.69031  0.69031  Biso   1.000  I
  I412     1.0000 0.69031  0.69031  0.19029  Biso   1.000  I
  I413     1.0000 0.30969  0.30969  0.19029  Biso   1.000  I
  I414     1.0000 0.98598  0.48600  0.51400  Biso   1.000  I
  I415     1.0000 0.12502  0.62499  0.62499  Biso   1.000  I
  I416     1.0000 0.12502  0.37501  0.37501  Biso   1.000  I
  I417     1.0000 0.87498  0.62499  0.37501  Biso   1.000  I
  I418     1.0000 0.62499  0.87498  0.37501  Biso   1.000  I
  I419     1.0000 0.37501  0.12502  0.37501  Biso   1.000  I
  I420     1.0000 0.12502  0.37501  0.37501  Biso   1.000  I
  I421     1.0000 0.87498  0.62499  0.37501  Biso   1.000  I
  I422     1.0000 0.48600  0.98598  0.51400  Biso   1.000  I
  I423     1.0000 0.37501  0.12502  0.37501  Biso   1.000  I
  I424     1.0000 0.62499  0.12502  0.62499  Biso   1.000  I
  I425     1.0000 0.62499  0.87498  0.37501  Biso   1.000  I
  I426     1.0000 0.87498  0.12502  0.87498  Biso   1.000  I
  I427     1.0000 0.12502  0.12502  0.12502  Biso   1.000  I
  I428     1.0000 0.98598  0.98598  0.01402  Biso   1.000  I
  I429     1.0000 0.12502  0.87498  0.87498  Biso   1.000  I
  I430     1.0000 0.12502  0.12502  0.12502  Biso   1.000  I
  I431     1.0000 0.87498  0.12502  0.87498  Biso   1.000  I
  I432     1.0000 0.37501  0.12502  0.37501  Biso   1.000  I
  I433     1.0000 0.62499  0.12502  0.62499  Biso   1.000  I
  I434     1.0000 0.37501  0.37501  0.12502  Biso   1.000  I
  I435     1.0000 0.37501  0.62499  0.87498  Biso   1.000  I
  I436     1.0000 0.62499  0.87498  0.37501  Biso   1.000  I
  I437     1.0000 0.51400  0.01402  0.51400  Biso   1.000  I
  I438     1.0000 0.37501  0.12502  0.37501  Biso   1.000  I
  I439     1.0000 0.37501  0.87498  0.62499  Biso   1.000  I
  I440     1.0000 0.87498  0.37501  0.62499  Biso   1.000  I
  I441     1.0000 0.01402  0.51400  0.51400  Biso   1.000  I
  I442     1.0000 0.12502  0.37501  0.37501  Biso   1.000  I
  I443     1.0000 0.87498  0.62499  0.37501  Biso   1.000  I
  I444     1.0000 0.37501  0.62499  0.87498  Biso   1.000  I
  I445     1.0000 0.51400  0.51400  0.01402  Biso   1.000  I
  I446     1.0000 0.37501  0.37501  0.12502  Biso   1.000  I
  I447     1.0000 0.62499  0.37501  0.87498  Biso   1.000  I
  I448     1.0000 0.37501  0.12502  0.37501  Biso   1.000  I
  I449     1.0000 0.37501  0.87498  0.62499  Biso   1.000  I
  I450     1.0000 0.51400  0.98598  0.48600  Biso   1.000  I
  I451     1.0000 0.37501  0.12502  0.37501  Biso   1.000  I
  I452     1.0000 0.62499  0.12502  0.62499  Biso   1.000  I
  I453     1.0000 0.37501  0.87498  0.62499  Biso   1.000  I
  I454     1.0000 0.51400  0.48600  0.98598  Biso   1.000  I
  I455     1.0000 0.37501  0.37501  0.12502  Biso   1.000  I
  I456     1.0000 0.62499  0.62499  0.12502  Biso   1.000  I
  I457     1.0000 0.37501  0.62499  0.87498  Biso   1.000  I
  I458     1.0000 0.01402  0.98598  0.98598  Biso   1.000  I
  I459     1.0000 0.87498  0.12502  0.87498  Biso   1.000  I
  I460     1.0000 0.12502  0.12502  0.12502  Biso   1.000  I
  I461     1.0000 0.87498  0.87498  0.12502  Biso   1.000  I
  I462     1.0000 0.26401  0.23601  0.26401  Biso   1.000  I
  I463     1.0000 0.23601  0.23601  0.23601  Biso   1.000  I
  I464     1.0000 0.26401  0.26401  0.23601  Biso   1.000  I
  I465     1.0000 0.73599  0.23601  0.73599  Biso   1.000  I
  I466     1.0000 0.73599  0.26401  0.76399  Biso   1.000  I
  I467     1.0000 0.76399  0.23601  0.76399  Biso   1.000  I
  I468     1.0000 0.26401  0.23601  0.26401  Biso   1.000  I
  I469     1.0000 0.23601  0.26401  0.26401  Biso   1.000  I
  I470     1.0000 0.23601  0.23601  0.23601  Biso   1.000  I
  I471     1.0000 0.76399  0.73599  0.26401  Biso   1.000  I
  I472     1.0000 0.76399  0.76399  0.23601  Biso   1.000  I
  I473     1.0000 0.73599  0.76399  0.26401  Biso   1.000  I
  I474     1.0000 0.73599  0.23601  0.73599  Biso   1.000  I
  I475     1.0000 0.76399  0.23601  0.76399  Biso   1.000  I
  I476     1.0000 0.76399  0.26401  0.73599  Biso   1.000  I
  I477     1.0000 0.26401  0.26401  0.23601  Biso   1.000  I
  I478     1.0000 0.26401  0.23601  0.26401  Biso   1.000  I
  I479     1.0000 0.23601  0.26401  0.26401  Biso   1.000  I
  I480     1.0000 0.76399  0.73599  0.26401  Biso   1.000  I
  I481     1.0000 0.73599  0.73599  0.23601  Biso   1.000  I
  I482     1.0000 0.73599  0.76399  0.26401  Biso   1.000  I
  I483     1.0000 0.26401  0.26401  0.23601  Biso   1.000  I
  I484     1.0000 0.26401  0.23601  0.26401  Biso   1.000  I
  I485     1.0000 0.23601  0.26401  0.26401  Biso   1.000  I
  I486     1.0000 0.23601  0.73599  0.73599  Biso   1.000  I
  I487     1.0000 0.26401  0.76399  0.73599  Biso   1.000  I
  I488     1.0000 0.26401  0.73599  0.76399  Biso   1.000  I
  I489     1.0000 0.23601  0.26401  0.26401  Biso   1.000  I
  I490     1.0000 0.73599  0.23601  0.73599  Biso   1.000  I
  I491     1.0000 0.76399  0.23601  0.76399  Biso   1.000  I
  I492     1.0000 0.76399  0.26401  0.73599  Biso   1.000  I
  I493     1.0000 0.23601  0.76399  0.76399  Biso   1.000  I
  I494     1.0000 0.26401  0.76399  0.73599  Biso   1.000  I
  I495     1.0000 0.26401  0.73599  0.76399  Biso   1.000  I
  I496     1.0000 0.26401  0.26401  0.23601  Biso   1.000  I
  I497     1.0000 0.26401  0.23601  0.26401  Biso   1.000  I
  I498     1.0000 0.23601  0.23601  0.23601  Biso   1.000  I
  I499     1.0000 0.73599  0.26401  0.76399  Biso   1.000  I
  I500     1.0000 0.23601  0.73599  0.73599  Biso   1.000  I
  I501     1.0000 0.26401  0.26401  0.23601  Biso   1.000  I
  I502     1.0000 0.26401  0.23601  0.26401  Biso   1.000  I
  I503     1.0000 0.23601  0.26401  0.26401  Biso   1.000  I
  I504     1.0000 0.73599  0.73599  0.23601  Biso   1.000  I
  I505     1.0000 0.23601  0.23601  0.23601  Biso   1.000  I
  I506     1.0000 0.23601  0.76399  0.76399  Biso   1.000  I
  I507     1.0000 0.26401  0.76399  0.73599  Biso   1.000  I
  I508     1.0000 0.26401  0.73599  0.76399  Biso   1.000  I
  I509     1.0000 0.76399  0.73599  0.26401  Biso   1.000  I
  I510     1.0000 0.76399  0.76399  0.23601  Biso   1.000  I
  I511     1.0000 0.73599  0.76399  0.26401  Biso   1.000  I
  I512     1.0000 0.23601  0.23601  0.23601  Biso   1.000  I
  I513     1.0000 0.19029  0.69031  0.69031  Biso   1.000  I
  I514     1.0000 0.19029  0.30969  0.30969  Biso   1.000  I
  I515     1.0000 0.80971  0.69031  0.30969  Biso   1.000  I
  I516     1.0000 0.69031  0.80971  0.30969  Biso   1.000  I
  I517     1.0000 0.30969  0.19029  0.30969  Biso   1.000  I
  I518     1.0000 0.19029  0.30969  0.30969  Biso   1.000  I
  I519     1.0000 0.80971  0.69031  0.30969  Biso   1.000  I
  I520     1.0000 0.30969  0.19029  0.30969  Biso   1.000  I
  I521     1.0000 0.69031  0.19029  0.69031  Biso   1.000  I
  I522     1.0000 0.69031  0.80971  0.30969  Biso   1.000  I
  I523     1.0000 0.80971  0.19029  0.80971  Biso   1.000  I
  I524     1.0000 0.19029  0.19029  0.19029  Biso   1.000  I
  I525     1.0000 0.19029  0.80971  0.80971  Biso   1.000  I
  I526     1.0000 0.19029  0.19029  0.19029  Biso   1.000  I
  I527     1.0000 0.80971  0.19029  0.80971  Biso   1.000  I
  I528     1.0000 0.30969  0.19029  0.30969  Biso   1.000  I
  I529     1.0000 0.69031  0.19029  0.69031  Biso   1.000  I
  I530     1.0000 0.30969  0.30969  0.19029  Biso   1.000  I
  I531     1.0000 0.30969  0.69031  0.80971  Biso   1.000  I
  I532     1.0000 0.69031  0.80971  0.30969  Biso   1.000  I
  I533     1.0000 0.30969  0.19029  0.30969  Biso   1.000  I
  I534     1.0000 0.30969  0.80971  0.69031  Biso   1.000  I
  I535     1.0000 0.80971  0.30969  0.69031  Biso   1.000  I
  I536     1.0000 0.19029  0.30969  0.30969  Biso   1.000  I
  I537     1.0000 0.80971  0.69031  0.30969  Biso   1.000  I
  I538     1.0000 0.30969  0.69031  0.80971  Biso   1.000  I
  I539     1.0000 0.30969  0.30969  0.19029  Biso   1.000  I
  I540     1.0000 0.69031  0.30969  0.80971  Biso   1.000  I
  I541     1.0000 0.30969  0.19029  0.30969  Biso   1.000  I
  I542     1.0000 0.30969  0.80971  0.69031  Biso   1.000  I
  I543     1.0000 0.30969  0.19029  0.30969  Biso   1.000  I
  I544     1.0000 0.69031  0.19029  0.69031  Biso   1.000  I
  I545     1.0000 0.30969  0.80971  0.69031  Biso   1.000  I
  I546     1.0000 0.30969  0.30969  0.19029  Biso   1.000  I
  I547     1.0000 0.69031  0.69031  0.19029  Biso   1.000  I
  I548     1.0000 0.30969  0.69031  0.80971  Biso   1.000  I
  I549     1.0000 0.80971  0.19029  0.80971  Biso   1.000  I
  I550     1.0000 0.19029  0.19029  0.19029  Biso   1.000  I
  I551     1.0000 0.80971  0.80971  0.19029  Biso   1.000  I
  I552     1.0000 0.19029  0.19029  0.19029  Biso   1.000  I
  I553     1.0000 0.30969  0.19029  0.30969  Biso   1.000  I
  I554     1.0000 0.69031  0.30969  0.80971  Biso   1.000  I
  I555     1.0000 0.80971  0.19029  0.80971  Biso   1.000  I
  I556     1.0000 0.69031  0.19029  0.69031  Biso   1.000  I
  I557     1.0000 0.19029  0.30969  0.30969  Biso   1.000  I
  I558     1.0000 0.19029  0.19029  0.19029  Biso   1.000  I
  I559     1.0000 0.30969  0.19029  0.30969  Biso   1.000  I
  I560     1.0000 0.69031  0.80971  0.30969  Biso   1.000  I
  I561     1.0000 0.80971  0.69031  0.30969  Biso   1.000  I
  I562     1.0000 0.80971  0.19029  0.80971  Biso   1.000  I
  I563     1.0000 0.69031  0.19029  0.69031  Biso   1.000  I
  I564     1.0000 0.30969  0.19029  0.30969  Biso   1.000  I
  I565     1.0000 0.19029  0.30969  0.30969  Biso   1.000  I
  I566     1.0000 0.69031  0.69031  0.19029  Biso   1.000  I
  I567     1.0000 0.69031  0.80971  0.30969  Biso   1.000  I
  I568     1.0000 0.80971  0.69031  0.30969  Biso   1.000  I
  I569     1.0000 0.30969  0.19029  0.30969  Biso   1.000  I
  I570     1.0000 0.30969  0.30969  0.19029  Biso   1.000  I
  I571     1.0000 0.30969  0.80971  0.69031  Biso   1.000  I
  I572     1.0000 0.30969  0.69031  0.80971  Biso   1.000  I
  I573     1.0000 0.19029  0.69031  0.69031  Biso   1.000  I
  I574     1.0000 0.80971  0.19029  0.80971  Biso   1.000  I
  I575     1.0000 0.80971  0.30969  0.69031  Biso   1.000  I
  I576     1.0000 0.69031  0.19029  0.69031  Biso   1.000  I
  I577     1.0000 0.30969  0.80971  0.69031  Biso   1.000  I
  I578     1.0000 0.30969  0.69031  0.80971  Biso   1.000  I
  I579     1.0000 0.30969  0.19029  0.30969  Biso   1.000  I
  I580     1.0000 0.19029  0.19029  0.19029  Biso   1.000  I
  I581     1.0000 0.30969  0.30969  0.19029  Biso   1.000  I
  I582     1.0000 0.30969  0.19029  0.30969  Biso   1.000  I
  I583     1.0000 0.19029  0.30969  0.30969  Biso   1.000  I
  I584     1.0000 0.30969  0.30969  0.19029  Biso   1.000  I
  I585     1.0000 0.30969  0.80971  0.69031  Biso   1.000  I
  I586     1.0000 0.30969  0.69031  0.80971  Biso   1.000  I
  I587     1.0000 0.19029  0.80971  0.80971  Biso   1.000  I
  I588     1.0000 0.80971  0.80971  0.19029  Biso   1.000  I
  I589     1.0000 0.69031  0.80971  0.30969  Biso   1.000  I
  I590     1.0000 0.80971  0.69031  0.30969  Biso   1.000  I
  I591     1.0000 0.23601  0.76399  0.76399  Biso   1.000  I
  I592     1.0000 0.26401  0.76399  0.73599  Biso   1.000  I
  I593     1.0000 0.26401  0.73599  0.76399  Biso   1.000  I
  I594     1.0000 0.26401  0.26401  0.23601  Biso   1.000  I
  I595     1.0000 0.26401  0.23601  0.26401  Biso   1.000  I
  I596     1.0000 0.23601  0.23601  0.23601  Biso   1.000  I
  I597     1.0000 0.76399  0.76399  0.23601  Biso   1.000  I
  I598     1.0000 0.73599  0.73599  0.23601  Biso   1.000  I
  I599     1.0000 0.73599  0.76399  0.26401  Biso   1.000  I
  I600     1.0000 0.76399  0.73599  0.26401  Biso   1.000  I
  I601     1.0000 0.76399  0.76399  0.23601  Biso   1.000  I
  I602     1.0000 0.73599  0.73599  0.23601  Biso   1.000  I
  I603     1.0000 0.26401  0.26401  0.23601  Biso   1.000  I
  I604     1.0000 0.23601  0.26401  0.26401  Biso   1.000  I
  I605     1.0000 0.23601  0.23601  0.23601  Biso   1.000  I
  I606     1.0000 0.26401  0.23601  0.26401  Biso   1.000  I
  I607     1.0000 0.76399  0.76399  0.23601  Biso   1.000  I
  I608     1.0000 0.73599  0.73599  0.23601  Biso   1.000  I
  I609     1.0000 0.73599  0.76399  0.26401  Biso   1.000  I
  I610     1.0000 0.26401  0.26401  0.23601  Biso   1.000  I
  I611     1.0000 0.23601  0.26401  0.26401  Biso   1.000  I
  I612     1.0000 0.23601  0.23601  0.23601  Biso   1.000  I
  I613     1.0000 0.73599  0.26401  0.76399  Biso   1.000  I
  I614     1.0000 0.76399  0.23601  0.76399  Biso   1.000  I
  I615     1.0000 0.76399  0.26401  0.73599  Biso   1.000  I
  I616     1.0000 0.76399  0.73599  0.26401  Biso   1.000  I
  I617     1.0000 0.73599  0.23601  0.73599  Biso   1.000  I
  I618     1.0000 0.73599  0.26401  0.76399  Biso   1.000  I
  I619     1.0000 0.76399  0.26401  0.73599  Biso   1.000  I
  I620     1.0000 0.26401  0.26401  0.23601  Biso   1.000  I
  I621     1.0000 0.26401  0.23601  0.26401  Biso   1.000  I
  I622     1.0000 0.23601  0.26401  0.26401  Biso   1.000  I
  I623     1.0000 0.23601  0.73599  0.73599  Biso   1.000  I
  I624     1.0000 0.26401  0.26401  0.23601  Biso   1.000  I
  I625     1.0000 0.26401  0.23601  0.26401  Biso   1.000  I
  I626     1.0000 0.23601  0.26401  0.26401  Biso   1.000  I
  I627     1.0000 0.73599  0.23601  0.73599  Biso   1.000  I
  I628     1.0000 0.23601  0.23601  0.23601  Biso   1.000  I
  I629     1.0000 0.73599  0.26401  0.76399  Biso   1.000  I
  I630     1.0000 0.76399  0.23601  0.76399  Biso   1.000  I
  I631     1.0000 0.76399  0.26401  0.73599  Biso   1.000  I
  I632     1.0000 0.26401  0.23601  0.26401  Biso   1.000  I
  I633     1.0000 0.23601  0.26401  0.26401  Biso   1.000  I
  I634     1.0000 0.23601  0.23601  0.23601  Biso   1.000  I
  I635     1.0000 0.23601  0.76399  0.76399  Biso   1.000  I
  I636     1.0000 0.23601  0.73599  0.73599  Biso   1.000  I
  I637     1.0000 0.26401  0.76399  0.73599  Biso   1.000  I
  I638     1.0000 0.76399  0.73599  0.26401  Biso   1.000  I
  I639     1.0000 0.76399  0.76399  0.23601  Biso   1.000  I
  I640     1.0000 0.73599  0.73599  0.23601  Biso   1.000  I
  I641     1.0000 0.26401  0.26401  0.23601  Biso   1.000  I
  I642     1.0000 0.23601  0.26401  0.26401  Biso   1.000  I
  I643     1.0000 0.23601  0.23601  0.23601  Biso   1.000  I
  I644     1.0000 0.23601  0.76399  0.76399  Biso   1.000  I
  I645     1.0000 0.23601  0.73599  0.73599  Biso   1.000  I
  I646     1.0000 0.26401  0.73599  0.76399  Biso   1.000  I
  I647     1.0000 0.73599  0.23601  0.73599  Biso   1.000  I
  I648     1.0000 0.73599  0.26401  0.76399  Biso   1.000  I
  I649     1.0000 0.76399  0.23601  0.76399  Biso   1.000  I
  I650     1.0000 0.26401  0.26401  0.23601  Biso   1.000  I
  I651     1.0000 0.26401  0.23601  0.26401  Biso   1.000  I
  I652     1.0000 0.23601  0.23601  0.23601  Biso   1.000  I
  I653     1.0000 0.73599  0.76399  0.26401  Biso   1.000  I
  I654     1.0000 0.26401  0.76399  0.73599  Biso   1.000  I
  I655     1.0000 0.26401  0.23601  0.26401  Biso   1.000  I
  I656     1.0000 0.23601  0.26401  0.26401  Biso   1.000  I
  I657     1.0000 0.23601  0.23601  0.23601  Biso   1.000  I
  I658     1.0000 0.76399  0.26401  0.73599  Biso   1.000  I
  I659     1.0000 0.26401  0.26401  0.23601  Biso   1.000  I
  I660     1.0000 0.23601  0.76399  0.76399  Biso   1.000  I
  I661     1.0000 0.23601  0.73599  0.73599  Biso   1.000  I
  I662     1.0000 0.26401  0.73599  0.76399  Biso   1.000  I
  I663     1.0000 0.26401  0.26401  0.23601  Biso   1.000  I
  I664     1.0000 0.23601  0.26401  0.26401  Biso   1.000  I
  I665     1.0000 0.23601  0.23601  0.23601  Biso   1.000  I
  I666     1.0000 0.73599  0.26401  0.76399  Biso   1.000  I
  I667     1.0000 0.76399  0.23601  0.76399  Biso   1.000  I
  I668     1.0000 0.76399  0.26401  0.73599  Biso   1.000  I
  I669     1.0000 0.23601  0.76399  0.76399  Biso   1.000  I
  I670     1.0000 0.23601  0.73599  0.73599  Biso   1.000  I
  I671     1.0000 0.26401  0.73599  0.76399  Biso   1.000  I
  I672     1.0000 0.26401  0.23601  0.26401  Biso   1.000  I
  I673     1.0000 0.23601  0.26401  0.26401  Biso   1.000  I
  I674     1.0000 0.23601  0.23601  0.23601  Biso   1.000  I
  I675     1.0000 0.76399  0.73599  0.26401  Biso   1.000  I
  I676     1.0000 0.76399  0.76399  0.23601  Biso   1.000  I
  I677     1.0000 0.73599  0.76399  0.26401  Biso   1.000  I
  I678     1.0000 0.26401  0.76399  0.73599  Biso   1.000  I
  I679     1.0000 0.73599  0.23601  0.73599  Biso   1.000  I
  I680     1.0000 0.26401  0.26401  0.23601  Biso   1.000  I
  I681     1.0000 0.26401  0.23601  0.26401  Biso   1.000  I
  I682     1.0000 0.23601  0.26401  0.26401  Biso   1.000  I
  I683     1.0000 0.73599  0.73599  0.23601  Biso   1.000  I
  I684     1.0000 0.12502  0.12502  0.12502  Biso   1.000  I
  I685     1.0000 0.37501  0.12502  0.37501  Biso   1.000  I
  I686     1.0000 0.62499  0.37501  0.87498  Biso   1.000  I
  I687     1.0000 0.76399  0.26401  0.73599  Biso   1.000  I
  I688     1.0000 0.87498  0.12502  0.87498  Biso   1.000  I
  I689     1.0000 0.62499  0.12502  0.62499  Biso   1.000  I
  I690     1.0000 0.12502  0.37501  0.37501  Biso   1.000  I
  I691     1.0000 0.26401  0.26401  0.23601  Biso   1.000  I
  I692     1.0000 0.12502  0.12502  0.12502  Biso   1.000  I
  I693     1.0000 0.37501  0.12502  0.37501  Biso   1.000  I
  I694     1.0000 0.62499  0.87498  0.37501  Biso   1.000  I
  I695     1.0000 0.87498  0.62499  0.37501  Biso   1.000  I
  I696     1.0000 0.87498  0.12502  0.87498  Biso   1.000  I
  I697     1.0000 0.62499  0.12502  0.62499  Biso   1.000  I
  I698     1.0000 0.37501  0.12502  0.37501  Biso   1.000  I
  I699     1.0000 0.12502  0.37501  0.37501  Biso   1.000  I
  I700     1.0000 0.62499  0.62499  0.12502  Biso   1.000  I
  I701     1.0000 0.76399  0.76399  0.23601  Biso   1.000  I
  I702     1.0000 0.62499  0.87498  0.37501  Biso   1.000  I
  I703     1.0000 0.87498  0.62499  0.37501  Biso   1.000  I
  I704     1.0000 0.37501  0.12502  0.37501  Biso   1.000  I
  I705     1.0000 0.37501  0.37501  0.12502  Biso   1.000  I
  I706     1.0000 0.37501  0.87498  0.62499  Biso   1.000  I
  I707     1.0000 0.23601  0.76399  0.76399  Biso   1.000  I
  I708     1.0000 0.37501  0.62499  0.87498  Biso   1.000  I
  I709     1.0000 0.12502  0.62499  0.62499  Biso   1.000  I
  I710     1.0000 0.87498  0.12502  0.87498  Biso   1.000  I
  I711     1.0000 0.73599  0.26401  0.76399  Biso   1.000  I
  I712     1.0000 0.87498  0.37501  0.62499  Biso   1.000  I
  I713     1.0000 0.62499  0.12502  0.62499  Biso   1.000  I
  I714     1.0000 0.37501  0.87498  0.62499  Biso   1.000  I
  I715     1.0000 0.37501  0.62499  0.87498  Biso   1.000  I
  I716     1.0000 0.37501  0.12502  0.37501  Biso   1.000  I
  I717     1.0000 0.23601  0.26401  0.26401  Biso   1.000  I
  I718     1.0000 0.12502  0.12502  0.12502  Biso   1.000  I
  I719     1.0000 0.37501  0.37501  0.12502  Biso   1.000  I
  I720     1.0000 0.37501  0.12502  0.37501  Biso   1.000  I
  I721     1.0000 0.23601  0.23601  0.23601  Biso   1.000  I
  I722     1.0000 0.12502  0.37501  0.37501  Biso   1.000  I
  I723     1.0000 0.37501  0.37501  0.12502  Biso   1.000  I
  I724     1.0000 0.37501  0.87498  0.62499  Biso   1.000  I
  I725     1.0000 0.23601  0.73599  0.73599  Biso   1.000  I
  I726     1.0000 0.37501  0.62499  0.87498  Biso   1.000  I
  I727     1.0000 0.12502  0.87498  0.87498  Biso   1.000  I
  I728     1.0000 0.87498  0.87498  0.12502  Biso   1.000  I
  I729     1.0000 0.73599  0.73599  0.23601  Biso   1.000  I
  I730     1.0000 0.62499  0.87498  0.37501  Biso   1.000  I
  I731     1.0000 0.87498  0.62499  0.37501  Biso   1.000  I
  I732     1.0000 0.30969  0.80971  0.69031  Biso   1.000  I
  I733     1.0000 0.30969  0.69031  0.80971  Biso   1.000  I
  I734     1.0000 0.30969  0.19029  0.30969  Biso   1.000  I
  I735     1.0000 0.19029  0.19029  0.19029  Biso   1.000  I
  I736     1.0000 0.30969  0.30969  0.19029  Biso   1.000  I
  I737     1.0000 0.69031  0.69031  0.19029  Biso   1.000  I
  I738     1.0000 0.80971  0.80971  0.19029  Biso   1.000  I
  I739     1.0000 0.80971  0.80971  0.19029  Biso   1.000  I
  I740     1.0000 0.69031  0.69031  0.19029  Biso   1.000  I
  I741     1.0000 0.80971  0.69031  0.30969  Biso   1.000  I
  I742     1.0000 0.19029  0.19029  0.19029  Biso   1.000  I
  I743     1.0000 0.30969  0.30969  0.19029  Biso   1.000  I
  I744     1.0000 0.69031  0.69031  0.19029  Biso   1.000  I
  I745     1.0000 0.69031  0.80971  0.30969  Biso   1.000  I
  I746     1.0000 0.80971  0.80971  0.19029  Biso   1.000  I
  I747     1.0000 0.19029  0.30969  0.30969  Biso   1.000  I
  I748     1.0000 0.19029  0.19029  0.19029  Biso   1.000  I
  I749     1.0000 0.30969  0.30969  0.19029  Biso   1.000  I
  I750     1.0000 0.80971  0.30969  0.69031  Biso   1.000  I
  I751     1.0000 0.69031  0.30969  0.80971  Biso   1.000  I
  I752     1.0000 0.69031  0.30969  0.80971  Biso   1.000  I
  I753     1.0000 0.80971  0.30969  0.69031  Biso   1.000  I
  I754     1.0000 0.69031  0.19029  0.69031  Biso   1.000  I
  I755     1.0000 0.19029  0.30969  0.30969  Biso   1.000  I
  I756     1.0000 0.30969  0.30969  0.19029  Biso   1.000  I
  I757     1.0000 0.30969  0.19029  0.30969  Biso   1.000  I
  I758     1.0000 0.19029  0.30969  0.30969  Biso   1.000  I
  I759     1.0000 0.30969  0.30969  0.19029  Biso   1.000  I
  I760     1.0000 0.80971  0.19029  0.80971  Biso   1.000  I
  I761     1.0000 0.80971  0.30969  0.69031  Biso   1.000  I
  I762     1.0000 0.69031  0.30969  0.80971  Biso   1.000  I
  I763     1.0000 0.19029  0.30969  0.30969  Biso   1.000  I
  I764     1.0000 0.19029  0.19029  0.19029  Biso   1.000  I
  I765     1.0000 0.19029  0.69031  0.69031  Biso   1.000  I
  I766     1.0000 0.30969  0.80971  0.69031  Biso   1.000  I
  I767     1.0000 0.19029  0.80971  0.80971  Biso   1.000  I
  I768     1.0000 0.80971  0.80971  0.19029  Biso   1.000  I
  I769     1.0000 0.69031  0.69031  0.19029  Biso   1.000  I
  I770     1.0000 0.19029  0.30969  0.30969  Biso   1.000  I
  I771     1.0000 0.19029  0.19029  0.19029  Biso   1.000  I
  I772     1.0000 0.30969  0.30969  0.19029  Biso   1.000  I
  I773     1.0000 0.19029  0.69031  0.69031  Biso   1.000  I
  I774     1.0000 0.19029  0.80971  0.80971  Biso   1.000  I
  I775     1.0000 0.80971  0.19029  0.80971  Biso   1.000  I
  I776     1.0000 0.69031  0.19029  0.69031  Biso   1.000  I
  I777     1.0000 0.30969  0.19029  0.30969  Biso   1.000  I
  I778     1.0000 0.19029  0.19029  0.19029  Biso   1.000  I
  I779     1.0000 0.30969  0.30969  0.19029  Biso   1.000  I
  I780     1.0000 0.19029  0.30969  0.30969  Biso   1.000  I
  I781     1.0000 0.19029  0.19029  0.19029  Biso   1.000  I
  I782     1.0000 0.30969  0.19029  0.30969  Biso   1.000  I
  I783     1.0000 0.19029  0.69031  0.69031  Biso   1.000  I
  I784     1.0000 0.30969  0.69031  0.80971  Biso   1.000  I
  I785     1.0000 0.19029  0.80971  0.80971  Biso   1.000  I
  I786     1.0000 0.19029  0.30969  0.30969  Biso   1.000  I
  I787     1.0000 0.19029  0.19029  0.19029  Biso   1.000  I
  I788     1.0000 0.30969  0.30969  0.19029  Biso   1.000  I
  I789     1.0000 0.80971  0.30969  0.69031  Biso   1.000  I
  I790     1.0000 0.69031  0.30969  0.80971  Biso   1.000  I
  I791     1.0000 0.19029  0.69031  0.69031  Biso   1.000  I
  I792     1.0000 0.19029  0.80971  0.80971  Biso   1.000  I
  I793     1.0000 0.19029  0.30969  0.30969  Biso   1.000  I
  I794     1.0000 0.19029  0.19029  0.19029  Biso   1.000  I
  I795     1.0000 0.30969  0.19029  0.30969  Biso   1.000  I
  I796     1.0000 0.69031  0.80971  0.30969  Biso   1.000  I
  I797     1.0000 0.80971  0.69031  0.30969  Biso   1.000  I
  I798     1.0000 0.30969  0.19029  0.30969  Biso   1.000  I
  I799     1.0000 0.19029  0.30969  0.30969  Biso   1.000  I
  I800     1.0000 0.30969  0.30969  0.19029  Biso   1.000  I
  I801     1.0000 0.05970  0.05970  0.05970  Biso   1.000  I
  I802     1.0000 0.44028  0.05970  0.44028  Biso   1.000  I
  I803     1.0000 0.55972  0.44028  0.94030  Biso   1.000  I
  I804     1.0000 0.94030  0.05970  0.94030  Biso   1.000  I
  I805     1.0000 0.55972  0.05970  0.55972  Biso   1.000  I
  I806     1.0000 0.05970  0.44028  0.44028  Biso   1.000  I
  I807     1.0000 0.05970  0.05970  0.05970  Biso   1.000  I
  I808     1.0000 0.44028  0.05970  0.44028  Biso   1.000  I
  I809     1.0000 0.55972  0.94030  0.44028  Biso   1.000  I
  I810     1.0000 0.94030  0.55972  0.44028  Biso   1.000  I
  I811     1.0000 0.94030  0.05970  0.94030  Biso   1.000  I
  I812     1.0000 0.55972  0.05970  0.55972  Biso   1.000  I
  I813     1.0000 0.44028  0.05970  0.44028  Biso   1.000  I
  I814     1.0000 0.05970  0.44028  0.44028  Biso   1.000  I
  I815     1.0000 0.55972  0.55972  0.05970  Biso   1.000  I
  I816     1.0000 0.55972  0.94030  0.44028  Biso   1.000  I
  I817     1.0000 0.94030  0.55972  0.44028  Biso   1.000  I
  I818     1.0000 0.44028  0.05970  0.44028  Biso   1.000  I
  I819     1.0000 0.44028  0.44028  0.05970  Biso   1.000  I
  I820     1.0000 0.44028  0.94030  0.55972  Biso   1.000  I
  I821     1.0000 0.44028  0.55972  0.94030  Biso   1.000  I
  I822     1.0000 0.05970  0.55972  0.55972  Biso   1.000  I
  I823     1.0000 0.94030  0.05970  0.94030  Biso   1.000  I
  I824     1.0000 0.94030  0.44028  0.55972  Biso   1.000  I
  I825     1.0000 0.55972  0.05970  0.55972  Biso   1.000  I
  I826     1.0000 0.44028  0.94030  0.55972  Biso   1.000  I
  I827     1.0000 0.44028  0.55972  0.94030  Biso   1.000  I
  I828     1.0000 0.44028  0.05970  0.44028  Biso   1.000  I
  I829     1.0000 0.05970  0.05970  0.05970  Biso   1.000  I
  I830     1.0000 0.44028  0.44028  0.05970  Biso   1.000  I
  I831     1.0000 0.44028  0.05970  0.44028  Biso   1.000  I
  I832     1.0000 0.05970  0.44028  0.44028  Biso   1.000  I
  I833     1.0000 0.44028  0.44028  0.05970  Biso   1.000  I
  I834     1.0000 0.44028  0.94030  0.55972  Biso   1.000  I
  I835     1.0000 0.44028  0.55972  0.94030  Biso   1.000  I
  I836     1.0000 0.05970  0.94030  0.94030  Biso   1.000  I
  I837     1.0000 0.94030  0.94030  0.05970  Biso   1.000  I
  I838     1.0000 0.55972  0.94030  0.44028  Biso   1.000  I
  I839     1.0000 0.94030  0.55972  0.44028  Biso   1.000  I
  I840     1.0000 0.37501  0.87498  0.62499  Biso   1.000  I
  I841     1.0000 0.37501  0.62499  0.87498  Biso   1.000  I
  I842     1.0000 0.37501  0.12502  0.37501  Biso   1.000  I
  I843     1.0000 0.23601  0.26401  0.26401  Biso   1.000  I
  I844     1.0000 0.12502  0.12502  0.12502  Biso   1.000  I
  I845     1.0000 0.37501  0.37501  0.12502  Biso   1.000  I
  I846     1.0000 0.62499  0.62499  0.12502  Biso   1.000  I
  I847     1.0000 0.87498  0.87498  0.12502  Biso   1.000  I
  I848     1.0000 0.87498  0.87498  0.12502  Biso   1.000  I
  I849     1.0000 0.73599  0.76399  0.26401  Biso   1.000  I
  I850     1.0000 0.62499  0.62499  0.12502  Biso   1.000  I
  I851     1.0000 0.87498  0.62499  0.37501  Biso   1.000  I
  I852     1.0000 0.12502  0.12502  0.12502  Biso   1.000  I
  I853     1.0000 0.37501  0.37501  0.12502  Biso   1.000  I
  I854     1.0000 0.62499  0.62499  0.12502  Biso   1.000  I
  I855     1.0000 0.76399  0.73599  0.26401  Biso   1.000  I
  I856     1.0000 0.62499  0.87498  0.37501  Biso   1.000  I
  I857     1.0000 0.87498  0.87498  0.12502  Biso   1.000  I
  I858     1.0000 0.12502  0.37501  0.37501  Biso   1.000  I
  I859     1.0000 0.26401  0.23601  0.26401  Biso   1.000  I
  I860     1.0000 0.12502  0.12502  0.12502  Biso   1.000  I
  I861     1.0000 0.37501  0.37501  0.12502  Biso   1.000  I
  I862     1.0000 0.87498  0.37501  0.62499  Biso   1.000  I
  I863     1.0000 0.62499  0.37501  0.87498  Biso   1.000  I
  I864     1.0000 0.62499  0.37501  0.87498  Biso   1.000  I
  I865     1.0000 0.76399  0.23601  0.76399  Biso   1.000  I
  I866     1.0000 0.87498  0.37501  0.62499  Biso   1.000  I
  I867     1.0000 0.62499  0.12502  0.62499  Biso   1.000  I
  I868     1.0000 0.12502  0.37501  0.37501  Biso   1.000  I
  I869     1.0000 0.37501  0.37501  0.12502  Biso   1.000  I
  I870     1.0000 0.37501  0.12502  0.37501  Biso   1.000  I
  I871     1.0000 0.23601  0.23601  0.23601  Biso   1.000  I
  I872     1.0000 0.12502  0.37501  0.37501  Biso   1.000  I
  I873     1.0000 0.37501  0.37501  0.12502  Biso   1.000  I
  I874     1.0000 0.87498  0.12502  0.87498  Biso   1.000  I
  I875     1.0000 0.73599  0.23601  0.73599  Biso   1.000  I
  I876     1.0000 0.87498  0.37501  0.62499  Biso   1.000  I
  I877     1.0000 0.62499  0.37501  0.87498  Biso   1.000  I
  I878     1.0000 0.12502  0.37501  0.37501  Biso   1.000  I
  I879     1.0000 0.12502  0.12502  0.12502  Biso   1.000  I
  I880     1.0000 0.12502  0.62499  0.62499  Biso   1.000  I
  I881     1.0000 0.26401  0.73599  0.76399  Biso   1.000  I
  I882     1.0000 0.37501  0.87498  0.62499  Biso   1.000  I
  I883     1.0000 0.12502  0.87498  0.87498  Biso   1.000  I
  I884     1.0000 0.87498  0.87498  0.12502  Biso   1.000  I
  I885     1.0000 0.62499  0.62499  0.12502  Biso   1.000  I
  I886     1.0000 0.12502  0.37501  0.37501  Biso   1.000  I
  I887     1.0000 0.26401  0.23601  0.26401  Biso   1.000  I
  I888     1.0000 0.12502  0.12502  0.12502  Biso   1.000  I
  I889     1.0000 0.37501  0.37501  0.12502  Biso   1.000  I
  I890     1.0000 0.12502  0.62499  0.62499  Biso   1.000  I
  I891     1.0000 0.12502  0.87498  0.87498  Biso   1.000  I
  I892     1.0000 0.87498  0.12502  0.87498  Biso   1.000  I
  I893     1.0000 0.62499  0.12502  0.62499  Biso   1.000  I
  I894     1.0000 0.37501  0.12502  0.37501  Biso   1.000  I
  I895     1.0000 0.23601  0.26401  0.26401  Biso   1.000  I
  I896     1.0000 0.12502  0.12502  0.12502  Biso   1.000  I
  I897     1.0000 0.37501  0.37501  0.12502  Biso   1.000  I
  I898     1.0000 0.12502  0.37501  0.37501  Biso   1.000  I
  I899     1.0000 0.26401  0.26401  0.23601  Biso   1.000  I
  I900     1.0000 0.12502  0.12502  0.12502  Biso   1.000  I
  I901     1.0000 0.37501  0.12502  0.37501  Biso   1.000  I
  I902     1.0000 0.12502  0.62499  0.62499  Biso   1.000  I
  I903     1.0000 0.26401  0.76399  0.73599  Biso   1.000  I
  I904     1.0000 0.37501  0.62499  0.87498  Biso   1.000  I
  I905     1.0000 0.12502  0.87498  0.87498  Biso   1.000  I
  I906     1.0000 0.12502  0.37501  0.37501  Biso   1.000  I
  I907     1.0000 0.26401  0.23601  0.26401  Biso   1.000  I
  I908     1.0000 0.12502  0.12502  0.12502  Biso   1.000  I
  I909     1.0000 0.37501  0.37501  0.12502  Biso   1.000  I
  I910     1.0000 0.87498  0.37501  0.62499  Biso   1.000  I
  I911     1.0000 0.62499  0.37501  0.87498  Biso   1.000  I
  I912     1.0000 0.12502  0.62499  0.62499  Biso   1.000  I
  I913     1.0000 0.12502  0.87498  0.87498  Biso   1.000  I
  I914     1.0000 0.12502  0.37501  0.37501  Biso   1.000  I
  I915     1.0000 0.26401  0.26401  0.23601  Biso   1.000  I
  I916     1.0000 0.12502  0.12502  0.12502  Biso   1.000  I
  I917     1.0000 0.37501  0.12502  0.37501  Biso   1.000  I
  I918     1.0000 0.62499  0.87498  0.37501  Biso   1.000  I
  I919     1.0000 0.87498  0.62499  0.37501  Biso   1.000  I
  I920     1.0000 0.37501  0.12502  0.37501  Biso   1.000  I
  I921     1.0000 0.23601  0.23601  0.23601  Biso   1.000  I
  I922     1.0000 0.12502  0.37501  0.37501  Biso   1.000  I
  I923     1.0000 0.37501  0.37501  0.12502  Biso   1.000  I
  I924     1.0000 0.98598  0.01402  0.98598  Biso   1.000  I
  I925     1.0000 0.51400  0.01402  0.51400  Biso   1.000  I
  I926     1.0000 0.48600  0.51400  0.98598  Biso   1.000  I
  I927     1.0000 0.48600  0.48600  0.01402  Biso   1.000  I
  I928     1.0000 0.51400  0.51400  0.01402  Biso   1.000  I
  I929     1.0000 0.01402  0.01402  0.01402  Biso   1.000  I
  I930     1.0000 0.48600  0.01402  0.48600  Biso   1.000  I
  I931     1.0000 0.98598  0.48600  0.51400  Biso   1.000  I
  I932     1.0000 0.01402  0.51400  0.51400  Biso   1.000  I
  I933     1.0000 0.98598  0.51400  0.48600  Biso   1.000  I
  I934     1.0000 0.98598  0.01402  0.98598  Biso   1.000  I
  I935     1.0000 0.51400  0.01402  0.51400  Biso   1.000  I
  I936     1.0000 0.48600  0.98598  0.51400  Biso   1.000  I
  I937     1.0000 0.51400  0.01402  0.51400  Biso   1.000  I
  I938     1.0000 0.48600  0.01402  0.48600  Biso   1.000  I
  I939     1.0000 0.98598  0.48600  0.51400  Biso   1.000  I
  I940     1.0000 0.01402  0.51400  0.51400  Biso   1.000  I
  I941     1.0000 0.01402  0.48600  0.48600  Biso   1.000  I
  I942     1.0000 0.01402  0.01402  0.01402  Biso   1.000  I
  I943     1.0000 0.48600  0.01402  0.48600  Biso   1.000  I
  I944     1.0000 0.51400  0.98598  0.48600  Biso   1.000  I
  I945     1.0000 0.98598  0.48600  0.51400  Biso   1.000  I
  I946     1.0000 0.01402  0.51400  0.51400  Biso   1.000  I
  I947     1.0000 0.98598  0.51400  0.48600  Biso   1.000  I
  I948     1.0000 0.51400  0.48600  0.98598  Biso   1.000  I
  I949     1.0000 0.48600  0.98598  0.51400  Biso   1.000  I
  I950     1.0000 0.51400  0.01402  0.51400  Biso   1.000  I
  I951     1.0000 0.48600  0.01402  0.48600  Biso   1.000  I
  I952     1.0000 0.01402  0.48600  0.48600  Biso   1.000  I
  I953     1.0000 0.48600  0.98598  0.51400  Biso   1.000  I
  I954     1.0000 0.51400  0.98598  0.48600  Biso   1.000  I
  I955     1.0000 0.51400  0.01402  0.51400  Biso   1.000  I
  I956     1.0000 0.51400  0.48600  0.98598  Biso   1.000  I
  I957     1.0000 0.48600  0.51400  0.98598  Biso   1.000  I
  I958     1.0000 0.51400  0.51400  0.01402  Biso   1.000  I
  I959     1.0000 0.51400  0.98598  0.48600  Biso   1.000  I
  I960     1.0000 0.48600  0.01402  0.48600  Biso   1.000  I
  I961     1.0000 0.51400  0.01402  0.51400  Biso   1.000  I
  I962     1.0000 0.51400  0.48600  0.98598  Biso   1.000  I
  I963     1.0000 0.48600  0.48600  0.01402  Biso   1.000  I
  I964     1.0000 0.51400  0.51400  0.01402  Biso   1.000  I
  I965     1.0000 0.98598  0.51400  0.48600  Biso   1.000  I
  I966     1.0000 0.98598  0.48600  0.51400  Biso   1.000  I
  I967     1.0000 0.01402  0.48600  0.48600  Biso   1.000  I
  I968     1.0000 0.01402  0.01402  0.01402  Biso   1.000  I
  I969     1.0000 0.01402  0.51400  0.51400  Biso   1.000  I
  I970     1.0000 0.48600  0.01402  0.48600  Biso   1.000  I
  I971     1.0000 0.48600  0.01402  0.48600  Biso   1.000  I
  I972     1.0000 0.51400  0.48600  0.98598  Biso   1.000  I
  I973     1.0000 0.48600  0.48600  0.01402  Biso   1.000  I
  I974     1.0000 0.51400  0.51400  0.01402  Biso   1.000  I
  I975     1.0000 0.51400  0.01402  0.51400  Biso   1.000  I
  I976     1.0000 0.98598  0.01402  0.98598  Biso   1.000  I
  I977     1.0000 0.48600  0.51400  0.98598  Biso   1.000  I
  I978     1.0000 0.48600  0.98598  0.51400  Biso   1.000  I
  I979     1.0000 0.51400  0.98598  0.48600  Biso   1.000  I
  I980     1.0000 0.51400  0.01402  0.51400  Biso   1.000  I
  I981     1.0000 0.98598  0.48600  0.51400  Biso   1.000  I
  I982     1.0000 0.01402  0.51400  0.51400  Biso   1.000  I
  I983     1.0000 0.98598  0.51400  0.48600  Biso   1.000  I
  I984     1.0000 0.51400  0.48600  0.98598  Biso   1.000  I
  I985     1.0000 0.51400  0.51400  0.01402  Biso   1.000  I
  I986     1.0000 0.48600  0.51400  0.98598  Biso   1.000  I
  I987     1.0000 0.51400  0.98598  0.48600  Biso   1.000  I
  I988     1.0000 0.51400  0.01402  0.51400  Biso   1.000  I
  I989     1.0000 0.48600  0.01402  0.48600  Biso   1.000  I
  I990     1.0000 0.48600  0.48600  0.01402  Biso   1.000  I
  I991     1.0000 0.98598  0.98598  0.01402  Biso   1.000  I
  I992     1.0000 0.01402  0.01402  0.01402  Biso   1.000  I
  I993     1.0000 0.98598  0.01402  0.98598  Biso   1.000  I
  I994     1.0000 0.01402  0.98598  0.98598  Biso   1.000  I
  I995     1.0000 0.48600  0.98598  0.51400  Biso   1.000  I
  I996     1.0000 0.48600  0.01402  0.48600  Biso   1.000  I
  I997     1.0000 0.51400  0.01402  0.51400  Biso   1.000  I
  I998     1.0000 0.01402  0.48600  0.48600  Biso   1.000  I
  I999     1.0000 0.44028  0.94030  0.55972  Biso   1.000  I
  I1000    1.0000 0.44028  0.55972  0.94030  Biso   1.000  I
  I1001    1.0000 0.44028  0.05970  0.44028  Biso   1.000  I
  I1002    1.0000 0.05970  0.05970  0.05970  Biso   1.000  I
  I1003    1.0000 0.44028  0.44028  0.05970  Biso   1.000  I
  I1004    1.0000 0.55972  0.55972  0.05970  Biso   1.000  I
  I1005    1.0000 0.94030  0.94030  0.05970  Biso   1.000  I
  I1006    1.0000 0.94030  0.94030  0.05970  Biso   1.000  I
  I1007    1.0000 0.55972  0.55972  0.05970  Biso   1.000  I
  I1008    1.0000 0.94030  0.55972  0.44028  Biso   1.000  I
  I1009    1.0000 0.05970  0.05970  0.05970  Biso   1.000  I
  I1010    1.0000 0.44028  0.44028  0.05970  Biso   1.000  I
  I1011    1.0000 0.55972  0.55972  0.05970  Biso   1.000  I
  I1012    1.0000 0.55972  0.94030  0.44028  Biso   1.000  I
  I1013    1.0000 0.94030  0.94030  0.05970  Biso   1.000  I
  I1014    1.0000 0.05970  0.44028  0.44028  Biso   1.000  I
  I1015    1.0000 0.05970  0.05970  0.05970  Biso   1.000  I
  I1016    1.0000 0.44028  0.44028  0.05970  Biso   1.000  I
  I1017    1.0000 0.94030  0.44028  0.55972  Biso   1.000  I
  I1018    1.0000 0.55972  0.44028  0.94030  Biso   1.000  I
  I1019    1.0000 0.55972  0.44028  0.94030  Biso   1.000  I
  I1020    1.0000 0.94030  0.44028  0.55972  Biso   1.000  I
  I1021    1.0000 0.55972  0.05970  0.55972  Biso   1.000  I
  I1022    1.0000 0.05970  0.44028  0.44028  Biso   1.000  I
  I1023    1.0000 0.44028  0.44028  0.05970  Biso   1.000  I
  I1024    1.0000 0.44028  0.05970  0.44028  Biso   1.000  I
  I1025    1.0000 0.05970  0.44028  0.44028  Biso   1.000  I
  I1026    1.0000 0.44028  0.44028  0.05970  Biso   1.000  I
  I1027    1.0000 0.94030  0.05970  0.94030  Biso   1.000  I
  I1028    1.0000 0.94030  0.44028  0.55972  Biso   1.000  I
  I1029    1.0000 0.55972  0.44028  0.94030  Biso   1.000  I
  I1030    1.0000 0.05970  0.44028  0.44028  Biso   1.000  I
  I1031    1.0000 0.05970  0.05970  0.05970  Biso   1.000  I
  I1032    1.0000 0.05970  0.55972  0.55972  Biso   1.000  I
  I1033    1.0000 0.44028  0.94030  0.55972  Biso   1.000  I
  I1034    1.0000 0.05970  0.94030  0.94030  Biso   1.000  I
  I1035    1.0000 0.94030  0.94030  0.05970  Biso   1.000  I
  I1036    1.0000 0.55972  0.55972  0.05970  Biso   1.000  I
  I1037    1.0000 0.05970  0.44028  0.44028  Biso   1.000  I
  I1038    1.0000 0.05970  0.05970  0.05970  Biso   1.000  I
  I1039    1.0000 0.44028  0.44028  0.05970  Biso   1.000  I
  I1040    1.0000 0.05970  0.55972  0.55972  Biso   1.000  I
  I1041    1.0000 0.05970  0.94030  0.94030  Biso   1.000  I
  I1042    1.0000 0.94030  0.05970  0.94030  Biso   1.000  I
  I1043    1.0000 0.55972  0.05970  0.55972  Biso   1.000  I
  I1044    1.0000 0.44028  0.05970  0.44028  Biso   1.000  I
  I1045    1.0000 0.05970  0.05970  0.05970  Biso   1.000  I
  I1046    1.0000 0.44028  0.44028  0.05970  Biso   1.000  I
  I1047    1.0000 0.05970  0.44028  0.44028  Biso   1.000  I
  I1048    1.0000 0.05970  0.05970  0.05970  Biso   1.000  I
  I1049    1.0000 0.44028  0.05970  0.44028  Biso   1.000  I
  I1050    1.0000 0.05970  0.55972  0.55972  Biso   1.000  I
  I1051    1.0000 0.44028  0.55972  0.94030  Biso   1.000  I
  I1052    1.0000 0.05970  0.94030  0.94030  Biso   1.000  I
  I1053    1.0000 0.05970  0.44028  0.44028  Biso   1.000  I
  I1054    1.0000 0.05970  0.05970  0.05970  Biso   1.000  I
  I1055    1.0000 0.44028  0.44028  0.05970  Biso   1.000  I
  I1056    1.0000 0.94030  0.44028  0.55972  Biso   1.000  I
  I1057    1.0000 0.55972  0.44028  0.94030  Biso   1.000  I
  I1058    1.0000 0.05970  0.55972  0.55972  Biso   1.000  I
  I1059    1.0000 0.05970  0.94030  0.94030  Biso   1.000  I
  I1060    1.0000 0.05970  0.44028  0.44028  Biso   1.000  I
  I1061    1.0000 0.05970  0.05970  0.05970  Biso   1.000  I
  I1062    1.0000 0.44028  0.05970  0.44028  Biso   1.000  I
  I1063    1.0000 0.55972  0.94030  0.44028  Biso   1.000  I
  I1064    1.0000 0.94030  0.55972  0.44028  Biso   1.000  I
  I1065    1.0000 0.44028  0.05970  0.44028  Biso   1.000  I
  I1066    1.0000 0.05970  0.44028  0.44028  Biso   1.000  I
  I1067    1.0000 0.44028  0.44028  0.05970  Biso   1.000  I
  I1068    1.0000 0.44028  0.44028  0.05970  Biso   1.000  I
  I1069    1.0000 0.05970  0.55972  0.55972  Biso   1.000  I
  I1070    1.0000 0.94030  0.44028  0.55972  Biso   1.000  I
  I1071    1.0000 0.55972  0.05970  0.55972  Biso   1.000  I
  I1072    1.0000 0.44028  0.94030  0.55972  Biso   1.000  I
  I1073    1.0000 0.05970  0.55972  0.55972  Biso   1.000  I
  I1074    1.0000 0.05970  0.44028  0.44028  Biso   1.000  I
  I1075    1.0000 0.94030  0.44028  0.55972  Biso   1.000  I
  I1076    1.0000 0.05970  0.55972  0.55972  Biso   1.000  I
  I1077    1.0000 0.94030  0.44028  0.55972  Biso   1.000  I
  I1078    1.0000 0.55972  0.05970  0.55972  Biso   1.000  I
  I1079    1.0000 0.44028  0.94030  0.55972  Biso   1.000  I
  I1080    1.0000 0.55972  0.94030  0.44028  Biso   1.000  I
  I1081    1.0000 0.55972  0.05970  0.55972  Biso   1.000  I
  I1082    1.0000 0.55972  0.55972  0.05970  Biso   1.000  I
  I1083    1.0000 0.55972  0.44028  0.94030  Biso   1.000  I
  I1084    1.0000 0.55972  0.05970  0.55972  Biso   1.000  I
  I1085    1.0000 0.55972  0.94030  0.44028  Biso   1.000  I
  I1086    1.0000 0.55972  0.55972  0.05970  Biso   1.000  I
  I1087    1.0000 0.55972  0.44028  0.94030  Biso   1.000  I
  I1088    1.0000 0.05970  0.44028  0.44028  Biso   1.000  I
  I1089    1.0000 0.44028  0.44028  0.05970  Biso   1.000  I
  I1090    1.0000 0.55972  0.55972  0.05970  Biso   1.000  I
  I1091    1.0000 0.55972  0.44028  0.94030  Biso   1.000  I
  I1092    1.0000 0.55972  0.94030  0.44028  Biso   1.000  I
  I1093    1.0000 0.55972  0.05970  0.55972  Biso   1.000  I
  I1094    1.0000 0.44028  0.94030  0.55972  Biso   1.000  I
  I1095    1.0000 0.05970  0.55972  0.55972  Biso   1.000  I
  I1096    1.0000 0.94030  0.44028  0.55972  Biso   1.000  I
  I1097    1.0000 0.55972  0.55972  0.05970  Biso   1.000  I
  I1098    1.0000 0.55972  0.44028  0.94030  Biso   1.000  I
  I1099    1.0000 0.55972  0.05970  0.55972  Biso   1.000  I
  I1100    1.0000 0.55972  0.94030  0.44028  Biso   1.000  I
  I1101    1.0000 0.05970  0.05970  0.05970  Biso   1.000  I
  I1102    1.0000 0.55972  0.05970  0.55972  Biso   1.000  I
  I1103    1.0000 0.44028  0.94030  0.55972  Biso   1.000  I
  I1104    1.0000 0.51400  0.98598  0.48600  Biso   1.000  I
  I1105    1.0000 0.48600  0.01402  0.48600  Biso   1.000  I
  I1106    1.0000 0.51400  0.01402  0.51400  Biso   1.000  I
  I1107    1.0000 0.48600  0.48600  0.01402  Biso   1.000  I
  I1108    1.0000 0.48600  0.98598  0.51400  Biso   1.000  I
  I1109    1.0000 0.98598  0.98598  0.01402  Biso   1.000  I
  I1110    1.0000 0.51400  0.51400  0.01402  Biso   1.000  I
  I1111    1.0000 0.48600  0.48600  0.01402  Biso   1.000  I
  I1112    1.0000 0.01402  0.01402  0.01402  Biso   1.000  I
  I1113    1.0000 0.01402  0.01402  0.01402  Biso   1.000  I
  I1114    1.0000 0.48600  0.48600  0.01402  Biso   1.000  I
  I1115    1.0000 0.98598  0.98598  0.01402  Biso   1.000  I
  I1116    1.0000 0.51400  0.51400  0.01402  Biso   1.000  I
  I1117    1.0000 0.48600  0.48600  0.01402  Biso   1.000  I
  I1118    1.0000 0.48600  0.98598  0.51400  Biso   1.000  I
  I1119    1.0000 0.48600  0.01402  0.48600  Biso   1.000  I
  I1120    1.0000 0.51400  0.01402  0.51400  Biso   1.000  I
  I1121    1.0000 0.01402  0.01402  0.01402  Biso   1.000  I
  I1122    1.0000 0.98598  0.51400  0.48600  Biso   1.000  I
  I1123    1.0000 0.98598  0.48600  0.51400  Biso   1.000  I
  I1124    1.0000 0.01402  0.51400  0.51400  Biso   1.000  I
  I1125    1.0000 0.98598  0.98598  0.01402  Biso   1.000  I
  I1126    1.0000 0.51400  0.51400  0.01402  Biso   1.000  I
  I1127    1.0000 0.98598  0.51400  0.48600  Biso   1.000  I
  I1128    1.0000 0.01402  0.51400  0.51400  Biso   1.000  I
  I1129    1.0000 0.01402  0.48600  0.48600  Biso   1.000  I
  I1130    1.0000 0.48600  0.51400  0.98598  Biso   1.000  I
  I1131    1.0000 0.48600  0.48600  0.01402  Biso   1.000  I
  I1132    1.0000 0.51400  0.51400  0.01402  Biso   1.000  I
  I1133    1.0000 0.48600  0.51400  0.98598  Biso   1.000  I
  I1134    1.0000 0.48600  0.48600  0.01402  Biso   1.000  I
  I1135    1.0000 0.51400  0.51400  0.01402  Biso   1.000  I
  I1136    1.0000 0.01402  0.48600  0.48600  Biso   1.000  I
  I1137    1.0000 0.51400  0.98598  0.48600  Biso   1.000  I
  I1138    1.0000 0.98598  0.51400  0.48600  Biso   1.000  I
  I1139    1.0000 0.98598  0.48600  0.51400  Biso   1.000  I
  I1140    1.0000 0.01402  0.51400  0.51400  Biso   1.000  I
  I1141    1.0000 0.51400  0.48600  0.98598  Biso   1.000  I
  I1142    1.0000 0.48600  0.98598  0.51400  Biso   1.000  I
  I1143    1.0000 0.98598  0.51400  0.48600  Biso   1.000  I
  I1144    1.0000 0.98598  0.48600  0.51400  Biso   1.000  I
  I1145    1.0000 0.01402  0.51400  0.51400  Biso   1.000  I
  I1146    1.0000 0.51400  0.48600  0.98598  Biso   1.000  I
  I1147    1.0000 0.48600  0.51400  0.98598  Biso   1.000  I
  I1148    1.0000 0.51400  0.51400  0.01402  Biso   1.000  I
  I1149    1.0000 0.01402  0.48600  0.48600  Biso   1.000  I
  I1150    1.0000 0.48600  0.51400  0.98598  Biso   1.000  I
  I1151    1.0000 0.48600  0.48600  0.01402  Biso   1.000  I
  I1152    1.0000 0.51400  0.51400  0.01402  Biso   1.000  I
  I1153    1.0000 0.01402  0.51400  0.51400  Biso   1.000  I
  I1154    1.0000 0.01402  0.98598  0.98598  Biso   1.000  I
  I1155    1.0000 0.01402  0.48600  0.48600  Biso   1.000  I
  I1156    1.0000 0.01402  0.01402  0.01402  Biso   1.000  I
  I1157    1.0000 0.01402  0.01402  0.01402  Biso   1.000  I
  I1158    1.0000 0.48600  0.48600  0.01402  Biso   1.000  I
  I1159    1.0000 0.01402  0.51400  0.51400  Biso   1.000  I
  I1160    1.0000 0.51400  0.51400  0.01402  Biso   1.000  I
  I1161    1.0000 0.01402  0.48600  0.48600  Biso   1.000  I
  I1162    1.0000 0.01402  0.01402  0.01402  Biso   1.000  I
  I1163    1.0000 0.01402  0.01402  0.01402  Biso   1.000  I
  I1164    1.0000 0.48600  0.01402  0.48600  Biso   1.000  I
  I1165    1.0000 0.51400  0.01402  0.51400  Biso   1.000  I
  I1166    1.0000 0.51400  0.51400  0.01402  Biso   1.000  I
  I1167    1.0000 0.01402  0.51400  0.51400  Biso   1.000  I
  I1168    1.0000 0.51400  0.01402  0.51400  Biso   1.000  I
  I1169    1.0000 0.01402  0.48600  0.48600  Biso   1.000  I
  I1170    1.0000 0.01402  0.01402  0.01402  Biso   1.000  I
  I1171    1.0000 0.01402  0.51400  0.51400  Biso   1.000  I
  I1172    1.0000 0.01402  0.98598  0.98598  Biso   1.000  I
  I1173    1.0000 0.51400  0.48600  0.98598  Biso   1.000  I
  I1174    1.0000 0.01402  0.48600  0.48600  Biso   1.000  I
  I1175    1.0000 0.48600  0.51400  0.98598  Biso   1.000  I
  I1176    1.0000 0.48600  0.48600  0.01402  Biso   1.000  I
  I1177    1.0000 0.51400  0.51400  0.01402  Biso   1.000  I
  I1178    1.0000 0.01402  0.48600  0.48600  Biso   1.000  I
  I1179    1.0000 0.01402  0.01402  0.01402  Biso   1.000  I
  I1180    1.0000 0.01402  0.51400  0.51400  Biso   1.000  I
  I1181    1.0000 0.01402  0.98598  0.98598  Biso   1.000  I
  I1182    1.0000 0.51400  0.98598  0.48600  Biso   1.000  I
  I1183    1.0000 0.48600  0.98598  0.51400  Biso   1.000  I
  I1184    1.0000 0.48600  0.01402  0.48600  Biso   1.000  I
  I1185    1.0000 0.51400  0.01402  0.51400  Biso   1.000  I
  I1186    1.0000 0.01402  0.48600  0.48600  Biso   1.000  I
  I1187    1.0000 0.51400  0.98598  0.48600  Biso   1.000  I
  I1188    1.0000 0.98598  0.51400  0.48600  Biso   1.000  I
  I1189    1.0000 0.98598  0.48600  0.51400  Biso   1.000  I
  I1190    1.0000 0.01402  0.51400  0.51400  Biso   1.000  I
  I1191    1.0000 0.51400  0.48600  0.98598  Biso   1.000  I
  I1192    1.0000 0.37501  0.37501  0.12502  Biso   1.000  I
  I1193    1.0000 0.12502  0.62499  0.62499  Biso   1.000  I
  I1194    1.0000 0.87498  0.37501  0.62499  Biso   1.000  I
  I1195    1.0000 0.62499  0.12502  0.62499  Biso   1.000  I
  I1196    1.0000 0.37501  0.87498  0.62499  Biso   1.000  I
  I1197    1.0000 0.98598  0.51400  0.48600  Biso   1.000  I
  I1198    1.0000 0.12502  0.62499  0.62499  Biso   1.000  I
  I1199    1.0000 0.12502  0.37501  0.37501  Biso   1.000  I
  I1200    1.0000 0.87498  0.37501  0.62499  Biso   1.000  I
  I1201    1.0000 0.12502  0.62499  0.62499  Biso   1.000  I
  I1202    1.0000 0.87498  0.37501  0.62499  Biso   1.000  I
  I1203    1.0000 0.62499  0.12502  0.62499  Biso   1.000  I
  I1204    1.0000 0.37501  0.87498  0.62499  Biso   1.000  I
  I1205    1.0000 0.62499  0.87498  0.37501  Biso   1.000  I
  I1206    1.0000 0.62499  0.12502  0.62499  Biso   1.000  I
  I1207    1.0000 0.62499  0.62499  0.12502  Biso   1.000  I
  I1208    1.0000 0.62499  0.37501  0.87498  Biso   1.000  I
  I1209    1.0000 0.62499  0.12502  0.62499  Biso   1.000  I
  I1210    1.0000 0.62499  0.87498  0.37501  Biso   1.000  I
  I1211    1.0000 0.62499  0.62499  0.12502  Biso   1.000  I
  I1212    1.0000 0.62499  0.37501  0.87498  Biso   1.000  I
  I1213    1.0000 0.12502  0.37501  0.37501  Biso   1.000  I
  I1214    1.0000 0.48600  0.51400  0.98598  Biso   1.000  I
  I1215    1.0000 0.37501  0.37501  0.12502  Biso   1.000  I
  I1216    1.0000 0.62499  0.62499  0.12502  Biso   1.000  I
  I1217    1.0000 0.62499  0.37501  0.87498  Biso   1.000  I
  I1218    1.0000 0.62499  0.87498  0.37501  Biso   1.000  I
  I1219    1.0000 0.48600  0.01402  0.48600  Biso   1.000  I
  I1220    1.0000 0.62499  0.12502  0.62499  Biso   1.000  I
  I1221    1.0000 0.37501  0.87498  0.62499  Biso   1.000  I
  I1222    1.0000 0.12502  0.62499  0.62499  Biso   1.000  I
  I1223    1.0000 0.87498  0.37501  0.62499  Biso   1.000  I
  I1224    1.0000 0.62499  0.62499  0.12502  Biso   1.000  I
  I1225    1.0000 0.62499  0.37501  0.87498  Biso   1.000  I
  I1226    1.0000 0.62499  0.12502  0.62499  Biso   1.000  I
  I1227    1.0000 0.62499  0.87498  0.37501  Biso   1.000  I
  I1228    1.0000 0.12502  0.12502  0.12502  Biso   1.000  I
  I1229    1.0000 0.62499  0.12502  0.62499  Biso   1.000  I
  I1230    1.0000 0.37501  0.87498  0.62499  Biso   1.000  I
  I1231    1.0000 0.44028  0.05970  0.44028  Biso   1.000  I
  I1232    1.0000 0.55972  0.05970  0.55972  Biso   1.000  I
  I1233    1.0000 0.55972  0.94030  0.44028  Biso   1.000  I
  I1234    1.0000 0.44028  0.05970  0.44028  Biso   1.000  I
  I1235    1.0000 0.05970  0.55972  0.55972  Biso   1.000  I
  I1236    1.0000 0.94030  0.55972  0.44028  Biso   1.000  I
  I1237    1.0000 0.05970  0.55972  0.55972  Biso   1.000  I
  I1238    1.0000 0.05970  0.44028  0.44028  Biso   1.000  I
  I1239    1.0000 0.94030  0.55972  0.44028  Biso   1.000  I
  I1240    1.0000 0.55972  0.55972  0.05970  Biso   1.000  I
  I1241    1.0000 0.44028  0.55972  0.94030  Biso   1.000  I
  I1242    1.0000 0.55972  0.55972  0.05970  Biso   1.000  I
  I1243    1.0000 0.44028  0.55972  0.94030  Biso   1.000  I
  I1244    1.0000 0.05970  0.55972  0.55972  Biso   1.000  I
  I1245    1.0000 0.94030  0.55972  0.44028  Biso   1.000  I
  I1246    1.0000 0.05970  0.55972  0.55972  Biso   1.000  I
  I1247    1.0000 0.94030  0.55972  0.44028  Biso   1.000  I
  I1248    1.0000 0.44028  0.55972  0.94030  Biso   1.000  I
  I1249    1.0000 0.55972  0.55972  0.05970  Biso   1.000  I
  I1250    1.0000 0.55972  0.44028  0.94030  Biso   1.000  I
  I1251    1.0000 0.55972  0.55972  0.05970  Biso   1.000  I
  I1252    1.0000 0.44028  0.55972  0.94030  Biso   1.000  I
  I1253    1.0000 0.44028  0.44028  0.05970  Biso   1.000  I
  I1254    1.0000 0.55972  0.55972  0.05970  Biso   1.000  I
  I1255    1.0000 0.44028  0.55972  0.94030  Biso   1.000  I
  I1256    1.0000 0.44028  0.05970  0.44028  Biso   1.000  I
  I1257    1.0000 0.55972  0.05970  0.55972  Biso   1.000  I
  I1258    1.0000 0.44028  0.94030  0.55972  Biso   1.000  I
  I1259    1.0000 0.94030  0.44028  0.55972  Biso   1.000  I
  I1260    1.0000 0.05970  0.55972  0.55972  Biso   1.000  I
  I1261    1.0000 0.94030  0.55972  0.44028  Biso   1.000  I
  I1262    1.0000 0.30969  0.30969  0.19029  Biso   1.000  I
  I1263    1.0000 0.19029  0.69031  0.69031  Biso   1.000  I
  I1264    1.0000 0.80971  0.30969  0.69031  Biso   1.000  I
  I1265    1.0000 0.69031  0.19029  0.69031  Biso   1.000  I
  I1266    1.0000 0.30969  0.80971  0.69031  Biso   1.000  I
  I1267    1.0000 0.19029  0.69031  0.69031  Biso   1.000  I
  I1268    1.0000 0.19029  0.30969  0.30969  Biso   1.000  I
  I1269    1.0000 0.80971  0.30969  0.69031  Biso   1.000  I
  I1270    1.0000 0.19029  0.69031  0.69031  Biso   1.000  I
  I1271    1.0000 0.80971  0.30969  0.69031  Biso   1.000  I
  I1272    1.0000 0.69031  0.19029  0.69031  Biso   1.000  I
  I1273    1.0000 0.30969  0.80971  0.69031  Biso   1.000  I
  I1274    1.0000 0.69031  0.80971  0.30969  Biso   1.000  I
  I1275    1.0000 0.69031  0.19029  0.69031  Biso   1.000  I
  I1276    1.0000 0.69031  0.69031  0.19029  Biso   1.000  I
  I1277    1.0000 0.69031  0.30969  0.80971  Biso   1.000  I
  I1278    1.0000 0.69031  0.19029  0.69031  Biso   1.000  I
  I1279    1.0000 0.69031  0.80971  0.30969  Biso   1.000  I
  I1280    1.0000 0.69031  0.69031  0.19029  Biso   1.000  I
  I1281    1.0000 0.69031  0.30969  0.80971  Biso   1.000  I
  I1282    1.0000 0.19029  0.30969  0.30969  Biso   1.000  I
  I1283    1.0000 0.30969  0.30969  0.19029  Biso   1.000  I
  I1284    1.0000 0.69031  0.69031  0.19029  Biso   1.000  I
  I1285    1.0000 0.69031  0.30969  0.80971  Biso   1.000  I
  I1286    1.0000 0.69031  0.80971  0.30969  Biso   1.000  I
  I1287    1.0000 0.69031  0.19029  0.69031  Biso   1.000  I
  I1288    1.0000 0.30969  0.80971  0.69031  Biso   1.000  I
  I1289    1.0000 0.19029  0.69031  0.69031  Biso   1.000  I
  I1290    1.0000 0.80971  0.30969  0.69031  Biso   1.000  I
  I1291    1.0000 0.69031  0.69031  0.19029  Biso   1.000  I
  I1292    1.0000 0.69031  0.30969  0.80971  Biso   1.000  I
  I1293    1.0000 0.69031  0.19029  0.69031  Biso   1.000  I
  I1294    1.0000 0.69031  0.80971  0.30969  Biso   1.000  I
  I1295    1.0000 0.19029  0.19029  0.19029  Biso   1.000  I
  I1296    1.0000 0.69031  0.19029  0.69031  Biso   1.000  I
  I1297    1.0000 0.30969  0.80971  0.69031  Biso   1.000  I
  I1298    1.0000 0.48600  0.98598  0.51400  Biso   1.000  I
  I1299    1.0000 0.37501  0.12502  0.37501  Biso   1.000  I
  I1300    1.0000 0.62499  0.12502  0.62499  Biso   1.000  I
  I1301    1.0000 0.62499  0.87498  0.37501  Biso   1.000  I
  I1302    1.0000 0.37501  0.12502  0.37501  Biso   1.000  I
  I1303    1.0000 0.12502  0.62499  0.62499  Biso   1.000  I
  I1304    1.0000 0.87498  0.62499  0.37501  Biso   1.000  I
  I1305    1.0000 0.98598  0.48600  0.51400  Biso   1.000  I
  I1306    1.0000 0.12502  0.62499  0.62499  Biso   1.000  I
  I1307    1.0000 0.12502  0.37501  0.37501  Biso   1.000  I
  I1308    1.0000 0.87498  0.62499  0.37501  Biso   1.000  I
  I1309    1.0000 0.62499  0.62499  0.12502  Biso   1.000  I
  I1310    1.0000 0.37501  0.62499  0.87498  Biso   1.000  I
  I1311    1.0000 0.62499  0.62499  0.12502  Biso   1.000  I
  I1312    1.0000 0.37501  0.62499  0.87498  Biso   1.000  I
  I1313    1.0000 0.12502  0.62499  0.62499  Biso   1.000  I
  I1314    1.0000 0.87498  0.62499  0.37501  Biso   1.000  I
  I1315    1.0000 0.12502  0.62499  0.62499  Biso   1.000  I
  I1316    1.0000 0.87498  0.62499  0.37501  Biso   1.000  I
  I1317    1.0000 0.37501  0.62499  0.87498  Biso   1.000  I
  I1318    1.0000 0.48600  0.48600  0.01402  Biso   1.000  I
  I1319    1.0000 0.62499  0.62499  0.12502  Biso   1.000  I
  I1320    1.0000 0.62499  0.37501  0.87498  Biso   1.000  I
  I1321    1.0000 0.62499  0.62499  0.12502  Biso   1.000  I
  I1322    1.0000 0.37501  0.62499  0.87498  Biso   1.000  I
  I1323    1.0000 0.51400  0.48600  0.98598  Biso   1.000  I
  I1324    1.0000 0.37501  0.37501  0.12502  Biso   1.000  I
  I1325    1.0000 0.62499  0.62499  0.12502  Biso   1.000  I
  I1326    1.0000 0.37501  0.62499  0.87498  Biso   1.000  I
  I1327    1.0000 0.51400  0.98598  0.48600  Biso   1.000  I
  I1328    1.0000 0.37501  0.12502  0.37501  Biso   1.000  I
  I1329    1.0000 0.62499  0.12502  0.62499  Biso   1.000  I
  I1330    1.0000 0.37501  0.87498  0.62499  Biso   1.000  I
  I1331    1.0000 0.87498  0.37501  0.62499  Biso   1.000  I
  I1332    1.0000 0.01402  0.48600  0.48600  Biso   1.000  I
  I1333    1.0000 0.12502  0.62499  0.62499  Biso   1.000  I
  I1334    1.0000 0.87498  0.62499  0.37501  Biso   1.000  I
  I1335    1.0000 0.26401  0.23601  0.26401  Biso   1.000  I
  I1336    1.0000 0.23601  0.26401  0.26401  Biso   1.000  I
  I1337    1.0000 0.23601  0.23601  0.23601  Biso   1.000  I
  I1338    1.0000 0.23601  0.76399  0.76399  Biso   1.000  I
  I1339    1.0000 0.26401  0.73599  0.76399  Biso   1.000  I
  I1340    1.0000 0.26401  0.76399  0.73599  Biso   1.000  I
  I1341    1.0000 0.73599  0.23601  0.73599  Biso   1.000  I
  I1342    1.0000 0.73599  0.26401  0.76399  Biso   1.000  I
  I1343    1.0000 0.76399  0.23601  0.76399  Biso   1.000  I
  I1344    1.0000 0.73599  0.26401  0.76399  Biso   1.000  I
  I1345    1.0000 0.76399  0.23601  0.76399  Biso   1.000  I
  I1346    1.0000 0.76399  0.26401  0.73599  Biso   1.000  I
  I1347    1.0000 0.23601  0.73599  0.73599  Biso   1.000  I
  I1348    1.0000 0.23601  0.76399  0.76399  Biso   1.000  I
  I1349    1.0000 0.26401  0.76399  0.73599  Biso   1.000  I
  I1350    1.0000 0.26401  0.73599  0.76399  Biso   1.000  I
  I1351    1.0000 0.26401  0.26401  0.23601  Biso   1.000  I
  I1352    1.0000 0.26401  0.23601  0.26401  Biso   1.000  I
  I1353    1.0000 0.23601  0.23601  0.23601  Biso   1.000  I
  I1354    1.0000 0.73599  0.23601  0.73599  Biso   1.000  I
  I1355    1.0000 0.73599  0.26401  0.76399  Biso   1.000  I
  I1356    1.0000 0.76399  0.23601  0.76399  Biso   1.000  I
  I1357    1.0000 0.23601  0.76399  0.76399  Biso   1.000  I
  I1358    1.0000 0.26401  0.76399  0.73599  Biso   1.000  I
  I1359    1.0000 0.26401  0.73599  0.76399  Biso   1.000  I
  I1360    1.0000 0.73599  0.26401  0.76399  Biso   1.000  I
  I1361    1.0000 0.76399  0.23601  0.76399  Biso   1.000  I
  I1362    1.0000 0.73599  0.23601  0.73599  Biso   1.000  I
  I1363    1.0000 0.76399  0.26401  0.73599  Biso   1.000  I
  I1364    1.0000 0.23601  0.76399  0.76399  Biso   1.000  I
  I1365    1.0000 0.23601  0.73599  0.73599  Biso   1.000  I
  I1366    1.0000 0.26401  0.73599  0.76399  Biso   1.000  I
  I1367    1.0000 0.76399  0.73599  0.26401  Biso   1.000  I
  I1368    1.0000 0.76399  0.76399  0.23601  Biso   1.000  I
  I1369    1.0000 0.73599  0.73599  0.23601  Biso   1.000  I
  I1370    1.0000 0.73599  0.26401  0.76399  Biso   1.000  I
  I1371    1.0000 0.76399  0.23601  0.76399  Biso   1.000  I
  I1372    1.0000 0.76399  0.26401  0.73599  Biso   1.000  I
  I1373    1.0000 0.76399  0.73599  0.26401  Biso   1.000  I
  I1374    1.0000 0.76399  0.76399  0.23601  Biso   1.000  I
  I1375    1.0000 0.73599  0.76399  0.26401  Biso   1.000  I
  I1376    1.0000 0.76399  0.23601  0.76399  Biso   1.000  I
  I1377    1.0000 0.76399  0.26401  0.73599  Biso   1.000  I
  I1378    1.0000 0.73599  0.23601  0.73599  Biso   1.000  I
  I1379    1.0000 0.73599  0.26401  0.76399  Biso   1.000  I
  I1380    1.0000 0.76399  0.73599  0.26401  Biso   1.000  I
  I1381    1.0000 0.76399  0.76399  0.23601  Biso   1.000  I
  I1382    1.0000 0.73599  0.73599  0.23601  Biso   1.000  I
  I1383    1.0000 0.73599  0.76399  0.26401  Biso   1.000  I
  I1384    1.0000 0.73599  0.23601  0.73599  Biso   1.000  I
  I1385    1.0000 0.76399  0.23601  0.76399  Biso   1.000  I
  I1386    1.0000 0.76399  0.26401  0.73599  Biso   1.000  I
  I1387    1.0000 0.26401  0.26401  0.23601  Biso   1.000  I
  I1388    1.0000 0.26401  0.23601  0.26401  Biso   1.000  I
  I1389    1.0000 0.23601  0.23601  0.23601  Biso   1.000  I
  I1390    1.0000 0.23601  0.26401  0.26401  Biso   1.000  I
  I1391    1.0000 0.76399  0.73599  0.26401  Biso   1.000  I
  I1392    1.0000 0.76399  0.76399  0.23601  Biso   1.000  I
  I1393    1.0000 0.73599  0.76399  0.26401  Biso   1.000  I
  I1394    1.0000 0.73599  0.23601  0.73599  Biso   1.000  I
  I1395    1.0000 0.76399  0.23601  0.76399  Biso   1.000  I
  I1396    1.0000 0.76399  0.26401  0.73599  Biso   1.000  I
  I1397    1.0000 0.73599  0.73599  0.23601  Biso   1.000  I
  I1398    1.0000 0.73599  0.26401  0.76399  Biso   1.000  I
  I1399    1.0000 0.76399  0.23601  0.76399  Biso   1.000  I
  I1400    1.0000 0.76399  0.26401  0.73599  Biso   1.000  I
  I1401    1.0000 0.23601  0.73599  0.73599  Biso   1.000  I
  I1402    1.0000 0.23601  0.76399  0.76399  Biso   1.000  I
  I1403    1.0000 0.26401  0.76399  0.73599  Biso   1.000  I
  I1404    1.0000 0.26401  0.73599  0.76399  Biso   1.000  I
  I1405    1.0000 0.73599  0.23601  0.73599  Biso   1.000  I
  I1406    1.0000 0.76399  0.73599  0.26401  Biso   1.000  I
  I1407    1.0000 0.76399  0.76399  0.23601  Biso   1.000  I
  I1408    1.0000 0.73599  0.76399  0.26401  Biso   1.000  I
  I1409    1.0000 0.73599  0.23601  0.73599  Biso   1.000  I
  I1410    1.0000 0.73599  0.26401  0.76399  Biso   1.000  I
  I1411    1.0000 0.76399  0.23601  0.76399  Biso   1.000  I
  I1412    1.0000 0.76399  0.26401  0.73599  Biso   1.000  I
  I1413    1.0000 0.73599  0.73599  0.23601  Biso   1.000  I
  I1414    1.0000 0.26401  0.26401  0.23601  Biso   1.000  I
  I1415    1.0000 0.26401  0.23601  0.26401  Biso   1.000  I
  I1416    1.0000 0.23601  0.26401  0.26401  Biso   1.000  I
  I1417    1.0000 0.73599  0.26401  0.76399  Biso   1.000  I
  I1418    1.0000 0.76399  0.23601  0.76399  Biso   1.000  I
  I1419    1.0000 0.76399  0.26401  0.73599  Biso   1.000  I
  I1420    1.0000 0.23601  0.73599  0.73599  Biso   1.000  I
  I1421    1.0000 0.30969  0.19029  0.30969  Biso   1.000  I
  I1422    1.0000 0.69031  0.19029  0.69031  Biso   1.000  I
  I1423    1.0000 0.69031  0.80971  0.30969  Biso   1.000  I
  I1424    1.0000 0.30969  0.19029  0.30969  Biso   1.000  I
  I1425    1.0000 0.19029  0.69031  0.69031  Biso   1.000  I
  I1426    1.0000 0.80971  0.69031  0.30969  Biso   1.000  I
  I1427    1.0000 0.19029  0.69031  0.69031  Biso   1.000  I
  I1428    1.0000 0.19029  0.30969  0.30969  Biso   1.000  I
  I1429    1.0000 0.80971  0.69031  0.30969  Biso   1.000  I
  I1430    1.0000 0.69031  0.69031  0.19029  Biso   1.000  I
  I1431    1.0000 0.30969  0.69031  0.80971  Biso   1.000  I
  I1432    1.0000 0.69031  0.69031  0.19029  Biso   1.000  I
  I1433    1.0000 0.30969  0.69031  0.80971  Biso   1.000  I
  I1434    1.0000 0.19029  0.69031  0.69031  Biso   1.000  I
  I1435    1.0000 0.80971  0.69031  0.30969  Biso   1.000  I
  I1436    1.0000 0.19029  0.69031  0.69031  Biso   1.000  I
  I1437    1.0000 0.80971  0.69031  0.30969  Biso   1.000  I
  I1438    1.0000 0.30969  0.69031  0.80971  Biso   1.000  I
  I1439    1.0000 0.69031  0.69031  0.19029  Biso   1.000  I
  I1440    1.0000 0.69031  0.30969  0.80971  Biso   1.000  I
  I1441    1.0000 0.69031  0.69031  0.19029  Biso   1.000  I
  I1442    1.0000 0.30969  0.69031  0.80971  Biso   1.000  I
  I1443    1.0000 0.30969  0.30969  0.19029  Biso   1.000  I
  I1444    1.0000 0.69031  0.69031  0.19029  Biso   1.000  I
  I1445    1.0000 0.30969  0.69031  0.80971  Biso   1.000  I
  I1446    1.0000 0.30969  0.19029  0.30969  Biso   1.000  I
  I1447    1.0000 0.69031  0.19029  0.69031  Biso   1.000  I
  I1448    1.0000 0.30969  0.80971  0.69031  Biso   1.000  I
  I1449    1.0000 0.80971  0.30969  0.69031  Biso   1.000  I
  I1450    1.0000 0.19029  0.69031  0.69031  Biso   1.000  I
  I1451    1.0000 0.80971  0.69031  0.30969  Biso   1.000  I
  I1452    1.0000 0.19029  0.30969  0.30969  Biso   1.000  I
  I1453    1.0000 0.19029  0.19029  0.19029  Biso   1.000  I
  I1454    1.0000 0.30969  0.19029  0.30969  Biso   1.000  I
  I1455    1.0000 0.30969  0.69031  0.80971  Biso   1.000  I
  I1456    1.0000 0.19029  0.80971  0.80971  Biso   1.000  I
  I1457    1.0000 0.69031  0.30969  0.80971  Biso   1.000  I
  I1458    1.0000 0.80971  0.19029  0.80971  Biso   1.000  I
  I1459    1.0000 0.69031  0.19029  0.69031  Biso   1.000  I
  I1460    1.0000 0.80971  0.19029  0.80971  Biso   1.000  I
  I1461    1.0000 0.69031  0.30969  0.80971  Biso   1.000  I
  I1462    1.0000 0.30969  0.69031  0.80971  Biso   1.000  I
  I1463    1.0000 0.19029  0.80971  0.80971  Biso   1.000  I
  I1464    1.0000 0.30969  0.19029  0.30969  Biso   1.000  I
  I1465    1.0000 0.19029  0.19029  0.19029  Biso   1.000  I
  I1466    1.0000 0.69031  0.30969  0.80971  Biso   1.000  I
  I1467    1.0000 0.80971  0.19029  0.80971  Biso   1.000  I
  I1468    1.0000 0.69031  0.19029  0.69031  Biso   1.000  I
  I1469    1.0000 0.30969  0.69031  0.80971  Biso   1.000  I
  I1470    1.0000 0.19029  0.80971  0.80971  Biso   1.000  I
  I1471    1.0000 0.80971  0.19029  0.80971  Biso   1.000  I
  I1472    1.0000 0.69031  0.30969  0.80971  Biso   1.000  I
  I1473    1.0000 0.19029  0.69031  0.69031  Biso   1.000  I
  I1474    1.0000 0.30969  0.69031  0.80971  Biso   1.000  I
  I1475    1.0000 0.19029  0.80971  0.80971  Biso   1.000  I
  I1476    1.0000 0.80971  0.80971  0.19029  Biso   1.000  I
  I1477    1.0000 0.80971  0.69031  0.30969  Biso   1.000  I
  I1478    1.0000 0.80971  0.19029  0.80971  Biso   1.000  I
  I1479    1.0000 0.80971  0.30969  0.69031  Biso   1.000  I
  I1480    1.0000 0.80971  0.80971  0.19029  Biso   1.000  I
  I1481    1.0000 0.80971  0.69031  0.30969  Biso   1.000  I
  I1482    1.0000 0.80971  0.30969  0.69031  Biso   1.000  I
  I1483    1.0000 0.80971  0.19029  0.80971  Biso   1.000  I
  I1484    1.0000 0.80971  0.80971  0.19029  Biso   1.000  I
  I1485    1.0000 0.69031  0.69031  0.19029  Biso   1.000  I
  I1486    1.0000 0.80971  0.69031  0.30969  Biso   1.000  I
  I1487    1.0000 0.80971  0.19029  0.80971  Biso   1.000  I
  I1488    1.0000 0.80971  0.30969  0.69031  Biso   1.000  I
  I1489    1.0000 0.69031  0.19029  0.69031  Biso   1.000  I
  I1490    1.0000 0.30969  0.19029  0.30969  Biso   1.000  I
  I1491    1.0000 0.19029  0.19029  0.19029  Biso   1.000  I
  I1492    1.0000 0.30969  0.30969  0.19029  Biso   1.000  I
  I1493    1.0000 0.80971  0.80971  0.19029  Biso   1.000  I
  I1494    1.0000 0.80971  0.69031  0.30969  Biso   1.000  I
  I1495    1.0000 0.80971  0.19029  0.80971  Biso   1.000  I
  I1496    1.0000 0.80971  0.30969  0.69031  Biso   1.000  I
  I1497    1.0000 0.69031  0.19029  0.69031  Biso   1.000  I
  I1498    1.0000 0.80971  0.19029  0.80971  Biso   1.000  I
  I1499    1.0000 0.80971  0.30969  0.69031  Biso   1.000  I
  I1500    1.0000 0.69031  0.30969  0.80971  Biso   1.000  I
  I1501    1.0000 0.30969  0.80971  0.69031  Biso   1.000  I
  I1502    1.0000 0.30969  0.69031  0.80971  Biso   1.000  I
  I1503    1.0000 0.19029  0.80971  0.80971  Biso   1.000  I
  I1504    1.0000 0.80971  0.80971  0.19029  Biso   1.000  I
  I1505    1.0000 0.69031  0.80971  0.30969  Biso   1.000  I
  I1506    1.0000 0.80971  0.69031  0.30969  Biso   1.000  I
  I1507    1.0000 0.80971  0.19029  0.80971  Biso   1.000  I
  I1508    1.0000 0.80971  0.30969  0.69031  Biso   1.000  I
  I1509    1.0000 0.69031  0.30969  0.80971  Biso   1.000  I
  I1510    1.0000 0.30969  0.19029  0.30969  Biso   1.000  I
  I1511    1.0000 0.19029  0.30969  0.30969  Biso   1.000  I
  I1512    1.0000 0.30969  0.30969  0.19029  Biso   1.000  I
  I1513    1.0000 0.80971  0.19029  0.80971  Biso   1.000  I
  I1514    1.0000 0.80971  0.30969  0.69031  Biso   1.000  I
  I1515    1.0000 0.69031  0.30969  0.80971  Biso   1.000  I
  I1516    1.0000 0.26401  0.26401  0.23601  Biso   1.000  I
  I1517    1.0000 0.23601  0.26401  0.26401  Biso   1.000  I
  I1518    1.0000 0.23601  0.23601  0.23601  Biso   1.000  I
  I1519    1.0000 0.73599  0.26401  0.76399  Biso   1.000  I
  I1520    1.0000 0.76399  0.23601  0.76399  Biso   1.000  I
  I1521    1.0000 0.76399  0.26401  0.73599  Biso   1.000  I
  I1522    1.0000 0.76399  0.73599  0.26401  Biso   1.000  I
  I1523    1.0000 0.76399  0.76399  0.23601  Biso   1.000  I
  I1524    1.0000 0.73599  0.73599  0.23601  Biso   1.000  I
  I1525    1.0000 0.26401  0.26401  0.23601  Biso   1.000  I
  I1526    1.0000 0.23601  0.26401  0.26401  Biso   1.000  I
  I1527    1.0000 0.23601  0.23601  0.23601  Biso   1.000  I
  I1528    1.0000 0.23601  0.76399  0.76399  Biso   1.000  I
  I1529    1.0000 0.26401  0.76399  0.73599  Biso   1.000  I
  I1530    1.0000 0.26401  0.73599  0.76399  Biso   1.000  I
  I1531    1.0000 0.76399  0.76399  0.23601  Biso   1.000  I
  I1532    1.0000 0.73599  0.73599  0.23601  Biso   1.000  I
  I1533    1.0000 0.73599  0.76399  0.26401  Biso   1.000  I
  I1534    1.0000 0.23601  0.76399  0.76399  Biso   1.000  I
  I1535    1.0000 0.26401  0.76399  0.73599  Biso   1.000  I
  I1536    1.0000 0.26401  0.73599  0.76399  Biso   1.000  I
  I1537    1.0000 0.26401  0.23601  0.26401  Biso   1.000  I
  I1538    1.0000 0.76399  0.76399  0.23601  Biso   1.000  I
  I1539    1.0000 0.73599  0.73599  0.23601  Biso   1.000  I
  I1540    1.0000 0.73599  0.76399  0.26401  Biso   1.000  I
  I1541    1.0000 0.76399  0.73599  0.26401  Biso   1.000  I
  I1542    1.0000 0.76399  0.76399  0.23601  Biso   1.000  I
  I1543    1.0000 0.73599  0.76399  0.26401  Biso   1.000  I
  I1544    1.0000 0.23601  0.73599  0.73599  Biso   1.000  I
  I1545    1.0000 0.76399  0.73599  0.26401  Biso   1.000  I
  I1546    1.0000 0.76399  0.76399  0.23601  Biso   1.000  I
  I1547    1.0000 0.73599  0.76399  0.26401  Biso   1.000  I
  I1548    1.0000 0.23601  0.76399  0.76399  Biso   1.000  I
  I1549    1.0000 0.23601  0.73599  0.73599  Biso   1.000  I
  I1550    1.0000 0.26401  0.76399  0.73599  Biso   1.000  I
  I1551    1.0000 0.23601  0.76399  0.76399  Biso   1.000  I
  I1552    1.0000 0.26401  0.76399  0.73599  Biso   1.000  I
  I1553    1.0000 0.26401  0.73599  0.76399  Biso   1.000  I
  I1554    1.0000 0.73599  0.73599  0.23601  Biso   1.000  I
  I1555    1.0000 0.23601  0.76399  0.76399  Biso   1.000  I
  I1556    1.0000 0.26401  0.76399  0.73599  Biso   1.000  I
  I1557    1.0000 0.26401  0.73599  0.76399  Biso   1.000  I
  I1558    1.0000 0.73599  0.73599  0.23601  Biso   1.000  I
  I1559    1.0000 0.23601  0.73599  0.73599  Biso   1.000  I
  I1560    1.0000 0.76399  0.73599  0.26401  Biso   1.000  I
  I1561    1.0000 0.76399  0.76399  0.23601  Biso   1.000  I
  I1562    1.0000 0.73599  0.76399  0.26401  Biso   1.000  I
  I1563    1.0000 0.73599  0.23601  0.73599  Biso   1.000  I
  I1564    1.0000 0.76399  0.73599  0.26401  Biso   1.000  I
  I1565    1.0000 0.76399  0.76399  0.23601  Biso   1.000  I
  I1566    1.0000 0.73599  0.76399  0.26401  Biso   1.000  I
  I1567    1.0000 0.23601  0.73599  0.73599  Biso   1.000  I
  I1568    1.0000 0.26401  0.23601  0.26401  Biso   1.000  I
  I1569    1.0000 0.23601  0.26401  0.26401  Biso   1.000  I
  I1570    1.0000 0.23601  0.23601  0.23601  Biso   1.000  I
  I1571    1.0000 0.76399  0.73599  0.26401  Biso   1.000  I
  I1572    1.0000 0.76399  0.76399  0.23601  Biso   1.000  I
  I1573    1.0000 0.73599  0.76399  0.26401  Biso   1.000  I
  I1574    1.0000 0.23601  0.76399  0.76399  Biso   1.000  I
  I1575    1.0000 0.23601  0.73599  0.73599  Biso   1.000  I
  I1576    1.0000 0.26401  0.76399  0.73599  Biso   1.000  I
  I1577    1.0000 0.26401  0.26401  0.23601  Biso   1.000  I
  I1578    1.0000 0.73599  0.26401  0.76399  Biso   1.000  I
  I1579    1.0000 0.76399  0.23601  0.76399  Biso   1.000  I
  I1580    1.0000 0.76399  0.26401  0.73599  Biso   1.000  I
  I1581    1.0000 0.23601  0.76399  0.76399  Biso   1.000  I
  I1582    1.0000 0.23601  0.73599  0.73599  Biso   1.000  I
  I1583    1.0000 0.26401  0.73599  0.76399  Biso   1.000  I
  I1584    1.0000 0.73599  0.23601  0.73599  Biso   1.000  I
  I1585    1.0000 0.23601  0.76399  0.76399  Biso   1.000  I
  I1586    1.0000 0.26401  0.76399  0.73599  Biso   1.000  I
  I1587    1.0000 0.26401  0.73599  0.76399  Biso   1.000  I
  I1588    1.0000 0.73599  0.73599  0.23601  Biso   1.000  I
  I1589    1.0000 0.12502  0.37501  0.37501  Biso   1.000  I
  I1590    1.0000 0.26401  0.26401  0.23601  Biso   1.000  I
  I1591    1.0000 0.12502  0.12502  0.12502  Biso   1.000  I
  I1592    1.0000 0.37501  0.12502  0.37501  Biso   1.000  I
  I1593    1.0000 0.37501  0.62499  0.87498  Biso   1.000  I
  I1594    1.0000 0.12502  0.87498  0.87498  Biso   1.000  I
  I1595    1.0000 0.62499  0.37501  0.87498  Biso   1.000  I
  I1596    1.0000 0.76399  0.26401  0.73599  Biso   1.000  I
  I1597    1.0000 0.87498  0.12502  0.87498  Biso   1.000  I
  I1598    1.0000 0.62499  0.12502  0.62499  Biso   1.000  I
  I1599    1.0000 0.87498  0.12502  0.87498  Biso   1.000  I
  I1600    1.0000 0.62499  0.37501  0.87498  Biso   1.000  I
  I1601    1.0000 0.37501  0.62499  0.87498  Biso   1.000  I
  I1602    1.0000 0.12502  0.87498  0.87498  Biso   1.000  I
  I1603    1.0000 0.37501  0.12502  0.37501  Biso   1.000  I
  I1604    1.0000 0.12502  0.12502  0.12502  Biso   1.000  I
  I1605    1.0000 0.62499  0.37501  0.87498  Biso   1.000  I
  I1606    1.0000 0.76399  0.26401  0.73599  Biso   1.000  I
  I1607    1.0000 0.87498  0.12502  0.87498  Biso   1.000  I
  I1608    1.0000 0.62499  0.12502  0.62499  Biso   1.000  I
  I1609    1.0000 0.37501  0.62499  0.87498  Biso   1.000  I
  I1610    1.0000 0.12502  0.87498  0.87498  Biso   1.000  I
  I1611    1.0000 0.87498  0.12502  0.87498  Biso   1.000  I
  I1612    1.0000 0.62499  0.37501  0.87498  Biso   1.000  I
  I1613    1.0000 0.12502  0.62499  0.62499  Biso   1.000  I
  I1614    1.0000 0.26401  0.76399  0.73599  Biso   1.000  I
  I1615    1.0000 0.37501  0.62499  0.87498  Biso   1.000  I
  I1616    1.0000 0.12502  0.87498  0.87498  Biso   1.000  I
  I1617    1.0000 0.87498  0.87498  0.12502  Biso   1.000  I
  I1618    1.0000 0.87498  0.62499  0.37501  Biso   1.000  I
  I1619    1.0000 0.87498  0.12502  0.87498  Biso   1.000  I
  I1620    1.0000 0.87498  0.37501  0.62499  Biso   1.000  I
  I1621    1.0000 0.87498  0.87498  0.12502  Biso   1.000  I
  I1622    1.0000 0.87498  0.62499  0.37501  Biso   1.000  I
  I1623    1.0000 0.87498  0.37501  0.62499  Biso   1.000  I
  I1624    1.0000 0.87498  0.12502  0.87498  Biso   1.000  I
  I1625    1.0000 0.87498  0.87498  0.12502  Biso   1.000  I
  I1626    1.0000 0.73599  0.76399  0.26401  Biso   1.000  I
  I1627    1.0000 0.62499  0.62499  0.12502  Biso   1.000  I
  I1628    1.0000 0.87498  0.62499  0.37501  Biso   1.000  I
  I1629    1.0000 0.87498  0.12502  0.87498  Biso   1.000  I
  I1630    1.0000 0.73599  0.26401  0.76399  Biso   1.000  I
  I1631    1.0000 0.87498  0.37501  0.62499  Biso   1.000  I
  I1632    1.0000 0.62499  0.12502  0.62499  Biso   1.000  I
  I1633    1.0000 0.37501  0.12502  0.37501  Biso   1.000  I
  I1634    1.0000 0.23601  0.26401  0.26401  Biso   1.000  I
  I1635    1.0000 0.12502  0.12502  0.12502  Biso   1.000  I
  I1636    1.0000 0.37501  0.37501  0.12502  Biso   1.000  I
  I1637    1.0000 0.87498  0.87498  0.12502  Biso   1.000  I
  I1638    1.0000 0.87498  0.62499  0.37501  Biso   1.000  I
  I1639    1.0000 0.87498  0.12502  0.87498  Biso   1.000  I
  I1640    1.0000 0.73599  0.26401  0.76399  Biso   1.000  I
  I1641    1.0000 0.87498  0.37501  0.62499  Biso   1.000  I
  I1642    1.0000 0.62499  0.12502  0.62499  Biso   1.000  I
  I1643    1.0000 0.87498  0.12502  0.87498  Biso   1.000  I
  I1644    1.0000 0.73599  0.23601  0.73599  Biso   1.000  I
  I1645    1.0000 0.87498  0.37501  0.62499  Biso   1.000  I
  I1646    1.0000 0.62499  0.37501  0.87498  Biso   1.000  I
  I1647    1.0000 0.37501  0.87498  0.62499  Biso   1.000  I
  I1648    1.0000 0.23601  0.73599  0.73599  Biso   1.000  I
  I1649    1.0000 0.37501  0.62499  0.87498  Biso   1.000  I
  I1650    1.0000 0.12502  0.87498  0.87498  Biso   1.000  I
  I1651    1.0000 0.87498  0.87498  0.12502  Biso   1.000  I
  I1652    1.0000 0.73599  0.73599  0.23601  Biso   1.000  I
  I1653    1.0000 0.62499  0.87498  0.37501  Biso   1.000  I
  I1654    1.0000 0.87498  0.62499  0.37501  Biso   1.000  I
  I1655    1.0000 0.87498  0.12502  0.87498  Biso   1.000  I
  I1656    1.0000 0.73599  0.23601  0.73599  Biso   1.000  I
  I1657    1.0000 0.87498  0.37501  0.62499  Biso   1.000  I
  I1658    1.0000 0.62499  0.37501  0.87498  Biso   1.000  I
  I1659    1.0000 0.37501  0.12502  0.37501  Biso   1.000  I
  I1660    1.0000 0.23601  0.23601  0.23601  Biso   1.000  I
  I1661    1.0000 0.12502  0.37501  0.37501  Biso   1.000  I
  I1662    1.0000 0.37501  0.37501  0.12502  Biso   1.000  I
  I1663    1.0000 0.87498  0.12502  0.87498  Biso   1.000  I
  I1664    1.0000 0.73599  0.23601  0.73599  Biso   1.000  I
  I1665    1.0000 0.87498  0.37501  0.62499  Biso   1.000  I
  I1666    1.0000 0.62499  0.37501  0.87498  Biso   1.000  I
  I1667    1.0000 0.19029  0.19029  0.19029  Biso   1.000  I
  I1668    1.0000 0.30969  0.30969  0.19029  Biso   1.000  I
  I1669    1.0000 0.80971  0.19029  0.80971  Biso   1.000  I
  I1670    1.0000 0.80971  0.30969  0.69031  Biso   1.000  I
  I1671    1.0000 0.80971  0.80971  0.19029  Biso   1.000  I
  I1672    1.0000 0.69031  0.69031  0.19029  Biso   1.000  I
  I1673    1.0000 0.80971  0.69031  0.30969  Biso   1.000  I
  I1674    1.0000 0.19029  0.30969  0.30969  Biso   1.000  I
  I1675    1.0000 0.19029  0.19029  0.19029  Biso   1.000  I
  I1676    1.0000 0.30969  0.30969  0.19029  Biso   1.000  I
  I1677    1.0000 0.30969  0.80971  0.69031  Biso   1.000  I
  I1678    1.0000 0.19029  0.80971  0.80971  Biso   1.000  I
  I1679    1.0000 0.69031  0.69031  0.19029  Biso   1.000  I
  I1680    1.0000 0.69031  0.80971  0.30969  Biso   1.000  I
  I1681    1.0000 0.80971  0.80971  0.19029  Biso   1.000  I
  I1682    1.0000 0.30969  0.80971  0.69031  Biso   1.000  I
  I1683    1.0000 0.19029  0.80971  0.80971  Biso   1.000  I
  I1684    1.0000 0.69031  0.69031  0.19029  Biso   1.000  I
  I1685    1.0000 0.69031  0.80971  0.30969  Biso   1.000  I
  I1686    1.0000 0.80971  0.80971  0.19029  Biso   1.000  I
  I1687    1.0000 0.80971  0.80971  0.19029  Biso   1.000  I
  I1688    1.0000 0.69031  0.80971  0.30969  Biso   1.000  I
  I1689    1.0000 0.80971  0.80971  0.19029  Biso   1.000  I
  I1690    1.0000 0.69031  0.80971  0.30969  Biso   1.000  I
  I1691    1.0000 0.19029  0.69031  0.69031  Biso   1.000  I
  I1692    1.0000 0.30969  0.80971  0.69031  Biso   1.000  I
  I1693    1.0000 0.19029  0.80971  0.80971  Biso   1.000  I
  I1694    1.0000 0.30969  0.80971  0.69031  Biso   1.000  I
  I1695    1.0000 0.19029  0.80971  0.80971  Biso   1.000  I
  I1696    1.0000 0.30969  0.80971  0.69031  Biso   1.000  I
  I1697    1.0000 0.30969  0.69031  0.80971  Biso   1.000  I
  I1698    1.0000 0.19029  0.80971  0.80971  Biso   1.000  I
  I1699    1.0000 0.80971  0.80971  0.19029  Biso   1.000  I
  I1700    1.0000 0.69031  0.80971  0.30969  Biso   1.000  I
  I1701    1.0000 0.80971  0.69031  0.30969  Biso   1.000  I
  I1702    1.0000 0.80971  0.80971  0.19029  Biso   1.000  I
  I1703    1.0000 0.69031  0.80971  0.30969  Biso   1.000  I
  I1704    1.0000 0.80971  0.69031  0.30969  Biso   1.000  I
  I1705    1.0000 0.19029  0.30969  0.30969  Biso   1.000  I
  I1706    1.0000 0.19029  0.19029  0.19029  Biso   1.000  I
  I1707    1.0000 0.80971  0.80971  0.19029  Biso   1.000  I
  I1708    1.0000 0.69031  0.80971  0.30969  Biso   1.000  I
  I1709    1.0000 0.19029  0.69031  0.69031  Biso   1.000  I
  I1710    1.0000 0.30969  0.80971  0.69031  Biso   1.000  I
  I1711    1.0000 0.19029  0.80971  0.80971  Biso   1.000  I
  I1712    1.0000 0.80971  0.19029  0.80971  Biso   1.000  I
  I1713    1.0000 0.69031  0.30969  0.80971  Biso   1.000  I
  I1714    1.0000 0.19029  0.69031  0.69031  Biso   1.000  I
  I1715    1.0000 0.30969  0.69031  0.80971  Biso   1.000  I
  I1716    1.0000 0.19029  0.80971  0.80971  Biso   1.000  I
  I1717    1.0000 0.30969  0.80971  0.69031  Biso   1.000  I
  I1718    1.0000 0.30969  0.69031  0.80971  Biso   1.000  I
  I1719    1.0000 0.19029  0.80971  0.80971  Biso   1.000  I
  I1720    1.0000 0.05970  0.44028  0.44028  Biso   1.000  I
  I1721    1.0000 0.05970  0.05970  0.05970  Biso   1.000  I
  I1722    1.0000 0.44028  0.05970  0.44028  Biso   1.000  I
  I1723    1.0000 0.44028  0.55972  0.94030  Biso   1.000  I
  I1724    1.0000 0.05970  0.94030  0.94030  Biso   1.000  I
  I1725    1.0000 0.55972  0.44028  0.94030  Biso   1.000  I
  I1726    1.0000 0.94030  0.05970  0.94030  Biso   1.000  I
  I1727    1.0000 0.55972  0.05970  0.55972  Biso   1.000  I
  I1728    1.0000 0.94030  0.05970  0.94030  Biso   1.000  I
  I1729    1.0000 0.55972  0.44028  0.94030  Biso   1.000  I
  I1730    1.0000 0.44028  0.55972  0.94030  Biso   1.000  I
  I1731    1.0000 0.05970  0.94030  0.94030  Biso   1.000  I
  I1732    1.0000 0.44028  0.05970  0.44028  Biso   1.000  I
  I1733    1.0000 0.05970  0.05970  0.05970  Biso   1.000  I
  I1734    1.0000 0.55972  0.44028  0.94030  Biso   1.000  I
  I1735    1.0000 0.94030  0.05970  0.94030  Biso   1.000  I
  I1736    1.0000 0.55972  0.05970  0.55972  Biso   1.000  I
  I1737    1.0000 0.44028  0.55972  0.94030  Biso   1.000  I
  I1738    1.0000 0.05970  0.94030  0.94030  Biso   1.000  I
  I1739    1.0000 0.94030  0.05970  0.94030  Biso   1.000  I
  I1740    1.0000 0.55972  0.44028  0.94030  Biso   1.000  I
  I1741    1.0000 0.05970  0.55972  0.55972  Biso   1.000  I
  I1742    1.0000 0.44028  0.55972  0.94030  Biso   1.000  I
  I1743    1.0000 0.05970  0.94030  0.94030  Biso   1.000  I
  I1744    1.0000 0.94030  0.94030  0.05970  Biso   1.000  I
  I1745    1.0000 0.94030  0.55972  0.44028  Biso   1.000  I
  I1746    1.0000 0.94030  0.05970  0.94030  Biso   1.000  I
  I1747    1.0000 0.94030  0.44028  0.55972  Biso   1.000  I
  I1748    1.0000 0.94030  0.94030  0.05970  Biso   1.000  I
  I1749    1.0000 0.94030  0.55972  0.44028  Biso   1.000  I
  I1750    1.0000 0.94030  0.44028  0.55972  Biso   1.000  I
  I1751    1.0000 0.94030  0.05970  0.94030  Biso   1.000  I
  I1752    1.0000 0.94030  0.94030  0.05970  Biso   1.000  I
  I1753    1.0000 0.55972  0.55972  0.05970  Biso   1.000  I
  I1754    1.0000 0.94030  0.55972  0.44028  Biso   1.000  I
  I1755    1.0000 0.94030  0.05970  0.94030  Biso   1.000  I
  I1756    1.0000 0.94030  0.44028  0.55972  Biso   1.000  I
  I1757    1.0000 0.55972  0.05970  0.55972  Biso   1.000  I
  I1758    1.0000 0.44028  0.05970  0.44028  Biso   1.000  I
  I1759    1.0000 0.05970  0.05970  0.05970  Biso   1.000  I
  I1760    1.0000 0.44028  0.44028  0.05970  Biso   1.000  I
  I1761    1.0000 0.94030  0.94030  0.05970  Biso   1.000  I
  I1762    1.0000 0.94030  0.55972  0.44028  Biso   1.000  I
  I1763    1.0000 0.94030  0.05970  0.94030  Biso   1.000  I
  I1764    1.0000 0.94030  0.44028  0.55972  Biso   1.000  I
  I1765    1.0000 0.55972  0.05970  0.55972  Biso   1.000  I
  I1766    1.0000 0.94030  0.05970  0.94030  Biso   1.000  I
  I1767    1.0000 0.94030  0.44028  0.55972  Biso   1.000  I
  I1768    1.0000 0.55972  0.44028  0.94030  Biso   1.000  I
  I1769    1.0000 0.44028  0.94030  0.55972  Biso   1.000  I
  I1770    1.0000 0.44028  0.55972  0.94030  Biso   1.000  I
  I1771    1.0000 0.05970  0.94030  0.94030  Biso   1.000  I
  I1772    1.0000 0.94030  0.94030  0.05970  Biso   1.000  I
  I1773    1.0000 0.55972  0.94030  0.44028  Biso   1.000  I
  I1774    1.0000 0.94030  0.55972  0.44028  Biso   1.000  I
  I1775    1.0000 0.94030  0.05970  0.94030  Biso   1.000  I
  I1776    1.0000 0.94030  0.44028  0.55972  Biso   1.000  I
  I1777    1.0000 0.55972  0.44028  0.94030  Biso   1.000  I
  I1778    1.0000 0.44028  0.05970  0.44028  Biso   1.000  I
  I1779    1.0000 0.05970  0.44028  0.44028  Biso   1.000  I
  I1780    1.0000 0.44028  0.44028  0.05970  Biso   1.000  I
  I1781    1.0000 0.94030  0.05970  0.94030  Biso   1.000  I
  I1782    1.0000 0.94030  0.44028  0.55972  Biso   1.000  I
  I1783    1.0000 0.55972  0.44028  0.94030  Biso   1.000  I
  I1784    1.0000 0.12502  0.12502  0.12502  Biso   1.000  I
  I1785    1.0000 0.37501  0.37501  0.12502  Biso   1.000  I
  I1786    1.0000 0.87498  0.12502  0.87498  Biso   1.000  I
  I1787    1.0000 0.87498  0.37501  0.62499  Biso   1.000  I
  I1788    1.0000 0.87498  0.87498  0.12502  Biso   1.000  I
  I1789    1.0000 0.73599  0.76399  0.26401  Biso   1.000  I
  I1790    1.0000 0.62499  0.62499  0.12502  Biso   1.000  I
  I1791    1.0000 0.87498  0.62499  0.37501  Biso   1.000  I
  I1792    1.0000 0.12502  0.37501  0.37501  Biso   1.000  I
  I1793    1.0000 0.26401  0.23601  0.26401  Biso   1.000  I
  I1794    1.0000 0.12502  0.12502  0.12502  Biso   1.000  I
  I1795    1.0000 0.37501  0.37501  0.12502  Biso   1.000  I
  I1796    1.0000 0.37501  0.87498  0.62499  Biso   1.000  I
  I1797    1.0000 0.12502  0.87498  0.87498  Biso   1.000  I
  I1798    1.0000 0.62499  0.62499  0.12502  Biso   1.000  I
  I1799    1.0000 0.76399  0.73599  0.26401  Biso   1.000  I
  I1800    1.0000 0.62499  0.87498  0.37501  Biso   1.000  I
  I1801    1.0000 0.87498  0.87498  0.12502  Biso   1.000  I
  I1802    1.0000 0.37501  0.87498  0.62499  Biso   1.000  I
  I1803    1.0000 0.12502  0.87498  0.87498  Biso   1.000  I
  I1804    1.0000 0.62499  0.62499  0.12502  Biso   1.000  I
  I1805    1.0000 0.76399  0.73599  0.26401  Biso   1.000  I
  I1806    1.0000 0.62499  0.87498  0.37501  Biso   1.000  I
  I1807    1.0000 0.87498  0.87498  0.12502  Biso   1.000  I
  I1808    1.0000 0.87498  0.87498  0.12502  Biso   1.000  I
  I1809    1.0000 0.62499  0.87498  0.37501  Biso   1.000  I
  I1810    1.0000 0.87498  0.87498  0.12502  Biso   1.000  I
  I1811    1.0000 0.62499  0.87498  0.37501  Biso   1.000  I
  I1812    1.0000 0.12502  0.62499  0.62499  Biso   1.000  I
  I1813    1.0000 0.26401  0.73599  0.76399  Biso   1.000  I
  I1814    1.0000 0.37501  0.87498  0.62499  Biso   1.000  I
  I1815    1.0000 0.12502  0.87498  0.87498  Biso   1.000  I
  I1816    1.0000 0.37501  0.87498  0.62499  Biso   1.000  I
  I1817    1.0000 0.12502  0.87498  0.87498  Biso   1.000  I
  I1818    1.0000 0.37501  0.87498  0.62499  Biso   1.000  I
  I1819    1.0000 0.23601  0.73599  0.73599  Biso   1.000  I
  I1820    1.0000 0.37501  0.62499  0.87498  Biso   1.000  I
  I1821    1.0000 0.12502  0.87498  0.87498  Biso   1.000  I
  I1822    1.0000 0.87498  0.87498  0.12502  Biso   1.000  I
  I1823    1.0000 0.73599  0.73599  0.23601  Biso   1.000  I
  I1824    1.0000 0.62499  0.87498  0.37501  Biso   1.000  I
  I1825    1.0000 0.87498  0.62499  0.37501  Biso   1.000  I
  I1826    1.0000 0.87498  0.87498  0.12502  Biso   1.000  I
  I1827    1.0000 0.73599  0.73599  0.23601  Biso   1.000  I
  I1828    1.0000 0.62499  0.87498  0.37501  Biso   1.000  I
  I1829    1.0000 0.87498  0.62499  0.37501  Biso   1.000  I
  I1830    1.0000 0.12502  0.37501  0.37501  Biso   1.000  I
  I1831    1.0000 0.12502  0.12502  0.12502  Biso   1.000  I
  I1832    1.0000 0.87498  0.87498  0.12502  Biso   1.000  I
  I1833    1.0000 0.62499  0.87498  0.37501  Biso   1.000  I
  I1834    1.0000 0.12502  0.62499  0.62499  Biso   1.000  I
  I1835    1.0000 0.26401  0.73599  0.76399  Biso   1.000  I
  I1836    1.0000 0.37501  0.87498  0.62499  Biso   1.000  I
  I1837    1.0000 0.12502  0.87498  0.87498  Biso   1.000  I
  I1838    1.0000 0.87498  0.12502  0.87498  Biso   1.000  I
  I1839    1.0000 0.62499  0.37501  0.87498  Biso   1.000  I
  I1840    1.0000 0.12502  0.62499  0.62499  Biso   1.000  I
  I1841    1.0000 0.26401  0.76399  0.73599  Biso   1.000  I
  I1842    1.0000 0.37501  0.62499  0.87498  Biso   1.000  I
  I1843    1.0000 0.12502  0.87498  0.87498  Biso   1.000  I
  I1844    1.0000 0.37501  0.87498  0.62499  Biso   1.000  I
  I1845    1.0000 0.23601  0.73599  0.73599  Biso   1.000  I
  I1846    1.0000 0.37501  0.62499  0.87498  Biso   1.000  I
  I1847    1.0000 0.12502  0.87498  0.87498  Biso   1.000  I
  I1848    1.0000 0.01402  0.51400  0.51400  Biso   1.000  I
  I1849    1.0000 0.51400  0.01402  0.51400  Biso   1.000  I
  I1850    1.0000 0.51400  0.48600  0.98598  Biso   1.000  I
  I1851    1.0000 0.98598  0.01402  0.98598  Biso   1.000  I
  I1852    1.0000 0.48600  0.51400  0.98598  Biso   1.000  I
  I1853    1.0000 0.48600  0.01402  0.48600  Biso   1.000  I
  I1854    1.0000 0.01402  0.98598  0.98598  Biso   1.000  I
  I1855    1.0000 0.48600  0.51400  0.98598  Biso   1.000  I
  I1856    1.0000 0.51400  0.48600  0.98598  Biso   1.000  I
  I1857    1.0000 0.98598  0.01402  0.98598  Biso   1.000  I
  I1858    1.0000 0.51400  0.01402  0.51400  Biso   1.000  I
  I1859    1.0000 0.98598  0.01402  0.98598  Biso   1.000  I
  I1860    1.0000 0.48600  0.51400  0.98598  Biso   1.000  I
  I1861    1.0000 0.48600  0.01402  0.48600  Biso   1.000  I
  I1862    1.0000 0.51400  0.48600  0.98598  Biso   1.000  I
  I1863    1.0000 0.98598  0.01402  0.98598  Biso   1.000  I
  I1864    1.0000 0.01402  0.98598  0.98598  Biso   1.000  I
  I1865    1.0000 0.48600  0.51400  0.98598  Biso   1.000  I
  I1866    1.0000 0.01402  0.48600  0.48600  Biso   1.000  I
  I1867    1.0000 0.51400  0.48600  0.98598  Biso   1.000  I
  I1868    1.0000 0.98598  0.01402  0.98598  Biso   1.000  I
  I1869    1.0000 0.98598  0.48600  0.51400  Biso   1.000  I
  I1870    1.0000 0.98598  0.98598  0.01402  Biso   1.000  I
  I1871    1.0000 0.98598  0.51400  0.48600  Biso   1.000  I
  I1872    1.0000 0.98598  0.01402  0.98598  Biso   1.000  I
  I1873    1.0000 0.98598  0.48600  0.51400  Biso   1.000  I
  I1874    1.0000 0.98598  0.51400  0.48600  Biso   1.000  I
  I1875    1.0000 0.98598  0.98598  0.01402  Biso   1.000  I
  I1876    1.0000 0.48600  0.48600  0.01402  Biso   1.000  I
  I1877    1.0000 0.98598  0.48600  0.51400  Biso   1.000  I
  I1878    1.0000 0.98598  0.51400  0.48600  Biso   1.000  I
  I1879    1.0000 0.48600  0.01402  0.48600  Biso   1.000  I
  I1880    1.0000 0.51400  0.01402  0.51400  Biso   1.000  I
  I1881    1.0000 0.51400  0.51400  0.01402  Biso   1.000  I
  I1882    1.0000 0.98598  0.01402  0.98598  Biso   1.000  I
  I1883    1.0000 0.98598  0.48600  0.51400  Biso   1.000  I
  I1884    1.0000 0.98598  0.51400  0.48600  Biso   1.000  I
  I1885    1.0000 0.48600  0.01402  0.48600  Biso   1.000  I
  I1886    1.0000 0.98598  0.51400  0.48600  Biso   1.000  I
  I1887    1.0000 0.48600  0.51400  0.98598  Biso   1.000  I
  I1888    1.0000 0.51400  0.98598  0.48600  Biso   1.000  I
  I1889    1.0000 0.51400  0.01402  0.51400  Biso   1.000  I
  I1890    1.0000 0.48600  0.01402  0.48600  Biso   1.000  I
  I1891    1.0000 0.51400  0.48600  0.98598  Biso   1.000  I
  I1892    1.0000 0.98598  0.01402  0.98598  Biso   1.000  I
  I1893    1.0000 0.98598  0.01402  0.98598  Biso   1.000  I
  I1894    1.0000 0.48600  0.98598  0.51400  Biso   1.000  I
  I1895    1.0000 0.98598  0.48600  0.51400  Biso   1.000  I
  I1896    1.0000 0.98598  0.98598  0.01402  Biso   1.000  I
  I1897    1.0000 0.98598  0.51400  0.48600  Biso   1.000  I
  I1898    1.0000 0.48600  0.51400  0.98598  Biso   1.000  I
  I1899    1.0000 0.48600  0.48600  0.01402  Biso   1.000  I
  I1900    1.0000 0.51400  0.51400  0.01402  Biso   1.000  I
  I1901    1.0000 0.98598  0.51400  0.48600  Biso   1.000  I
  I1902    1.0000 0.98598  0.48600  0.51400  Biso   1.000  I
  I1903    1.0000 0.01402  0.51400  0.51400  Biso   1.000  I
  I1904    1.0000 0.51400  0.48600  0.98598  Biso   1.000  I
  I1905    1.0000 0.01402  0.98598  0.98598  Biso   1.000  I
  I1906    1.0000 0.01402  0.48600  0.48600  Biso   1.000  I
  I1907    1.0000 0.48600  0.51400  0.98598  Biso   1.000  I
  I1908    1.0000 0.05970  0.05970  0.05970  Biso   1.000  I
  I1909    1.0000 0.44028  0.44028  0.05970  Biso   1.000  I
  I1910    1.0000 0.94030  0.05970  0.94030  Biso   1.000  I
  I1911    1.0000 0.94030  0.44028  0.55972  Biso   1.000  I
  I1912    1.0000 0.94030  0.94030  0.05970  Biso   1.000  I
  I1913    1.0000 0.55972  0.55972  0.05970  Biso   1.000  I
  I1914    1.0000 0.94030  0.55972  0.44028  Biso   1.000  I
  I1915    1.0000 0.05970  0.44028  0.44028  Biso   1.000  I
  I1916    1.0000 0.05970  0.05970  0.05970  Biso   1.000  I
  I1917    1.0000 0.44028  0.44028  0.05970  Biso   1.000  I
  I1918    1.0000 0.44028  0.94030  0.55972  Biso   1.000  I
  I1919    1.0000 0.05970  0.94030  0.94030  Biso   1.000  I
  I1920    1.0000 0.55972  0.55972  0.05970  Biso   1.000  I
  I1921    1.0000 0.55972  0.94030  0.44028  Biso   1.000  I
  I1922    1.0000 0.94030  0.94030  0.05970  Biso   1.000  I
  I1923    1.0000 0.44028  0.94030  0.55972  Biso   1.000  I
  I1924    1.0000 0.05970  0.94030  0.94030  Biso   1.000  I
  I1925    1.0000 0.55972  0.55972  0.05970  Biso   1.000  I
  I1926    1.0000 0.55972  0.94030  0.44028  Biso   1.000  I
  I1927    1.0000 0.94030  0.94030  0.05970  Biso   1.000  I
  I1928    1.0000 0.94030  0.94030  0.05970  Biso   1.000  I
  I1929    1.0000 0.55972  0.94030  0.44028  Biso   1.000  I
  I1930    1.0000 0.94030  0.94030  0.05970  Biso   1.000  I
  I1931    1.0000 0.55972  0.94030  0.44028  Biso   1.000  I
  I1932    1.0000 0.05970  0.55972  0.55972  Biso   1.000  I
  I1933    1.0000 0.44028  0.94030  0.55972  Biso   1.000  I
  I1934    1.0000 0.05970  0.94030  0.94030  Biso   1.000  I
  I1935    1.0000 0.44028  0.94030  0.55972  Biso   1.000  I
  I1936    1.0000 0.05970  0.94030  0.94030  Biso   1.000  I
  I1937    1.0000 0.44028  0.94030  0.55972  Biso   1.000  I
  I1938    1.0000 0.44028  0.55972  0.94030  Biso   1.000  I
  I1939    1.0000 0.05970  0.94030  0.94030  Biso   1.000  I
  I1940    1.0000 0.94030  0.94030  0.05970  Biso   1.000  I
  I1941    1.0000 0.55972  0.94030  0.44028  Biso   1.000  I
  I1942    1.0000 0.94030  0.55972  0.44028  Biso   1.000  I
  I1943    1.0000 0.94030  0.94030  0.05970  Biso   1.000  I
  I1944    1.0000 0.55972  0.94030  0.44028  Biso   1.000  I
  I1945    1.0000 0.94030  0.55972  0.44028  Biso   1.000  I
  I1946    1.0000 0.05970  0.44028  0.44028  Biso   1.000  I
  I1947    1.0000 0.05970  0.05970  0.05970  Biso   1.000  I
  I1948    1.0000 0.94030  0.94030  0.05970  Biso   1.000  I
  I1949    1.0000 0.55972  0.94030  0.44028  Biso   1.000  I
  I1950    1.0000 0.05970  0.55972  0.55972  Biso   1.000  I
  I1951    1.0000 0.44028  0.94030  0.55972  Biso   1.000  I
  I1952    1.0000 0.05970  0.94030  0.94030  Biso   1.000  I
  I1953    1.0000 0.94030  0.05970  0.94030  Biso   1.000  I
  I1954    1.0000 0.55972  0.44028  0.94030  Biso   1.000  I
  I1955    1.0000 0.05970  0.55972  0.55972  Biso   1.000  I
  I1956    1.0000 0.44028  0.55972  0.94030  Biso   1.000  I
  I1957    1.0000 0.05970  0.94030  0.94030  Biso   1.000  I
  I1958    1.0000 0.44028  0.94030  0.55972  Biso   1.000  I
  I1959    1.0000 0.44028  0.55972  0.94030  Biso   1.000  I
  I1960    1.0000 0.05970  0.94030  0.94030  Biso   1.000  I
  I1961    1.0000 0.55972  0.05970  0.55972  Biso   1.000  I
  I1962    1.0000 0.55972  0.55972  0.05970  Biso   1.000  I
  I1963    1.0000 0.05970  0.55972  0.55972  Biso   1.000  I
  I1964    1.0000 0.98598  0.98598  0.01402  Biso   1.000  I
  I1965    1.0000 0.51400  0.51400  0.01402  Biso   1.000  I
  I1966    1.0000 0.98598  0.98598  0.01402  Biso   1.000  I
  I1967    1.0000 0.98598  0.51400  0.48600  Biso   1.000  I
  I1968    1.0000 0.48600  0.48600  0.01402  Biso   1.000  I
  I1969    1.0000 0.98598  0.48600  0.51400  Biso   1.000  I
  I1970    1.0000 0.01402  0.51400  0.51400  Biso   1.000  I
  I1971    1.0000 0.51400  0.51400  0.01402  Biso   1.000  I
  I1972    1.0000 0.51400  0.98598  0.48600  Biso   1.000  I
  I1973    1.0000 0.98598  0.98598  0.01402  Biso   1.000  I
  I1974    1.0000 0.48600  0.48600  0.01402  Biso   1.000  I
  I1975    1.0000 0.48600  0.98598  0.51400  Biso   1.000  I
  I1976    1.0000 0.51400  0.98598  0.48600  Biso   1.000  I
  I1977    1.0000 0.98598  0.98598  0.01402  Biso   1.000  I
  I1978    1.0000 0.48600  0.48600  0.01402  Biso   1.000  I
  I1979    1.0000 0.48600  0.98598  0.51400  Biso   1.000  I
  I1980    1.0000 0.01402  0.98598  0.98598  Biso   1.000  I
  I1981    1.0000 0.48600  0.98598  0.51400  Biso   1.000  I
  I1982    1.0000 0.01402  0.98598  0.98598  Biso   1.000  I
  I1983    1.0000 0.48600  0.98598  0.51400  Biso   1.000  I
  I1984    1.0000 0.01402  0.48600  0.48600  Biso   1.000  I
  I1985    1.0000 0.51400  0.98598  0.48600  Biso   1.000  I
  I1986    1.0000 0.51400  0.98598  0.48600  Biso   1.000  I
  I1987    1.0000 0.98598  0.98598  0.01402  Biso   1.000  I
  I1988    1.0000 0.51400  0.98598  0.48600  Biso   1.000  I
  I1989    1.0000 0.98598  0.98598  0.01402  Biso   1.000  I
  I1990    1.0000 0.48600  0.98598  0.51400  Biso   1.000  I
  I1991    1.0000 0.98598  0.48600  0.51400  Biso   1.000  I
  I1992    1.0000 0.01402  0.98598  0.98598  Biso   1.000  I
  I1993    1.0000 0.48600  0.98598  0.51400  Biso   1.000  I
  I1994    1.0000 0.01402  0.51400  0.51400  Biso   1.000  I
  I1995    1.0000 0.01402  0.98598  0.98598  Biso   1.000  I
  I1996    1.0000 0.01402  0.98598  0.98598  Biso   1.000  I
  I1997    1.0000 0.48600  0.98598  0.51400  Biso   1.000  I
  I1998    1.0000 0.01402  0.48600  0.48600  Biso   1.000  I
  I1999    1.0000 0.51400  0.98598  0.48600  Biso   1.000  I
  I2000    1.0000 0.01402  0.98598  0.98598  Biso   1.000  I
  I2001    1.0000 0.48600  0.51400  0.98598  Biso   1.000  I
  I2002    1.0000 0.01402  0.48600  0.48600  Biso   1.000  I
  I2003    1.0000 0.51400  0.48600  0.98598  Biso   1.000  I
  I2004    1.0000 0.51400  0.98598  0.48600  Biso   1.000  I
  I2005    1.0000 0.51400  0.48600  0.98598  Biso   1.000  I
  I2006    1.0000 0.62499  0.12502  0.62499  Biso   1.000  I
  I2007    1.0000 0.62499  0.62499  0.12502  Biso   1.000  I
  I2008    1.0000 0.12502  0.62499  0.62499  Biso   1.000  I
  I2009    1.0000 0.69031  0.19029  0.69031  Biso   1.000  I
  I2010    1.0000 0.69031  0.69031  0.19029  Biso   1.000  I
  I2011    1.0000 0.19029  0.69031  0.69031  Biso   1.000  I
  I2012    1.0000 0.73599  0.26401  0.76399  Biso   1.000  I
  I2013    1.0000 0.76399  0.23601  0.76399  Biso   1.000  I
  I2014    1.0000 0.76399  0.26401  0.73599  Biso   1.000  I
  I2015    1.0000 0.76399  0.73599  0.26401  Biso   1.000  I
  I2016    1.0000 0.76399  0.76399  0.23601  Biso   1.000  I
  I2017    1.0000 0.73599  0.76399  0.26401  Biso   1.000  I
  I2018    1.0000 0.23601  0.76399  0.76399  Biso   1.000  I
  I2019    1.0000 0.26401  0.76399  0.73599  Biso   1.000  I
  I2020    1.0000 0.26401  0.73599  0.76399  Biso   1.000  I
  I2021    1.0000 0.80971  0.19029  0.80971  Biso   1.000  I
  I2022    1.0000 0.80971  0.30969  0.69031  Biso   1.000  I
  I2023    1.0000 0.69031  0.30969  0.80971  Biso   1.000  I
  I2024    1.0000 0.80971  0.80971  0.19029  Biso   1.000  I
  I2025    1.0000 0.69031  0.80971  0.30969  Biso   1.000  I
  I2026    1.0000 0.80971  0.69031  0.30969  Biso   1.000  I
  I2027    1.0000 0.30969  0.80971  0.69031  Biso   1.000  I
  I2028    1.0000 0.30969  0.69031  0.80971  Biso   1.000  I
  I2029    1.0000 0.19029  0.80971  0.80971  Biso   1.000  I
  I2030    1.0000 0.87498  0.12502  0.87498  Biso   1.000  I
  I2031    1.0000 0.73599  0.23601  0.73599  Biso   1.000  I
  I2032    1.0000 0.87498  0.37501  0.62499  Biso   1.000  I
  I2033    1.0000 0.62499  0.37501  0.87498  Biso   1.000  I
  I2034    1.0000 0.87498  0.87498  0.12502  Biso   1.000  I
  I2035    1.0000 0.73599  0.73599  0.23601  Biso   1.000  I
  I2036    1.0000 0.62499  0.87498  0.37501  Biso   1.000  I
  I2037    1.0000 0.87498  0.62499  0.37501  Biso   1.000  I
  I2038    1.0000 0.37501  0.87498  0.62499  Biso   1.000  I
  I2039    1.0000 0.23601  0.73599  0.73599  Biso   1.000  I
  I2040    1.0000 0.37501  0.62499  0.87498  Biso   1.000  I
  I2041    1.0000 0.12502  0.87498  0.87498  Biso   1.000  I
  I2042    1.0000 0.94030  0.05970  0.94030  Biso   1.000  I
  I2043    1.0000 0.94030  0.44028  0.55972  Biso   1.000  I
  I2044    1.0000 0.55972  0.44028  0.94030  Biso   1.000  I
  I2045    1.0000 0.94030  0.94030  0.05970  Biso   1.000  I
  I2046    1.0000 0.55972  0.94030  0.44028  Biso   1.000  I
  I2047    1.0000 0.94030  0.55972  0.44028  Biso   1.000  I
  I2048    1.0000 0.44028  0.94030  0.55972  Biso   1.000  I
  I2049    1.0000 0.44028  0.55972  0.94030  Biso   1.000  I
  I2050    1.0000 0.05970  0.94030  0.94030  Biso   1.000  I
  I2051    1.0000 0.98598  0.51400  0.48600  Biso   1.000  I
  I2052    1.0000 0.48600  0.51400  0.98598  Biso   1.000  I
  I2053    1.0000 0.48600  0.98598  0.51400  Biso   1.000  I
  I2054    1.0000 0.98598  0.48600  0.51400  Biso   1.000  I
  I2055    1.0000 0.51400  0.98598  0.48600  Biso   1.000  I
  I2056    1.0000 0.51400  0.48600  0.98598  Biso   1.000  I
  I2057    1.0000 0.30969  0.19029  0.30969  Biso   1.000  I
  I2058    1.0000 0.37501  0.12502  0.37501  Biso   1.000  I
  I2059    1.0000 0.26401  0.26401  0.23601  Biso   1.000  I
  I2060    1.0000 0.23601  0.26401  0.26401  Biso   1.000  I
  I2061    1.0000 0.23601  0.23601  0.23601  Biso   1.000  I
  I2062    1.0000 0.44028  0.05970  0.44028  Biso   1.000  I
  I2063    1.0000 0.19029  0.30969  0.30969  Biso   1.000  I
  I2064    1.0000 0.19029  0.19029  0.19029  Biso   1.000  I
  I2065    1.0000 0.30969  0.30969  0.19029  Biso   1.000  I
  I2066    1.0000 0.48600  0.98598  0.51400  Biso   1.000  I
  I2067    1.0000 0.51400  0.98598  0.48600  Biso   1.000  I
  I2068    1.0000 0.51400  0.01402  0.51400  Biso   1.000  I
  I2069    1.0000 0.12502  0.37501  0.37501  Biso   1.000  I
  I2070    1.0000 0.26401  0.23601  0.26401  Biso   1.000  I
  I2071    1.0000 0.12502  0.12502  0.12502  Biso   1.000  I
  I2072    1.0000 0.37501  0.37501  0.12502  Biso   1.000  I
  I2073    1.0000 0.55972  0.94030  0.44028  Biso   1.000  I
  I2074    1.0000 0.55972  0.05970  0.55972  Biso   1.000  I
  I2075    1.0000 0.44028  0.94030  0.55972  Biso   1.000  I
  I2076    1.0000 0.05970  0.44028  0.44028  Biso   1.000  I
  I2077    1.0000 0.05970  0.05970  0.05970  Biso   1.000  I
  I2078    1.0000 0.44028  0.44028  0.05970  Biso   1.000  I
  I2079    1.0000 0.62499  0.87498  0.37501  Biso   1.000  I
  I2080    1.0000 0.48600  0.01402  0.48600  Biso   1.000  I
  I2081    1.0000 0.62499  0.12502  0.62499  Biso   1.000  I
  I2082    1.0000 0.37501  0.87498  0.62499  Biso   1.000  I
  I2083    1.0000 0.98598  0.51400  0.48600  Biso   1.000  I
  I2084    1.0000 0.98598  0.48600  0.51400  Biso   1.000  I
  I2085    1.0000 0.01402  0.51400  0.51400  Biso   1.000  I
  I2086    1.0000 0.98598  0.98598  0.01402  Biso   1.000  I
  I2087    1.0000 0.98598  0.01402  0.98598  Biso   1.000  I
  I2088    1.0000 0.01402  0.98598  0.98598  Biso   1.000  I
  I2089    1.0000 0.51400  0.48600  0.98598  Biso   1.000  I
  I2090    1.0000 0.48600  0.51400  0.98598  Biso   1.000  I
  I2091    1.0000 0.51400  0.51400  0.01402  Biso   1.000  I
  I2092    1.0000 0.69031  0.80971  0.30969  Biso   1.000  I
  I2093    1.0000 0.69031  0.19029  0.69031  Biso   1.000  I
  I2094    1.0000 0.30969  0.80971  0.69031  Biso   1.000  I
  I2095    1.0000 0.94030  0.44028  0.55972  Biso   1.000  I
  I2096    1.0000 0.05970  0.55972  0.55972  Biso   1.000  I
  I2097    1.0000 0.94030  0.55972  0.44028  Biso   1.000  I
  I2098    1.0000 0.94030  0.05970  0.94030  Biso   1.000  I
  I2099    1.0000 0.05970  0.94030  0.94030  Biso   1.000  I
  I2100    1.0000 0.94030  0.94030  0.05970  Biso   1.000  I
  I2101    1.0000 0.44028  0.55972  0.94030  Biso   1.000  I
  I2102    1.0000 0.55972  0.55972  0.05970  Biso   1.000  I
  I2103    1.0000 0.55972  0.44028  0.94030  Biso   1.000  I
  I2104    1.0000 0.76399  0.73599  0.26401  Biso   1.000  I
  I2105    1.0000 0.76399  0.76399  0.23601  Biso   1.000  I
  I2106    1.0000 0.73599  0.73599  0.23601  Biso   1.000  I
  I2107    1.0000 0.73599  0.26401  0.76399  Biso   1.000  I
  I2108    1.0000 0.76399  0.23601  0.76399  Biso   1.000  I
  I2109    1.0000 0.76399  0.26401  0.73599  Biso   1.000  I
  I2110    1.0000 0.23601  0.76399  0.76399  Biso   1.000  I
  I2111    1.0000 0.23601  0.73599  0.73599  Biso   1.000  I
  I2112    1.0000 0.26401  0.73599  0.76399  Biso   1.000  I
  I2113    1.0000 0.87498  0.37501  0.62499  Biso   1.000  I
  I2114    1.0000 0.01402  0.48600  0.48600  Biso   1.000  I
  I2115    1.0000 0.12502  0.62499  0.62499  Biso   1.000  I
  I2116    1.0000 0.87498  0.62499  0.37501  Biso   1.000  I
  I2117    1.0000 0.87498  0.12502  0.87498  Biso   1.000  I
  I2118    1.0000 0.01402  0.01402  0.01402  Biso   1.000  I
  I2119    1.0000 0.12502  0.87498  0.87498  Biso   1.000  I
  I2120    1.0000 0.87498  0.87498  0.12502  Biso   1.000  I
  I2121    1.0000 0.37501  0.62499  0.87498  Biso   1.000  I
  I2122    1.0000 0.48600  0.48600  0.01402  Biso   1.000  I
  I2123    1.0000 0.62499  0.62499  0.12502  Biso   1.000  I
  I2124    1.0000 0.62499  0.37501  0.87498  Biso   1.000  I
  I2125    1.0000 0.80971  0.80971  0.19029  Biso   1.000  I
  I2126    1.0000 0.69031  0.69031  0.19029  Biso   1.000  I
  I2127    1.0000 0.80971  0.69031  0.30969  Biso   1.000  I
  I2128    1.0000 0.80971  0.19029  0.80971  Biso   1.000  I
  I2129    1.0000 0.80971  0.30969  0.69031  Biso   1.000  I
  I2130    1.0000 0.69031  0.30969  0.80971  Biso   1.000  I
  I2131    1.0000 0.19029  0.69031  0.69031  Biso   1.000  I
  I2132    1.0000 0.30969  0.69031  0.80971  Biso   1.000  I
  I2133    1.0000 0.19029  0.80971  0.80971  Biso   1.000  I
  I2134    1.0000 0.80971  0.30969  0.69031  Biso   1.000  I
  I2135    1.0000 0.19029  0.69031  0.69031  Biso   1.000  I
  I2136    1.0000 0.80971  0.69031  0.30969  Biso   1.000  I
  I2137    1.0000 0.80971  0.19029  0.80971  Biso   1.000  I
  I2138    1.0000 0.19029  0.80971  0.80971  Biso   1.000  I
  I2139    1.0000 0.80971  0.80971  0.19029  Biso   1.000  I
  I2140    1.0000 0.30969  0.69031  0.80971  Biso   1.000  I
  I2141    1.0000 0.69031  0.69031  0.19029  Biso   1.000  I
  I2142    1.0000 0.69031  0.30969  0.80971  Biso   1.000  I
  I2143    1.0000 0.87498  0.87498  0.12502  Biso   1.000  I
  I2144    1.0000 0.73599  0.76399  0.26401  Biso   1.000  I
  I2145    1.0000 0.62499  0.62499  0.12502  Biso   1.000  I
  I2146    1.0000 0.87498  0.62499  0.37501  Biso   1.000  I
  I2147    1.0000 0.87498  0.12502  0.87498  Biso   1.000  I
  I2148    1.0000 0.73599  0.23601  0.73599  Biso   1.000  I
  I2149    1.0000 0.87498  0.37501  0.62499  Biso   1.000  I
  I2150    1.0000 0.62499  0.37501  0.87498  Biso   1.000  I
  I2151    1.0000 0.12502  0.62499  0.62499  Biso   1.000  I
  I2152    1.0000 0.26401  0.76399  0.73599  Biso   1.000  I
  I2153    1.0000 0.37501  0.62499  0.87498  Biso   1.000  I
  I2154    1.0000 0.12502  0.87498  0.87498  Biso   1.000  I
  I2155    1.0000 0.73599  0.23601  0.73599  Biso   1.000  I
  I2156    1.0000 0.73599  0.26401  0.76399  Biso   1.000  I
  I2157    1.0000 0.76399  0.23601  0.76399  Biso   1.000  I
  I2158    1.0000 0.23601  0.76399  0.76399  Biso   1.000  I
  I2159    1.0000 0.26401  0.76399  0.73599  Biso   1.000  I
  I2160    1.0000 0.26401  0.73599  0.76399  Biso   1.000  I
  I2161    1.0000 0.76399  0.76399  0.23601  Biso   1.000  I
  I2162    1.0000 0.73599  0.73599  0.23601  Biso   1.000  I
  I2163    1.0000 0.73599  0.76399  0.26401  Biso   1.000  I
  I2164    1.0000 0.73599  0.23601  0.73599  Biso   1.000  I
  I2165    1.0000 0.73599  0.26401  0.76399  Biso   1.000  I
  I2166    1.0000 0.76399  0.26401  0.73599  Biso   1.000  I
  I2167    1.0000 0.23601  0.73599  0.73599  Biso   1.000  I
  I2168    1.0000 0.26401  0.76399  0.73599  Biso   1.000  I
  I2169    1.0000 0.26401  0.73599  0.76399  Biso   1.000  I
  I2170    1.0000 0.76399  0.73599  0.26401  Biso   1.000  I
  I2171    1.0000 0.73599  0.73599  0.23601  Biso   1.000  I
  I2172    1.0000 0.73599  0.76399  0.26401  Biso   1.000  I
  I2173    1.0000 0.23601  0.76399  0.76399  Biso   1.000  I
  I2174    1.0000 0.23601  0.73599  0.73599  Biso   1.000  I
  I2175    1.0000 0.26401  0.76399  0.73599  Biso   1.000  I
  I2176    1.0000 0.76399  0.73599  0.26401  Biso   1.000  I
  I2177    1.0000 0.76399  0.76399  0.23601  Biso   1.000  I
  I2178    1.0000 0.73599  0.76399  0.26401  Biso   1.000  I
  I2179    1.0000 0.73599  0.23601  0.73599  Biso   1.000  I
  I2180    1.0000 0.76399  0.23601  0.76399  Biso   1.000  I
  I2181    1.0000 0.76399  0.26401  0.73599  Biso   1.000  I
  I2182    1.0000 0.94030  0.94030  0.05970  Biso   1.000  I
  I2183    1.0000 0.55972  0.55972  0.05970  Biso   1.000  I
  I2184    1.0000 0.94030  0.55972  0.44028  Biso   1.000  I
  I2185    1.0000 0.94030  0.05970  0.94030  Biso   1.000  I
  I2186    1.0000 0.94030  0.44028  0.55972  Biso   1.000  I
  I2187    1.0000 0.55972  0.44028  0.94030  Biso   1.000  I
  I2188    1.0000 0.05970  0.55972  0.55972  Biso   1.000  I
  I2189    1.0000 0.44028  0.55972  0.94030  Biso   1.000  I
  I2190    1.0000 0.05970  0.94030  0.94030  Biso   1.000  I
  I2191    1.0000 0.69031  0.30969  0.80971  Biso   1.000  I
  I2192    1.0000 0.80971  0.19029  0.80971  Biso   1.000  I
  I2193    1.0000 0.69031  0.19029  0.69031  Biso   1.000  I
  I2194    1.0000 0.30969  0.80971  0.69031  Biso   1.000  I
  I2195    1.0000 0.30969  0.69031  0.80971  Biso   1.000  I
  I2196    1.0000 0.19029  0.80971  0.80971  Biso   1.000  I
  I2197    1.0000 0.69031  0.69031  0.19029  Biso   1.000  I
  I2198    1.0000 0.69031  0.80971  0.30969  Biso   1.000  I
  I2199    1.0000 0.80971  0.80971  0.19029  Biso   1.000  I
  I2200    1.0000 0.69031  0.30969  0.80971  Biso   1.000  I
  I2201    1.0000 0.80971  0.30969  0.69031  Biso   1.000  I
  I2202    1.0000 0.69031  0.19029  0.69031  Biso   1.000  I
  I2203    1.0000 0.30969  0.80971  0.69031  Biso   1.000  I
  I2204    1.0000 0.30969  0.69031  0.80971  Biso   1.000  I
  I2205    1.0000 0.19029  0.69031  0.69031  Biso   1.000  I
  I2206    1.0000 0.69031  0.69031  0.19029  Biso   1.000  I
  I2207    1.0000 0.69031  0.80971  0.30969  Biso   1.000  I
  I2208    1.0000 0.80971  0.69031  0.30969  Biso   1.000  I
  I2209    1.0000 0.19029  0.69031  0.69031  Biso   1.000  I
  I2210    1.0000 0.30969  0.80971  0.69031  Biso   1.000  I
  I2211    1.0000 0.19029  0.80971  0.80971  Biso   1.000  I
  I2212    1.0000 0.80971  0.80971  0.19029  Biso   1.000  I
  I2213    1.0000 0.69031  0.80971  0.30969  Biso   1.000  I
  I2214    1.0000 0.80971  0.69031  0.30969  Biso   1.000  I
  I2215    1.0000 0.80971  0.19029  0.80971  Biso   1.000  I
  I2216    1.0000 0.80971  0.30969  0.69031  Biso   1.000  I
  I2217    1.0000 0.69031  0.19029  0.69031  Biso   1.000  I
  I2218    1.0000 0.98598  0.01402  0.98598  Biso   1.000  I
  I2219    1.0000 0.01402  0.98598  0.98598  Biso   1.000  I
  I2220    1.0000 0.01402  0.01402  0.01402  Biso   1.000  I
  I2221    1.0000 0.51400  0.48600  0.98598  Biso   1.000  I
  I2222    1.0000 0.48600  0.51400  0.98598  Biso   1.000  I
  I2223    1.0000 0.48600  0.48600  0.01402  Biso   1.000  I
  I2224    1.0000 0.98598  0.48600  0.51400  Biso   1.000  I
  I2225    1.0000 0.01402  0.51400  0.51400  Biso   1.000  I
  I2226    1.0000 0.01402  0.48600  0.48600  Biso   1.000  I
  I2227    1.0000 0.98598  0.98598  0.01402  Biso   1.000  I
  I2228    1.0000 0.01402  0.98598  0.98598  Biso   1.000  I
  I2229    1.0000 0.01402  0.01402  0.01402  Biso   1.000  I
  I2230    1.0000 0.98598  0.51400  0.48600  Biso   1.000  I
  I2231    1.0000 0.01402  0.51400  0.51400  Biso   1.000  I
  I2232    1.0000 0.01402  0.48600  0.48600  Biso   1.000  I
  I2233    1.0000 0.48600  0.51400  0.98598  Biso   1.000  I
  I2234    1.0000 0.48600  0.48600  0.01402  Biso   1.000  I
  I2235    1.0000 0.51400  0.51400  0.01402  Biso   1.000  I
  I2236    1.0000 0.98598  0.51400  0.48600  Biso   1.000  I
  I2237    1.0000 0.98598  0.48600  0.51400  Biso   1.000  I
  I2238    1.0000 0.01402  0.48600  0.48600  Biso   1.000  I
  I2239    1.0000 0.51400  0.48600  0.98598  Biso   1.000  I
  I2240    1.0000 0.48600  0.48600  0.01402  Biso   1.000  I
  I2241    1.0000 0.51400  0.51400  0.01402  Biso   1.000  I
  I2242    1.0000 0.98598  0.98598  0.01402  Biso   1.000  I
  I2243    1.0000 0.98598  0.01402  0.98598  Biso   1.000  I
  I2244    1.0000 0.01402  0.01402  0.01402  Biso   1.000  I
  I2245    1.0000 0.62499  0.37501  0.87498  Biso   1.000  I
  I2246    1.0000 0.76399  0.26401  0.73599  Biso   1.000  I
  I2247    1.0000 0.87498  0.12502  0.87498  Biso   1.000  I
  I2248    1.0000 0.62499  0.12502  0.62499  Biso   1.000  I
  I2249    1.0000 0.37501  0.87498  0.62499  Biso   1.000  I
  I2250    1.0000 0.23601  0.73599  0.73599  Biso   1.000  I
  I2251    1.0000 0.37501  0.62499  0.87498  Biso   1.000  I
  I2252    1.0000 0.12502  0.87498  0.87498  Biso   1.000  I
  I2253    1.0000 0.62499  0.62499  0.12502  Biso   1.000  I
  I2254    1.0000 0.76399  0.73599  0.26401  Biso   1.000  I
  I2255    1.0000 0.62499  0.87498  0.37501  Biso   1.000  I
  I2256    1.0000 0.87498  0.87498  0.12502  Biso   1.000  I
  I2257    1.0000 0.62499  0.37501  0.87498  Biso   1.000  I
  I2258    1.0000 0.76399  0.23601  0.76399  Biso   1.000  I
  I2259    1.0000 0.87498  0.37501  0.62499  Biso   1.000  I
  I2260    1.0000 0.62499  0.12502  0.62499  Biso   1.000  I
  I2261    1.0000 0.37501  0.87498  0.62499  Biso   1.000  I
  I2262    1.0000 0.23601  0.76399  0.76399  Biso   1.000  I
  I2263    1.0000 0.37501  0.62499  0.87498  Biso   1.000  I
  I2264    1.0000 0.12502  0.62499  0.62499  Biso   1.000  I
  I2265    1.0000 0.62499  0.62499  0.12502  Biso   1.000  I
  I2266    1.0000 0.76399  0.76399  0.23601  Biso   1.000  I
  I2267    1.0000 0.62499  0.87498  0.37501  Biso   1.000  I
  I2268    1.0000 0.87498  0.62499  0.37501  Biso   1.000  I
  I2269    1.0000 0.12502  0.62499  0.62499  Biso   1.000  I
  I2270    1.0000 0.26401  0.73599  0.76399  Biso   1.000  I
  I2271    1.0000 0.37501  0.87498  0.62499  Biso   1.000  I
  I2272    1.0000 0.12502  0.87498  0.87498  Biso   1.000  I
  I2273    1.0000 0.87498  0.87498  0.12502  Biso   1.000  I
  I2274    1.0000 0.73599  0.73599  0.23601  Biso   1.000  I
  I2275    1.0000 0.62499  0.87498  0.37501  Biso   1.000  I
  I2276    1.0000 0.87498  0.62499  0.37501  Biso   1.000  I
  I2277    1.0000 0.87498  0.12502  0.87498  Biso   1.000  I
  I2278    1.0000 0.73599  0.26401  0.76399  Biso   1.000  I
  I2279    1.0000 0.87498  0.37501  0.62499  Biso   1.000  I
  I2280    1.0000 0.62499  0.12502  0.62499  Biso   1.000  I
  I2281    1.0000 0.05970  0.94030  0.94030  Biso   1.000  I
  I2282    1.0000 0.05970  0.05970  0.05970  Biso   1.000  I
  I2283    1.0000 0.94030  0.05970  0.94030  Biso   1.000  I
  I2284    1.0000 0.44028  0.55972  0.94030  Biso   1.000  I
  I2285    1.0000 0.44028  0.44028  0.05970  Biso   1.000  I
  I2286    1.0000 0.55972  0.44028  0.94030  Biso   1.000  I
  I2287    1.0000 0.05970  0.55972  0.55972  Biso   1.000  I
  I2288    1.0000 0.05970  0.44028  0.44028  Biso   1.000  I
  I2289    1.0000 0.94030  0.44028  0.55972  Biso   1.000  I
  I2290    1.0000 0.05970  0.94030  0.94030  Biso   1.000  I
  I2291    1.0000 0.05970  0.05970  0.05970  Biso   1.000  I
  I2292    1.0000 0.94030  0.94030  0.05970  Biso   1.000  I
  I2293    1.0000 0.05970  0.55972  0.55972  Biso   1.000  I
  I2294    1.0000 0.05970  0.44028  0.44028  Biso   1.000  I
  I2295    1.0000 0.94030  0.55972  0.44028  Biso   1.000  I
  I2296    1.0000 0.44028  0.44028  0.05970  Biso   1.000  I
  I2297    1.0000 0.55972  0.55972  0.05970  Biso   1.000  I
  I2298    1.0000 0.44028  0.55972  0.94030  Biso   1.000  I
  I2299    1.0000 0.94030  0.44028  0.55972  Biso   1.000  I
  I2300    1.0000 0.05970  0.44028  0.44028  Biso   1.000  I
  I2301    1.0000 0.94030  0.55972  0.44028  Biso   1.000  I
  I2302    1.0000 0.44028  0.44028  0.05970  Biso   1.000  I
  I2303    1.0000 0.55972  0.55972  0.05970  Biso   1.000  I
  I2304    1.0000 0.55972  0.44028  0.94030  Biso   1.000  I
  I2305    1.0000 0.94030  0.05970  0.94030  Biso   1.000  I
  I2306    1.0000 0.05970  0.05970  0.05970  Biso   1.000  I
  I2307    1.0000 0.94030  0.94030  0.05970  Biso   1.000  I
  I2308    1.0000 0.55972  0.44028  0.94030  Biso   1.000  I
  I2309    1.0000 0.55972  0.05970  0.55972  Biso   1.000  I
  I2310    1.0000 0.44028  0.94030  0.55972  Biso   1.000  I
  I2311    1.0000 0.05970  0.94030  0.94030  Biso   1.000  I
  I2312    1.0000 0.55972  0.55972  0.05970  Biso   1.000  I
  I2313    1.0000 0.55972  0.94030  0.44028  Biso   1.000  I
  I2314    1.0000 0.94030  0.94030  0.05970  Biso   1.000  I
  I2315    1.0000 0.55972  0.44028  0.94030  Biso   1.000  I
  I2316    1.0000 0.94030  0.44028  0.55972  Biso   1.000  I
  I2317    1.0000 0.55972  0.05970  0.55972  Biso   1.000  I
  I2318    1.0000 0.44028  0.94030  0.55972  Biso   1.000  I
  I2319    1.0000 0.05970  0.55972  0.55972  Biso   1.000  I
  I2320    1.0000 0.55972  0.55972  0.05970  Biso   1.000  I
  I2321    1.0000 0.55972  0.94030  0.44028  Biso   1.000  I
  I2322    1.0000 0.05970  0.55972  0.55972  Biso   1.000  I
  I2323    1.0000 0.44028  0.94030  0.55972  Biso   1.000  I
  I2324    1.0000 0.05970  0.94030  0.94030  Biso   1.000  I
  I2325    1.0000 0.94030  0.94030  0.05970  Biso   1.000  I
  I2326    1.0000 0.55972  0.94030  0.44028  Biso   1.000  I
  I2327    1.0000 0.94030  0.44028  0.55972  Biso   1.000  I
  I2328    1.0000 0.55972  0.05970  0.55972  Biso   1.000  I
  I2329    1.0000 0.98598  0.98598  0.01402  Biso   1.000  I
  I2330    1.0000 0.12502  0.87498  0.87498  Biso   1.000  I
  I2331    1.0000 0.12502  0.12502  0.12502  Biso   1.000  I
  I2332    1.0000 0.51400  0.51400  0.01402  Biso   1.000  I
  I2333    1.0000 0.37501  0.37501  0.12502  Biso   1.000  I
  I2334    1.0000 0.62499  0.37501  0.87498  Biso   1.000  I
  I2335    1.0000 0.98598  0.51400  0.48600  Biso   1.000  I
  I2336    1.0000 0.12502  0.62499  0.62499  Biso   1.000  I
  I2337    1.0000 0.12502  0.37501  0.37501  Biso   1.000  I
  I2338    1.0000 0.87498  0.37501  0.62499  Biso   1.000  I
  I2339    1.0000 0.98598  0.01402  0.98598  Biso   1.000  I
  I2340    1.0000 0.12502  0.87498  0.87498  Biso   1.000  I
  I2341    1.0000 0.12502  0.12502  0.12502  Biso   1.000  I
  I2342    1.0000 0.87498  0.87498  0.12502  Biso   1.000  I
  I2343    1.0000 0.98598  0.48600  0.51400  Biso   1.000  I
  I2344    1.0000 0.12502  0.62499  0.62499  Biso   1.000  I
  I2345    1.0000 0.12502  0.37501  0.37501  Biso   1.000  I
  I2346    1.0000 0.51400  0.48600  0.98598  Biso   1.000  I
  I2347    1.0000 0.37501  0.37501  0.12502  Biso   1.000  I
  I2348    1.0000 0.62499  0.62499  0.12502  Biso   1.000  I
  I2349    1.0000 0.87498  0.37501  0.62499  Biso   1.000  I
  I2350    1.0000 0.01402  0.51400  0.51400  Biso   1.000  I
  I2351    1.0000 0.12502  0.37501  0.37501  Biso   1.000  I
  I2352    1.0000 0.48600  0.51400  0.98598  Biso   1.000  I
  I2353    1.0000 0.37501  0.37501  0.12502  Biso   1.000  I
  I2354    1.0000 0.62499  0.62499  0.12502  Biso   1.000  I
  I2355    1.0000 0.62499  0.37501  0.87498  Biso   1.000  I
  I2356    1.0000 0.01402  0.98598  0.98598  Biso   1.000  I
  I2357    1.0000 0.12502  0.12502  0.12502  Biso   1.000  I
  I2358    1.0000 0.87498  0.87498  0.12502  Biso   1.000  I
  I2359    1.0000 0.48600  0.51400  0.98598  Biso   1.000  I
  I2360    1.0000 0.48600  0.48600  0.01402  Biso   1.000  I
  I2361    1.0000 0.51400  0.51400  0.01402  Biso   1.000  I
  I2362    1.0000 0.48600  0.98598  0.51400  Biso   1.000  I
  I2363    1.0000 0.51400  0.98598  0.48600  Biso   1.000  I
  I2364    1.0000 0.48600  0.01402  0.48600  Biso   1.000  I
  I2365    1.0000 0.51400  0.98598  0.48600  Biso   1.000  I
  I2366    1.0000 0.48600  0.01402  0.48600  Biso   1.000  I
  I2367    1.0000 0.51400  0.01402  0.51400  Biso   1.000  I
  I2368    1.0000 0.98598  0.98598  0.01402  Biso   1.000  I
  I2369    1.0000 0.98598  0.01402  0.98598  Biso   1.000  I
  I2370    1.0000 0.01402  0.01402  0.01402  Biso   1.000  I
  I2371    1.0000 0.51400  0.48600  0.98598  Biso   1.000  I
  I2372    1.0000 0.48600  0.51400  0.98598  Biso   1.000  I
  I2373    1.0000 0.48600  0.48600  0.01402  Biso   1.000  I
  I2374    1.0000 0.48600  0.98598  0.51400  Biso   1.000  I
  I2375    1.0000 0.48600  0.01402  0.48600  Biso   1.000  I
  I2376    1.0000 0.51400  0.01402  0.51400  Biso   1.000  I
  I2377    1.0000 0.98598  0.01402  0.98598  Biso   1.000  I
  I2378    1.0000 0.01402  0.98598  0.98598  Biso   1.000  I
  I2379    1.0000 0.01402  0.01402  0.01402  Biso   1.000  I
  I2380    1.0000 0.51400  0.51400  0.01402  Biso   1.000  I
  I2381    1.0000 0.98598  0.51400  0.48600  Biso   1.000  I
  I2382    1.0000 0.01402  0.51400  0.51400  Biso   1.000  I
  I2383    1.0000 0.01402  0.48600  0.48600  Biso   1.000  I
  I2384    1.0000 0.48600  0.98598  0.51400  Biso   1.000  I
  I2385    1.0000 0.51400  0.98598  0.48600  Biso   1.000  I
  I2386    1.0000 0.48600  0.01402  0.48600  Biso   1.000  I
  I2387    1.0000 0.51400  0.98598  0.48600  Biso   1.000  I
  I2388    1.0000 0.48600  0.01402  0.48600  Biso   1.000  I
  I2389    1.0000 0.51400  0.01402  0.51400  Biso   1.000  I
  I2390    1.0000 0.98598  0.51400  0.48600  Biso   1.000  I
  I2391    1.0000 0.98598  0.48600  0.51400  Biso   1.000  I
  I2392    1.0000 0.01402  0.48600  0.48600  Biso   1.000  I
  I2393    1.0000 0.51400  0.48600  0.98598  Biso   1.000  I
  I2394    1.0000 0.48600  0.51400  0.98598  Biso   1.000  I
  I2395    1.0000 0.48600  0.48600  0.01402  Biso   1.000  I
  I2396    1.0000 0.51400  0.01402  0.51400  Biso   1.000  I
  I2397    1.0000 0.98598  0.48600  0.51400  Biso   1.000  I
  I2398    1.0000 0.51400  0.98598  0.48600  Biso   1.000  I
  I2399    1.0000 0.48600  0.01402  0.48600  Biso   1.000  I
  I2400    1.0000 0.51400  0.01402  0.51400  Biso   1.000  I
  I2401    1.0000 0.98598  0.98598  0.01402  Biso   1.000  I
  I2402    1.0000 0.98598  0.01402  0.98598  Biso   1.000  I
  I2403    1.0000 0.01402  0.98598  0.98598  Biso   1.000  I
  I2404    1.0000 0.01402  0.01402  0.01402  Biso   1.000  I
  I2405    1.0000 0.48600  0.98598  0.51400  Biso   1.000  I
  I2406    1.0000 0.98598  0.51400  0.48600  Biso   1.000  I
  I2407    1.0000 0.01402  0.51400  0.51400  Biso   1.000  I
  I2408    1.0000 0.01402  0.48600  0.48600  Biso   1.000  I
  I2409    1.0000 0.48600  0.98598  0.51400  Biso   1.000  I
  I2410    1.0000 0.19029  0.80971  0.80971  Biso   1.000  I
  I2411    1.0000 0.19029  0.19029  0.19029  Biso   1.000  I
  I2412    1.0000 0.30969  0.30969  0.19029  Biso   1.000  I
  I2413    1.0000 0.69031  0.30969  0.80971  Biso   1.000  I
  I2414    1.0000 0.19029  0.69031  0.69031  Biso   1.000  I
  I2415    1.0000 0.19029  0.30969  0.30969  Biso   1.000  I
  I2416    1.0000 0.80971  0.30969  0.69031  Biso   1.000  I
  I2417    1.0000 0.19029  0.80971  0.80971  Biso   1.000  I
  I2418    1.0000 0.19029  0.19029  0.19029  Biso   1.000  I
  I2419    1.0000 0.80971  0.80971  0.19029  Biso   1.000  I
  I2420    1.0000 0.19029  0.69031  0.69031  Biso   1.000  I
  I2421    1.0000 0.19029  0.30969  0.30969  Biso   1.000  I
  I2422    1.0000 0.30969  0.30969  0.19029  Biso   1.000  I
  I2423    1.0000 0.69031  0.69031  0.19029  Biso   1.000  I
  I2424    1.0000 0.80971  0.30969  0.69031  Biso   1.000  I
  I2425    1.0000 0.19029  0.30969  0.30969  Biso   1.000  I
  I2426    1.0000 0.30969  0.30969  0.19029  Biso   1.000  I
  I2427    1.0000 0.69031  0.69031  0.19029  Biso   1.000  I
  I2428    1.0000 0.69031  0.30969  0.80971  Biso   1.000  I
  I2429    1.0000 0.19029  0.19029  0.19029  Biso   1.000  I
  I2430    1.0000 0.80971  0.80971  0.19029  Biso   1.000  I
  I2431    1.0000 0.44028  0.44028  0.05970  Biso   1.000  I
  I2432    1.0000 0.55972  0.55972  0.05970  Biso   1.000  I
  I2433    1.0000 0.44028  0.55972  0.94030  Biso   1.000  I
  I2434    1.0000 0.44028  0.05970  0.44028  Biso   1.000  I
  I2435    1.0000 0.44028  0.94030  0.55972  Biso   1.000  I
  I2436    1.0000 0.44028  0.05970  0.44028  Biso   1.000  I
  I2437    1.0000 0.55972  0.05970  0.55972  Biso   1.000  I
  I2438    1.0000 0.94030  0.05970  0.94030  Biso   1.000  I
  I2439    1.0000 0.05970  0.05970  0.05970  Biso   1.000  I
  I2440    1.0000 0.94030  0.94030  0.05970  Biso   1.000  I
  I2441    1.0000 0.44028  0.55972  0.94030  Biso   1.000  I
  I2442    1.0000 0.44028  0.44028  0.05970  Biso   1.000  I
  I2443    1.0000 0.44028  0.05970  0.44028  Biso   1.000  I
  I2444    1.0000 0.55972  0.05970  0.55972  Biso   1.000  I
  I2445    1.0000 0.44028  0.94030  0.55972  Biso   1.000  I
  I2446    1.0000 0.05970  0.05970  0.05970  Biso   1.000  I
  I2447    1.0000 0.94030  0.05970  0.94030  Biso   1.000  I
  I2448    1.0000 0.05970  0.44028  0.44028  Biso   1.000  I
  I2449    1.0000 0.94030  0.55972  0.44028  Biso   1.000  I
  I2450    1.0000 0.55972  0.94030  0.44028  Biso   1.000  I
  I2451    1.0000 0.44028  0.05970  0.44028  Biso   1.000  I
  I2452    1.0000 0.44028  0.94030  0.55972  Biso   1.000  I
  I2453    1.0000 0.44028  0.05970  0.44028  Biso   1.000  I
  I2454    1.0000 0.55972  0.94030  0.44028  Biso   1.000  I
  I2455    1.0000 0.94030  0.44028  0.55972  Biso   1.000  I
  I2456    1.0000 0.05970  0.44028  0.44028  Biso   1.000  I
  I2457    1.0000 0.94030  0.55972  0.44028  Biso   1.000  I
  I2458    1.0000 0.44028  0.55972  0.94030  Biso   1.000  I
  I2459    1.0000 0.44028  0.44028  0.05970  Biso   1.000  I
  I2460    1.0000 0.55972  0.44028  0.94030  Biso   1.000  I
  I2461    1.0000 0.44028  0.05970  0.44028  Biso   1.000  I
  I2462    1.0000 0.55972  0.05970  0.55972  Biso   1.000  I
  I2463    1.0000 0.55972  0.94030  0.44028  Biso   1.000  I
  I2464    1.0000 0.05970  0.94030  0.94030  Biso   1.000  I
  I2465    1.0000 0.05970  0.05970  0.05970  Biso   1.000  I
  I2466    1.0000 0.94030  0.05970  0.94030  Biso   1.000  I
  I2467    1.0000 0.05970  0.55972  0.55972  Biso   1.000  I
  I2468    1.0000 0.05970  0.44028  0.44028  Biso   1.000  I
  I2469    1.0000 0.94030  0.55972  0.44028  Biso   1.000  I
  I2470    1.0000 0.23601  0.73599  0.73599  Biso   1.000  I
  I2471    1.0000 0.26401  0.76399  0.73599  Biso   1.000  I
  I2472    1.0000 0.26401  0.73599  0.76399  Biso   1.000  I
  I2473    1.0000 0.26401  0.26401  0.23601  Biso   1.000  I
  I2474    1.0000 0.26401  0.23601  0.26401  Biso   1.000  I
  I2475    1.0000 0.23601  0.26401  0.26401  Biso   1.000  I
  I2476    1.0000 0.26401  0.23601  0.26401  Biso   1.000  I
  I2477    1.0000 0.23601  0.26401  0.26401  Biso   1.000  I
  I2478    1.0000 0.23601  0.23601  0.23601  Biso   1.000  I
  I2479    1.0000 0.73599  0.23601  0.73599  Biso   1.000  I
  I2480    1.0000 0.76399  0.23601  0.76399  Biso   1.000  I
  I2481    1.0000 0.76399  0.26401  0.73599  Biso   1.000  I
  I2482    1.0000 0.23601  0.76399  0.76399  Biso   1.000  I
  I2483    1.0000 0.26401  0.76399  0.73599  Biso   1.000  I
  I2484    1.0000 0.26401  0.73599  0.76399  Biso   1.000  I
  I2485    1.0000 0.26401  0.26401  0.23601  Biso   1.000  I
  I2486    1.0000 0.26401  0.23601  0.26401  Biso   1.000  I
  I2487    1.0000 0.23601  0.23601  0.23601  Biso   1.000  I
  I2488    1.0000 0.73599  0.23601  0.73599  Biso   1.000  I
  I2489    1.0000 0.73599  0.26401  0.76399  Biso   1.000  I
  I2490    1.0000 0.76399  0.23601  0.76399  Biso   1.000  I
  I2491    1.0000 0.23601  0.73599  0.73599  Biso   1.000  I
  I2492    1.0000 0.26401  0.26401  0.23601  Biso   1.000  I
  I2493    1.0000 0.26401  0.23601  0.26401  Biso   1.000  I
  I2494    1.0000 0.23601  0.26401  0.26401  Biso   1.000  I
  I2495    1.0000 0.76399  0.73599  0.26401  Biso   1.000  I
  I2496    1.0000 0.73599  0.73599  0.23601  Biso   1.000  I
  I2497    1.0000 0.73599  0.76399  0.26401  Biso   1.000  I
  I2498    1.0000 0.23601  0.76399  0.76399  Biso   1.000  I
  I2499    1.0000 0.26401  0.76399  0.73599  Biso   1.000  I
  I2500    1.0000 0.26401  0.73599  0.76399  Biso   1.000  I
  I2501    1.0000 0.23601  0.23601  0.23601  Biso   1.000  I
  I2502    1.0000 0.26401  0.23601  0.26401  Biso   1.000  I
  I2503    1.0000 0.23601  0.26401  0.26401  Biso   1.000  I
  I2504    1.0000 0.23601  0.23601  0.23601  Biso   1.000  I
  I2505    1.0000 0.76399  0.73599  0.26401  Biso   1.000  I
  I2506    1.0000 0.76399  0.76399  0.23601  Biso   1.000  I
  I2507    1.0000 0.73599  0.76399  0.26401  Biso   1.000  I
  I2508    1.0000 0.73599  0.23601  0.73599  Biso   1.000  I
  I2509    1.0000 0.73599  0.26401  0.76399  Biso   1.000  I
  I2510    1.0000 0.76399  0.23601  0.76399  Biso   1.000  I
  I2511    1.0000 0.26401  0.26401  0.23601  Biso   1.000  I
  I2512    1.0000 0.26401  0.23601  0.26401  Biso   1.000  I
  I2513    1.0000 0.23601  0.26401  0.26401  Biso   1.000  I
  I2514    1.0000 0.23601  0.23601  0.23601  Biso   1.000  I
  I2515    1.0000 0.76399  0.76399  0.23601  Biso   1.000  I
  I2516    1.0000 0.76399  0.26401  0.73599  Biso   1.000  I
  I2517    1.0000 0.26401  0.26401  0.23601  Biso   1.000  I
  I2518    1.0000 0.76399  0.73599  0.26401  Biso   1.000  I
  I2519    1.0000 0.73599  0.73599  0.23601  Biso   1.000  I
  I2520    1.0000 0.73599  0.76399  0.26401  Biso   1.000  I
  I2521    1.0000 0.51400  0.48600  0.98598  Biso   1.000  I
  I2522    1.0000 0.37501  0.37501  0.12502  Biso   1.000  I
  I2523    1.0000 0.62499  0.62499  0.12502  Biso   1.000  I
  I2524    1.0000 0.37501  0.62499  0.87498  Biso   1.000  I
  I2525    1.0000 0.37501  0.12502  0.37501  Biso   1.000  I
  I2526    1.0000 0.37501  0.87498  0.62499  Biso   1.000  I
  I2527    1.0000 0.37501  0.12502  0.37501  Biso   1.000  I
  I2528    1.0000 0.62499  0.12502  0.62499  Biso   1.000  I
  I2529    1.0000 0.87498  0.12502  0.87498  Biso   1.000  I
  I2530    1.0000 0.01402  0.98598  0.98598  Biso   1.000  I
  I2531    1.0000 0.12502  0.12502  0.12502  Biso   1.000  I
  I2532    1.0000 0.87498  0.87498  0.12502  Biso   1.000  I
  I2533    1.0000 0.37501  0.62499  0.87498  Biso   1.000  I
  I2534    1.0000 0.37501  0.37501  0.12502  Biso   1.000  I
  I2535    1.0000 0.51400  0.98598  0.48600  Biso   1.000  I
  I2536    1.0000 0.37501  0.12502  0.37501  Biso   1.000  I
  I2537    1.0000 0.62499  0.12502  0.62499  Biso   1.000  I
  I2538    1.0000 0.37501  0.87498  0.62499  Biso   1.000  I
  I2539    1.0000 0.12502  0.12502  0.12502  Biso   1.000  I
  I2540    1.0000 0.87498  0.12502  0.87498  Biso   1.000  I
  I2541    1.0000 0.12502  0.37501  0.37501  Biso   1.000  I
  I2542    1.0000 0.87498  0.62499  0.37501  Biso   1.000  I
  I2543    1.0000 0.62499  0.87498  0.37501  Biso   1.000  I
  I2544    1.0000 0.51400  0.01402  0.51400  Biso   1.000  I
  I2545    1.0000 0.37501  0.12502  0.37501  Biso   1.000  I
  I2546    1.0000 0.37501  0.87498  0.62499  Biso   1.000  I
  I2547    1.0000 0.37501  0.12502  0.37501  Biso   1.000  I
  I2548    1.0000 0.62499  0.87498  0.37501  Biso   1.000  I
  I2549    1.0000 0.87498  0.37501  0.62499  Biso   1.000  I
  I2550    1.0000 0.01402  0.51400  0.51400  Biso   1.000  I
  I2551    1.0000 0.12502  0.37501  0.37501  Biso   1.000  I
  I2552    1.0000 0.87498  0.62499  0.37501  Biso   1.000  I
  I2553    1.0000 0.37501  0.62499  0.87498  Biso   1.000  I
  I2554    1.0000 0.51400  0.51400  0.01402  Biso   1.000  I
  I2555    1.0000 0.37501  0.37501  0.12502  Biso   1.000  I
  I2556    1.0000 0.62499  0.37501  0.87498  Biso   1.000  I
  I2557    1.0000 0.48600  0.98598  0.51400  Biso   1.000  I
  I2558    1.0000 0.37501  0.12502  0.37501  Biso   1.000  I
  I2559    1.0000 0.62499  0.12502  0.62499  Biso   1.000  I
  I2560    1.0000 0.62499  0.87498  0.37501  Biso   1.000  I
  I2561    1.0000 0.98598  0.98598  0.01402  Biso   1.000  I
  I2562    1.0000 0.12502  0.87498  0.87498  Biso   1.000  I
  I2563    1.0000 0.12502  0.12502  0.12502  Biso   1.000  I
  I2564    1.0000 0.87498  0.12502  0.87498  Biso   1.000  I
  I2565    1.0000 0.98598  0.48600  0.51400  Biso   1.000  I
  I2566    1.0000 0.12502  0.62499  0.62499  Biso   1.000  I
  I2567    1.0000 0.12502  0.37501  0.37501  Biso   1.000  I
  I2568    1.0000 0.87498  0.62499  0.37501  Biso   1.000  I
  I2569    1.0000 0.30969  0.80971  0.69031  Biso   1.000  I
  I2570    1.0000 0.30969  0.69031  0.80971  Biso   1.000  I
  I2571    1.0000 0.19029  0.69031  0.69031  Biso   1.000  I
  I2572    1.0000 0.30969  0.19029  0.30969  Biso   1.000  I
  I2573    1.0000 0.30969  0.30969  0.19029  Biso   1.000  I
  I2574    1.0000 0.19029  0.19029  0.19029  Biso   1.000  I
  I2575    1.0000 0.30969  0.19029  0.30969  Biso   1.000  I
  I2576    1.0000 0.80971  0.19029  0.80971  Biso   1.000  I
  I2577    1.0000 0.80971  0.30969  0.69031  Biso   1.000  I
  I2578    1.0000 0.69031  0.19029  0.69031  Biso   1.000  I
  I2579    1.0000 0.30969  0.80971  0.69031  Biso   1.000  I
  I2580    1.0000 0.30969  0.69031  0.80971  Biso   1.000  I
  I2581    1.0000 0.30969  0.19029  0.30969  Biso   1.000  I
  I2582    1.0000 0.19029  0.19029  0.19029  Biso   1.000  I
  I2583    1.0000 0.30969  0.30969  0.19029  Biso   1.000  I
  I2584    1.0000 0.80971  0.19029  0.80971  Biso   1.000  I
  I2585    1.0000 0.69031  0.19029  0.69031  Biso   1.000  I
  I2586    1.0000 0.30969  0.19029  0.30969  Biso   1.000  I
  I2587    1.0000 0.19029  0.30969  0.30969  Biso   1.000  I
  I2588    1.0000 0.30969  0.30969  0.19029  Biso   1.000  I
  I2589    1.0000 0.69031  0.80971  0.30969  Biso   1.000  I
  I2590    1.0000 0.80971  0.69031  0.30969  Biso   1.000  I
  I2591    1.0000 0.30969  0.80971  0.69031  Biso   1.000  I
  I2592    1.0000 0.30969  0.69031  0.80971  Biso   1.000  I
  I2593    1.0000 0.19029  0.80971  0.80971  Biso   1.000  I
  I2594    1.0000 0.19029  0.30969  0.30969  Biso   1.000  I
  I2595    1.0000 0.30969  0.19029  0.30969  Biso   1.000  I
  I2596    1.0000 0.80971  0.80971  0.19029  Biso   1.000  I
  I2597    1.0000 0.69031  0.80971  0.30969  Biso   1.000  I
  I2598    1.0000 0.80971  0.69031  0.30969  Biso   1.000  I
  I2599    1.0000 0.69031  0.30969  0.80971  Biso   1.000  I
  I2600    1.0000 0.80971  0.19029  0.80971  Biso   1.000  I
  I2601    1.0000 0.69031  0.19029  0.69031  Biso   1.000  I
  I2602    1.0000 0.19029  0.30969  0.30969  Biso   1.000  I
  I2603    1.0000 0.19029  0.19029  0.19029  Biso   1.000  I
  I2604    1.0000 0.30969  0.19029  0.30969  Biso   1.000  I
  I2605    1.0000 0.69031  0.69031  0.19029  Biso   1.000  I
  I2606    1.0000 0.69031  0.80971  0.30969  Biso   1.000  I
  I2607    1.0000 0.80971  0.69031  0.30969  Biso   1.000  I
  I2608    1.0000 0.30969  0.30969  0.19029  Biso   1.000  I
  I2609    1.0000 0.69031  0.69031  0.19029  Biso   1.000  I
  I2610    1.0000 0.30969  0.69031  0.80971  Biso   1.000  I
  I2611    1.0000 0.30969  0.19029  0.30969  Biso   1.000  I
  I2612    1.0000 0.30969  0.80971  0.69031  Biso   1.000  I
  I2613    1.0000 0.30969  0.19029  0.30969  Biso   1.000  I
  I2614    1.0000 0.69031  0.19029  0.69031  Biso   1.000  I
  I2615    1.0000 0.80971  0.19029  0.80971  Biso   1.000  I
  I2616    1.0000 0.19029  0.19029  0.19029  Biso   1.000  I
  I2617    1.0000 0.80971  0.80971  0.19029  Biso   1.000  I
  I2618    1.0000 0.30969  0.69031  0.80971  Biso   1.000  I
  I2619    1.0000 0.30969  0.30969  0.19029  Biso   1.000  I
  I2620    1.0000 0.30969  0.19029  0.30969  Biso   1.000  I
  I2621    1.0000 0.69031  0.19029  0.69031  Biso   1.000  I
  I2622    1.0000 0.30969  0.80971  0.69031  Biso   1.000  I
  I2623    1.0000 0.19029  0.19029  0.19029  Biso   1.000  I
  I2624    1.0000 0.80971  0.19029  0.80971  Biso   1.000  I
  I2625    1.0000 0.19029  0.30969  0.30969  Biso   1.000  I
  I2626    1.0000 0.80971  0.69031  0.30969  Biso   1.000  I
  I2627    1.0000 0.69031  0.80971  0.30969  Biso   1.000  I
  I2628    1.0000 0.30969  0.19029  0.30969  Biso   1.000  I
  I2629    1.0000 0.30969  0.80971  0.69031  Biso   1.000  I
  I2630    1.0000 0.30969  0.19029  0.30969  Biso   1.000  I
  I2631    1.0000 0.69031  0.80971  0.30969  Biso   1.000  I
  I2632    1.0000 0.80971  0.30969  0.69031  Biso   1.000  I
  I2633    1.0000 0.19029  0.30969  0.30969  Biso   1.000  I
  I2634    1.0000 0.80971  0.69031  0.30969  Biso   1.000  I
  I2635    1.0000 0.30969  0.69031  0.80971  Biso   1.000  I
  I2636    1.0000 0.30969  0.30969  0.19029  Biso   1.000  I
  I2637    1.0000 0.69031  0.30969  0.80971  Biso   1.000  I
  I2638    1.0000 0.30969  0.19029  0.30969  Biso   1.000  I
  I2639    1.0000 0.69031  0.19029  0.69031  Biso   1.000  I
  I2640    1.0000 0.69031  0.80971  0.30969  Biso   1.000  I
  I2641    1.0000 0.19029  0.80971  0.80971  Biso   1.000  I
  I2642    1.0000 0.19029  0.19029  0.19029  Biso   1.000  I
  I2643    1.0000 0.80971  0.19029  0.80971  Biso   1.000  I
  I2644    1.0000 0.19029  0.69031  0.69031  Biso   1.000  I
  I2645    1.0000 0.19029  0.30969  0.30969  Biso   1.000  I
  I2646    1.0000 0.80971  0.69031  0.30969  Biso   1.000  I
  I2647    1.0000 0.37501  0.87498  0.62499  Biso   1.000  I
  I2648    1.0000 0.23601  0.76399  0.76399  Biso   1.000  I
  I2649    1.0000 0.37501  0.62499  0.87498  Biso   1.000  I
  I2650    1.0000 0.12502  0.62499  0.62499  Biso   1.000  I
  I2651    1.0000 0.37501  0.12502  0.37501  Biso   1.000  I
  I2652    1.0000 0.37501  0.37501  0.12502  Biso   1.000  I
  I2653    1.0000 0.12502  0.12502  0.12502  Biso   1.000  I
  I2654    1.0000 0.37501  0.12502  0.37501  Biso   1.000  I
  I2655    1.0000 0.87498  0.12502  0.87498  Biso   1.000  I
  I2656    1.0000 0.73599  0.26401  0.76399  Biso   1.000  I
  I2657    1.0000 0.87498  0.37501  0.62499  Biso   1.000  I
  I2658    1.0000 0.62499  0.12502  0.62499  Biso   1.000  I
  I2659    1.0000 0.37501  0.87498  0.62499  Biso   1.000  I
  I2660    1.0000 0.37501  0.62499  0.87498  Biso   1.000  I
  I2661    1.0000 0.37501  0.12502  0.37501  Biso   1.000  I
  I2662    1.0000 0.23601  0.26401  0.26401  Biso   1.000  I
  I2663    1.0000 0.12502  0.12502  0.12502  Biso   1.000  I
  I2664    1.0000 0.37501  0.37501  0.12502  Biso   1.000  I
  I2665    1.0000 0.87498  0.12502  0.87498  Biso   1.000  I
  I2666    1.0000 0.62499  0.12502  0.62499  Biso   1.000  I
  I2667    1.0000 0.37501  0.12502  0.37501  Biso   1.000  I
  I2668    1.0000 0.23601  0.23601  0.23601  Biso   1.000  I
  I2669    1.0000 0.12502  0.37501  0.37501  Biso   1.000  I
  I2670    1.0000 0.37501  0.37501  0.12502  Biso   1.000  I
  I2671    1.0000 0.62499  0.87498  0.37501  Biso   1.000  I
  I2672    1.0000 0.87498  0.62499  0.37501  Biso   1.000  I
  I2673    1.0000 0.37501  0.87498  0.62499  Biso   1.000  I
  I2674    1.0000 0.23601  0.73599  0.73599  Biso   1.000  I
  I2675    1.0000 0.37501  0.62499  0.87498  Biso   1.000  I
  I2676    1.0000 0.12502  0.87498  0.87498  Biso   1.000  I
  I2677    1.0000 0.12502  0.37501  0.37501  Biso   1.000  I
  I2678    1.0000 0.37501  0.12502  0.37501  Biso   1.000  I
  I2679    1.0000 0.87498  0.87498  0.12502  Biso   1.000  I
  I2680    1.0000 0.73599  0.73599  0.23601  Biso   1.000  I
  I2681    1.0000 0.62499  0.87498  0.37501  Biso   1.000  I
  I2682    1.0000 0.87498  0.62499  0.37501  Biso   1.000  I
  I2683    1.0000 0.62499  0.37501  0.87498  Biso   1.000  I
  I2684    1.0000 0.76399  0.26401  0.73599  Biso   1.000  I
  I2685    1.0000 0.87498  0.12502  0.87498  Biso   1.000  I
  I2686    1.0000 0.62499  0.12502  0.62499  Biso   1.000  I
  I2687    1.0000 0.12502  0.37501  0.37501  Biso   1.000  I
  I2688    1.0000 0.26401  0.26401  0.23601  Biso   1.000  I
  I2689    1.0000 0.12502  0.12502  0.12502  Biso   1.000  I
  I2690    1.0000 0.37501  0.12502  0.37501  Biso   1.000  I
  I2691    1.0000 0.62499  0.62499  0.12502  Biso   1.000  I
  I2692    1.0000 0.76399  0.76399  0.23601  Biso   1.000  I
  I2693    1.0000 0.62499  0.87498  0.37501  Biso   1.000  I
  I2694    1.0000 0.87498  0.62499  0.37501  Biso   1.000  I
  I2695    1.0000 0.26401  0.23601  0.26401  Biso   1.000  I
  I2696    1.0000 0.23601  0.26401  0.26401  Biso   1.000  I
  I2697    1.0000 0.23601  0.23601  0.23601  Biso   1.000  I
  I2698    1.0000 0.76399  0.73599  0.26401  Biso   1.000  I
  I2699    1.0000 0.76399  0.76399  0.23601  Biso   1.000  I
  I2700    1.0000 0.73599  0.76399  0.26401  Biso   1.000  I
  I2701    1.0000 0.23601  0.76399  0.76399  Biso   1.000  I
  I2702    1.0000 0.23601  0.73599  0.73599  Biso   1.000  I
  I2703    1.0000 0.26401  0.76399  0.73599  Biso   1.000  I
  I2704    1.0000 0.26401  0.26401  0.23601  Biso   1.000  I
  I2705    1.0000 0.23601  0.26401  0.26401  Biso   1.000  I
  I2706    1.0000 0.23601  0.23601  0.23601  Biso   1.000  I
  I2707    1.0000 0.23601  0.76399  0.76399  Biso   1.000  I
  I2708    1.0000 0.23601  0.73599  0.73599  Biso   1.000  I
  I2709    1.0000 0.26401  0.73599  0.76399  Biso   1.000  I
  I2710    1.0000 0.26401  0.26401  0.23601  Biso   1.000  I
  I2711    1.0000 0.23601  0.26401  0.26401  Biso   1.000  I
  I2712    1.0000 0.23601  0.23601  0.23601  Biso   1.000  I
  I2713    1.0000 0.73599  0.26401  0.76399  Biso   1.000  I
  I2714    1.0000 0.76399  0.23601  0.76399  Biso   1.000  I
  I2715    1.0000 0.76399  0.26401  0.73599  Biso   1.000  I
  I2716    1.0000 0.73599  0.23601  0.73599  Biso   1.000  I
  I2717    1.0000 0.73599  0.26401  0.76399  Biso   1.000  I
  I2718    1.0000 0.76399  0.26401  0.73599  Biso   1.000  I
  I2719    1.0000 0.26401  0.26401  0.23601  Biso   1.000  I
  I2720    1.0000 0.26401  0.23601  0.26401  Biso   1.000  I
  I2721    1.0000 0.23601  0.26401  0.26401  Biso   1.000  I
  I2722    1.0000 0.73599  0.73599  0.23601  Biso   1.000  I
  I2723    1.0000 0.23601  0.76399  0.76399  Biso   1.000  I
  I2724    1.0000 0.23601  0.73599  0.73599  Biso   1.000  I
  I2725    1.0000 0.26401  0.76399  0.73599  Biso   1.000  I
  I2726    1.0000 0.26401  0.23601  0.26401  Biso   1.000  I
  I2727    1.0000 0.26401  0.26401  0.23601  Biso   1.000  I
  I2728    1.0000 0.23601  0.26401  0.26401  Biso   1.000  I
  I2729    1.0000 0.23601  0.23601  0.23601  Biso   1.000  I
  I2730    1.0000 0.76399  0.23601  0.76399  Biso   1.000  I
  I2731    1.0000 0.26401  0.73599  0.76399  Biso   1.000  I
  I2732    1.0000 0.26401  0.23601  0.26401  Biso   1.000  I
  I2733    1.0000 0.73599  0.23601  0.73599  Biso   1.000  I
  I2734    1.0000 0.73599  0.26401  0.76399  Biso   1.000  I
  I2735    1.0000 0.76399  0.26401  0.73599  Biso   1.000  I
  I2736    1.0000 0.26401  0.26401  0.23601  Biso   1.000  I
  I2737    1.0000 0.26401  0.23601  0.26401  Biso   1.000  I
  I2738    1.0000 0.23601  0.23601  0.23601  Biso   1.000  I
  I2739    1.0000 0.76399  0.76399  0.23601  Biso   1.000  I
  I2740    1.0000 0.73599  0.73599  0.23601  Biso   1.000  I
  I2741    1.0000 0.73599  0.76399  0.26401  Biso   1.000  I
  I2742    1.0000 0.76399  0.73599  0.26401  Biso   1.000  I
  I2743    1.0000 0.76399  0.76399  0.23601  Biso   1.000  I
  I2744    1.0000 0.73599  0.73599  0.23601  Biso   1.000  I
  I2745    1.0000 0.26401  0.26401  0.23601  Biso   1.000  I
  I2746    1.0000 0.23601  0.26401  0.26401  Biso   1.000  I
  I2747    1.0000 0.23601  0.23601  0.23601  Biso   1.000  I
  I2748    1.0000 0.23601  0.76399  0.76399  Biso   1.000  I
  I2749    1.0000 0.23601  0.73599  0.73599  Biso   1.000  I
  I2750    1.0000 0.26401  0.73599  0.76399  Biso   1.000  I
  I2751    1.0000 0.23601  0.26401  0.26401  Biso   1.000  I
  I2752    1.0000 0.76399  0.73599  0.26401  Biso   1.000  I
  I2753    1.0000 0.76399  0.76399  0.23601  Biso   1.000  I
  I2754    1.0000 0.73599  0.73599  0.23601  Biso   1.000  I
  I2755    1.0000 0.73599  0.23601  0.73599  Biso   1.000  I
  I2756    1.0000 0.73599  0.26401  0.76399  Biso   1.000  I
  I2757    1.0000 0.76399  0.23601  0.76399  Biso   1.000  I
  I2758    1.0000 0.26401  0.26401  0.23601  Biso   1.000  I
  I2759    1.0000 0.26401  0.23601  0.26401  Biso   1.000  I
  I2760    1.0000 0.23601  0.23601  0.23601  Biso   1.000  I
  I2761    1.0000 0.73599  0.76399  0.26401  Biso   1.000  I
  I2762    1.0000 0.26401  0.76399  0.73599  Biso   1.000  I
  I2763    1.0000 0.26401  0.23601  0.26401  Biso   1.000  I
  I2764    1.0000 0.23601  0.26401  0.26401  Biso   1.000  I
  I2765    1.0000 0.23601  0.23601  0.23601  Biso   1.000  I
  I2766    1.0000 0.76399  0.26401  0.73599  Biso   1.000  I
  I2767    1.0000 0.26401  0.26401  0.23601  Biso   1.000  I
  I2768    1.0000 0.23601  0.26401  0.26401  Biso   1.000  I
  I2769    1.0000 0.23601  0.23601  0.23601  Biso   1.000  I
  I2770    1.0000 0.73599  0.26401  0.76399  Biso   1.000  I
  I2771    1.0000 0.76399  0.23601  0.76399  Biso   1.000  I
  I2772    1.0000 0.76399  0.26401  0.73599  Biso   1.000  I
  I2773    1.0000 0.76399  0.73599  0.26401  Biso   1.000  I
  I2774    1.0000 0.76399  0.76399  0.23601  Biso   1.000  I
  I2775    1.0000 0.73599  0.73599  0.23601  Biso   1.000  I
  I2776    1.0000 0.23601  0.73599  0.73599  Biso   1.000  I
  I2777    1.0000 0.26401  0.76399  0.73599  Biso   1.000  I
  I2778    1.0000 0.26401  0.73599  0.76399  Biso   1.000  I
  I2779    1.0000 0.26401  0.26401  0.23601  Biso   1.000  I
  I2780    1.0000 0.26401  0.23601  0.26401  Biso   1.000  I
  I2781    1.0000 0.23601  0.26401  0.26401  Biso   1.000  I
  I2782    1.0000 0.73599  0.23601  0.73599  Biso   1.000  I
  I2783    1.0000 0.23601  0.76399  0.76399  Biso   1.000  I
  I2784    1.0000 0.26401  0.26401  0.23601  Biso   1.000  I
  I2785    1.0000 0.26401  0.23601  0.26401  Biso   1.000  I
  I2786    1.0000 0.23601  0.23601  0.23601  Biso   1.000  I
  I2787    1.0000 0.73599  0.76399  0.26401  Biso   1.000  I
  I2788    1.0000 0.44028  0.94030  0.55972  Biso   1.000  I
  I2789    1.0000 0.44028  0.55972  0.94030  Biso   1.000  I
  I2790    1.0000 0.05970  0.55972  0.55972  Biso   1.000  I
  I2791    1.0000 0.44028  0.05970  0.44028  Biso   1.000  I
  I2792    1.0000 0.44028  0.44028  0.05970  Biso   1.000  I
  I2793    1.0000 0.05970  0.05970  0.05970  Biso   1.000  I
  I2794    1.0000 0.44028  0.05970  0.44028  Biso   1.000  I
  I2795    1.0000 0.94030  0.05970  0.94030  Biso   1.000  I
  I2796    1.0000 0.94030  0.44028  0.55972  Biso   1.000  I
  I2797    1.0000 0.55972  0.05970  0.55972  Biso   1.000  I
  I2798    1.0000 0.44028  0.94030  0.55972  Biso   1.000  I
  I2799    1.0000 0.44028  0.55972  0.94030  Biso   1.000  I
  I2800    1.0000 0.44028  0.05970  0.44028  Biso   1.000  I
  I2801    1.0000 0.05970  0.05970  0.05970  Biso   1.000  I
  I2802    1.0000 0.44028  0.44028  0.05970  Biso   1.000  I
  I2803    1.0000 0.94030  0.05970  0.94030  Biso   1.000  I
  I2804    1.0000 0.55972  0.05970  0.55972  Biso   1.000  I
  I2805    1.0000 0.44028  0.05970  0.44028  Biso   1.000  I
  I2806    1.0000 0.05970  0.44028  0.44028  Biso   1.000  I
  I2807    1.0000 0.44028  0.44028  0.05970  Biso   1.000  I
  I2808    1.0000 0.55972  0.94030  0.44028  Biso   1.000  I
  I2809    1.0000 0.94030  0.55972  0.44028  Biso   1.000  I
  I2810    1.0000 0.44028  0.94030  0.55972  Biso   1.000  I
  I2811    1.0000 0.44028  0.55972  0.94030  Biso   1.000  I
  I2812    1.0000 0.05970  0.94030  0.94030  Biso   1.000  I
  I2813    1.0000 0.05970  0.44028  0.44028  Biso   1.000  I
  I2814    1.0000 0.44028  0.05970  0.44028  Biso   1.000  I
  I2815    1.0000 0.94030  0.94030  0.05970  Biso   1.000  I
  I2816    1.0000 0.55972  0.94030  0.44028  Biso   1.000  I
  I2817    1.0000 0.94030  0.55972  0.44028  Biso   1.000  I
  I2818    1.0000 0.55972  0.44028  0.94030  Biso   1.000  I
  I2819    1.0000 0.94030  0.05970  0.94030  Biso   1.000  I
  I2820    1.0000 0.55972  0.05970  0.55972  Biso   1.000  I
  I2821    1.0000 0.05970  0.44028  0.44028  Biso   1.000  I
  I2822    1.0000 0.05970  0.05970  0.05970  Biso   1.000  I
  I2823    1.0000 0.44028  0.05970  0.44028  Biso   1.000  I
  I2824    1.0000 0.55972  0.55972  0.05970  Biso   1.000  I
  I2825    1.0000 0.55972  0.94030  0.44028  Biso   1.000  I
  I2826    1.0000 0.94030  0.55972  0.44028  Biso   1.000  I
  I2827    1.0000 0.19029  0.30969  0.30969  Biso   1.000  I
  I2828    1.0000 0.19029  0.19029  0.19029  Biso   1.000  I
  I2829    1.0000 0.30969  0.19029  0.30969  Biso   1.000  I
  I2830    1.0000 0.69031  0.80971  0.30969  Biso   1.000  I
  I2831    1.0000 0.80971  0.69031  0.30969  Biso   1.000  I
  I2832    1.0000 0.19029  0.69031  0.69031  Biso   1.000  I
  I2833    1.0000 0.19029  0.80971  0.80971  Biso   1.000  I
  I2834    1.0000 0.19029  0.30969  0.30969  Biso   1.000  I
  I2835    1.0000 0.19029  0.19029  0.19029  Biso   1.000  I
  I2836    1.0000 0.19029  0.69031  0.69031  Biso   1.000  I
  I2837    1.0000 0.30969  0.69031  0.80971  Biso   1.000  I
  I2838    1.0000 0.19029  0.80971  0.80971  Biso   1.000  I
  I2839    1.0000 0.19029  0.30969  0.30969  Biso   1.000  I
  I2840    1.0000 0.30969  0.30969  0.19029  Biso   1.000  I
  I2841    1.0000 0.80971  0.19029  0.80971  Biso   1.000  I
  I2842    1.0000 0.80971  0.30969  0.69031  Biso   1.000  I
  I2843    1.0000 0.69031  0.30969  0.80971  Biso   1.000  I
  I2844    1.0000 0.69031  0.30969  0.80971  Biso   1.000  I
  I2845    1.0000 0.80971  0.30969  0.69031  Biso   1.000  I
  I2846    1.0000 0.30969  0.19029  0.30969  Biso   1.000  I
  I2847    1.0000 0.19029  0.30969  0.30969  Biso   1.000  I
  I2848    1.0000 0.30969  0.30969  0.19029  Biso   1.000  I
  I2849    1.0000 0.19029  0.69031  0.69031  Biso   1.000  I
  I2850    1.0000 0.30969  0.80971  0.69031  Biso   1.000  I
  I2851    1.0000 0.19029  0.80971  0.80971  Biso   1.000  I
  I2852    1.0000 0.19029  0.30969  0.30969  Biso   1.000  I
  I2853    1.0000 0.19029  0.19029  0.19029  Biso   1.000  I
  I2854    1.0000 0.30969  0.30969  0.19029  Biso   1.000  I
  I2855    1.0000 0.69031  0.30969  0.80971  Biso   1.000  I
  I2856    1.0000 0.80971  0.30969  0.69031  Biso   1.000  I
  I2857    1.0000 0.69031  0.19029  0.69031  Biso   1.000  I
  I2858    1.0000 0.19029  0.19029  0.19029  Biso   1.000  I
  I2859    1.0000 0.30969  0.30969  0.19029  Biso   1.000  I
  I2860    1.0000 0.69031  0.69031  0.19029  Biso   1.000  I
  I2861    1.0000 0.69031  0.80971  0.30969  Biso   1.000  I
  I2862    1.0000 0.80971  0.80971  0.19029  Biso   1.000  I
  I2863    1.0000 0.80971  0.80971  0.19029  Biso   1.000  I
  I2864    1.0000 0.69031  0.69031  0.19029  Biso   1.000  I
  I2865    1.0000 0.19029  0.30969  0.30969  Biso   1.000  I
  I2866    1.0000 0.19029  0.19029  0.19029  Biso   1.000  I
  I2867    1.0000 0.30969  0.30969  0.19029  Biso   1.000  I
  I2868    1.0000 0.19029  0.69031  0.69031  Biso   1.000  I
  I2869    1.0000 0.19029  0.80971  0.80971  Biso   1.000  I
  I2870    1.0000 0.80971  0.80971  0.19029  Biso   1.000  I
  I2871    1.0000 0.69031  0.69031  0.19029  Biso   1.000  I
  I2872    1.0000 0.80971  0.69031  0.30969  Biso   1.000  I
  I2873    1.0000 0.80971  0.19029  0.80971  Biso   1.000  I
  I2874    1.0000 0.69031  0.19029  0.69031  Biso   1.000  I
  I2875    1.0000 0.30969  0.19029  0.30969  Biso   1.000  I
  I2876    1.0000 0.19029  0.19029  0.19029  Biso   1.000  I
  I2877    1.0000 0.30969  0.30969  0.19029  Biso   1.000  I
  I2878    1.0000 0.19029  0.30969  0.30969  Biso   1.000  I
  I2879    1.0000 0.19029  0.19029  0.19029  Biso   1.000  I
  I2880    1.0000 0.30969  0.19029  0.30969  Biso   1.000  I
  I2881    1.0000 0.19029  0.30969  0.30969  Biso   1.000  I
  I2882    1.0000 0.19029  0.19029  0.19029  Biso   1.000  I
  I2883    1.0000 0.30969  0.30969  0.19029  Biso   1.000  I
  I2884    1.0000 0.80971  0.30969  0.69031  Biso   1.000  I
  I2885    1.0000 0.69031  0.30969  0.80971  Biso   1.000  I
  I2886    1.0000 0.80971  0.80971  0.19029  Biso   1.000  I
  I2887    1.0000 0.69031  0.69031  0.19029  Biso   1.000  I
  I2888    1.0000 0.30969  0.80971  0.69031  Biso   1.000  I
  I2889    1.0000 0.30969  0.69031  0.80971  Biso   1.000  I
  I2890    1.0000 0.30969  0.19029  0.30969  Biso   1.000  I
  I2891    1.0000 0.19029  0.30969  0.30969  Biso   1.000  I
  I2892    1.0000 0.30969  0.30969  0.19029  Biso   1.000  I
  I2893    1.0000 0.30969  0.19029  0.30969  Biso   1.000  I
  I2894    1.0000 0.19029  0.19029  0.19029  Biso   1.000  I
  I2895    1.0000 0.30969  0.30969  0.19029  Biso   1.000  I
  I2896    1.0000 0.51400  0.98598  0.48600  Biso   1.000  I
  I2897    1.0000 0.48600  0.01402  0.48600  Biso   1.000  I
  I2898    1.0000 0.51400  0.01402  0.51400  Biso   1.000  I
  I2899    1.0000 0.51400  0.48600  0.98598  Biso   1.000  I
  I2900    1.0000 0.48600  0.48600  0.01402  Biso   1.000  I
  I2901    1.0000 0.51400  0.51400  0.01402  Biso   1.000  I
  I2902    1.0000 0.98598  0.51400  0.48600  Biso   1.000  I
  I2903    1.0000 0.98598  0.48600  0.51400  Biso   1.000  I
  I2904    1.0000 0.01402  0.48600  0.48600  Biso   1.000  I
  I2905    1.0000 0.48600  0.98598  0.51400  Biso   1.000  I
  I2906    1.0000 0.51400  0.98598  0.48600  Biso   1.000  I
  I2907    1.0000 0.51400  0.01402  0.51400  Biso   1.000  I
  I2908    1.0000 0.51400  0.48600  0.98598  Biso   1.000  I
  I2909    1.0000 0.48600  0.51400  0.98598  Biso   1.000  I
  I2910    1.0000 0.51400  0.51400  0.01402  Biso   1.000  I
  I2911    1.0000 0.98598  0.01402  0.98598  Biso   1.000  I
  I2912    1.0000 0.51400  0.01402  0.51400  Biso   1.000  I
  I2913    1.0000 0.01402  0.01402  0.01402  Biso   1.000  I
  I2914    1.0000 0.01402  0.51400  0.51400  Biso   1.000  I
  I2915    1.0000 0.48600  0.01402  0.48600  Biso   1.000  I
  I2916    1.0000 0.48600  0.01402  0.48600  Biso   1.000  I
  I2917    1.0000 0.51400  0.48600  0.98598  Biso   1.000  I
  I2918    1.0000 0.48600  0.48600  0.01402  Biso   1.000  I
  I2919    1.0000 0.51400  0.51400  0.01402  Biso   1.000  I
  I2920    1.0000 0.51400  0.01402  0.51400  Biso   1.000  I
  I2921    1.0000 0.98598  0.01402  0.98598  Biso   1.000  I
  I2922    1.0000 0.48600  0.51400  0.98598  Biso   1.000  I
  I2923    1.0000 0.01402  0.01402  0.01402  Biso   1.000  I
  I2924    1.0000 0.48600  0.01402  0.48600  Biso   1.000  I
  I2925    1.0000 0.48600  0.98598  0.51400  Biso   1.000  I
  I2926    1.0000 0.51400  0.98598  0.48600  Biso   1.000  I
  I2927    1.0000 0.51400  0.01402  0.51400  Biso   1.000  I
  I2928    1.0000 0.98598  0.51400  0.48600  Biso   1.000  I
  I2929    1.0000 0.98598  0.48600  0.51400  Biso   1.000  I
  I2930    1.0000 0.01402  0.51400  0.51400  Biso   1.000  I
  I2931    1.0000 0.51400  0.48600  0.98598  Biso   1.000  I
  I2932    1.0000 0.48600  0.51400  0.98598  Biso   1.000  I
  I2933    1.0000 0.51400  0.51400  0.01402  Biso   1.000  I
  I2934    1.0000 0.48600  0.98598  0.51400  Biso   1.000  I
  I2935    1.0000 0.48600  0.01402  0.48600  Biso   1.000  I
  I2936    1.0000 0.51400  0.01402  0.51400  Biso   1.000  I
  I2937    1.0000 0.98598  0.48600  0.51400  Biso   1.000  I
  I2938    1.0000 0.01402  0.51400  0.51400  Biso   1.000  I
  I2939    1.0000 0.01402  0.48600  0.48600  Biso   1.000  I
  I2940    1.0000 0.51400  0.98598  0.48600  Biso   1.000  I
  I2941    1.0000 0.48600  0.01402  0.48600  Biso   1.000  I
  I2942    1.0000 0.51400  0.01402  0.51400  Biso   1.000  I
  I2943    1.0000 0.48600  0.48600  0.01402  Biso   1.000  I
  I2944    1.0000 0.98598  0.98598  0.01402  Biso   1.000  I
  I2945    1.0000 0.98598  0.01402  0.98598  Biso   1.000  I
  I2946    1.0000 0.01402  0.01402  0.01402  Biso   1.000  I
  I2947    1.0000 0.98598  0.51400  0.48600  Biso   1.000  I
  I2948    1.0000 0.98598  0.48600  0.51400  Biso   1.000  I
  I2949    1.0000 0.01402  0.51400  0.51400  Biso   1.000  I
  I2950    1.0000 0.51400  0.98598  0.48600  Biso   1.000  I
  I2951    1.0000 0.01402  0.98598  0.98598  Biso   1.000  I
  I2952    1.0000 0.48600  0.98598  0.51400  Biso   1.000  I
  I2953    1.0000 0.48600  0.01402  0.48600  Biso   1.000  I
  I2954    1.0000 0.51400  0.01402  0.51400  Biso   1.000  I
  I2955    1.0000 0.01402  0.48600  0.48600  Biso   1.000  I
  I2956    1.0000 0.48600  0.51400  0.98598  Biso   1.000  I
  I2957    1.0000 0.48600  0.48600  0.01402  Biso   1.000  I
  I2958    1.0000 0.51400  0.51400  0.01402  Biso   1.000  I
  I2959    1.0000 0.01402  0.01402  0.01402  Biso   1.000  I
  I2960    1.0000 0.48600  0.01402  0.48600  Biso   1.000  I
  I2961    1.0000 0.98598  0.51400  0.48600  Biso   1.000  I
  I2962    1.0000 0.98598  0.48600  0.51400  Biso   1.000  I
  I2963    1.0000 0.01402  0.51400  0.51400  Biso   1.000  I
  I2964    1.0000 0.98598  0.01402  0.98598  Biso   1.000  I
  I2965    1.0000 0.51400  0.01402  0.51400  Biso   1.000  I
  I2966    1.0000 0.51400  0.48600  0.98598  Biso   1.000  I
  I2967    1.0000 0.48600  0.98598  0.51400  Biso   1.000  I
  I2968    1.0000 0.48600  0.01402  0.48600  Biso   1.000  I
  I2969    1.0000 0.51400  0.01402  0.51400  Biso   1.000  I
  I2970    1.0000 0.01402  0.48600  0.48600  Biso   1.000  I
  I2971    1.0000 0.12502  0.37501  0.37501  Biso   1.000  I
  I2972    1.0000 0.26401  0.26401  0.23601  Biso   1.000  I
  I2973    1.0000 0.12502  0.12502  0.12502  Biso   1.000  I
  I2974    1.0000 0.37501  0.12502  0.37501  Biso   1.000  I
  I2975    1.0000 0.62499  0.87498  0.37501  Biso   1.000  I
  I2976    1.0000 0.87498  0.62499  0.37501  Biso   1.000  I
  I2977    1.0000 0.12502  0.62499  0.62499  Biso   1.000  I
  I2978    1.0000 0.12502  0.87498  0.87498  Biso   1.000  I
  I2979    1.0000 0.12502  0.37501  0.37501  Biso   1.000  I
  I2980    1.0000 0.12502  0.12502  0.12502  Biso   1.000  I
  I2981    1.0000 0.12502  0.62499  0.62499  Biso   1.000  I
  I2982    1.0000 0.26401  0.76399  0.73599  Biso   1.000  I
  I2983    1.0000 0.37501  0.62499  0.87498  Biso   1.000  I
  I2984    1.0000 0.12502  0.87498  0.87498  Biso   1.000  I
  I2985    1.0000 0.12502  0.37501  0.37501  Biso   1.000  I
  I2986    1.0000 0.37501  0.37501  0.12502  Biso   1.000  I
  I2987    1.0000 0.87498  0.12502  0.87498  Biso   1.000  I
  I2988    1.0000 0.73599  0.23601  0.73599  Biso   1.000  I
  I2989    1.0000 0.87498  0.37501  0.62499  Biso   1.000  I
  I2990    1.0000 0.62499  0.37501  0.87498  Biso   1.000  I
  I2991    1.0000 0.62499  0.37501  0.87498  Biso   1.000  I
  I2992    1.0000 0.87498  0.37501  0.62499  Biso   1.000  I
  I2993    1.0000 0.37501  0.12502  0.37501  Biso   1.000  I
  I2994    1.0000 0.23601  0.23601  0.23601  Biso   1.000  I
  I2995    1.0000 0.12502  0.37501  0.37501  Biso   1.000  I
  I2996    1.0000 0.37501  0.37501  0.12502  Biso   1.000  I
  I2997    1.0000 0.12502  0.62499  0.62499  Biso   1.000  I
  I2998    1.0000 0.26401  0.73599  0.76399  Biso   1.000  I
  I2999    1.0000 0.37501  0.87498  0.62499  Biso   1.000  I
  I3000    1.0000 0.12502  0.87498  0.87498  Biso   1.000  I
  I3001    1.0000 0.12502  0.37501  0.37501  Biso   1.000  I
  I3002    1.0000 0.26401  0.23601  0.26401  Biso   1.000  I
  I3003    1.0000 0.12502  0.12502  0.12502  Biso   1.000  I
  I3004    1.0000 0.37501  0.37501  0.12502  Biso   1.000  I
  I3005    1.0000 0.62499  0.37501  0.87498  Biso   1.000  I
  I3006    1.0000 0.76399  0.23601  0.76399  Biso   1.000  I
  I3007    1.0000 0.87498  0.37501  0.62499  Biso   1.000  I
  I3008    1.0000 0.62499  0.12502  0.62499  Biso   1.000  I
  I3009    1.0000 0.12502  0.12502  0.12502  Biso   1.000  I
  I3010    1.0000 0.37501  0.37501  0.12502  Biso   1.000  I
  I3011    1.0000 0.62499  0.62499  0.12502  Biso   1.000  I
  I3012    1.0000 0.76399  0.73599  0.26401  Biso   1.000  I
  I3013    1.0000 0.62499  0.87498  0.37501  Biso   1.000  I
  I3014    1.0000 0.87498  0.87498  0.12502  Biso   1.000  I
  I3015    1.0000 0.87498  0.87498  0.12502  Biso   1.000  I
  I3016    1.0000 0.62499  0.62499  0.12502  Biso   1.000  I
  I3017    1.0000 0.12502  0.37501  0.37501  Biso   1.000  I
  I3018    1.0000 0.26401  0.23601  0.26401  Biso   1.000  I
  I3019    1.0000 0.12502  0.12502  0.12502  Biso   1.000  I
  I3020    1.0000 0.37501  0.37501  0.12502  Biso   1.000  I
  I3021    1.0000 0.12502  0.62499  0.62499  Biso   1.000  I
  I3022    1.0000 0.12502  0.87498  0.87498  Biso   1.000  I
  I3023    1.0000 0.87498  0.87498  0.12502  Biso   1.000  I
  I3024    1.0000 0.73599  0.76399  0.26401  Biso   1.000  I
  I3025    1.0000 0.62499  0.62499  0.12502  Biso   1.000  I
  I3026    1.0000 0.87498  0.62499  0.37501  Biso   1.000  I
  I3027    1.0000 0.87498  0.12502  0.87498  Biso   1.000  I
  I3028    1.0000 0.62499  0.12502  0.62499  Biso   1.000  I
  I3029    1.0000 0.37501  0.12502  0.37501  Biso   1.000  I
  I3030    1.0000 0.23601  0.26401  0.26401  Biso   1.000  I
  I3031    1.0000 0.12502  0.12502  0.12502  Biso   1.000  I
  I3032    1.0000 0.37501  0.37501  0.12502  Biso   1.000  I
  I3033    1.0000 0.12502  0.37501  0.37501  Biso   1.000  I
  I3034    1.0000 0.26401  0.26401  0.23601  Biso   1.000  I
  I3035    1.0000 0.12502  0.12502  0.12502  Biso   1.000  I
  I3036    1.0000 0.37501  0.12502  0.37501  Biso   1.000  I
  I3037    1.0000 0.12502  0.37501  0.37501  Biso   1.000  I
  I3038    1.0000 0.26401  0.23601  0.26401  Biso   1.000  I
  I3039    1.0000 0.12502  0.12502  0.12502  Biso   1.000  I
  I3040    1.0000 0.37501  0.37501  0.12502  Biso   1.000  I
  I3041    1.0000 0.87498  0.37501  0.62499  Biso   1.000  I
  I3042    1.0000 0.62499  0.37501  0.87498  Biso   1.000  I
  I3043    1.0000 0.87498  0.87498  0.12502  Biso   1.000  I
  I3044    1.0000 0.62499  0.62499  0.12502  Biso   1.000  I
  I3045    1.0000 0.37501  0.87498  0.62499  Biso   1.000  I
  I3046    1.0000 0.37501  0.62499  0.87498  Biso   1.000  I
  I3047    1.0000 0.37501  0.12502  0.37501  Biso   1.000  I
  I3048    1.0000 0.23601  0.23601  0.23601  Biso   1.000  I
  I3049    1.0000 0.12502  0.37501  0.37501  Biso   1.000  I
  I3050    1.0000 0.37501  0.37501  0.12502  Biso   1.000  I
  I3051    1.0000 0.37501  0.12502  0.37501  Biso   1.000  I
  I3052    1.0000 0.23601  0.26401  0.26401  Biso   1.000  I
  I3053    1.0000 0.12502  0.12502  0.12502  Biso   1.000  I
  I3054    1.0000 0.37501  0.37501  0.12502  Biso   1.000  I
  I3055    1.0000 0.44028  0.05970  0.44028  Biso   1.000  I
  I3056    1.0000 0.55972  0.05970  0.55972  Biso   1.000  I
  I3057    1.0000 0.55972  0.94030  0.44028  Biso   1.000  I
  I3058    1.0000 0.55972  0.55972  0.05970  Biso   1.000  I
  I3059    1.0000 0.55972  0.44028  0.94030  Biso   1.000  I
  I3060    1.0000 0.05970  0.44028  0.44028  Biso   1.000  I
  I3061    1.0000 0.94030  0.55972  0.44028  Biso   1.000  I
  I3062    1.0000 0.55972  0.94030  0.44028  Biso   1.000  I
  I3063    1.0000 0.55972  0.05970  0.55972  Biso   1.000  I
  I3064    1.0000 0.44028  0.55972  0.94030  Biso   1.000  I
  I3065    1.0000 0.55972  0.55972  0.05970  Biso   1.000  I
  I3066    1.0000 0.55972  0.44028  0.94030  Biso   1.000  I
  I3067    1.0000 0.44028  0.44028  0.05970  Biso   1.000  I
  I3068    1.0000 0.55972  0.55972  0.05970  Biso   1.000  I
  I3069    1.0000 0.55972  0.44028  0.94030  Biso   1.000  I
  I3070    1.0000 0.55972  0.94030  0.44028  Biso   1.000  I
  I3071    1.0000 0.55972  0.05970  0.55972  Biso   1.000  I
  I3072    1.0000 0.44028  0.94030  0.55972  Biso   1.000  I
  I3073    1.0000 0.94030  0.44028  0.55972  Biso   1.000  I
  I3074    1.0000 0.05970  0.55972  0.55972  Biso   1.000  I
  I3075    1.0000 0.55972  0.55972  0.05970  Biso   1.000  I
  I3076    1.0000 0.55972  0.44028  0.94030  Biso   1.000  I
  I3077    1.0000 0.55972  0.05970  0.55972  Biso   1.000  I
  I3078    1.0000 0.44028  0.94030  0.55972  Biso   1.000  I
  I3079    1.0000 0.05970  0.55972  0.55972  Biso   1.000  I
  I3080    1.0000 0.05970  0.44028  0.44028  Biso   1.000  I
  I3081    1.0000 0.94030  0.44028  0.55972  Biso   1.000  I
  I3082    1.0000 0.44028  0.05970  0.44028  Biso   1.000  I
  I3083    1.0000 0.55972  0.05970  0.55972  Biso   1.000  I
  I3084    1.0000 0.55972  0.94030  0.44028  Biso   1.000  I
  I3085    1.0000 0.94030  0.05970  0.94030  Biso   1.000  I
  I3086    1.0000 0.05970  0.05970  0.05970  Biso   1.000  I
  I3087    1.0000 0.94030  0.44028  0.55972  Biso   1.000  I
  I3088    1.0000 0.05970  0.55972  0.55972  Biso   1.000  I
  I3089    1.0000 0.94030  0.55972  0.44028  Biso   1.000  I
  I3090    1.0000 0.44028  0.05970  0.44028  Biso   1.000  I
  I3091    1.0000 0.55972  0.05970  0.55972  Biso   1.000  I
  I3092    1.0000 0.44028  0.94030  0.55972  Biso   1.000  I
  I3093    1.0000 0.44028  0.44028  0.05970  Biso   1.000  I
  I3094    1.0000 0.44028  0.55972  0.94030  Biso   1.000  I
  I3095    1.0000 0.94030  0.44028  0.55972  Biso   1.000  I
  I3096    1.0000 0.05970  0.55972  0.55972  Biso   1.000  I
  I3097    1.0000 0.44028  0.05970  0.44028  Biso   1.000  I
  I3098    1.0000 0.55972  0.05970  0.55972  Biso   1.000  I
  I3099    1.0000 0.44028  0.94030  0.55972  Biso   1.000  I
  I3100    1.0000 0.05970  0.44028  0.44028  Biso   1.000  I
  I3101    1.0000 0.05970  0.05970  0.05970  Biso   1.000  I
  I3102    1.0000 0.55972  0.94030  0.44028  Biso   1.000  I
  I3103    1.0000 0.05970  0.55972  0.55972  Biso   1.000  I
  I3104    1.0000 0.05970  0.94030  0.94030  Biso   1.000  I
  I3105    1.0000 0.05970  0.44028  0.44028  Biso   1.000  I
  I3106    1.0000 0.05970  0.05970  0.05970  Biso   1.000  I
  I3107    1.0000 0.05970  0.55972  0.55972  Biso   1.000  I
  I3108    1.0000 0.05970  0.94030  0.94030  Biso   1.000  I
  I3109    1.0000 0.05970  0.44028  0.44028  Biso   1.000  I
  I3110    1.0000 0.44028  0.44028  0.05970  Biso   1.000  I
  I3111    1.0000 0.94030  0.44028  0.55972  Biso   1.000  I
  I3112    1.0000 0.55972  0.44028  0.94030  Biso   1.000  I
  I3113    1.0000 0.55972  0.44028  0.94030  Biso   1.000  I
  I3114    1.0000 0.94030  0.44028  0.55972  Biso   1.000  I
  I3115    1.0000 0.05970  0.44028  0.44028  Biso   1.000  I
  I3116    1.0000 0.44028  0.44028  0.05970  Biso   1.000  I
  I3117    1.0000 0.05970  0.55972  0.55972  Biso   1.000  I
  I3118    1.0000 0.44028  0.94030  0.55972  Biso   1.000  I
  I3119    1.0000 0.05970  0.94030  0.94030  Biso   1.000  I
  I3120    1.0000 0.05970  0.44028  0.44028  Biso   1.000  I
  I3121    1.0000 0.05970  0.05970  0.05970  Biso   1.000  I
  I3122    1.0000 0.44028  0.44028  0.05970  Biso   1.000  I
  I3123    1.0000 0.55972  0.44028  0.94030  Biso   1.000  I
  I3124    1.0000 0.94030  0.44028  0.55972  Biso   1.000  I
  I3125    1.0000 0.55972  0.05970  0.55972  Biso   1.000  I
  I3126    1.0000 0.05970  0.05970  0.05970  Biso   1.000  I
  I3127    1.0000 0.44028  0.44028  0.05970  Biso   1.000  I
  I3128    1.0000 0.55972  0.55972  0.05970  Biso   1.000  I
  I3129    1.0000 0.55972  0.94030  0.44028  Biso   1.000  I
  I3130    1.0000 0.94030  0.94030  0.05970  Biso   1.000  I
  I3131    1.0000 0.94030  0.94030  0.05970  Biso   1.000  I
  I3132    1.0000 0.55972  0.55972  0.05970  Biso   1.000  I
  I3133    1.0000 0.05970  0.44028  0.44028  Biso   1.000  I
  I3134    1.0000 0.05970  0.05970  0.05970  Biso   1.000  I
  I3135    1.0000 0.44028  0.44028  0.05970  Biso   1.000  I
  I3136    1.0000 0.05970  0.55972  0.55972  Biso   1.000  I
  I3137    1.0000 0.05970  0.94030  0.94030  Biso   1.000  I
  I3138    1.0000 0.94030  0.94030  0.05970  Biso   1.000  I
  I3139    1.0000 0.55972  0.55972  0.05970  Biso   1.000  I
  I3140    1.0000 0.94030  0.05970  0.94030  Biso   1.000  I
  I3141    1.0000 0.55972  0.05970  0.55972  Biso   1.000  I
  I3142    1.0000 0.44028  0.05970  0.44028  Biso   1.000  I
  I3143    1.0000 0.05970  0.05970  0.05970  Biso   1.000  I
  I3144    1.0000 0.44028  0.44028  0.05970  Biso   1.000  I
  I3145    1.0000 0.05970  0.44028  0.44028  Biso   1.000  I
  I3146    1.0000 0.05970  0.05970  0.05970  Biso   1.000  I
  I3147    1.0000 0.44028  0.05970  0.44028  Biso   1.000  I
  I3148    1.0000 0.05970  0.44028  0.44028  Biso   1.000  I
  I3149    1.0000 0.05970  0.05970  0.05970  Biso   1.000  I
  I3150    1.0000 0.44028  0.44028  0.05970  Biso   1.000  I
  I3151    1.0000 0.94030  0.44028  0.55972  Biso   1.000  I
  I3152    1.0000 0.55972  0.44028  0.94030  Biso   1.000  I
  I3153    1.0000 0.94030  0.94030  0.05970  Biso   1.000  I
  I3154    1.0000 0.55972  0.55972  0.05970  Biso   1.000  I
  I3155    1.0000 0.44028  0.94030  0.55972  Biso   1.000  I
  I3156    1.0000 0.05970  0.44028  0.44028  Biso   1.000  I
  I3157    1.0000 0.44028  0.44028  0.05970  Biso   1.000  I
  I3158    1.0000 0.05970  0.05970  0.05970  Biso   1.000  I
  I3159    1.0000 0.44028  0.44028  0.05970  Biso   1.000  I
  I3160    1.0000 0.48600  0.98598  0.51400  Biso   1.000  I
  I3161    1.0000 0.62499  0.12502  0.62499  Biso   1.000  I
  I3162    1.0000 0.62499  0.87498  0.37501  Biso   1.000  I
  I3163    1.0000 0.62499  0.62499  0.12502  Biso   1.000  I
  I3164    1.0000 0.62499  0.37501  0.87498  Biso   1.000  I
  I3165    1.0000 0.12502  0.37501  0.37501  Biso   1.000  I
  I3166    1.0000 0.62499  0.87498  0.37501  Biso   1.000  I
  I3167    1.0000 0.62499  0.12502  0.62499  Biso   1.000  I
  I3168    1.0000 0.48600  0.48600  0.01402  Biso   1.000  I
  I3169    1.0000 0.62499  0.62499  0.12502  Biso   1.000  I
  I3170    1.0000 0.62499  0.37501  0.87498  Biso   1.000  I
  I3171    1.0000 0.48600  0.51400  0.98598  Biso   1.000  I
  I3172    1.0000 0.37501  0.37501  0.12502  Biso   1.000  I
  I3173    1.0000 0.62499  0.62499  0.12502  Biso   1.000  I
  I3174    1.0000 0.62499  0.37501  0.87498  Biso   1.000  I
  I3175    1.0000 0.62499  0.87498  0.37501  Biso   1.000  I
  I3176    1.0000 0.48600  0.01402  0.48600  Biso   1.000  I
  I3177    1.0000 0.62499  0.12502  0.62499  Biso   1.000  I
  I3178    1.0000 0.37501  0.87498  0.62499  Biso   1.000  I
  I3179    1.0000 0.87498  0.37501  0.62499  Biso   1.000  I
  I3180    1.0000 0.12502  0.62499  0.62499  Biso   1.000  I
  I3181    1.0000 0.62499  0.62499  0.12502  Biso   1.000  I
  I3182    1.0000 0.62499  0.37501  0.87498  Biso   1.000  I
  I3183    1.0000 0.62499  0.12502  0.62499  Biso   1.000  I
  I3184    1.0000 0.37501  0.87498  0.62499  Biso   1.000  I
  I3185    1.0000 0.98598  0.51400  0.48600  Biso   1.000  I
  I3186    1.0000 0.12502  0.62499  0.62499  Biso   1.000  I
  I3187    1.0000 0.12502  0.37501  0.37501  Biso   1.000  I
  I3188    1.0000 0.87498  0.37501  0.62499  Biso   1.000  I
  I3189    1.0000 0.48600  0.98598  0.51400  Biso   1.000  I
  I3190    1.0000 0.62499  0.12502  0.62499  Biso   1.000  I
  I3191    1.0000 0.62499  0.87498  0.37501  Biso   1.000  I
  I3192    1.0000 0.12502  0.12502  0.12502  Biso   1.000  I
  I3193    1.0000 0.87498  0.37501  0.62499  Biso   1.000  I
  I3194    1.0000 0.01402  0.48600  0.48600  Biso   1.000  I
  I3195    1.0000 0.12502  0.62499  0.62499  Biso   1.000  I
  I3196    1.0000 0.51400  0.98598  0.48600  Biso   1.000  I
  I3197    1.0000 0.62499  0.12502  0.62499  Biso   1.000  I
  I3198    1.0000 0.37501  0.87498  0.62499  Biso   1.000  I
  I3199    1.0000 0.37501  0.37501  0.12502  Biso   1.000  I
  I3200    1.0000 0.87498  0.37501  0.62499  Biso   1.000  I
  I3201    1.0000 0.12502  0.62499  0.62499  Biso   1.000  I
  I3202    1.0000 0.51400  0.98598  0.48600  Biso   1.000  I
  I3203    1.0000 0.62499  0.12502  0.62499  Biso   1.000  I
  I3204    1.0000 0.37501  0.87498  0.62499  Biso   1.000  I
  I3205    1.0000 0.01402  0.51400  0.51400  Biso   1.000  I
  I3206    1.0000 0.01402  0.98598  0.98598  Biso   1.000  I
  I3207    1.0000 0.48600  0.98598  0.51400  Biso   1.000  I
  I3208    1.0000 0.48600  0.01402  0.48600  Biso   1.000  I
  I3209    1.0000 0.51400  0.01402  0.51400  Biso   1.000  I
  I3210    1.0000 0.01402  0.48600  0.48600  Biso   1.000  I
  I3211    1.0000 0.01402  0.01402  0.01402  Biso   1.000  I
  I3212    1.0000 0.01402  0.51400  0.51400  Biso   1.000  I
  I3213    1.0000 0.01402  0.98598  0.98598  Biso   1.000  I
  I3214    1.0000 0.01402  0.48600  0.48600  Biso   1.000  I
  I3215    1.0000 0.01402  0.01402  0.01402  Biso   1.000  I
  I3216    1.0000 0.98598  0.51400  0.48600  Biso   1.000  I
  I3217    1.0000 0.98598  0.48600  0.51400  Biso   1.000  I
  I3218    1.0000 0.01402  0.51400  0.51400  Biso   1.000  I
  I3219    1.0000 0.51400  0.48600  0.98598  Biso   1.000  I
  I3220    1.0000 0.48600  0.51400  0.98598  Biso   1.000  I
  I3221    1.0000 0.51400  0.51400  0.01402  Biso   1.000  I
  I3222    1.0000 0.98598  0.51400  0.48600  Biso   1.000  I
  I3223    1.0000 0.01402  0.51400  0.51400  Biso   1.000  I
  I3224    1.0000 0.01402  0.48600  0.48600  Biso   1.000  I
  I3225    1.0000 0.48600  0.51400  0.98598  Biso   1.000  I
  I3226    1.0000 0.48600  0.48600  0.01402  Biso   1.000  I
  I3227    1.0000 0.51400  0.51400  0.01402  Biso   1.000  I
  I3228    1.0000 0.48600  0.51400  0.98598  Biso   1.000  I
  I3229    1.0000 0.48600  0.48600  0.01402  Biso   1.000  I
  I3230    1.0000 0.51400  0.51400  0.01402  Biso   1.000  I
  I3231    1.0000 0.01402  0.48600  0.48600  Biso   1.000  I
  I3232    1.0000 0.98598  0.51400  0.48600  Biso   1.000  I
  I3233    1.0000 0.98598  0.48600  0.51400  Biso   1.000  I
  I3234    1.0000 0.01402  0.51400  0.51400  Biso   1.000  I
  I3235    1.0000 0.51400  0.48600  0.98598  Biso   1.000  I
  I3236    1.0000 0.01402  0.48600  0.48600  Biso   1.000  I
  I3237    1.0000 0.51400  0.98598  0.48600  Biso   1.000  I
  I3238    1.0000 0.48600  0.01402  0.48600  Biso   1.000  I
  I3239    1.0000 0.51400  0.01402  0.51400  Biso   1.000  I
  I3240    1.0000 0.01402  0.01402  0.01402  Biso   1.000  I
  I3241    1.0000 0.01402  0.51400  0.51400  Biso   1.000  I
  I3242    1.0000 0.01402  0.98598  0.98598  Biso   1.000  I
  I3243    1.0000 0.51400  0.48600  0.98598  Biso   1.000  I
  I3244    1.0000 0.48600  0.51400  0.98598  Biso   1.000  I
  I3245    1.0000 0.51400  0.51400  0.01402  Biso   1.000  I
  I3246    1.0000 0.48600  0.48600  0.01402  Biso   1.000  I
  I3247    1.0000 0.98598  0.51400  0.48600  Biso   1.000  I
  I3248    1.0000 0.01402  0.51400  0.51400  Biso   1.000  I
  I3249    1.0000 0.01402  0.48600  0.48600  Biso   1.000  I
  I3250    1.0000 0.48600  0.98598  0.51400  Biso   1.000  I
  I3251    1.0000 0.98598  0.98598  0.01402  Biso   1.000  I
  I3252    1.0000 0.51400  0.51400  0.01402  Biso   1.000  I
  I3253    1.0000 0.48600  0.48600  0.01402  Biso   1.000  I
  I3254    1.0000 0.01402  0.01402  0.01402  Biso   1.000  I
  I3255    1.0000 0.01402  0.01402  0.01402  Biso   1.000  I
  I3256    1.0000 0.48600  0.48600  0.01402  Biso   1.000  I
  I3257    1.0000 0.01402  0.51400  0.51400  Biso   1.000  I
  I3258    1.0000 0.51400  0.51400  0.01402  Biso   1.000  I
  I3259    1.0000 0.01402  0.48600  0.48600  Biso   1.000  I
  I3260    1.0000 0.01402  0.01402  0.01402  Biso   1.000  I
  I3261    1.0000 0.01402  0.01402  0.01402  Biso   1.000  I
  I3262    1.0000 0.48600  0.48600  0.01402  Biso   1.000  I
  I3263    1.0000 0.01402  0.01402  0.01402  Biso   1.000  I
  I3264    1.0000 0.48600  0.01402  0.48600  Biso   1.000  I
  I3265    1.0000 0.51400  0.01402  0.51400  Biso   1.000  I
  I3266    1.0000 0.51400  0.51400  0.01402  Biso   1.000  I
  I3267    1.0000 0.01402  0.51400  0.51400  Biso   1.000  I
  I3268    1.0000 0.51400  0.01402  0.51400  Biso   1.000  I
  I3269    1.0000 0.98598  0.48600  0.51400  Biso   1.000  I
  I3270    1.0000 0.98598  0.98598  0.01402  Biso   1.000  I
  I3271    1.0000 0.51400  0.51400  0.01402  Biso   1.000  I
  I3272    1.0000 0.98598  0.51400  0.48600  Biso   1.000  I
  I3273    1.0000 0.01402  0.51400  0.51400  Biso   1.000  I
  I3274    1.0000 0.01402  0.48600  0.48600  Biso   1.000  I
  I3275    1.0000 0.48600  0.48600  0.01402  Biso   1.000  I
  I3276    1.0000 0.01402  0.01402  0.01402  Biso   1.000  I
  I3277    1.0000 0.48600  0.48600  0.01402  Biso   1.000  I
  I3278    1.0000 0.51400  0.98598  0.48600  Biso   1.000  I
  I3279    1.0000 0.48600  0.01402  0.48600  Biso   1.000  I
  I3280    1.0000 0.51400  0.01402  0.51400  Biso   1.000  I
  I3281    1.0000 0.98598  0.48600  0.51400  Biso   1.000  I
  I3282    1.0000 0.51400  0.48600  0.98598  Biso   1.000  I
  I3283    1.0000 0.48600  0.51400  0.98598  Biso   1.000  I
  I3284    1.0000 0.51400  0.51400  0.01402  Biso   1.000  I
  I3285    1.0000 0.98598  0.98598  0.01402  Biso   1.000  I
  I3286    1.0000 0.51400  0.51400  0.01402  Biso   1.000  I
  I3287    1.0000 0.69031  0.19029  0.69031  Biso   1.000  I
  I3288    1.0000 0.69031  0.80971  0.30969  Biso   1.000  I
  I3289    1.0000 0.69031  0.69031  0.19029  Biso   1.000  I
  I3290    1.0000 0.69031  0.30969  0.80971  Biso   1.000  I
  I3291    1.0000 0.19029  0.30969  0.30969  Biso   1.000  I
  I3292    1.0000 0.69031  0.80971  0.30969  Biso   1.000  I
  I3293    1.0000 0.69031  0.19029  0.69031  Biso   1.000  I
  I3294    1.0000 0.69031  0.69031  0.19029  Biso   1.000  I
  I3295    1.0000 0.69031  0.30969  0.80971  Biso   1.000  I
  I3296    1.0000 0.30969  0.30969  0.19029  Biso   1.000  I
  I3297    1.0000 0.69031  0.69031  0.19029  Biso   1.000  I
  I3298    1.0000 0.69031  0.30969  0.80971  Biso   1.000  I
  I3299    1.0000 0.69031  0.80971  0.30969  Biso   1.000  I
  I3300    1.0000 0.69031  0.19029  0.69031  Biso   1.000  I
  I3301    1.0000 0.30969  0.80971  0.69031  Biso   1.000  I
  I3302    1.0000 0.80971  0.30969  0.69031  Biso   1.000  I
  I3303    1.0000 0.19029  0.69031  0.69031  Biso   1.000  I
  I3304    1.0000 0.69031  0.69031  0.19029  Biso   1.000  I
  I3305    1.0000 0.69031  0.30969  0.80971  Biso   1.000  I
  I3306    1.0000 0.69031  0.19029  0.69031  Biso   1.000  I
  I3307    1.0000 0.30969  0.80971  0.69031  Biso   1.000  I
  I3308    1.0000 0.19029  0.69031  0.69031  Biso   1.000  I
  I3309    1.0000 0.19029  0.30969  0.30969  Biso   1.000  I
  I3310    1.0000 0.80971  0.30969  0.69031  Biso   1.000  I
  I3311    1.0000 0.69031  0.19029  0.69031  Biso   1.000  I
  I3312    1.0000 0.69031  0.80971  0.30969  Biso   1.000  I
  I3313    1.0000 0.19029  0.19029  0.19029  Biso   1.000  I
  I3314    1.0000 0.80971  0.30969  0.69031  Biso   1.000  I
  I3315    1.0000 0.19029  0.69031  0.69031  Biso   1.000  I
  I3316    1.0000 0.69031  0.19029  0.69031  Biso   1.000  I
  I3317    1.0000 0.30969  0.80971  0.69031  Biso   1.000  I
  I3318    1.0000 0.30969  0.30969  0.19029  Biso   1.000  I
  I3319    1.0000 0.80971  0.30969  0.69031  Biso   1.000  I
  I3320    1.0000 0.19029  0.69031  0.69031  Biso   1.000  I
  I3321    1.0000 0.69031  0.19029  0.69031  Biso   1.000  I
  I3322    1.0000 0.30969  0.80971  0.69031  Biso   1.000  I
  I3323    1.0000 0.44028  0.05970  0.44028  Biso   1.000  I
  I3324    1.0000 0.55972  0.05970  0.55972  Biso   1.000  I
  I3325    1.0000 0.44028  0.94030  0.55972  Biso   1.000  I
  I3326    1.0000 0.05970  0.55972  0.55972  Biso   1.000  I
  I3327    1.0000 0.94030  0.55972  0.44028  Biso   1.000  I
  I3328    1.0000 0.44028  0.55972  0.94030  Biso   1.000  I
  I3329    1.0000 0.55972  0.55972  0.05970  Biso   1.000  I
  I3330    1.0000 0.05970  0.55972  0.55972  Biso   1.000  I
  I3331    1.0000 0.94030  0.55972  0.44028  Biso   1.000  I
  I3332    1.0000 0.55972  0.55972  0.05970  Biso   1.000  I
  I3333    1.0000 0.44028  0.55972  0.94030  Biso   1.000  I
  I3334    1.0000 0.44028  0.44028  0.05970  Biso   1.000  I
  I3335    1.0000 0.55972  0.55972  0.05970  Biso   1.000  I
  I3336    1.0000 0.44028  0.55972  0.94030  Biso   1.000  I
  I3337    1.0000 0.94030  0.44028  0.55972  Biso   1.000  I
  I3338    1.0000 0.05970  0.55972  0.55972  Biso   1.000  I
  I3339    1.0000 0.94030  0.55972  0.44028  Biso   1.000  I
  I3340    1.0000 0.44028  0.05970  0.44028  Biso   1.000  I
  I3341    1.0000 0.44028  0.55972  0.94030  Biso   1.000  I
  I3342    1.0000 0.55972  0.55972  0.05970  Biso   1.000  I
  I3343    1.0000 0.05970  0.55972  0.55972  Biso   1.000  I
  I3344    1.0000 0.94030  0.55972  0.44028  Biso   1.000  I
  I3345    1.0000 0.05970  0.55972  0.55972  Biso   1.000  I
  I3346    1.0000 0.05970  0.44028  0.44028  Biso   1.000  I
  I3347    1.0000 0.94030  0.55972  0.44028  Biso   1.000  I
  I3348    1.0000 0.44028  0.05970  0.44028  Biso   1.000  I
  I3349    1.0000 0.55972  0.05970  0.55972  Biso   1.000  I
  I3350    1.0000 0.55972  0.94030  0.44028  Biso   1.000  I
  I3351    1.0000 0.44028  0.55972  0.94030  Biso   1.000  I
  I3352    1.0000 0.55972  0.55972  0.05970  Biso   1.000  I
  I3353    1.0000 0.55972  0.44028  0.94030  Biso   1.000  I
  I3354    1.0000 0.73599  0.26401  0.76399  Biso   1.000  I
  I3355    1.0000 0.76399  0.23601  0.76399  Biso   1.000  I
  I3356    1.0000 0.76399  0.26401  0.73599  Biso   1.000  I
  I3357    1.0000 0.76399  0.73599  0.26401  Biso   1.000  I
  I3358    1.0000 0.76399  0.76399  0.23601  Biso   1.000  I
  I3359    1.0000 0.73599  0.73599  0.23601  Biso   1.000  I
  I3360    1.0000 0.76399  0.73599  0.26401  Biso   1.000  I
  I3361    1.0000 0.76399  0.76399  0.23601  Biso   1.000  I
  I3362    1.0000 0.73599  0.76399  0.26401  Biso   1.000  I
  I3363    1.0000 0.73599  0.23601  0.73599  Biso   1.000  I
  I3364    1.0000 0.76399  0.23601  0.76399  Biso   1.000  I
  I3365    1.0000 0.76399  0.26401  0.73599  Biso   1.000  I
  I3366    1.0000 0.26401  0.26401  0.23601  Biso   1.000  I
  I3367    1.0000 0.26401  0.23601  0.26401  Biso   1.000  I
  I3368    1.0000 0.23601  0.23601  0.23601  Biso   1.000  I
  I3369    1.0000 0.73599  0.73599  0.23601  Biso   1.000  I
  I3370    1.0000 0.73599  0.26401  0.76399  Biso   1.000  I
  I3371    1.0000 0.76399  0.23601  0.76399  Biso   1.000  I
  I3372    1.0000 0.76399  0.26401  0.73599  Biso   1.000  I
  I3373    1.0000 0.76399  0.73599  0.26401  Biso   1.000  I
  I3374    1.0000 0.76399  0.76399  0.23601  Biso   1.000  I
  I3375    1.0000 0.73599  0.76399  0.26401  Biso   1.000  I
  I3376    1.0000 0.73599  0.23601  0.73599  Biso   1.000  I
  I3377    1.0000 0.26401  0.23601  0.26401  Biso   1.000  I
  I3378    1.0000 0.23601  0.26401  0.26401  Biso   1.000  I
  I3379    1.0000 0.23601  0.23601  0.23601  Biso   1.000  I
  I3380    1.0000 0.76399  0.73599  0.26401  Biso   1.000  I
  I3381    1.0000 0.76399  0.76399  0.23601  Biso   1.000  I
  I3382    1.0000 0.73599  0.76399  0.26401  Biso   1.000  I
  I3383    1.0000 0.73599  0.23601  0.73599  Biso   1.000  I
  I3384    1.0000 0.76399  0.23601  0.76399  Biso   1.000  I
  I3385    1.0000 0.76399  0.26401  0.73599  Biso   1.000  I
  I3386    1.0000 0.73599  0.73599  0.23601  Biso   1.000  I
  I3387    1.0000 0.73599  0.26401  0.76399  Biso   1.000  I
  I3388    1.0000 0.76399  0.23601  0.76399  Biso   1.000  I
  I3389    1.0000 0.76399  0.26401  0.73599  Biso   1.000  I
  I3390    1.0000 0.23601  0.76399  0.76399  Biso   1.000  I
  I3391    1.0000 0.23601  0.73599  0.73599  Biso   1.000  I
  I3392    1.0000 0.26401  0.73599  0.76399  Biso   1.000  I
  I3393    1.0000 0.73599  0.23601  0.73599  Biso   1.000  I
  I3394    1.0000 0.73599  0.26401  0.76399  Biso   1.000  I
  I3395    1.0000 0.76399  0.23601  0.76399  Biso   1.000  I
  I3396    1.0000 0.23601  0.76399  0.76399  Biso   1.000  I
  I3397    1.0000 0.26401  0.76399  0.73599  Biso   1.000  I
  I3398    1.0000 0.26401  0.73599  0.76399  Biso   1.000  I
  I3399    1.0000 0.76399  0.73599  0.26401  Biso   1.000  I
  I3400    1.0000 0.76399  0.76399  0.23601  Biso   1.000  I
  I3401    1.0000 0.73599  0.76399  0.26401  Biso   1.000  I
  I3402    1.0000 0.73599  0.23601  0.73599  Biso   1.000  I
  I3403    1.0000 0.76399  0.26401  0.73599  Biso   1.000  I
  I3404    1.0000 0.23601  0.76399  0.76399  Biso   1.000  I
  I3405    1.0000 0.23601  0.73599  0.73599  Biso   1.000  I
  I3406    1.0000 0.26401  0.73599  0.76399  Biso   1.000  I
  I3407    1.0000 0.26401  0.76399  0.73599  Biso   1.000  I
  I3408    1.0000 0.26401  0.26401  0.23601  Biso   1.000  I
  I3409    1.0000 0.73599  0.23601  0.73599  Biso   1.000  I
  I3410    1.0000 0.73599  0.26401  0.76399  Biso   1.000  I
  I3411    1.0000 0.76399  0.23601  0.76399  Biso   1.000  I
  I3412    1.0000 0.73599  0.26401  0.76399  Biso   1.000  I
  I3413    1.0000 0.76399  0.23601  0.76399  Biso   1.000  I
  I3414    1.0000 0.76399  0.26401  0.73599  Biso   1.000  I
  I3415    1.0000 0.73599  0.73599  0.23601  Biso   1.000  I
  I3416    1.0000 0.26401  0.26401  0.23601  Biso   1.000  I
  I3417    1.0000 0.26401  0.23601  0.26401  Biso   1.000  I
  I3418    1.0000 0.23601  0.26401  0.26401  Biso   1.000  I
  I3419    1.0000 0.73599  0.23601  0.73599  Biso   1.000  I
  I3420    1.0000 0.73599  0.26401  0.76399  Biso   1.000  I
  I3421    1.0000 0.76399  0.23601  0.76399  Biso   1.000  I
  I3422    1.0000 0.23601  0.76399  0.76399  Biso   1.000  I
  I3423    1.0000 0.26401  0.76399  0.73599  Biso   1.000  I
  I3424    1.0000 0.26401  0.73599  0.76399  Biso   1.000  I
  I3425    1.0000 0.73599  0.26401  0.76399  Biso   1.000  I
  I3426    1.0000 0.76399  0.23601  0.76399  Biso   1.000  I
  I3427    1.0000 0.76399  0.26401  0.73599  Biso   1.000  I
  I3428    1.0000 0.23601  0.73599  0.73599  Biso   1.000  I
  I3429    1.0000 0.26401  0.23601  0.26401  Biso   1.000  I
  I3430    1.0000 0.23601  0.26401  0.26401  Biso   1.000  I
  I3431    1.0000 0.23601  0.23601  0.23601  Biso   1.000  I
  I3432    1.0000 0.73599  0.23601  0.73599  Biso   1.000  I
  I3433    1.0000 0.73599  0.26401  0.76399  Biso   1.000  I
  I3434    1.0000 0.76399  0.23601  0.76399  Biso   1.000  I
  I3435    1.0000 0.26401  0.76399  0.73599  Biso   1.000  I
  I3436    1.0000 0.76399  0.26401  0.73599  Biso   1.000  I
  I3437    1.0000 0.23601  0.76399  0.76399  Biso   1.000  I
  I3438    1.0000 0.23601  0.73599  0.73599  Biso   1.000  I
  I3439    1.0000 0.26401  0.73599  0.76399  Biso   1.000  I
  I3440    1.0000 0.51400  0.98598  0.48600  Biso   1.000  I
  I3441    1.0000 0.37501  0.12502  0.37501  Biso   1.000  I
  I3442    1.0000 0.62499  0.12502  0.62499  Biso   1.000  I
  I3443    1.0000 0.37501  0.87498  0.62499  Biso   1.000  I
  I3444    1.0000 0.12502  0.62499  0.62499  Biso   1.000  I
  I3445    1.0000 0.87498  0.62499  0.37501  Biso   1.000  I
  I3446    1.0000 0.37501  0.62499  0.87498  Biso   1.000  I
  I3447    1.0000 0.62499  0.62499  0.12502  Biso   1.000  I
  I3448    1.0000 0.12502  0.62499  0.62499  Biso   1.000  I
  I3449    1.0000 0.87498  0.62499  0.37501  Biso   1.000  I
  I3450    1.0000 0.62499  0.62499  0.12502  Biso   1.000  I
  I3451    1.0000 0.37501  0.62499  0.87498  Biso   1.000  I
  I3452    1.0000 0.51400  0.48600  0.98598  Biso   1.000  I
  I3453    1.0000 0.37501  0.37501  0.12502  Biso   1.000  I
  I3454    1.0000 0.62499  0.62499  0.12502  Biso   1.000  I
  I3455    1.0000 0.37501  0.62499  0.87498  Biso   1.000  I
  I3456    1.0000 0.87498  0.37501  0.62499  Biso   1.000  I
  I3457    1.0000 0.01402  0.48600  0.48600  Biso   1.000  I
  I3458    1.0000 0.12502  0.62499  0.62499  Biso   1.000  I
  I3459    1.0000 0.87498  0.62499  0.37501  Biso   1.000  I
  I3460    1.0000 0.37501  0.12502  0.37501  Biso   1.000  I
  I3461    1.0000 0.37501  0.62499  0.87498  Biso   1.000  I
  I3462    1.0000 0.62499  0.62499  0.12502  Biso   1.000  I
  I3463    1.0000 0.12502  0.62499  0.62499  Biso   1.000  I
  I3464    1.0000 0.87498  0.62499  0.37501  Biso   1.000  I
  I3465    1.0000 0.98598  0.48600  0.51400  Biso   1.000  I
  I3466    1.0000 0.12502  0.62499  0.62499  Biso   1.000  I
  I3467    1.0000 0.12502  0.37501  0.37501  Biso   1.000  I
  I3468    1.0000 0.87498  0.62499  0.37501  Biso   1.000  I
  I3469    1.0000 0.48600  0.98598  0.51400  Biso   1.000  I
  I3470    1.0000 0.37501  0.12502  0.37501  Biso   1.000  I
  I3471    1.0000 0.62499  0.12502  0.62499  Biso   1.000  I
  I3472    1.0000 0.62499  0.87498  0.37501  Biso   1.000  I
  I3473    1.0000 0.37501  0.62499  0.87498  Biso   1.000  I
  I3474    1.0000 0.48600  0.48600  0.01402  Biso   1.000  I
  I3475    1.0000 0.62499  0.62499  0.12502  Biso   1.000  I
  I3476    1.0000 0.62499  0.37501  0.87498  Biso   1.000  I
  I3477    1.0000 0.80971  0.19029  0.80971  Biso   1.000  I
  I3478    1.0000 0.80971  0.30969  0.69031  Biso   1.000  I
  I3479    1.0000 0.80971  0.80971  0.19029  Biso   1.000  I
  I3480    1.0000 0.69031  0.69031  0.19029  Biso   1.000  I
  I3481    1.0000 0.80971  0.69031  0.30969  Biso   1.000  I
  I3482    1.0000 0.80971  0.80971  0.19029  Biso   1.000  I
  I3483    1.0000 0.80971  0.69031  0.30969  Biso   1.000  I
  I3484    1.0000 0.80971  0.19029  0.80971  Biso   1.000  I
  I3485    1.0000 0.80971  0.30969  0.69031  Biso   1.000  I
  I3486    1.0000 0.69031  0.19029  0.69031  Biso   1.000  I
  I3487    1.0000 0.30969  0.19029  0.30969  Biso   1.000  I
  I3488    1.0000 0.19029  0.19029  0.19029  Biso   1.000  I
  I3489    1.0000 0.30969  0.30969  0.19029  Biso   1.000  I
  I3490    1.0000 0.80971  0.19029  0.80971  Biso   1.000  I
  I3491    1.0000 0.80971  0.30969  0.69031  Biso   1.000  I
  I3492    1.0000 0.80971  0.80971  0.19029  Biso   1.000  I
  I3493    1.0000 0.80971  0.69031  0.30969  Biso   1.000  I
  I3494    1.0000 0.19029  0.19029  0.19029  Biso   1.000  I
  I3495    1.0000 0.30969  0.19029  0.30969  Biso   1.000  I
  I3496    1.0000 0.80971  0.80971  0.19029  Biso   1.000  I
  I3497    1.0000 0.80971  0.69031  0.30969  Biso   1.000  I
  I3498    1.0000 0.80971  0.19029  0.80971  Biso   1.000  I
  I3499    1.0000 0.80971  0.30969  0.69031  Biso   1.000  I
  I3500    1.0000 0.69031  0.19029  0.69031  Biso   1.000  I
  I3501    1.0000 0.80971  0.19029  0.80971  Biso   1.000  I
  I3502    1.0000 0.80971  0.30969  0.69031  Biso   1.000  I
  I3503    1.0000 0.69031  0.30969  0.80971  Biso   1.000  I
  I3504    1.0000 0.30969  0.69031  0.80971  Biso   1.000  I
  I3505    1.0000 0.19029  0.80971  0.80971  Biso   1.000  I
  I3506    1.0000 0.69031  0.30969  0.80971  Biso   1.000  I
  I3507    1.0000 0.80971  0.19029  0.80971  Biso   1.000  I
  I3508    1.0000 0.30969  0.80971  0.69031  Biso   1.000  I
  I3509    1.0000 0.30969  0.69031  0.80971  Biso   1.000  I
  I3510    1.0000 0.19029  0.80971  0.80971  Biso   1.000  I
  I3511    1.0000 0.80971  0.80971  0.19029  Biso   1.000  I
  I3512    1.0000 0.69031  0.80971  0.30969  Biso   1.000  I
  I3513    1.0000 0.80971  0.69031  0.30969  Biso   1.000  I
  I3514    1.0000 0.30969  0.69031  0.80971  Biso   1.000  I
  I3515    1.0000 0.19029  0.80971  0.80971  Biso   1.000  I
  I3516    1.0000 0.69031  0.30969  0.80971  Biso   1.000  I
  I3517    1.0000 0.80971  0.19029  0.80971  Biso   1.000  I
  I3518    1.0000 0.69031  0.19029  0.69031  Biso   1.000  I
  I3519    1.0000 0.80971  0.19029  0.80971  Biso   1.000  I
  I3520    1.0000 0.80971  0.30969  0.69031  Biso   1.000  I
  I3521    1.0000 0.69031  0.30969  0.80971  Biso   1.000  I
  I3522    1.0000 0.30969  0.19029  0.30969  Biso   1.000  I
  I3523    1.0000 0.19029  0.30969  0.30969  Biso   1.000  I
  I3524    1.0000 0.30969  0.30969  0.19029  Biso   1.000  I
  I3525    1.0000 0.69031  0.30969  0.80971  Biso   1.000  I
  I3526    1.0000 0.80971  0.19029  0.80971  Biso   1.000  I
  I3527    1.0000 0.30969  0.69031  0.80971  Biso   1.000  I
  I3528    1.0000 0.19029  0.80971  0.80971  Biso   1.000  I
  I3529    1.0000 0.80971  0.19029  0.80971  Biso   1.000  I
  I3530    1.0000 0.80971  0.30969  0.69031  Biso   1.000  I
  I3531    1.0000 0.69031  0.30969  0.80971  Biso   1.000  I
  I3532    1.0000 0.19029  0.30969  0.30969  Biso   1.000  I
  I3533    1.0000 0.19029  0.19029  0.19029  Biso   1.000  I
  I3534    1.0000 0.30969  0.19029  0.30969  Biso   1.000  I
  I3535    1.0000 0.69031  0.30969  0.80971  Biso   1.000  I
  I3536    1.0000 0.80971  0.19029  0.80971  Biso   1.000  I
  I3537    1.0000 0.69031  0.19029  0.69031  Biso   1.000  I
  I3538    1.0000 0.19029  0.69031  0.69031  Biso   1.000  I
  I3539    1.0000 0.30969  0.69031  0.80971  Biso   1.000  I
  I3540    1.0000 0.19029  0.80971  0.80971  Biso   1.000  I
  I3541    1.0000 0.30969  0.19029  0.30969  Biso   1.000  I
  I3542    1.0000 0.69031  0.19029  0.69031  Biso   1.000  I
  I3543    1.0000 0.30969  0.80971  0.69031  Biso   1.000  I
  I3544    1.0000 0.19029  0.69031  0.69031  Biso   1.000  I
  I3545    1.0000 0.80971  0.69031  0.30969  Biso   1.000  I
  I3546    1.0000 0.30969  0.69031  0.80971  Biso   1.000  I
  I3547    1.0000 0.69031  0.69031  0.19029  Biso   1.000  I
  I3548    1.0000 0.19029  0.69031  0.69031  Biso   1.000  I
  I3549    1.0000 0.80971  0.69031  0.30969  Biso   1.000  I
  I3550    1.0000 0.69031  0.69031  0.19029  Biso   1.000  I
  I3551    1.0000 0.30969  0.69031  0.80971  Biso   1.000  I
  I3552    1.0000 0.30969  0.30969  0.19029  Biso   1.000  I
  I3553    1.0000 0.69031  0.69031  0.19029  Biso   1.000  I
  I3554    1.0000 0.30969  0.69031  0.80971  Biso   1.000  I
  I3555    1.0000 0.80971  0.30969  0.69031  Biso   1.000  I
  I3556    1.0000 0.19029  0.69031  0.69031  Biso   1.000  I
  I3557    1.0000 0.80971  0.69031  0.30969  Biso   1.000  I
  I3558    1.0000 0.30969  0.19029  0.30969  Biso   1.000  I
  I3559    1.0000 0.30969  0.69031  0.80971  Biso   1.000  I
  I3560    1.0000 0.69031  0.69031  0.19029  Biso   1.000  I
  I3561    1.0000 0.19029  0.69031  0.69031  Biso   1.000  I
  I3562    1.0000 0.80971  0.69031  0.30969  Biso   1.000  I
  I3563    1.0000 0.19029  0.69031  0.69031  Biso   1.000  I
  I3564    1.0000 0.19029  0.30969  0.30969  Biso   1.000  I
  I3565    1.0000 0.80971  0.69031  0.30969  Biso   1.000  I
  I3566    1.0000 0.30969  0.19029  0.30969  Biso   1.000  I
  I3567    1.0000 0.69031  0.19029  0.69031  Biso   1.000  I
  I3568    1.0000 0.69031  0.80971  0.30969  Biso   1.000  I
  I3569    1.0000 0.30969  0.69031  0.80971  Biso   1.000  I
  I3570    1.0000 0.69031  0.69031  0.19029  Biso   1.000  I
  I3571    1.0000 0.69031  0.30969  0.80971  Biso   1.000  I
  I3572    1.0000 0.87498  0.12502  0.87498  Biso   1.000  I
  I3573    1.0000 0.87498  0.37501  0.62499  Biso   1.000  I
  I3574    1.0000 0.87498  0.87498  0.12502  Biso   1.000  I
  I3575    1.0000 0.73599  0.76399  0.26401  Biso   1.000  I
  I3576    1.0000 0.62499  0.62499  0.12502  Biso   1.000  I
  I3577    1.0000 0.87498  0.62499  0.37501  Biso   1.000  I
  I3578    1.0000 0.87498  0.87498  0.12502  Biso   1.000  I
  I3579    1.0000 0.87498  0.62499  0.37501  Biso   1.000  I
  I3580    1.0000 0.87498  0.12502  0.87498  Biso   1.000  I
  I3581    1.0000 0.73599  0.26401  0.76399  Biso   1.000  I
  I3582    1.0000 0.87498  0.37501  0.62499  Biso   1.000  I
  I3583    1.0000 0.62499  0.12502  0.62499  Biso   1.000  I
  I3584    1.0000 0.37501  0.12502  0.37501  Biso   1.000  I
  I3585    1.0000 0.23601  0.26401  0.26401  Biso   1.000  I
  I3586    1.0000 0.12502  0.12502  0.12502  Biso   1.000  I
  I3587    1.0000 0.37501  0.37501  0.12502  Biso   1.000  I
  I3588    1.0000 0.87498  0.12502  0.87498  Biso   1.000  I
  I3589    1.0000 0.87498  0.37501  0.62499  Biso   1.000  I
  I3590    1.0000 0.87498  0.87498  0.12502  Biso   1.000  I
  I3591    1.0000 0.87498  0.62499  0.37501  Biso   1.000  I
  I3592    1.0000 0.12502  0.12502  0.12502  Biso   1.000  I
  I3593    1.0000 0.37501  0.12502  0.37501  Biso   1.000  I
  I3594    1.0000 0.87498  0.87498  0.12502  Biso   1.000  I
  I3595    1.0000 0.87498  0.62499  0.37501  Biso   1.000  I
  I3596    1.0000 0.87498  0.12502  0.87498  Biso   1.000  I
  I3597    1.0000 0.73599  0.26401  0.76399  Biso   1.000  I
  I3598    1.0000 0.87498  0.37501  0.62499  Biso   1.000  I
  I3599    1.0000 0.62499  0.12502  0.62499  Biso   1.000  I
  I3600    1.0000 0.87498  0.12502  0.87498  Biso   1.000  I
  I3601    1.0000 0.73599  0.23601  0.73599  Biso   1.000  I
  I3602    1.0000 0.87498  0.37501  0.62499  Biso   1.000  I
  I3603    1.0000 0.62499  0.37501  0.87498  Biso   1.000  I
  I3604    1.0000 0.37501  0.62499  0.87498  Biso   1.000  I
  I3605    1.0000 0.12502  0.87498  0.87498  Biso   1.000  I
  I3606    1.0000 0.62499  0.37501  0.87498  Biso   1.000  I
  I3607    1.0000 0.87498  0.12502  0.87498  Biso   1.000  I
  I3608    1.0000 0.37501  0.87498  0.62499  Biso   1.000  I
  I3609    1.0000 0.23601  0.73599  0.73599  Biso   1.000  I
  I3610    1.0000 0.37501  0.62499  0.87498  Biso   1.000  I
  I3611    1.0000 0.12502  0.87498  0.87498  Biso   1.000  I
  I3612    1.0000 0.87498  0.87498  0.12502  Biso   1.000  I
  I3613    1.0000 0.73599  0.73599  0.23601  Biso   1.000  I
  I3614    1.0000 0.62499  0.87498  0.37501  Biso   1.000  I
  I3615    1.0000 0.87498  0.62499  0.37501  Biso   1.000  I
  I3616    1.0000 0.37501  0.62499  0.87498  Biso   1.000  I
  I3617    1.0000 0.12502  0.87498  0.87498  Biso   1.000  I
  I3618    1.0000 0.62499  0.37501  0.87498  Biso   1.000  I
  I3619    1.0000 0.76399  0.26401  0.73599  Biso   1.000  I
  I3620    1.0000 0.87498  0.12502  0.87498  Biso   1.000  I
  I3621    1.0000 0.62499  0.12502  0.62499  Biso   1.000  I
  I3622    1.0000 0.87498  0.12502  0.87498  Biso   1.000  I
  I3623    1.0000 0.73599  0.23601  0.73599  Biso   1.000  I
  I3624    1.0000 0.87498  0.37501  0.62499  Biso   1.000  I
  I3625    1.0000 0.62499  0.37501  0.87498  Biso   1.000  I
  I3626    1.0000 0.37501  0.12502  0.37501  Biso   1.000  I
  I3627    1.0000 0.23601  0.23601  0.23601  Biso   1.000  I
  I3628    1.0000 0.12502  0.37501  0.37501  Biso   1.000  I
  I3629    1.0000 0.37501  0.37501  0.12502  Biso   1.000  I
  I3630    1.0000 0.62499  0.37501  0.87498  Biso   1.000  I
  I3631    1.0000 0.87498  0.12502  0.87498  Biso   1.000  I
  I3632    1.0000 0.37501  0.62499  0.87498  Biso   1.000  I
  I3633    1.0000 0.12502  0.87498  0.87498  Biso   1.000  I
  I3634    1.0000 0.87498  0.12502  0.87498  Biso   1.000  I
  I3635    1.0000 0.73599  0.23601  0.73599  Biso   1.000  I
  I3636    1.0000 0.87498  0.37501  0.62499  Biso   1.000  I
  I3637    1.0000 0.62499  0.37501  0.87498  Biso   1.000  I
  I3638    1.0000 0.12502  0.37501  0.37501  Biso   1.000  I
  I3639    1.0000 0.26401  0.26401  0.23601  Biso   1.000  I
  I3640    1.0000 0.12502  0.12502  0.12502  Biso   1.000  I
  I3641    1.0000 0.37501  0.12502  0.37501  Biso   1.000  I
  I3642    1.0000 0.62499  0.37501  0.87498  Biso   1.000  I
  I3643    1.0000 0.76399  0.26401  0.73599  Biso   1.000  I
  I3644    1.0000 0.87498  0.12502  0.87498  Biso   1.000  I
  I3645    1.0000 0.62499  0.12502  0.62499  Biso   1.000  I
  I3646    1.0000 0.12502  0.62499  0.62499  Biso   1.000  I
  I3647    1.0000 0.26401  0.76399  0.73599  Biso   1.000  I
  I3648    1.0000 0.37501  0.62499  0.87498  Biso   1.000  I
  I3649    1.0000 0.12502  0.87498  0.87498  Biso   1.000  I
  I3650    1.0000 0.26401  0.26401  0.23601  Biso   1.000  I
  I3651    1.0000 0.23601  0.26401  0.26401  Biso   1.000  I
  I3652    1.0000 0.23601  0.23601  0.23601  Biso   1.000  I
  I3653    1.0000 0.73599  0.26401  0.76399  Biso   1.000  I
  I3654    1.0000 0.76399  0.23601  0.76399  Biso   1.000  I
  I3655    1.0000 0.76399  0.26401  0.73599  Biso   1.000  I
  I3656    1.0000 0.23601  0.76399  0.76399  Biso   1.000  I
  I3657    1.0000 0.23601  0.73599  0.73599  Biso   1.000  I
  I3658    1.0000 0.26401  0.73599  0.76399  Biso   1.000  I
  I3659    1.0000 0.23601  0.76399  0.76399  Biso   1.000  I
  I3660    1.0000 0.26401  0.76399  0.73599  Biso   1.000  I
  I3661    1.0000 0.26401  0.73599  0.76399  Biso   1.000  I
  I3662    1.0000 0.76399  0.76399  0.23601  Biso   1.000  I
  I3663    1.0000 0.73599  0.73599  0.23601  Biso   1.000  I
  I3664    1.0000 0.73599  0.76399  0.26401  Biso   1.000  I
  I3665    1.0000 0.23601  0.76399  0.76399  Biso   1.000  I
  I3666    1.0000 0.23601  0.73599  0.73599  Biso   1.000  I
  I3667    1.0000 0.26401  0.76399  0.73599  Biso   1.000  I
  I3668    1.0000 0.76399  0.73599  0.26401  Biso   1.000  I
  I3669    1.0000 0.76399  0.76399  0.23601  Biso   1.000  I
  I3670    1.0000 0.73599  0.76399  0.26401  Biso   1.000  I
  I3671    1.0000 0.23601  0.76399  0.76399  Biso   1.000  I
  I3672    1.0000 0.26401  0.76399  0.73599  Biso   1.000  I
  I3673    1.0000 0.26401  0.73599  0.76399  Biso   1.000  I
  I3674    1.0000 0.73599  0.73599  0.23601  Biso   1.000  I
  I3675    1.0000 0.76399  0.73599  0.26401  Biso   1.000  I
  I3676    1.0000 0.76399  0.76399  0.23601  Biso   1.000  I
  I3677    1.0000 0.73599  0.76399  0.26401  Biso   1.000  I
  I3678    1.0000 0.23601  0.73599  0.73599  Biso   1.000  I
  I3679    1.0000 0.26401  0.23601  0.26401  Biso   1.000  I
  I3680    1.0000 0.76399  0.73599  0.26401  Biso   1.000  I
  I3681    1.0000 0.76399  0.76399  0.23601  Biso   1.000  I
  I3682    1.0000 0.73599  0.76399  0.26401  Biso   1.000  I
  I3683    1.0000 0.23601  0.76399  0.76399  Biso   1.000  I
  I3684    1.0000 0.23601  0.73599  0.73599  Biso   1.000  I
  I3685    1.0000 0.26401  0.76399  0.73599  Biso   1.000  I
  I3686    1.0000 0.73599  0.23601  0.73599  Biso   1.000  I
  I3687    1.0000 0.23601  0.76399  0.76399  Biso   1.000  I
  I3688    1.0000 0.26401  0.76399  0.73599  Biso   1.000  I
  I3689    1.0000 0.26401  0.73599  0.76399  Biso   1.000  I
  I3690    1.0000 0.73599  0.73599  0.23601  Biso   1.000  I
  I3691    1.0000 0.26401  0.26401  0.23601  Biso   1.000  I
  I3692    1.0000 0.23601  0.26401  0.26401  Biso   1.000  I
  I3693    1.0000 0.23601  0.23601  0.23601  Biso   1.000  I
  I3694    1.0000 0.23601  0.76399  0.76399  Biso   1.000  I
  I3695    1.0000 0.23601  0.73599  0.73599  Biso   1.000  I
  I3696    1.0000 0.26401  0.76399  0.73599  Biso   1.000  I
  I3697    1.0000 0.76399  0.73599  0.26401  Biso   1.000  I
  I3698    1.0000 0.26401  0.73599  0.76399  Biso   1.000  I
  I3699    1.0000 0.76399  0.76399  0.23601  Biso   1.000  I
  I3700    1.0000 0.73599  0.73599  0.23601  Biso   1.000  I
  I3701    1.0000 0.73599  0.76399  0.26401  Biso   1.000  I
  I3702    1.0000 0.23601  0.76399  0.76399  Biso   1.000  I
  I3703    1.0000 0.26401  0.76399  0.73599  Biso   1.000  I
  I3704    1.0000 0.26401  0.73599  0.76399  Biso   1.000  I
  I3705    1.0000 0.26401  0.26401  0.23601  Biso   1.000  I
  I3706    1.0000 0.26401  0.23601  0.26401  Biso   1.000  I
  I3707    1.0000 0.23601  0.23601  0.23601  Biso   1.000  I
  I3708    1.0000 0.76399  0.76399  0.23601  Biso   1.000  I
  I3709    1.0000 0.73599  0.73599  0.23601  Biso   1.000  I
  I3710    1.0000 0.73599  0.76399  0.26401  Biso   1.000  I
  I3711    1.0000 0.23601  0.26401  0.26401  Biso   1.000  I
  I3712    1.0000 0.73599  0.26401  0.76399  Biso   1.000  I
  I3713    1.0000 0.76399  0.23601  0.76399  Biso   1.000  I
  I3714    1.0000 0.76399  0.26401  0.73599  Biso   1.000  I
  I3715    1.0000 0.76399  0.73599  0.26401  Biso   1.000  I
  I3716    1.0000 0.76399  0.76399  0.23601  Biso   1.000  I
  I3717    1.0000 0.73599  0.73599  0.23601  Biso   1.000  I
  I3718    1.0000 0.23601  0.73599  0.73599  Biso   1.000  I
  I3719    1.0000 0.76399  0.73599  0.26401  Biso   1.000  I
  I3720    1.0000 0.76399  0.76399  0.23601  Biso   1.000  I
  I3721    1.0000 0.73599  0.76399  0.26401  Biso   1.000  I
  I3722    1.0000 0.73599  0.23601  0.73599  Biso   1.000  I
  I3723    1.0000 0.94030  0.05970  0.94030  Biso   1.000  I
  I3724    1.0000 0.94030  0.44028  0.55972  Biso   1.000  I
  I3725    1.0000 0.94030  0.94030  0.05970  Biso   1.000  I
  I3726    1.0000 0.55972  0.55972  0.05970  Biso   1.000  I
  I3727    1.0000 0.94030  0.55972  0.44028  Biso   1.000  I
  I3728    1.0000 0.94030  0.94030  0.05970  Biso   1.000  I
  I3729    1.0000 0.94030  0.55972  0.44028  Biso   1.000  I
  I3730    1.0000 0.94030  0.05970  0.94030  Biso   1.000  I
  I3731    1.0000 0.94030  0.44028  0.55972  Biso   1.000  I
  I3732    1.0000 0.55972  0.05970  0.55972  Biso   1.000  I
  I3733    1.0000 0.44028  0.05970  0.44028  Biso   1.000  I
  I3734    1.0000 0.05970  0.05970  0.05970  Biso   1.000  I
  I3735    1.0000 0.44028  0.44028  0.05970  Biso   1.000  I
  I3736    1.0000 0.94030  0.05970  0.94030  Biso   1.000  I
  I3737    1.0000 0.94030  0.44028  0.55972  Biso   1.000  I
  I3738    1.0000 0.94030  0.94030  0.05970  Biso   1.000  I
  I3739    1.0000 0.94030  0.55972  0.44028  Biso   1.000  I
  I3740    1.0000 0.05970  0.05970  0.05970  Biso   1.000  I
  I3741    1.0000 0.44028  0.05970  0.44028  Biso   1.000  I
  I3742    1.0000 0.94030  0.94030  0.05970  Biso   1.000  I
  I3743    1.0000 0.94030  0.55972  0.44028  Biso   1.000  I
  I3744    1.0000 0.94030  0.05970  0.94030  Biso   1.000  I
  I3745    1.0000 0.94030  0.44028  0.55972  Biso   1.000  I
  I3746    1.0000 0.55972  0.05970  0.55972  Biso   1.000  I
  I3747    1.0000 0.94030  0.05970  0.94030  Biso   1.000  I
  I3748    1.0000 0.94030  0.44028  0.55972  Biso   1.000  I
  I3749    1.0000 0.55972  0.44028  0.94030  Biso   1.000  I
  I3750    1.0000 0.44028  0.55972  0.94030  Biso   1.000  I
  I3751    1.0000 0.05970  0.94030  0.94030  Biso   1.000  I
  I3752    1.0000 0.55972  0.44028  0.94030  Biso   1.000  I
  I3753    1.0000 0.94030  0.05970  0.94030  Biso   1.000  I
  I3754    1.0000 0.44028  0.94030  0.55972  Biso   1.000  I
  I3755    1.0000 0.44028  0.55972  0.94030  Biso   1.000  I
  I3756    1.0000 0.05970  0.94030  0.94030  Biso   1.000  I
  I3757    1.0000 0.94030  0.94030  0.05970  Biso   1.000  I
  I3758    1.0000 0.55972  0.94030  0.44028  Biso   1.000  I
  I3759    1.0000 0.94030  0.55972  0.44028  Biso   1.000  I
  I3760    1.0000 0.44028  0.55972  0.94030  Biso   1.000  I
  I3761    1.0000 0.05970  0.94030  0.94030  Biso   1.000  I
  I3762    1.0000 0.55972  0.44028  0.94030  Biso   1.000  I
  I3763    1.0000 0.94030  0.05970  0.94030  Biso   1.000  I
  I3764    1.0000 0.55972  0.05970  0.55972  Biso   1.000  I
  I3765    1.0000 0.94030  0.05970  0.94030  Biso   1.000  I
  I3766    1.0000 0.94030  0.44028  0.55972  Biso   1.000  I
  I3767    1.0000 0.55972  0.44028  0.94030  Biso   1.000  I
  I3768    1.0000 0.44028  0.05970  0.44028  Biso   1.000  I
  I3769    1.0000 0.05970  0.44028  0.44028  Biso   1.000  I
  I3770    1.0000 0.44028  0.44028  0.05970  Biso   1.000  I
  I3771    1.0000 0.55972  0.44028  0.94030  Biso   1.000  I
  I3772    1.0000 0.94030  0.05970  0.94030  Biso   1.000  I
  I3773    1.0000 0.44028  0.55972  0.94030  Biso   1.000  I
  I3774    1.0000 0.05970  0.94030  0.94030  Biso   1.000  I
  I3775    1.0000 0.94030  0.05970  0.94030  Biso   1.000  I
  I3776    1.0000 0.94030  0.44028  0.55972  Biso   1.000  I
  I3777    1.0000 0.55972  0.44028  0.94030  Biso   1.000  I
  I3778    1.0000 0.05970  0.44028  0.44028  Biso   1.000  I
  I3779    1.0000 0.05970  0.05970  0.05970  Biso   1.000  I
  I3780    1.0000 0.44028  0.05970  0.44028  Biso   1.000  I
  I3781    1.0000 0.55972  0.44028  0.94030  Biso   1.000  I
  I3782    1.0000 0.94030  0.05970  0.94030  Biso   1.000  I
  I3783    1.0000 0.55972  0.05970  0.55972  Biso   1.000  I
  I3784    1.0000 0.05970  0.55972  0.55972  Biso   1.000  I
  I3785    1.0000 0.44028  0.55972  0.94030  Biso   1.000  I
  I3786    1.0000 0.05970  0.94030  0.94030  Biso   1.000  I
  I3787    1.0000 0.19029  0.30969  0.30969  Biso   1.000  I
  I3788    1.0000 0.19029  0.19029  0.19029  Biso   1.000  I
  I3789    1.0000 0.80971  0.19029  0.80971  Biso   1.000  I
  I3790    1.0000 0.69031  0.30969  0.80971  Biso   1.000  I
  I3791    1.0000 0.19029  0.69031  0.69031  Biso   1.000  I
  I3792    1.0000 0.30969  0.69031  0.80971  Biso   1.000  I
  I3793    1.0000 0.19029  0.80971  0.80971  Biso   1.000  I
  I3794    1.0000 0.30969  0.80971  0.69031  Biso   1.000  I
  I3795    1.0000 0.19029  0.80971  0.80971  Biso   1.000  I
  I3796    1.0000 0.69031  0.80971  0.30969  Biso   1.000  I
  I3797    1.0000 0.80971  0.80971  0.19029  Biso   1.000  I
  I3798    1.0000 0.30969  0.80971  0.69031  Biso   1.000  I
  I3799    1.0000 0.19029  0.80971  0.80971  Biso   1.000  I
  I3800    1.0000 0.80971  0.80971  0.19029  Biso   1.000  I
  I3801    1.0000 0.69031  0.80971  0.30969  Biso   1.000  I
  I3802    1.0000 0.30969  0.80971  0.69031  Biso   1.000  I
  I3803    1.0000 0.30969  0.69031  0.80971  Biso   1.000  I
  I3804    1.0000 0.19029  0.80971  0.80971  Biso   1.000  I
  I3805    1.0000 0.80971  0.80971  0.19029  Biso   1.000  I
  I3806    1.0000 0.69031  0.80971  0.30969  Biso   1.000  I
  I3807    1.0000 0.80971  0.69031  0.30969  Biso   1.000  I
  I3808    1.0000 0.80971  0.80971  0.19029  Biso   1.000  I
  I3809    1.0000 0.69031  0.80971  0.30969  Biso   1.000  I
  I3810    1.0000 0.19029  0.69031  0.69031  Biso   1.000  I
  I3811    1.0000 0.30969  0.80971  0.69031  Biso   1.000  I
  I3812    1.0000 0.19029  0.80971  0.80971  Biso   1.000  I
  I3813    1.0000 0.30969  0.80971  0.69031  Biso   1.000  I
  I3814    1.0000 0.30969  0.69031  0.80971  Biso   1.000  I
  I3815    1.0000 0.19029  0.80971  0.80971  Biso   1.000  I
  I3816    1.0000 0.19029  0.30969  0.30969  Biso   1.000  I
  I3817    1.0000 0.19029  0.19029  0.19029  Biso   1.000  I
  I3818    1.0000 0.30969  0.30969  0.19029  Biso   1.000  I
  I3819    1.0000 0.19029  0.69031  0.69031  Biso   1.000  I
  I3820    1.0000 0.30969  0.80971  0.69031  Biso   1.000  I
  I3821    1.0000 0.19029  0.80971  0.80971  Biso   1.000  I
  I3822    1.0000 0.69031  0.69031  0.19029  Biso   1.000  I
  I3823    1.0000 0.69031  0.80971  0.30969  Biso   1.000  I
  I3824    1.0000 0.80971  0.80971  0.19029  Biso   1.000  I
  I3825    1.0000 0.30969  0.80971  0.69031  Biso   1.000  I
  I3826    1.0000 0.19029  0.80971  0.80971  Biso   1.000  I
  I3827    1.0000 0.19029  0.19029  0.19029  Biso   1.000  I
  I3828    1.0000 0.30969  0.30969  0.19029  Biso   1.000  I
  I3829    1.0000 0.69031  0.69031  0.19029  Biso   1.000  I
  I3830    1.0000 0.69031  0.80971  0.30969  Biso   1.000  I
  I3831    1.0000 0.80971  0.80971  0.19029  Biso   1.000  I
  I3832    1.0000 0.80971  0.19029  0.80971  Biso   1.000  I
  I3833    1.0000 0.80971  0.30969  0.69031  Biso   1.000  I
  I3834    1.0000 0.80971  0.80971  0.19029  Biso   1.000  I
  I3835    1.0000 0.69031  0.69031  0.19029  Biso   1.000  I
  I3836    1.0000 0.80971  0.69031  0.30969  Biso   1.000  I
  I3837    1.0000 0.80971  0.80971  0.19029  Biso   1.000  I
  I3838    1.0000 0.69031  0.80971  0.30969  Biso   1.000  I
  I3839    1.0000 0.80971  0.69031  0.30969  Biso   1.000  I
  I3840    1.0000 0.98598  0.98598  0.01402  Biso   1.000  I
  I3841    1.0000 0.98598  0.51400  0.48600  Biso   1.000  I
  I3842    1.0000 0.48600  0.48600  0.01402  Biso   1.000  I
  I3843    1.0000 0.98598  0.48600  0.51400  Biso   1.000  I
  I3844    1.0000 0.98598  0.01402  0.98598  Biso   1.000  I
  I3845    1.0000 0.98598  0.48600  0.51400  Biso   1.000  I
  I3846    1.0000 0.98598  0.51400  0.48600  Biso   1.000  I
  I3847    1.0000 0.48600  0.01402  0.48600  Biso   1.000  I
  I3848    1.0000 0.51400  0.01402  0.51400  Biso   1.000  I
  I3849    1.0000 0.51400  0.51400  0.01402  Biso   1.000  I
  I3850    1.0000 0.98598  0.98598  0.01402  Biso   1.000  I
  I3851    1.0000 0.98598  0.51400  0.48600  Biso   1.000  I
  I3852    1.0000 0.98598  0.01402  0.98598  Biso   1.000  I
  I3853    1.0000 0.98598  0.48600  0.51400  Biso   1.000  I
  I3854    1.0000 0.98598  0.01402  0.98598  Biso   1.000  I
  I3855    1.0000 0.51400  0.01402  0.51400  Biso   1.000  I
  I3856    1.0000 0.98598  0.01402  0.98598  Biso   1.000  I
  I3857    1.0000 0.98598  0.48600  0.51400  Biso   1.000  I
  I3858    1.0000 0.98598  0.51400  0.48600  Biso   1.000  I
  I3859    1.0000 0.48600  0.01402  0.48600  Biso   1.000  I
  I3860    1.0000 0.98598  0.51400  0.48600  Biso   1.000  I
  I3861    1.0000 0.48600  0.51400  0.98598  Biso   1.000  I
  I3862    1.0000 0.51400  0.48600  0.98598  Biso   1.000  I
  I3863    1.0000 0.98598  0.01402  0.98598  Biso   1.000  I
  I3864    1.0000 0.48600  0.51400  0.98598  Biso   1.000  I
  I3865    1.0000 0.01402  0.98598  0.98598  Biso   1.000  I
  I3866    1.0000 0.51400  0.98598  0.48600  Biso   1.000  I
  I3867    1.0000 0.48600  0.01402  0.48600  Biso   1.000  I
  I3868    1.0000 0.51400  0.01402  0.51400  Biso   1.000  I
  I3869    1.0000 0.51400  0.48600  0.98598  Biso   1.000  I
  I3870    1.0000 0.98598  0.01402  0.98598  Biso   1.000  I
  I3871    1.0000 0.98598  0.01402  0.98598  Biso   1.000  I
  I3872    1.0000 0.48600  0.98598  0.51400  Biso   1.000  I
  I3873    1.0000 0.98598  0.48600  0.51400  Biso   1.000  I
  I3874    1.0000 0.51400  0.48600  0.98598  Biso   1.000  I
  I3875    1.0000 0.98598  0.01402  0.98598  Biso   1.000  I
  I3876    1.0000 0.48600  0.51400  0.98598  Biso   1.000  I
  I3877    1.0000 0.48600  0.01402  0.48600  Biso   1.000  I
  I3878    1.0000 0.98598  0.98598  0.01402  Biso   1.000  I
  I3879    1.0000 0.98598  0.51400  0.48600  Biso   1.000  I
  I3880    1.0000 0.48600  0.51400  0.98598  Biso   1.000  I
  I3881    1.0000 0.48600  0.48600  0.01402  Biso   1.000  I
  I3882    1.0000 0.51400  0.51400  0.01402  Biso   1.000  I
  I3883    1.0000 0.98598  0.51400  0.48600  Biso   1.000  I
  I3884    1.0000 0.98598  0.48600  0.51400  Biso   1.000  I
  I3885    1.0000 0.01402  0.51400  0.51400  Biso   1.000  I
  I3886    1.0000 0.51400  0.48600  0.98598  Biso   1.000  I
  I3887    1.0000 0.48600  0.51400  0.98598  Biso   1.000  I
  I3888    1.0000 0.01402  0.98598  0.98598  Biso   1.000  I
  I3889    1.0000 0.51400  0.48600  0.98598  Biso   1.000  I
  I3890    1.0000 0.98598  0.01402  0.98598  Biso   1.000  I
  I3891    1.0000 0.01402  0.98598  0.98598  Biso   1.000  I
  I3892    1.0000 0.01402  0.48600  0.48600  Biso   1.000  I
  I3893    1.0000 0.48600  0.51400  0.98598  Biso   1.000  I
  I3894    1.0000 0.01402  0.51400  0.51400  Biso   1.000  I
  I3895    1.0000 0.51400  0.01402  0.51400  Biso   1.000  I
  I3896    1.0000 0.48600  0.51400  0.98598  Biso   1.000  I
  I3897    1.0000 0.48600  0.01402  0.48600  Biso   1.000  I
  I3898    1.0000 0.01402  0.48600  0.48600  Biso   1.000  I
  I3899    1.0000 0.51400  0.48600  0.98598  Biso   1.000  I
  I3900    1.0000 0.12502  0.37501  0.37501  Biso   1.000  I
  I3901    1.0000 0.12502  0.12502  0.12502  Biso   1.000  I
  I3902    1.0000 0.87498  0.12502  0.87498  Biso   1.000  I
  I3903    1.0000 0.62499  0.37501  0.87498  Biso   1.000  I
  I3904    1.0000 0.12502  0.62499  0.62499  Biso   1.000  I
  I3905    1.0000 0.26401  0.76399  0.73599  Biso   1.000  I
  I3906    1.0000 0.37501  0.62499  0.87498  Biso   1.000  I
  I3907    1.0000 0.12502  0.87498  0.87498  Biso   1.000  I
  I3908    1.0000 0.37501  0.87498  0.62499  Biso   1.000  I
  I3909    1.0000 0.12502  0.87498  0.87498  Biso   1.000  I
  I3910    1.0000 0.62499  0.87498  0.37501  Biso   1.000  I
  I3911    1.0000 0.87498  0.87498  0.12502  Biso   1.000  I
  I3912    1.0000 0.37501  0.87498  0.62499  Biso   1.000  I
  I3913    1.0000 0.12502  0.87498  0.87498  Biso   1.000  I
  I3914    1.0000 0.87498  0.87498  0.12502  Biso   1.000  I
  I3915    1.0000 0.62499  0.87498  0.37501  Biso   1.000  I
  I3916    1.0000 0.37501  0.87498  0.62499  Biso   1.000  I
  I3917    1.0000 0.23601  0.73599  0.73599  Biso   1.000  I
  I3918    1.0000 0.37501  0.62499  0.87498  Biso   1.000  I
  I3919    1.0000 0.12502  0.87498  0.87498  Biso   1.000  I
  I3920    1.0000 0.87498  0.87498  0.12502  Biso   1.000  I
  I3921    1.0000 0.73599  0.73599  0.23601  Biso   1.000  I
  I3922    1.0000 0.62499  0.87498  0.37501  Biso   1.000  I
  I3923    1.0000 0.87498  0.62499  0.37501  Biso   1.000  I
  I3924    1.0000 0.87498  0.87498  0.12502  Biso   1.000  I
  I3925    1.0000 0.62499  0.87498  0.37501  Biso   1.000  I
  I3926    1.0000 0.12502  0.62499  0.62499  Biso   1.000  I
  I3927    1.0000 0.26401  0.73599  0.76399  Biso   1.000  I
  I3928    1.0000 0.37501  0.87498  0.62499  Biso   1.000  I
  I3929    1.0000 0.12502  0.87498  0.87498  Biso   1.000  I
  I3930    1.0000 0.37501  0.87498  0.62499  Biso   1.000  I
  I3931    1.0000 0.23601  0.73599  0.73599  Biso   1.000  I
  I3932    1.0000 0.37501  0.62499  0.87498  Biso   1.000  I
  I3933    1.0000 0.12502  0.87498  0.87498  Biso   1.000  I
  I3934    1.0000 0.12502  0.37501  0.37501  Biso   1.000  I
  I3935    1.0000 0.26401  0.23601  0.26401  Biso   1.000  I
  I3936    1.0000 0.12502  0.12502  0.12502  Biso   1.000  I
  I3937    1.0000 0.37501  0.37501  0.12502  Biso   1.000  I
  I3938    1.0000 0.12502  0.62499  0.62499  Biso   1.000  I
  I3939    1.0000 0.26401  0.73599  0.76399  Biso   1.000  I
  I3940    1.0000 0.37501  0.87498  0.62499  Biso   1.000  I
  I3941    1.0000 0.12502  0.87498  0.87498  Biso   1.000  I
  I3942    1.0000 0.62499  0.62499  0.12502  Biso   1.000  I
  I3943    1.0000 0.76399  0.73599  0.26401  Biso   1.000  I
  I3944    1.0000 0.62499  0.87498  0.37501  Biso   1.000  I
  I3945    1.0000 0.87498  0.87498  0.12502  Biso   1.000  I
  I3946    1.0000 0.37501  0.87498  0.62499  Biso   1.000  I
  I3947    1.0000 0.12502  0.87498  0.87498  Biso   1.000  I
  I3948    1.0000 0.12502  0.12502  0.12502  Biso   1.000  I
  I3949    1.0000 0.37501  0.37501  0.12502  Biso   1.000  I
  I3950    1.0000 0.62499  0.62499  0.12502  Biso   1.000  I
  I3951    1.0000 0.76399  0.73599  0.26401  Biso   1.000  I
  I3952    1.0000 0.62499  0.87498  0.37501  Biso   1.000  I
  I3953    1.0000 0.87498  0.87498  0.12502  Biso   1.000  I
  I3954    1.0000 0.87498  0.12502  0.87498  Biso   1.000  I
  I3955    1.0000 0.87498  0.37501  0.62499  Biso   1.000  I
  I3956    1.0000 0.87498  0.87498  0.12502  Biso   1.000  I
  I3957    1.0000 0.73599  0.76399  0.26401  Biso   1.000  I
  I3958    1.0000 0.62499  0.62499  0.12502  Biso   1.000  I
  I3959    1.0000 0.87498  0.62499  0.37501  Biso   1.000  I
  I3960    1.0000 0.87498  0.87498  0.12502  Biso   1.000  I
  I3961    1.0000 0.73599  0.73599  0.23601  Biso   1.000  I
  I3962    1.0000 0.62499  0.87498  0.37501  Biso   1.000  I
  I3963    1.0000 0.87498  0.62499  0.37501  Biso   1.000  I
  I3964    1.0000 0.55972  0.05970  0.55972  Biso   1.000  I
  I3965    1.0000 0.55972  0.55972  0.05970  Biso   1.000  I
  I3966    1.0000 0.44028  0.55972  0.94030  Biso   1.000  I
  I3967    1.0000 0.05970  0.55972  0.55972  Biso   1.000  I
  I3968    1.0000 0.94030  0.55972  0.44028  Biso   1.000  I
  I3969    1.0000 0.05970  0.44028  0.44028  Biso   1.000  I
  I3970    1.0000 0.05970  0.05970  0.05970  Biso   1.000  I
  I3971    1.0000 0.94030  0.05970  0.94030  Biso   1.000  I
  I3972    1.0000 0.55972  0.44028  0.94030  Biso   1.000  I
  I3973    1.0000 0.05970  0.55972  0.55972  Biso   1.000  I
  I3974    1.0000 0.44028  0.55972  0.94030  Biso   1.000  I
  I3975    1.0000 0.05970  0.94030  0.94030  Biso   1.000  I
  I3976    1.0000 0.44028  0.94030  0.55972  Biso   1.000  I
  I3977    1.0000 0.05970  0.94030  0.94030  Biso   1.000  I
  I3978    1.0000 0.55972  0.94030  0.44028  Biso   1.000  I
  I3979    1.0000 0.94030  0.94030  0.05970  Biso   1.000  I
  I3980    1.0000 0.44028  0.94030  0.55972  Biso   1.000  I
  I3981    1.0000 0.05970  0.94030  0.94030  Biso   1.000  I
  I3982    1.0000 0.94030  0.94030  0.05970  Biso   1.000  I
  I3983    1.0000 0.55972  0.94030  0.44028  Biso   1.000  I
  I3984    1.0000 0.44028  0.94030  0.55972  Biso   1.000  I
  I3985    1.0000 0.05970  0.94030  0.94030  Biso   1.000  I
  I3986    1.0000 0.94030  0.94030  0.05970  Biso   1.000  I
  I3987    1.0000 0.55972  0.94030  0.44028  Biso   1.000  I
  I3988    1.0000 0.94030  0.94030  0.05970  Biso   1.000  I
  I3989    1.0000 0.55972  0.94030  0.44028  Biso   1.000  I
  I3990    1.0000 0.05970  0.55972  0.55972  Biso   1.000  I
  I3991    1.0000 0.44028  0.94030  0.55972  Biso   1.000  I
  I3992    1.0000 0.05970  0.94030  0.94030  Biso   1.000  I
  I3993    1.0000 0.44028  0.94030  0.55972  Biso   1.000  I
  I3994    1.0000 0.44028  0.55972  0.94030  Biso   1.000  I
  I3995    1.0000 0.05970  0.94030  0.94030  Biso   1.000  I
  I3996    1.0000 0.05970  0.44028  0.44028  Biso   1.000  I
  I3997    1.0000 0.05970  0.05970  0.05970  Biso   1.000  I
  I3998    1.0000 0.44028  0.44028  0.05970  Biso   1.000  I
  I3999    1.0000 0.05970  0.55972  0.55972  Biso   1.000  I
  I4000    1.0000 0.44028  0.94030  0.55972  Biso   1.000  I
  I4001    1.0000 0.05970  0.94030  0.94030  Biso   1.000  I
  I4002    1.0000 0.55972  0.55972  0.05970  Biso   1.000  I
  I4003    1.0000 0.55972  0.94030  0.44028  Biso   1.000  I
  I4004    1.0000 0.94030  0.94030  0.05970  Biso   1.000  I
  I4005    1.0000 0.44028  0.94030  0.55972  Biso   1.000  I
  I4006    1.0000 0.05970  0.94030  0.94030  Biso   1.000  I
  I4007    1.0000 0.05970  0.05970  0.05970  Biso   1.000  I
  I4008    1.0000 0.44028  0.44028  0.05970  Biso   1.000  I
  I4009    1.0000 0.55972  0.55972  0.05970  Biso   1.000  I
  I4010    1.0000 0.55972  0.94030  0.44028  Biso   1.000  I
  I4011    1.0000 0.94030  0.94030  0.05970  Biso   1.000  I
  I4012    1.0000 0.94030  0.05970  0.94030  Biso   1.000  I
  I4013    1.0000 0.94030  0.44028  0.55972  Biso   1.000  I
  I4014    1.0000 0.94030  0.94030  0.05970  Biso   1.000  I
  I4015    1.0000 0.55972  0.55972  0.05970  Biso   1.000  I
  I4016    1.0000 0.94030  0.55972  0.44028  Biso   1.000  I
  I4017    1.0000 0.94030  0.94030  0.05970  Biso   1.000  I
  I4018    1.0000 0.55972  0.94030  0.44028  Biso   1.000  I
  I4019    1.0000 0.94030  0.55972  0.44028  Biso   1.000  I
  I4020    1.0000 0.62499  0.12502  0.62499  Biso   1.000  I
  I4021    1.0000 0.62499  0.62499  0.12502  Biso   1.000  I
  I4022    1.0000 0.12502  0.62499  0.62499  Biso   1.000  I
  I4023    1.0000 0.01402  0.51400  0.51400  Biso   1.000  I
  I4024    1.0000 0.01402  0.98598  0.98598  Biso   1.000  I
  I4025    1.0000 0.01402  0.98598  0.98598  Biso   1.000  I
  I4026    1.0000 0.48600  0.51400  0.98598  Biso   1.000  I
  I4027    1.0000 0.01402  0.48600  0.48600  Biso   1.000  I
  I4028    1.0000 0.51400  0.48600  0.98598  Biso   1.000  I
  I4029    1.0000 0.51400  0.98598  0.48600  Biso   1.000  I
  I4030    1.0000 0.98598  0.98598  0.01402  Biso   1.000  I
  I4031    1.0000 0.48600  0.98598  0.51400  Biso   1.000  I
  I4032    1.0000 0.01402  0.98598  0.98598  Biso   1.000  I
  I4033    1.0000 0.51400  0.98598  0.48600  Biso   1.000  I
  I4034    1.0000 0.98598  0.98598  0.01402  Biso   1.000  I
  I4035    1.0000 0.01402  0.98598  0.98598  Biso   1.000  I
  I4036    1.0000 0.48600  0.98598  0.51400  Biso   1.000  I
  I4037    1.0000 0.51400  0.98598  0.48600  Biso   1.000  I
  I4038    1.0000 0.98598  0.98598  0.01402  Biso   1.000  I
  I4039    1.0000 0.01402  0.98598  0.98598  Biso   1.000  I
  I4040    1.0000 0.48600  0.98598  0.51400  Biso   1.000  I
  I4041    1.0000 0.01402  0.98598  0.98598  Biso   1.000  I
  I4042    1.0000 0.48600  0.98598  0.51400  Biso   1.000  I
  I4043    1.0000 0.01402  0.48600  0.48600  Biso   1.000  I
  I4044    1.0000 0.51400  0.98598  0.48600  Biso   1.000  I
  I4045    1.0000 0.51400  0.98598  0.48600  Biso   1.000  I
  I4046    1.0000 0.51400  0.48600  0.98598  Biso   1.000  I
  I4047    1.0000 0.01402  0.51400  0.51400  Biso   1.000  I
  I4048    1.0000 0.51400  0.51400  0.01402  Biso   1.000  I
  I4049    1.0000 0.01402  0.48600  0.48600  Biso   1.000  I
  I4050    1.0000 0.51400  0.98598  0.48600  Biso   1.000  I
  I4051    1.0000 0.48600  0.48600  0.01402  Biso   1.000  I
  I4052    1.0000 0.48600  0.98598  0.51400  Biso   1.000  I
  I4053    1.0000 0.51400  0.98598  0.48600  Biso   1.000  I
  I4054    1.0000 0.98598  0.98598  0.01402  Biso   1.000  I
  I4055    1.0000 0.98598  0.98598  0.01402  Biso   1.000  I
  I4056    1.0000 0.51400  0.51400  0.01402  Biso   1.000  I
  I4057    1.0000 0.48600  0.48600  0.01402  Biso   1.000  I
  I4058    1.0000 0.48600  0.98598  0.51400  Biso   1.000  I
  I4059    1.0000 0.98598  0.98598  0.01402  Biso   1.000  I
  I4060    1.0000 0.98598  0.51400  0.48600  Biso   1.000  I
  I4061    1.0000 0.48600  0.48600  0.01402  Biso   1.000  I
  I4062    1.0000 0.98598  0.48600  0.51400  Biso   1.000  I
  I4063    1.0000 0.48600  0.98598  0.51400  Biso   1.000  I
  I4064    1.0000 0.98598  0.48600  0.51400  Biso   1.000  I
  I4065    1.0000 0.69031  0.19029  0.69031  Biso   1.000  I
  I4066    1.0000 0.69031  0.69031  0.19029  Biso   1.000  I
  I4067    1.0000 0.19029  0.69031  0.69031  Biso   1.000  I
  I4068    1.0000 0.73599  0.26401  0.76399  Biso   1.000  I
  I4069    1.0000 0.76399  0.23601  0.76399  Biso   1.000  I
  I4070    1.0000 0.76399  0.26401  0.73599  Biso   1.000  I
  I4071    1.0000 0.76399  0.73599  0.26401  Biso   1.000  I
  I4072    1.0000 0.76399  0.76399  0.23601  Biso   1.000  I
  I4073    1.0000 0.73599  0.76399  0.26401  Biso   1.000  I
  I4074    1.0000 0.23601  0.76399  0.76399  Biso   1.000  I
  I4075    1.0000 0.26401  0.76399  0.73599  Biso   1.000  I
  I4076    1.0000 0.26401  0.73599  0.76399  Biso   1.000  I
  I4077    1.0000 0.80971  0.19029  0.80971  Biso   1.000  I
  I4078    1.0000 0.80971  0.30969  0.69031  Biso   1.000  I
  I4079    1.0000 0.69031  0.30969  0.80971  Biso   1.000  I
  I4080    1.0000 0.80971  0.80971  0.19029  Biso   1.000  I
  I4081    1.0000 0.69031  0.80971  0.30969  Biso   1.000  I
  I4082    1.0000 0.80971  0.69031  0.30969  Biso   1.000  I
  I4083    1.0000 0.30969  0.80971  0.69031  Biso   1.000  I
  I4084    1.0000 0.30969  0.69031  0.80971  Biso   1.000  I
  I4085    1.0000 0.19029  0.80971  0.80971  Biso   1.000  I
  I4086    1.0000 0.87498  0.12502  0.87498  Biso   1.000  I
  I4087    1.0000 0.73599  0.23601  0.73599  Biso   1.000  I
  I4088    1.0000 0.87498  0.37501  0.62499  Biso   1.000  I
  I4089    1.0000 0.62499  0.37501  0.87498  Biso   1.000  I
  I4090    1.0000 0.87498  0.87498  0.12502  Biso   1.000  I
  I4091    1.0000 0.73599  0.73599  0.23601  Biso   1.000  I
  I4092    1.0000 0.62499  0.87498  0.37501  Biso   1.000  I
  I4093    1.0000 0.87498  0.62499  0.37501  Biso   1.000  I
  I4094    1.0000 0.37501  0.87498  0.62499  Biso   1.000  I
  I4095    1.0000 0.23601  0.73599  0.73599  Biso   1.000  I
  I4096    1.0000 0.37501  0.62499  0.87498  Biso   1.000  I
  I4097    1.0000 0.12502  0.87498  0.87498  Biso   1.000  I
  I4098    1.0000 0.94030  0.05970  0.94030  Biso   1.000  I
  I4099    1.0000 0.94030  0.44028  0.55972  Biso   1.000  I
  I4100    1.0000 0.55972  0.44028  0.94030  Biso   1.000  I
  I4101    1.0000 0.94030  0.94030  0.05970  Biso   1.000  I
  I4102    1.0000 0.55972  0.94030  0.44028  Biso   1.000  I
  I4103    1.0000 0.94030  0.55972  0.44028  Biso   1.000  I
  I4104    1.0000 0.44028  0.94030  0.55972  Biso   1.000  I
  I4105    1.0000 0.44028  0.55972  0.94030  Biso   1.000  I
  I4106    1.0000 0.05970  0.94030  0.94030  Biso   1.000  I
  I4107    1.0000 0.98598  0.51400  0.48600  Biso   1.000  I
  I4108    1.0000 0.48600  0.51400  0.98598  Biso   1.000  I
  I4109    1.0000 0.48600  0.98598  0.51400  Biso   1.000  I
  I4110    1.0000 0.98598  0.48600  0.51400  Biso   1.000  I
  I4111    1.0000 0.51400  0.98598  0.48600  Biso   1.000  I
  I4112    1.0000 0.51400  0.48600  0.98598  Biso   1.000  I
  I4113    1.0000 0.30969  0.19029  0.30969  Biso   1.000  I
  I4114    1.0000 0.37501  0.12502  0.37501  Biso   1.000  I
  I4115    1.0000 0.26401  0.26401  0.23601  Biso   1.000  I
  I4116    1.0000 0.23601  0.26401  0.26401  Biso   1.000  I
  I4117    1.0000 0.23601  0.23601  0.23601  Biso   1.000  I
  I4118    1.0000 0.44028  0.05970  0.44028  Biso   1.000  I
  I4119    1.0000 0.19029  0.30969  0.30969  Biso   1.000  I
  I4120    1.0000 0.19029  0.19029  0.19029  Biso   1.000  I
  I4121    1.0000 0.30969  0.30969  0.19029  Biso   1.000  I
  I4122    1.0000 0.48600  0.98598  0.51400  Biso   1.000  I
  I4123    1.0000 0.51400  0.98598  0.48600  Biso   1.000  I
  I4124    1.0000 0.51400  0.01402  0.51400  Biso   1.000  I
  I4125    1.0000 0.12502  0.37501  0.37501  Biso   1.000  I
  I4126    1.0000 0.26401  0.23601  0.26401  Biso   1.000  I
  I4127    1.0000 0.12502  0.12502  0.12502  Biso   1.000  I
  I4128    1.0000 0.37501  0.37501  0.12502  Biso   1.000  I
  I4129    1.0000 0.55972  0.94030  0.44028  Biso   1.000  I
  I4130    1.0000 0.55972  0.05970  0.55972  Biso   1.000  I
  I4131    1.0000 0.44028  0.94030  0.55972  Biso   1.000  I
  I4132    1.0000 0.05970  0.44028  0.44028  Biso   1.000  I
  I4133    1.0000 0.05970  0.05970  0.05970  Biso   1.000  I
  I4134    1.0000 0.44028  0.44028  0.05970  Biso   1.000  I
  I4135    1.0000 0.62499  0.87498  0.37501  Biso   1.000  I
  I4136    1.0000 0.48600  0.01402  0.48600  Biso   1.000  I
  I4137    1.0000 0.62499  0.12502  0.62499  Biso   1.000  I
  I4138    1.0000 0.37501  0.87498  0.62499  Biso   1.000  I
  I4139    1.0000 0.98598  0.51400  0.48600  Biso   1.000  I
  I4140    1.0000 0.98598  0.48600  0.51400  Biso   1.000  I
  I4141    1.0000 0.01402  0.51400  0.51400  Biso   1.000  I
  I4142    1.0000 0.98598  0.98598  0.01402  Biso   1.000  I
  I4143    1.0000 0.98598  0.01402  0.98598  Biso   1.000  I
  I4144    1.0000 0.01402  0.98598  0.98598  Biso   1.000  I
  I4145    1.0000 0.51400  0.48600  0.98598  Biso   1.000  I
  I4146    1.0000 0.48600  0.51400  0.98598  Biso   1.000  I
  I4147    1.0000 0.51400  0.51400  0.01402  Biso   1.000  I
  I4148    1.0000 0.69031  0.80971  0.30969  Biso   1.000  I
  I4149    1.0000 0.69031  0.19029  0.69031  Biso   1.000  I
  I4150    1.0000 0.30969  0.80971  0.69031  Biso   1.000  I
  I4151    1.0000 0.94030  0.44028  0.55972  Biso   1.000  I
  I4152    1.0000 0.05970  0.55972  0.55972  Biso   1.000  I
  I4153    1.0000 0.94030  0.55972  0.44028  Biso   1.000  I
  I4154    1.0000 0.94030  0.05970  0.94030  Biso   1.000  I
  I4155    1.0000 0.05970  0.94030  0.94030  Biso   1.000  I
  I4156    1.0000 0.94030  0.94030  0.05970  Biso   1.000  I
  I4157    1.0000 0.44028  0.55972  0.94030  Biso   1.000  I
  I4158    1.0000 0.55972  0.55972  0.05970  Biso   1.000  I
  I4159    1.0000 0.55972  0.44028  0.94030  Biso   1.000  I
  I4160    1.0000 0.76399  0.73599  0.26401  Biso   1.000  I
  I4161    1.0000 0.76399  0.76399  0.23601  Biso   1.000  I
  I4162    1.0000 0.73599  0.73599  0.23601  Biso   1.000  I
  I4163    1.0000 0.73599  0.26401  0.76399  Biso   1.000  I
  I4164    1.0000 0.76399  0.23601  0.76399  Biso   1.000  I
  I4165    1.0000 0.76399  0.26401  0.73599  Biso   1.000  I
  I4166    1.0000 0.23601  0.76399  0.76399  Biso   1.000  I
  I4167    1.0000 0.23601  0.73599  0.73599  Biso   1.000  I
  I4168    1.0000 0.26401  0.73599  0.76399  Biso   1.000  I
  I4169    1.0000 0.87498  0.37501  0.62499  Biso   1.000  I
  I4170    1.0000 0.01402  0.48600  0.48600  Biso   1.000  I
  I4171    1.0000 0.12502  0.62499  0.62499  Biso   1.000  I
  I4172    1.0000 0.87498  0.62499  0.37501  Biso   1.000  I
  I4173    1.0000 0.87498  0.12502  0.87498  Biso   1.000  I
  I4174    1.0000 0.01402  0.01402  0.01402  Biso   1.000  I
  I4175    1.0000 0.12502  0.87498  0.87498  Biso   1.000  I
  I4176    1.0000 0.87498  0.87498  0.12502  Biso   1.000  I
  I4177    1.0000 0.37501  0.62499  0.87498  Biso   1.000  I
  I4178    1.0000 0.48600  0.48600  0.01402  Biso   1.000  I
  I4179    1.0000 0.62499  0.62499  0.12502  Biso   1.000  I
  I4180    1.0000 0.62499  0.37501  0.87498  Biso   1.000  I
  I4181    1.0000 0.80971  0.80971  0.19029  Biso   1.000  I
  I4182    1.0000 0.69031  0.69031  0.19029  Biso   1.000  I
  I4183    1.0000 0.80971  0.69031  0.30969  Biso   1.000  I
  I4184    1.0000 0.80971  0.19029  0.80971  Biso   1.000  I
  I4185    1.0000 0.80971  0.30969  0.69031  Biso   1.000  I
  I4186    1.0000 0.69031  0.30969  0.80971  Biso   1.000  I
  I4187    1.0000 0.19029  0.69031  0.69031  Biso   1.000  I
  I4188    1.0000 0.30969  0.69031  0.80971  Biso   1.000  I
  I4189    1.0000 0.19029  0.80971  0.80971  Biso   1.000  I
  I4190    1.0000 0.80971  0.30969  0.69031  Biso   1.000  I
  I4191    1.0000 0.19029  0.69031  0.69031  Biso   1.000  I
  I4192    1.0000 0.80971  0.69031  0.30969  Biso   1.000  I
  I4193    1.0000 0.80971  0.19029  0.80971  Biso   1.000  I
  I4194    1.0000 0.19029  0.80971  0.80971  Biso   1.000  I
  I4195    1.0000 0.80971  0.80971  0.19029  Biso   1.000  I
  I4196    1.0000 0.30969  0.69031  0.80971  Biso   1.000  I
  I4197    1.0000 0.69031  0.69031  0.19029  Biso   1.000  I
  I4198    1.0000 0.69031  0.30969  0.80971  Biso   1.000  I
  I4199    1.0000 0.87498  0.87498  0.12502  Biso   1.000  I
  I4200    1.0000 0.73599  0.76399  0.26401  Biso   1.000  I
  I4201    1.0000 0.62499  0.62499  0.12502  Biso   1.000  I
  I4202    1.0000 0.87498  0.62499  0.37501  Biso   1.000  I
  I4203    1.0000 0.87498  0.12502  0.87498  Biso   1.000  I
  I4204    1.0000 0.73599  0.23601  0.73599  Biso   1.000  I
  I4205    1.0000 0.87498  0.37501  0.62499  Biso   1.000  I
  I4206    1.0000 0.62499  0.37501  0.87498  Biso   1.000  I
  I4207    1.0000 0.12502  0.62499  0.62499  Biso   1.000  I
  I4208    1.0000 0.26401  0.76399  0.73599  Biso   1.000  I
  I4209    1.0000 0.37501  0.62499  0.87498  Biso   1.000  I
  I4210    1.0000 0.12502  0.87498  0.87498  Biso   1.000  I
  I4211    1.0000 0.73599  0.23601  0.73599  Biso   1.000  I
  I4212    1.0000 0.73599  0.26401  0.76399  Biso   1.000  I
  I4213    1.0000 0.76399  0.23601  0.76399  Biso   1.000  I
  I4214    1.0000 0.23601  0.76399  0.76399  Biso   1.000  I
  I4215    1.0000 0.26401  0.76399  0.73599  Biso   1.000  I
  I4216    1.0000 0.26401  0.73599  0.76399  Biso   1.000  I
  I4217    1.0000 0.76399  0.76399  0.23601  Biso   1.000  I
  I4218    1.0000 0.73599  0.73599  0.23601  Biso   1.000  I
  I4219    1.0000 0.73599  0.76399  0.26401  Biso   1.000  I
  I4220    1.0000 0.73599  0.23601  0.73599  Biso   1.000  I
  I4221    1.0000 0.73599  0.26401  0.76399  Biso   1.000  I
  I4222    1.0000 0.76399  0.26401  0.73599  Biso   1.000  I
  I4223    1.0000 0.23601  0.73599  0.73599  Biso   1.000  I
  I4224    1.0000 0.26401  0.76399  0.73599  Biso   1.000  I
  I4225    1.0000 0.26401  0.73599  0.76399  Biso   1.000  I
  I4226    1.0000 0.76399  0.73599  0.26401  Biso   1.000  I
  I4227    1.0000 0.73599  0.73599  0.23601  Biso   1.000  I
  I4228    1.0000 0.73599  0.76399  0.26401  Biso   1.000  I
  I4229    1.0000 0.23601  0.76399  0.76399  Biso   1.000  I
  I4230    1.0000 0.23601  0.73599  0.73599  Biso   1.000  I
  I4231    1.0000 0.26401  0.76399  0.73599  Biso   1.000  I
  I4232    1.0000 0.76399  0.73599  0.26401  Biso   1.000  I
  I4233    1.0000 0.76399  0.76399  0.23601  Biso   1.000  I
  I4234    1.0000 0.73599  0.76399  0.26401  Biso   1.000  I
  I4235    1.0000 0.73599  0.23601  0.73599  Biso   1.000  I
  I4236    1.0000 0.76399  0.23601  0.76399  Biso   1.000  I
  I4237    1.0000 0.76399  0.26401  0.73599  Biso   1.000  I
  I4238    1.0000 0.94030  0.94030  0.05970  Biso   1.000  I
  I4239    1.0000 0.55972  0.55972  0.05970  Biso   1.000  I
  I4240    1.0000 0.94030  0.55972  0.44028  Biso   1.000  I
  I4241    1.0000 0.94030  0.05970  0.94030  Biso   1.000  I
  I4242    1.0000 0.94030  0.44028  0.55972  Biso   1.000  I
  I4243    1.0000 0.55972  0.44028  0.94030  Biso   1.000  I
  I4244    1.0000 0.05970  0.55972  0.55972  Biso   1.000  I
  I4245    1.0000 0.44028  0.55972  0.94030  Biso   1.000  I
  I4246    1.0000 0.05970  0.94030  0.94030  Biso   1.000  I
  I4247    1.0000 0.69031  0.30969  0.80971  Biso   1.000  I
  I4248    1.0000 0.80971  0.19029  0.80971  Biso   1.000  I
  I4249    1.0000 0.69031  0.19029  0.69031  Biso   1.000  I
  I4250    1.0000 0.30969  0.80971  0.69031  Biso   1.000  I
  I4251    1.0000 0.30969  0.69031  0.80971  Biso   1.000  I
  I4252    1.0000 0.19029  0.80971  0.80971  Biso   1.000  I
  I4253    1.0000 0.69031  0.69031  0.19029  Biso   1.000  I
  I4254    1.0000 0.69031  0.80971  0.30969  Biso   1.000  I
  I4255    1.0000 0.80971  0.80971  0.19029  Biso   1.000  I
  I4256    1.0000 0.69031  0.30969  0.80971  Biso   1.000  I
  I4257    1.0000 0.80971  0.30969  0.69031  Biso   1.000  I
  I4258    1.0000 0.69031  0.19029  0.69031  Biso   1.000  I
  I4259    1.0000 0.30969  0.80971  0.69031  Biso   1.000  I
  I4260    1.0000 0.30969  0.69031  0.80971  Biso   1.000  I
  I4261    1.0000 0.19029  0.69031  0.69031  Biso   1.000  I
  I4262    1.0000 0.69031  0.69031  0.19029  Biso   1.000  I
  I4263    1.0000 0.69031  0.80971  0.30969  Biso   1.000  I
  I4264    1.0000 0.80971  0.69031  0.30969  Biso   1.000  I
  I4265    1.0000 0.19029  0.69031  0.69031  Biso   1.000  I
  I4266    1.0000 0.30969  0.80971  0.69031  Biso   1.000  I
  I4267    1.0000 0.19029  0.80971  0.80971  Biso   1.000  I
  I4268    1.0000 0.80971  0.80971  0.19029  Biso   1.000  I
  I4269    1.0000 0.69031  0.80971  0.30969  Biso   1.000  I
  I4270    1.0000 0.80971  0.69031  0.30969  Biso   1.000  I
  I4271    1.0000 0.80971  0.19029  0.80971  Biso   1.000  I
  I4272    1.0000 0.80971  0.30969  0.69031  Biso   1.000  I
  I4273    1.0000 0.69031  0.19029  0.69031  Biso   1.000  I
  I4274    1.0000 0.98598  0.01402  0.98598  Biso   1.000  I
  I4275    1.0000 0.01402  0.98598  0.98598  Biso   1.000  I
  I4276    1.0000 0.01402  0.01402  0.01402  Biso   1.000  I
  I4277    1.0000 0.51400  0.48600  0.98598  Biso   1.000  I
  I4278    1.0000 0.48600  0.51400  0.98598  Biso   1.000  I
  I4279    1.0000 0.48600  0.48600  0.01402  Biso   1.000  I
  I4280    1.0000 0.98598  0.48600  0.51400  Biso   1.000  I
  I4281    1.0000 0.01402  0.51400  0.51400  Biso   1.000  I
  I4282    1.0000 0.01402  0.48600  0.48600  Biso   1.000  I
  I4283    1.0000 0.98598  0.98598  0.01402  Biso   1.000  I
  I4284    1.0000 0.01402  0.98598  0.98598  Biso   1.000  I
  I4285    1.0000 0.01402  0.01402  0.01402  Biso   1.000  I
  I4286    1.0000 0.98598  0.51400  0.48600  Biso   1.000  I
  I4287    1.0000 0.01402  0.51400  0.51400  Biso   1.000  I
  I4288    1.0000 0.01402  0.48600  0.48600  Biso   1.000  I
  I4289    1.0000 0.48600  0.51400  0.98598  Biso   1.000  I
  I4290    1.0000 0.48600  0.48600  0.01402  Biso   1.000  I
  I4291    1.0000 0.51400  0.51400  0.01402  Biso   1.000  I
  I4292    1.0000 0.98598  0.51400  0.48600  Biso   1.000  I
  I4293    1.0000 0.98598  0.48600  0.51400  Biso   1.000  I
  I4294    1.0000 0.01402  0.48600  0.48600  Biso   1.000  I
  I4295    1.0000 0.51400  0.48600  0.98598  Biso   1.000  I
  I4296    1.0000 0.48600  0.48600  0.01402  Biso   1.000  I
  I4297    1.0000 0.51400  0.51400  0.01402  Biso   1.000  I
  I4298    1.0000 0.98598  0.98598  0.01402  Biso   1.000  I
  I4299    1.0000 0.98598  0.01402  0.98598  Biso   1.000  I
  I4300    1.0000 0.01402  0.01402  0.01402  Biso   1.000  I
  I4301    1.0000 0.62499  0.37501  0.87498  Biso   1.000  I
  I4302    1.0000 0.76399  0.26401  0.73599  Biso   1.000  I
  I4303    1.0000 0.87498  0.12502  0.87498  Biso   1.000  I
  I4304    1.0000 0.62499  0.12502  0.62499  Biso   1.000  I
  I4305    1.0000 0.37501  0.87498  0.62499  Biso   1.000  I
  I4306    1.0000 0.23601  0.73599  0.73599  Biso   1.000  I
  I4307    1.0000 0.37501  0.62499  0.87498  Biso   1.000  I
  I4308    1.0000 0.12502  0.87498  0.87498  Biso   1.000  I
  I4309    1.0000 0.62499  0.62499  0.12502  Biso   1.000  I
  I4310    1.0000 0.76399  0.73599  0.26401  Biso   1.000  I
  I4311    1.0000 0.62499  0.87498  0.37501  Biso   1.000  I
  I4312    1.0000 0.87498  0.87498  0.12502  Biso   1.000  I
  I4313    1.0000 0.62499  0.37501  0.87498  Biso   1.000  I
  I4314    1.0000 0.76399  0.23601  0.76399  Biso   1.000  I
  I4315    1.0000 0.87498  0.37501  0.62499  Biso   1.000  I
  I4316    1.0000 0.62499  0.12502  0.62499  Biso   1.000  I
  I4317    1.0000 0.37501  0.87498  0.62499  Biso   1.000  I
  I4318    1.0000 0.23601  0.76399  0.76399  Biso   1.000  I
  I4319    1.0000 0.37501  0.62499  0.87498  Biso   1.000  I
  I4320    1.0000 0.12502  0.62499  0.62499  Biso   1.000  I
  I4321    1.0000 0.62499  0.62499  0.12502  Biso   1.000  I
  I4322    1.0000 0.76399  0.76399  0.23601  Biso   1.000  I
  I4323    1.0000 0.62499  0.87498  0.37501  Biso   1.000  I
  I4324    1.0000 0.87498  0.62499  0.37501  Biso   1.000  I
  I4325    1.0000 0.12502  0.62499  0.62499  Biso   1.000  I
  I4326    1.0000 0.26401  0.73599  0.76399  Biso   1.000  I
  I4327    1.0000 0.37501  0.87498  0.62499  Biso   1.000  I
  I4328    1.0000 0.12502  0.87498  0.87498  Biso   1.000  I
  I4329    1.0000 0.87498  0.87498  0.12502  Biso   1.000  I
  I4330    1.0000 0.73599  0.73599  0.23601  Biso   1.000  I
  I4331    1.0000 0.62499  0.87498  0.37501  Biso   1.000  I
  I4332    1.0000 0.87498  0.62499  0.37501  Biso   1.000  I
  I4333    1.0000 0.87498  0.12502  0.87498  Biso   1.000  I
  I4334    1.0000 0.73599  0.26401  0.76399  Biso   1.000  I
  I4335    1.0000 0.87498  0.37501  0.62499  Biso   1.000  I
  I4336    1.0000 0.62499  0.12502  0.62499  Biso   1.000  I
  I4337    1.0000 0.05970  0.94030  0.94030  Biso   1.000  I
  I4338    1.0000 0.05970  0.05970  0.05970  Biso   1.000  I
  I4339    1.0000 0.94030  0.05970  0.94030  Biso   1.000  I
  I4340    1.0000 0.44028  0.55972  0.94030  Biso   1.000  I
  I4341    1.0000 0.44028  0.44028  0.05970  Biso   1.000  I
  I4342    1.0000 0.55972  0.44028  0.94030  Biso   1.000  I
  I4343    1.0000 0.05970  0.55972  0.55972  Biso   1.000  I
  I4344    1.0000 0.05970  0.44028  0.44028  Biso   1.000  I
  I4345    1.0000 0.94030  0.44028  0.55972  Biso   1.000  I
  I4346    1.0000 0.05970  0.94030  0.94030  Biso   1.000  I
  I4347    1.0000 0.05970  0.05970  0.05970  Biso   1.000  I
  I4348    1.0000 0.94030  0.94030  0.05970  Biso   1.000  I
  I4349    1.0000 0.05970  0.55972  0.55972  Biso   1.000  I
  I4350    1.0000 0.05970  0.44028  0.44028  Biso   1.000  I
  I4351    1.0000 0.94030  0.55972  0.44028  Biso   1.000  I
  I4352    1.0000 0.44028  0.44028  0.05970  Biso   1.000  I
  I4353    1.0000 0.55972  0.55972  0.05970  Biso   1.000  I
  I4354    1.0000 0.44028  0.55972  0.94030  Biso   1.000  I
  I4355    1.0000 0.94030  0.44028  0.55972  Biso   1.000  I
  I4356    1.0000 0.05970  0.44028  0.44028  Biso   1.000  I
  I4357    1.0000 0.94030  0.55972  0.44028  Biso   1.000  I
  I4358    1.0000 0.44028  0.44028  0.05970  Biso   1.000  I
  I4359    1.0000 0.55972  0.55972  0.05970  Biso   1.000  I
  I4360    1.0000 0.55972  0.44028  0.94030  Biso   1.000  I
  I4361    1.0000 0.94030  0.05970  0.94030  Biso   1.000  I
  I4362    1.0000 0.05970  0.05970  0.05970  Biso   1.000  I
  I4363    1.0000 0.94030  0.94030  0.05970  Biso   1.000  I
  I4364    1.0000 0.55972  0.44028  0.94030  Biso   1.000  I
  I4365    1.0000 0.55972  0.05970  0.55972  Biso   1.000  I
  I4366    1.0000 0.44028  0.94030  0.55972  Biso   1.000  I
  I4367    1.0000 0.05970  0.94030  0.94030  Biso   1.000  I
  I4368    1.0000 0.55972  0.55972  0.05970  Biso   1.000  I
  I4369    1.0000 0.55972  0.94030  0.44028  Biso   1.000  I
  I4370    1.0000 0.94030  0.94030  0.05970  Biso   1.000  I
  I4371    1.0000 0.55972  0.44028  0.94030  Biso   1.000  I
  I4372    1.0000 0.94030  0.44028  0.55972  Biso   1.000  I
  I4373    1.0000 0.55972  0.05970  0.55972  Biso   1.000  I
  I4374    1.0000 0.44028  0.94030  0.55972  Biso   1.000  I
  I4375    1.0000 0.05970  0.55972  0.55972  Biso   1.000  I
  I4376    1.0000 0.55972  0.55972  0.05970  Biso   1.000  I
  I4377    1.0000 0.55972  0.94030  0.44028  Biso   1.000  I
  I4378    1.0000 0.05970  0.55972  0.55972  Biso   1.000  I
  I4379    1.0000 0.44028  0.94030  0.55972  Biso   1.000  I
  I4380    1.0000 0.05970  0.94030  0.94030  Biso   1.000  I
  I4381    1.0000 0.94030  0.94030  0.05970  Biso   1.000  I
  I4382    1.0000 0.55972  0.94030  0.44028  Biso   1.000  I
  I4383    1.0000 0.94030  0.44028  0.55972  Biso   1.000  I
  I4384    1.0000 0.55972  0.05970  0.55972  Biso   1.000  I
  I4385    1.0000 0.98598  0.98598  0.01402  Biso   1.000  I
  I4386    1.0000 0.12502  0.87498  0.87498  Biso   1.000  I
  I4387    1.0000 0.12502  0.12502  0.12502  Biso   1.000  I
  I4388    1.0000 0.51400  0.51400  0.01402  Biso   1.000  I
  I4389    1.0000 0.37501  0.37501  0.12502  Biso   1.000  I
  I4390    1.0000 0.62499  0.37501  0.87498  Biso   1.000  I
  I4391    1.0000 0.98598  0.51400  0.48600  Biso   1.000  I
  I4392    1.0000 0.12502  0.62499  0.62499  Biso   1.000  I
  I4393    1.0000 0.12502  0.37501  0.37501  Biso   1.000  I
  I4394    1.0000 0.87498  0.37501  0.62499  Biso   1.000  I
  I4395    1.0000 0.98598  0.01402  0.98598  Biso   1.000  I
  I4396    1.0000 0.12502  0.87498  0.87498  Biso   1.000  I
  I4397    1.0000 0.12502  0.12502  0.12502  Biso   1.000  I
  I4398    1.0000 0.87498  0.87498  0.12502  Biso   1.000  I
  I4399    1.0000 0.98598  0.48600  0.51400  Biso   1.000  I
  I4400    1.0000 0.12502  0.62499  0.62499  Biso   1.000  I
  I4401    1.0000 0.12502  0.37501  0.37501  Biso   1.000  I
  I4402    1.0000 0.51400  0.48600  0.98598  Biso   1.000  I
  I4403    1.0000 0.37501  0.37501  0.12502  Biso   1.000  I
  I4404    1.0000 0.62499  0.62499  0.12502  Biso   1.000  I
  I4405    1.0000 0.87498  0.37501  0.62499  Biso   1.000  I
  I4406    1.0000 0.01402  0.51400  0.51400  Biso   1.000  I
  I4407    1.0000 0.12502  0.37501  0.37501  Biso   1.000  I
  I4408    1.0000 0.48600  0.51400  0.98598  Biso   1.000  I
  I4409    1.0000 0.37501  0.37501  0.12502  Biso   1.000  I
  I4410    1.0000 0.62499  0.62499  0.12502  Biso   1.000  I
  I4411    1.0000 0.62499  0.37501  0.87498  Biso   1.000  I
  I4412    1.0000 0.01402  0.98598  0.98598  Biso   1.000  I
  I4413    1.0000 0.12502  0.12502  0.12502  Biso   1.000  I
  I4414    1.0000 0.87498  0.87498  0.12502  Biso   1.000  I
  I4415    1.0000 0.48600  0.51400  0.98598  Biso   1.000  I
  I4416    1.0000 0.48600  0.48600  0.01402  Biso   1.000  I
  I4417    1.0000 0.51400  0.51400  0.01402  Biso   1.000  I
  I4418    1.0000 0.48600  0.98598  0.51400  Biso   1.000  I
  I4419    1.0000 0.51400  0.98598  0.48600  Biso   1.000  I
  I4420    1.0000 0.48600  0.01402  0.48600  Biso   1.000  I
  I4421    1.0000 0.51400  0.98598  0.48600  Biso   1.000  I
  I4422    1.0000 0.48600  0.01402  0.48600  Biso   1.000  I
  I4423    1.0000 0.51400  0.01402  0.51400  Biso   1.000  I
  I4424    1.0000 0.98598  0.98598  0.01402  Biso   1.000  I
  I4425    1.0000 0.98598  0.01402  0.98598  Biso   1.000  I
  I4426    1.0000 0.01402  0.01402  0.01402  Biso   1.000  I
  I4427    1.0000 0.51400  0.48600  0.98598  Biso   1.000  I
  I4428    1.0000 0.48600  0.51400  0.98598  Biso   1.000  I
  I4429    1.0000 0.48600  0.48600  0.01402  Biso   1.000  I
  I4430    1.0000 0.48600  0.98598  0.51400  Biso   1.000  I
  I4431    1.0000 0.48600  0.01402  0.48600  Biso   1.000  I
  I4432    1.0000 0.51400  0.01402  0.51400  Biso   1.000  I
  I4433    1.0000 0.98598  0.01402  0.98598  Biso   1.000  I
  I4434    1.0000 0.01402  0.98598  0.98598  Biso   1.000  I
  I4435    1.0000 0.01402  0.01402  0.01402  Biso   1.000  I
  I4436    1.0000 0.51400  0.51400  0.01402  Biso   1.000  I
  I4437    1.0000 0.98598  0.51400  0.48600  Biso   1.000  I
  I4438    1.0000 0.01402  0.51400  0.51400  Biso   1.000  I
  I4439    1.0000 0.01402  0.48600  0.48600  Biso   1.000  I
  I4440    1.0000 0.48600  0.98598  0.51400  Biso   1.000  I
  I4441    1.0000 0.51400  0.98598  0.48600  Biso   1.000  I
  I4442    1.0000 0.48600  0.01402  0.48600  Biso   1.000  I
  I4443    1.0000 0.51400  0.98598  0.48600  Biso   1.000  I
  I4444    1.0000 0.48600  0.01402  0.48600  Biso   1.000  I
  I4445    1.0000 0.51400  0.01402  0.51400  Biso   1.000  I
  I4446    1.0000 0.98598  0.51400  0.48600  Biso   1.000  I
  I4447    1.0000 0.98598  0.48600  0.51400  Biso   1.000  I
  I4448    1.0000 0.01402  0.48600  0.48600  Biso   1.000  I
  I4449    1.0000 0.51400  0.48600  0.98598  Biso   1.000  I
  I4450    1.0000 0.48600  0.51400  0.98598  Biso   1.000  I
  I4451    1.0000 0.48600  0.48600  0.01402  Biso   1.000  I
  I4452    1.0000 0.51400  0.01402  0.51400  Biso   1.000  I
  I4453    1.0000 0.98598  0.48600  0.51400  Biso   1.000  I
  I4454    1.0000 0.51400  0.98598  0.48600  Biso   1.000  I
  I4455    1.0000 0.48600  0.01402  0.48600  Biso   1.000  I
  I4456    1.0000 0.51400  0.01402  0.51400  Biso   1.000  I
  I4457    1.0000 0.98598  0.98598  0.01402  Biso   1.000  I
  I4458    1.0000 0.98598  0.01402  0.98598  Biso   1.000  I
  I4459    1.0000 0.01402  0.98598  0.98598  Biso   1.000  I
  I4460    1.0000 0.01402  0.01402  0.01402  Biso   1.000  I
  I4461    1.0000 0.48600  0.98598  0.51400  Biso   1.000  I
  I4462    1.0000 0.98598  0.51400  0.48600  Biso   1.000  I
  I4463    1.0000 0.01402  0.51400  0.51400  Biso   1.000  I
  I4464    1.0000 0.01402  0.48600  0.48600  Biso   1.000  I
  I4465    1.0000 0.48600  0.98598  0.51400  Biso   1.000  I
  I4466    1.0000 0.19029  0.80971  0.80971  Biso   1.000  I
  I4467    1.0000 0.19029  0.19029  0.19029  Biso   1.000  I
  I4468    1.0000 0.30969  0.30969  0.19029  Biso   1.000  I
  I4469    1.0000 0.69031  0.30969  0.80971  Biso   1.000  I
  I4470    1.0000 0.19029  0.69031  0.69031  Biso   1.000  I
  I4471    1.0000 0.19029  0.30969  0.30969  Biso   1.000  I
  I4472    1.0000 0.80971  0.30969  0.69031  Biso   1.000  I
  I4473    1.0000 0.19029  0.80971  0.80971  Biso   1.000  I
  I4474    1.0000 0.19029  0.19029  0.19029  Biso   1.000  I
  I4475    1.0000 0.80971  0.80971  0.19029  Biso   1.000  I
  I4476    1.0000 0.19029  0.69031  0.69031  Biso   1.000  I
  I4477    1.0000 0.19029  0.30969  0.30969  Biso   1.000  I
  I4478    1.0000 0.30969  0.30969  0.19029  Biso   1.000  I
  I4479    1.0000 0.69031  0.69031  0.19029  Biso   1.000  I
  I4480    1.0000 0.80971  0.30969  0.69031  Biso   1.000  I
  I4481    1.0000 0.19029  0.30969  0.30969  Biso   1.000  I
  I4482    1.0000 0.30969  0.30969  0.19029  Biso   1.000  I
  I4483    1.0000 0.69031  0.69031  0.19029  Biso   1.000  I
  I4484    1.0000 0.69031  0.30969  0.80971  Biso   1.000  I
  I4485    1.0000 0.19029  0.19029  0.19029  Biso   1.000  I
  I4486    1.0000 0.80971  0.80971  0.19029  Biso   1.000  I
  I4487    1.0000 0.44028  0.44028  0.05970  Biso   1.000  I
  I4488    1.0000 0.55972  0.55972  0.05970  Biso   1.000  I
  I4489    1.0000 0.44028  0.55972  0.94030  Biso   1.000  I
  I4490    1.0000 0.44028  0.05970  0.44028  Biso   1.000  I
  I4491    1.0000 0.44028  0.94030  0.55972  Biso   1.000  I
  I4492    1.0000 0.44028  0.05970  0.44028  Biso   1.000  I
  I4493    1.0000 0.55972  0.05970  0.55972  Biso   1.000  I
  I4494    1.0000 0.94030  0.05970  0.94030  Biso   1.000  I
  I4495    1.0000 0.05970  0.05970  0.05970  Biso   1.000  I
  I4496    1.0000 0.94030  0.94030  0.05970  Biso   1.000  I
  I4497    1.0000 0.44028  0.55972  0.94030  Biso   1.000  I
  I4498    1.0000 0.44028  0.44028  0.05970  Biso   1.000  I
  I4499    1.0000 0.44028  0.05970  0.44028  Biso   1.000  I
  I4500    1.0000 0.55972  0.05970  0.55972  Biso   1.000  I
  I4501    1.0000 0.44028  0.94030  0.55972  Biso   1.000  I
  I4502    1.0000 0.05970  0.05970  0.05970  Biso   1.000  I
  I4503    1.0000 0.94030  0.05970  0.94030  Biso   1.000  I
  I4504    1.0000 0.05970  0.44028  0.44028  Biso   1.000  I
  I4505    1.0000 0.94030  0.55972  0.44028  Biso   1.000  I
  I4506    1.0000 0.55972  0.94030  0.44028  Biso   1.000  I
  I4507    1.0000 0.44028  0.05970  0.44028  Biso   1.000  I
  I4508    1.0000 0.44028  0.94030  0.55972  Biso   1.000  I
  I4509    1.0000 0.44028  0.05970  0.44028  Biso   1.000  I
  I4510    1.0000 0.55972  0.94030  0.44028  Biso   1.000  I
  I4511    1.0000 0.94030  0.44028  0.55972  Biso   1.000  I
  I4512    1.0000 0.05970  0.44028  0.44028  Biso   1.000  I
  I4513    1.0000 0.94030  0.55972  0.44028  Biso   1.000  I
  I4514    1.0000 0.44028  0.55972  0.94030  Biso   1.000  I
  I4515    1.0000 0.44028  0.44028  0.05970  Biso   1.000  I
  I4516    1.0000 0.55972  0.44028  0.94030  Biso   1.000  I
  I4517    1.0000 0.44028  0.05970  0.44028  Biso   1.000  I
  I4518    1.0000 0.55972  0.05970  0.55972  Biso   1.000  I
  I4519    1.0000 0.55972  0.94030  0.44028  Biso   1.000  I
  I4520    1.0000 0.05970  0.94030  0.94030  Biso   1.000  I
  I4521    1.0000 0.05970  0.05970  0.05970  Biso   1.000  I
  I4522    1.0000 0.94030  0.05970  0.94030  Biso   1.000  I
  I4523    1.0000 0.05970  0.55972  0.55972  Biso   1.000  I
  I4524    1.0000 0.05970  0.44028  0.44028  Biso   1.000  I
  I4525    1.0000 0.94030  0.55972  0.44028  Biso   1.000  I
  I4526    1.0000 0.23601  0.73599  0.73599  Biso   1.000  I
  I4527    1.0000 0.26401  0.76399  0.73599  Biso   1.000  I
  I4528    1.0000 0.26401  0.73599  0.76399  Biso   1.000  I
  I4529    1.0000 0.26401  0.26401  0.23601  Biso   1.000  I
  I4530    1.0000 0.26401  0.23601  0.26401  Biso   1.000  I
  I4531    1.0000 0.23601  0.26401  0.26401  Biso   1.000  I
  I4532    1.0000 0.26401  0.23601  0.26401  Biso   1.000  I
  I4533    1.0000 0.23601  0.26401  0.26401  Biso   1.000  I
  I4534    1.0000 0.23601  0.23601  0.23601  Biso   1.000  I
  I4535    1.0000 0.73599  0.23601  0.73599  Biso   1.000  I
  I4536    1.0000 0.76399  0.23601  0.76399  Biso   1.000  I
  I4537    1.0000 0.76399  0.26401  0.73599  Biso   1.000  I
  I4538    1.0000 0.23601  0.76399  0.76399  Biso   1.000  I
  I4539    1.0000 0.26401  0.76399  0.73599  Biso   1.000  I
  I4540    1.0000 0.26401  0.73599  0.76399  Biso   1.000  I
  I4541    1.0000 0.26401  0.26401  0.23601  Biso   1.000  I
  I4542    1.0000 0.26401  0.23601  0.26401  Biso   1.000  I
  I4543    1.0000 0.23601  0.23601  0.23601  Biso   1.000  I
  I4544    1.0000 0.73599  0.23601  0.73599  Biso   1.000  I
  I4545    1.0000 0.73599  0.26401  0.76399  Biso   1.000  I
  I4546    1.0000 0.76399  0.23601  0.76399  Biso   1.000  I
  I4547    1.0000 0.23601  0.73599  0.73599  Biso   1.000  I
  I4548    1.0000 0.26401  0.26401  0.23601  Biso   1.000  I
  I4549    1.0000 0.26401  0.23601  0.26401  Biso   1.000  I
  I4550    1.0000 0.23601  0.26401  0.26401  Biso   1.000  I
  I4551    1.0000 0.76399  0.73599  0.26401  Biso   1.000  I
  I4552    1.0000 0.73599  0.73599  0.23601  Biso   1.000  I
  I4553    1.0000 0.73599  0.76399  0.26401  Biso   1.000  I
  I4554    1.0000 0.23601  0.76399  0.76399  Biso   1.000  I
  I4555    1.0000 0.26401  0.76399  0.73599  Biso   1.000  I
  I4556    1.0000 0.26401  0.73599  0.76399  Biso   1.000  I
  I4557    1.0000 0.23601  0.23601  0.23601  Biso   1.000  I
  I4558    1.0000 0.26401  0.23601  0.26401  Biso   1.000  I
  I4559    1.0000 0.23601  0.26401  0.26401  Biso   1.000  I
  I4560    1.0000 0.23601  0.23601  0.23601  Biso   1.000  I
  I4561    1.0000 0.76399  0.73599  0.26401  Biso   1.000  I
  I4562    1.0000 0.76399  0.76399  0.23601  Biso   1.000  I
  I4563    1.0000 0.73599  0.76399  0.26401  Biso   1.000  I
  I4564    1.0000 0.73599  0.23601  0.73599  Biso   1.000  I
  I4565    1.0000 0.73599  0.26401  0.76399  Biso   1.000  I
  I4566    1.0000 0.76399  0.23601  0.76399  Biso   1.000  I
  I4567    1.0000 0.26401  0.26401  0.23601  Biso   1.000  I
  I4568    1.0000 0.26401  0.23601  0.26401  Biso   1.000  I
  I4569    1.0000 0.23601  0.26401  0.26401  Biso   1.000  I
  I4570    1.0000 0.23601  0.23601  0.23601  Biso   1.000  I
  I4571    1.0000 0.76399  0.76399  0.23601  Biso   1.000  I
  I4572    1.0000 0.76399  0.26401  0.73599  Biso   1.000  I
  I4573    1.0000 0.26401  0.26401  0.23601  Biso   1.000  I
  I4574    1.0000 0.76399  0.73599  0.26401  Biso   1.000  I
  I4575    1.0000 0.73599  0.73599  0.23601  Biso   1.000  I
  I4576    1.0000 0.73599  0.76399  0.26401  Biso   1.000  I
  I4577    1.0000 0.51400  0.48600  0.98598  Biso   1.000  I
  I4578    1.0000 0.37501  0.37501  0.12502  Biso   1.000  I
  I4579    1.0000 0.62499  0.62499  0.12502  Biso   1.000  I
  I4580    1.0000 0.37501  0.62499  0.87498  Biso   1.000  I
  I4581    1.0000 0.37501  0.12502  0.37501  Biso   1.000  I
  I4582    1.0000 0.37501  0.87498  0.62499  Biso   1.000  I
  I4583    1.0000 0.37501  0.12502  0.37501  Biso   1.000  I
  I4584    1.0000 0.62499  0.12502  0.62499  Biso   1.000  I
  I4585    1.0000 0.87498  0.12502  0.87498  Biso   1.000  I
  I4586    1.0000 0.01402  0.98598  0.98598  Biso   1.000  I
  I4587    1.0000 0.12502  0.12502  0.12502  Biso   1.000  I
  I4588    1.0000 0.87498  0.87498  0.12502  Biso   1.000  I
  I4589    1.0000 0.37501  0.62499  0.87498  Biso   1.000  I
  I4590    1.0000 0.37501  0.37501  0.12502  Biso   1.000  I
  I4591    1.0000 0.51400  0.98598  0.48600  Biso   1.000  I
  I4592    1.0000 0.37501  0.12502  0.37501  Biso   1.000  I
  I4593    1.0000 0.62499  0.12502  0.62499  Biso   1.000  I
  I4594    1.0000 0.37501  0.87498  0.62499  Biso   1.000  I
  I4595    1.0000 0.12502  0.12502  0.12502  Biso   1.000  I
  I4596    1.0000 0.87498  0.12502  0.87498  Biso   1.000  I
  I4597    1.0000 0.12502  0.37501  0.37501  Biso   1.000  I
  I4598    1.0000 0.87498  0.62499  0.37501  Biso   1.000  I
  I4599    1.0000 0.62499  0.87498  0.37501  Biso   1.000  I
  I4600    1.0000 0.51400  0.01402  0.51400  Biso   1.000  I
  I4601    1.0000 0.37501  0.12502  0.37501  Biso   1.000  I
  I4602    1.0000 0.37501  0.87498  0.62499  Biso   1.000  I
  I4603    1.0000 0.37501  0.12502  0.37501  Biso   1.000  I
  I4604    1.0000 0.62499  0.87498  0.37501  Biso   1.000  I
  I4605    1.0000 0.87498  0.37501  0.62499  Biso   1.000  I
  I4606    1.0000 0.01402  0.51400  0.51400  Biso   1.000  I
  I4607    1.0000 0.12502  0.37501  0.37501  Biso   1.000  I
  I4608    1.0000 0.87498  0.62499  0.37501  Biso   1.000  I
  I4609    1.0000 0.37501  0.62499  0.87498  Biso   1.000  I
  I4610    1.0000 0.51400  0.51400  0.01402  Biso   1.000  I
  I4611    1.0000 0.37501  0.37501  0.12502  Biso   1.000  I
  I4612    1.0000 0.62499  0.37501  0.87498  Biso   1.000  I
  I4613    1.0000 0.48600  0.98598  0.51400  Biso   1.000  I
  I4614    1.0000 0.37501  0.12502  0.37501  Biso   1.000  I
  I4615    1.0000 0.62499  0.12502  0.62499  Biso   1.000  I
  I4616    1.0000 0.62499  0.87498  0.37501  Biso   1.000  I
  I4617    1.0000 0.98598  0.98598  0.01402  Biso   1.000  I
  I4618    1.0000 0.12502  0.87498  0.87498  Biso   1.000  I
  I4619    1.0000 0.12502  0.12502  0.12502  Biso   1.000  I
  I4620    1.0000 0.87498  0.12502  0.87498  Biso   1.000  I
  I4621    1.0000 0.98598  0.48600  0.51400  Biso   1.000  I
  I4622    1.0000 0.12502  0.62499  0.62499  Biso   1.000  I
  I4623    1.0000 0.12502  0.37501  0.37501  Biso   1.000  I
  I4624    1.0000 0.87498  0.62499  0.37501  Biso   1.000  I
  I4625    1.0000 0.30969  0.80971  0.69031  Biso   1.000  I
  I4626    1.0000 0.30969  0.69031  0.80971  Biso   1.000  I
  I4627    1.0000 0.19029  0.69031  0.69031  Biso   1.000  I
  I4628    1.0000 0.30969  0.19029  0.30969  Biso   1.000  I
  I4629    1.0000 0.30969  0.30969  0.19029  Biso   1.000  I
  I4630    1.0000 0.19029  0.19029  0.19029  Biso   1.000  I
  I4631    1.0000 0.30969  0.19029  0.30969  Biso   1.000  I
  I4632    1.0000 0.80971  0.19029  0.80971  Biso   1.000  I
  I4633    1.0000 0.80971  0.30969  0.69031  Biso   1.000  I
  I4634    1.0000 0.69031  0.19029  0.69031  Biso   1.000  I
  I4635    1.0000 0.30969  0.80971  0.69031  Biso   1.000  I
  I4636    1.0000 0.30969  0.69031  0.80971  Biso   1.000  I
  I4637    1.0000 0.30969  0.19029  0.30969  Biso   1.000  I
  I4638    1.0000 0.19029  0.19029  0.19029  Biso   1.000  I
  I4639    1.0000 0.30969  0.30969  0.19029  Biso   1.000  I
  I4640    1.0000 0.80971  0.19029  0.80971  Biso   1.000  I
  I4641    1.0000 0.69031  0.19029  0.69031  Biso   1.000  I
  I4642    1.0000 0.30969  0.19029  0.30969  Biso   1.000  I
  I4643    1.0000 0.19029  0.30969  0.30969  Biso   1.000  I
  I4644    1.0000 0.30969  0.30969  0.19029  Biso   1.000  I
  I4645    1.0000 0.69031  0.80971  0.30969  Biso   1.000  I
  I4646    1.0000 0.80971  0.69031  0.30969  Biso   1.000  I
  I4647    1.0000 0.30969  0.80971  0.69031  Biso   1.000  I
  I4648    1.0000 0.30969  0.69031  0.80971  Biso   1.000  I
  I4649    1.0000 0.19029  0.80971  0.80971  Biso   1.000  I
  I4650    1.0000 0.19029  0.30969  0.30969  Biso   1.000  I
  I4651    1.0000 0.30969  0.19029  0.30969  Biso   1.000  I
  I4652    1.0000 0.80971  0.80971  0.19029  Biso   1.000  I
  I4653    1.0000 0.69031  0.80971  0.30969  Biso   1.000  I
  I4654    1.0000 0.80971  0.69031  0.30969  Biso   1.000  I
  I4655    1.0000 0.69031  0.30969  0.80971  Biso   1.000  I
  I4656    1.0000 0.80971  0.19029  0.80971  Biso   1.000  I
  I4657    1.0000 0.69031  0.19029  0.69031  Biso   1.000  I
  I4658    1.0000 0.19029  0.30969  0.30969  Biso   1.000  I
  I4659    1.0000 0.19029  0.19029  0.19029  Biso   1.000  I
  I4660    1.0000 0.30969  0.19029  0.30969  Biso   1.000  I
  I4661    1.0000 0.69031  0.69031  0.19029  Biso   1.000  I
  I4662    1.0000 0.69031  0.80971  0.30969  Biso   1.000  I
  I4663    1.0000 0.80971  0.69031  0.30969  Biso   1.000  I
  I4664    1.0000 0.30969  0.30969  0.19029  Biso   1.000  I
  I4665    1.0000 0.69031  0.69031  0.19029  Biso   1.000  I
  I4666    1.0000 0.30969  0.69031  0.80971  Biso   1.000  I
  I4667    1.0000 0.30969  0.19029  0.30969  Biso   1.000  I
  I4668    1.0000 0.30969  0.80971  0.69031  Biso   1.000  I
  I4669    1.0000 0.30969  0.19029  0.30969  Biso   1.000  I
  I4670    1.0000 0.69031  0.19029  0.69031  Biso   1.000  I
  I4671    1.0000 0.80971  0.19029  0.80971  Biso   1.000  I
  I4672    1.0000 0.19029  0.19029  0.19029  Biso   1.000  I
  I4673    1.0000 0.80971  0.80971  0.19029  Biso   1.000  I
  I4674    1.0000 0.30969  0.69031  0.80971  Biso   1.000  I
  I4675    1.0000 0.30969  0.30969  0.19029  Biso   1.000  I
  I4676    1.0000 0.30969  0.19029  0.30969  Biso   1.000  I
  I4677    1.0000 0.69031  0.19029  0.69031  Biso   1.000  I
  I4678    1.0000 0.30969  0.80971  0.69031  Biso   1.000  I
  I4679    1.0000 0.19029  0.19029  0.19029  Biso   1.000  I
  I4680    1.0000 0.80971  0.19029  0.80971  Biso   1.000  I
  I4681    1.0000 0.19029  0.30969  0.30969  Biso   1.000  I
  I4682    1.0000 0.80971  0.69031  0.30969  Biso   1.000  I
  I4683    1.0000 0.69031  0.80971  0.30969  Biso   1.000  I
  I4684    1.0000 0.30969  0.19029  0.30969  Biso   1.000  I
  I4685    1.0000 0.30969  0.80971  0.69031  Biso   1.000  I
  I4686    1.0000 0.30969  0.19029  0.30969  Biso   1.000  I
  I4687    1.0000 0.69031  0.80971  0.30969  Biso   1.000  I
  I4688    1.0000 0.80971  0.30969  0.69031  Biso   1.000  I
  I4689    1.0000 0.19029  0.30969  0.30969  Biso   1.000  I
  I4690    1.0000 0.80971  0.69031  0.30969  Biso   1.000  I
  I4691    1.0000 0.30969  0.69031  0.80971  Biso   1.000  I
  I4692    1.0000 0.30969  0.30969  0.19029  Biso   1.000  I
  I4693    1.0000 0.69031  0.30969  0.80971  Biso   1.000  I
  I4694    1.0000 0.30969  0.19029  0.30969  Biso   1.000  I
  I4695    1.0000 0.69031  0.19029  0.69031  Biso   1.000  I
  I4696    1.0000 0.69031  0.80971  0.30969  Biso   1.000  I
  I4697    1.0000 0.19029  0.80971  0.80971  Biso   1.000  I
  I4698    1.0000 0.19029  0.19029  0.19029  Biso   1.000  I
  I4699    1.0000 0.80971  0.19029  0.80971  Biso   1.000  I
  I4700    1.0000 0.19029  0.69031  0.69031  Biso   1.000  I
  I4701    1.0000 0.19029  0.30969  0.30969  Biso   1.000  I
  I4702    1.0000 0.80971  0.69031  0.30969  Biso   1.000  I
  I4703    1.0000 0.37501  0.87498  0.62499  Biso   1.000  I
  I4704    1.0000 0.23601  0.76399  0.76399  Biso   1.000  I
  I4705    1.0000 0.37501  0.62499  0.87498  Biso   1.000  I
  I4706    1.0000 0.12502  0.62499  0.62499  Biso   1.000  I
  I4707    1.0000 0.37501  0.12502  0.37501  Biso   1.000  I
  I4708    1.0000 0.37501  0.37501  0.12502  Biso   1.000  I
  I4709    1.0000 0.12502  0.12502  0.12502  Biso   1.000  I
  I4710    1.0000 0.37501  0.12502  0.37501  Biso   1.000  I
  I4711    1.0000 0.87498  0.12502  0.87498  Biso   1.000  I
  I4712    1.0000 0.73599  0.26401  0.76399  Biso   1.000  I
  I4713    1.0000 0.87498  0.37501  0.62499  Biso   1.000  I
  I4714    1.0000 0.62499  0.12502  0.62499  Biso   1.000  I
  I4715    1.0000 0.37501  0.87498  0.62499  Biso   1.000  I
  I4716    1.0000 0.37501  0.62499  0.87498  Biso   1.000  I
  I4717    1.0000 0.37501  0.12502  0.37501  Biso   1.000  I
  I4718    1.0000 0.23601  0.26401  0.26401  Biso   1.000  I
  I4719    1.0000 0.12502  0.12502  0.12502  Biso   1.000  I
  I4720    1.0000 0.37501  0.37501  0.12502  Biso   1.000  I
  I4721    1.0000 0.87498  0.12502  0.87498  Biso   1.000  I
  I4722    1.0000 0.62499  0.12502  0.62499  Biso   1.000  I
  I4723    1.0000 0.37501  0.12502  0.37501  Biso   1.000  I
  I4724    1.0000 0.23601  0.23601  0.23601  Biso   1.000  I
  I4725    1.0000 0.12502  0.37501  0.37501  Biso   1.000  I
  I4726    1.0000 0.37501  0.37501  0.12502  Biso   1.000  I
  I4727    1.0000 0.62499  0.87498  0.37501  Biso   1.000  I
  I4728    1.0000 0.87498  0.62499  0.37501  Biso   1.000  I
  I4729    1.0000 0.37501  0.87498  0.62499  Biso   1.000  I
  I4730    1.0000 0.23601  0.73599  0.73599  Biso   1.000  I
  I4731    1.0000 0.37501  0.62499  0.87498  Biso   1.000  I
  I4732    1.0000 0.12502  0.87498  0.87498  Biso   1.000  I
  I4733    1.0000 0.12502  0.37501  0.37501  Biso   1.000  I
  I4734    1.0000 0.37501  0.12502  0.37501  Biso   1.000  I
  I4735    1.0000 0.87498  0.87498  0.12502  Biso   1.000  I
  I4736    1.0000 0.73599  0.73599  0.23601  Biso   1.000  I
  I4737    1.0000 0.62499  0.87498  0.37501  Biso   1.000  I
  I4738    1.0000 0.87498  0.62499  0.37501  Biso   1.000  I
  I4739    1.0000 0.62499  0.37501  0.87498  Biso   1.000  I
  I4740    1.0000 0.76399  0.26401  0.73599  Biso   1.000  I
  I4741    1.0000 0.87498  0.12502  0.87498  Biso   1.000  I
  I4742    1.0000 0.62499  0.12502  0.62499  Biso   1.000  I
  I4743    1.0000 0.12502  0.37501  0.37501  Biso   1.000  I
  I4744    1.0000 0.26401  0.26401  0.23601  Biso   1.000  I
  I4745    1.0000 0.12502  0.12502  0.12502  Biso   1.000  I
  I4746    1.0000 0.37501  0.12502  0.37501  Biso   1.000  I
  I4747    1.0000 0.62499  0.62499  0.12502  Biso   1.000  I
  I4748    1.0000 0.76399  0.76399  0.23601  Biso   1.000  I
  I4749    1.0000 0.62499  0.87498  0.37501  Biso   1.000  I
  I4750    1.0000 0.87498  0.62499  0.37501  Biso   1.000  I
  I4751    1.0000 0.26401  0.23601  0.26401  Biso   1.000  I
  I4752    1.0000 0.23601  0.26401  0.26401  Biso   1.000  I
  I4753    1.0000 0.23601  0.23601  0.23601  Biso   1.000  I
  I4754    1.0000 0.76399  0.73599  0.26401  Biso   1.000  I
  I4755    1.0000 0.76399  0.76399  0.23601  Biso   1.000  I
  I4756    1.0000 0.73599  0.76399  0.26401  Biso   1.000  I
  I4757    1.0000 0.23601  0.76399  0.76399  Biso   1.000  I
  I4758    1.0000 0.23601  0.73599  0.73599  Biso   1.000  I
  I4759    1.0000 0.26401  0.76399  0.73599  Biso   1.000  I
  I4760    1.0000 0.26401  0.26401  0.23601  Biso   1.000  I
  I4761    1.0000 0.23601  0.26401  0.26401  Biso   1.000  I
  I4762    1.0000 0.23601  0.23601  0.23601  Biso   1.000  I
  I4763    1.0000 0.23601  0.76399  0.76399  Biso   1.000  I
  I4764    1.0000 0.23601  0.73599  0.73599  Biso   1.000  I
  I4765    1.0000 0.26401  0.73599  0.76399  Biso   1.000  I
  I4766    1.0000 0.26401  0.26401  0.23601  Biso   1.000  I
  I4767    1.0000 0.23601  0.26401  0.26401  Biso   1.000  I
  I4768    1.0000 0.23601  0.23601  0.23601  Biso   1.000  I
  I4769    1.0000 0.73599  0.26401  0.76399  Biso   1.000  I
  I4770    1.0000 0.76399  0.23601  0.76399  Biso   1.000  I
  I4771    1.0000 0.76399  0.26401  0.73599  Biso   1.000  I
  I4772    1.0000 0.73599  0.23601  0.73599  Biso   1.000  I
  I4773    1.0000 0.73599  0.26401  0.76399  Biso   1.000  I
  I4774    1.0000 0.76399  0.26401  0.73599  Biso   1.000  I
  I4775    1.0000 0.26401  0.26401  0.23601  Biso   1.000  I
  I4776    1.0000 0.26401  0.23601  0.26401  Biso   1.000  I
  I4777    1.0000 0.23601  0.26401  0.26401  Biso   1.000  I
  I4778    1.0000 0.73599  0.73599  0.23601  Biso   1.000  I
  I4779    1.0000 0.23601  0.76399  0.76399  Biso   1.000  I
  I4780    1.0000 0.23601  0.73599  0.73599  Biso   1.000  I
  I4781    1.0000 0.26401  0.76399  0.73599  Biso   1.000  I
  I4782    1.0000 0.26401  0.23601  0.26401  Biso   1.000  I
  I4783    1.0000 0.26401  0.26401  0.23601  Biso   1.000  I
  I4784    1.0000 0.23601  0.26401  0.26401  Biso   1.000  I
  I4785    1.0000 0.23601  0.23601  0.23601  Biso   1.000  I
  I4786    1.0000 0.76399  0.23601  0.76399  Biso   1.000  I
  I4787    1.0000 0.26401  0.73599  0.76399  Biso   1.000  I
  I4788    1.0000 0.26401  0.23601  0.26401  Biso   1.000  I
  I4789    1.0000 0.73599  0.23601  0.73599  Biso   1.000  I
  I4790    1.0000 0.73599  0.26401  0.76399  Biso   1.000  I
  I4791    1.0000 0.76399  0.26401  0.73599  Biso   1.000  I
  I4792    1.0000 0.26401  0.26401  0.23601  Biso   1.000  I
  I4793    1.0000 0.26401  0.23601  0.26401  Biso   1.000  I
  I4794    1.0000 0.23601  0.23601  0.23601  Biso   1.000  I
  I4795    1.0000 0.76399  0.76399  0.23601  Biso   1.000  I
  I4796    1.0000 0.73599  0.73599  0.23601  Biso   1.000  I
  I4797    1.0000 0.73599  0.76399  0.26401  Biso   1.000  I
  I4798    1.0000 0.76399  0.73599  0.26401  Biso   1.000  I
  I4799    1.0000 0.76399  0.76399  0.23601  Biso   1.000  I
  I4800    1.0000 0.73599  0.73599  0.23601  Biso   1.000  I
  I4801    1.0000 0.26401  0.26401  0.23601  Biso   1.000  I
  I4802    1.0000 0.23601  0.26401  0.26401  Biso   1.000  I
  I4803    1.0000 0.23601  0.23601  0.23601  Biso   1.000  I
  I4804    1.0000 0.23601  0.76399  0.76399  Biso   1.000  I
  I4805    1.0000 0.23601  0.73599  0.73599  Biso   1.000  I
  I4806    1.0000 0.26401  0.73599  0.76399  Biso   1.000  I
  I4807    1.0000 0.23601  0.26401  0.26401  Biso   1.000  I
  I4808    1.0000 0.76399  0.73599  0.26401  Biso   1.000  I
  I4809    1.0000 0.76399  0.76399  0.23601  Biso   1.000  I
  I4810    1.0000 0.73599  0.73599  0.23601  Biso   1.000  I
  I4811    1.0000 0.73599  0.23601  0.73599  Biso   1.000  I
  I4812    1.0000 0.73599  0.26401  0.76399  Biso   1.000  I
  I4813    1.0000 0.76399  0.23601  0.76399  Biso   1.000  I
  I4814    1.0000 0.26401  0.26401  0.23601  Biso   1.000  I
  I4815    1.0000 0.26401  0.23601  0.26401  Biso   1.000  I
  I4816    1.0000 0.23601  0.23601  0.23601  Biso   1.000  I
  I4817    1.0000 0.73599  0.76399  0.26401  Biso   1.000  I
  I4818    1.0000 0.26401  0.76399  0.73599  Biso   1.000  I
  I4819    1.0000 0.26401  0.23601  0.26401  Biso   1.000  I
  I4820    1.0000 0.23601  0.26401  0.26401  Biso   1.000  I
  I4821    1.0000 0.23601  0.23601  0.23601  Biso   1.000  I
  I4822    1.0000 0.76399  0.26401  0.73599  Biso   1.000  I
  I4823    1.0000 0.26401  0.26401  0.23601  Biso   1.000  I
  I4824    1.0000 0.23601  0.26401  0.26401  Biso   1.000  I
  I4825    1.0000 0.23601  0.23601  0.23601  Biso   1.000  I
  I4826    1.0000 0.73599  0.26401  0.76399  Biso   1.000  I
  I4827    1.0000 0.76399  0.23601  0.76399  Biso   1.000  I
  I4828    1.0000 0.76399  0.26401  0.73599  Biso   1.000  I
  I4829    1.0000 0.76399  0.73599  0.26401  Biso   1.000  I
  I4830    1.0000 0.76399  0.76399  0.23601  Biso   1.000  I
  I4831    1.0000 0.73599  0.73599  0.23601  Biso   1.000  I
  I4832    1.0000 0.23601  0.73599  0.73599  Biso   1.000  I
  I4833    1.0000 0.26401  0.76399  0.73599  Biso   1.000  I
  I4834    1.0000 0.26401  0.73599  0.76399  Biso   1.000  I
  I4835    1.0000 0.26401  0.26401  0.23601  Biso   1.000  I
  I4836    1.0000 0.26401  0.23601  0.26401  Biso   1.000  I
  I4837    1.0000 0.23601  0.26401  0.26401  Biso   1.000  I
  I4838    1.0000 0.73599  0.23601  0.73599  Biso   1.000  I
  I4839    1.0000 0.23601  0.76399  0.76399  Biso   1.000  I
  I4840    1.0000 0.26401  0.26401  0.23601  Biso   1.000  I
  I4841    1.0000 0.26401  0.23601  0.26401  Biso   1.000  I
  I4842    1.0000 0.23601  0.23601  0.23601  Biso   1.000  I
  I4843    1.0000 0.73599  0.76399  0.26401  Biso   1.000  I
  I4844    1.0000 0.44028  0.94030  0.55972  Biso   1.000  I
  I4845    1.0000 0.44028  0.55972  0.94030  Biso   1.000  I
  I4846    1.0000 0.05970  0.55972  0.55972  Biso   1.000  I
  I4847    1.0000 0.44028  0.05970  0.44028  Biso   1.000  I
  I4848    1.0000 0.44028  0.44028  0.05970  Biso   1.000  I
  I4849    1.0000 0.05970  0.05970  0.05970  Biso   1.000  I
  I4850    1.0000 0.44028  0.05970  0.44028  Biso   1.000  I
  I4851    1.0000 0.94030  0.05970  0.94030  Biso   1.000  I
  I4852    1.0000 0.94030  0.44028  0.55972  Biso   1.000  I
  I4853    1.0000 0.55972  0.05970  0.55972  Biso   1.000  I
  I4854    1.0000 0.44028  0.94030  0.55972  Biso   1.000  I
  I4855    1.0000 0.44028  0.55972  0.94030  Biso   1.000  I
  I4856    1.0000 0.44028  0.05970  0.44028  Biso   1.000  I
  I4857    1.0000 0.05970  0.05970  0.05970  Biso   1.000  I
  I4858    1.0000 0.44028  0.44028  0.05970  Biso   1.000  I
  I4859    1.0000 0.94030  0.05970  0.94030  Biso   1.000  I
  I4860    1.0000 0.55972  0.05970  0.55972  Biso   1.000  I
  I4861    1.0000 0.44028  0.05970  0.44028  Biso   1.000  I
  I4862    1.0000 0.05970  0.44028  0.44028  Biso   1.000  I
  I4863    1.0000 0.44028  0.44028  0.05970  Biso   1.000  I
  I4864    1.0000 0.55972  0.94030  0.44028  Biso   1.000  I
  I4865    1.0000 0.94030  0.55972  0.44028  Biso   1.000  I
  I4866    1.0000 0.44028  0.94030  0.55972  Biso   1.000  I
  I4867    1.0000 0.44028  0.55972  0.94030  Biso   1.000  I
  I4868    1.0000 0.05970  0.94030  0.94030  Biso   1.000  I
  I4869    1.0000 0.05970  0.44028  0.44028  Biso   1.000  I
  I4870    1.0000 0.44028  0.05970  0.44028  Biso   1.000  I
  I4871    1.0000 0.94030  0.94030  0.05970  Biso   1.000  I
  I4872    1.0000 0.55972  0.94030  0.44028  Biso   1.000  I
  I4873    1.0000 0.94030  0.55972  0.44028  Biso   1.000  I
  I4874    1.0000 0.55972  0.44028  0.94030  Biso   1.000  I
  I4875    1.0000 0.94030  0.05970  0.94030  Biso   1.000  I
  I4876    1.0000 0.55972  0.05970  0.55972  Biso   1.000  I
  I4877    1.0000 0.05970  0.44028  0.44028  Biso   1.000  I
  I4878    1.0000 0.05970  0.05970  0.05970  Biso   1.000  I
  I4879    1.0000 0.44028  0.05970  0.44028  Biso   1.000  I
  I4880    1.0000 0.55972  0.55972  0.05970  Biso   1.000  I
  I4881    1.0000 0.55972  0.94030  0.44028  Biso   1.000  I
  I4882    1.0000 0.94030  0.55972  0.44028  Biso   1.000  I
  I4883    1.0000 0.19029  0.30969  0.30969  Biso   1.000  I
  I4884    1.0000 0.19029  0.19029  0.19029  Biso   1.000  I
  I4885    1.0000 0.30969  0.19029  0.30969  Biso   1.000  I
  I4886    1.0000 0.69031  0.80971  0.30969  Biso   1.000  I
  I4887    1.0000 0.80971  0.69031  0.30969  Biso   1.000  I
  I4888    1.0000 0.19029  0.69031  0.69031  Biso   1.000  I
  I4889    1.0000 0.19029  0.80971  0.80971  Biso   1.000  I
  I4890    1.0000 0.19029  0.30969  0.30969  Biso   1.000  I
  I4891    1.0000 0.19029  0.19029  0.19029  Biso   1.000  I
  I4892    1.0000 0.19029  0.69031  0.69031  Biso   1.000  I
  I4893    1.0000 0.30969  0.69031  0.80971  Biso   1.000  I
  I4894    1.0000 0.19029  0.80971  0.80971  Biso   1.000  I
  I4895    1.0000 0.19029  0.30969  0.30969  Biso   1.000  I
  I4896    1.0000 0.30969  0.30969  0.19029  Biso   1.000  I
  I4897    1.0000 0.80971  0.19029  0.80971  Biso   1.000  I
  I4898    1.0000 0.80971  0.30969  0.69031  Biso   1.000  I
  I4899    1.0000 0.69031  0.30969  0.80971  Biso   1.000  I
  I4900    1.0000 0.69031  0.30969  0.80971  Biso   1.000  I
  I4901    1.0000 0.80971  0.30969  0.69031  Biso   1.000  I
  I4902    1.0000 0.30969  0.19029  0.30969  Biso   1.000  I
  I4903    1.0000 0.19029  0.30969  0.30969  Biso   1.000  I
  I4904    1.0000 0.30969  0.30969  0.19029  Biso   1.000  I
  I4905    1.0000 0.19029  0.69031  0.69031  Biso   1.000  I
  I4906    1.0000 0.30969  0.80971  0.69031  Biso   1.000  I
  I4907    1.0000 0.19029  0.80971  0.80971  Biso   1.000  I
  I4908    1.0000 0.19029  0.30969  0.30969  Biso   1.000  I
  I4909    1.0000 0.19029  0.19029  0.19029  Biso   1.000  I
  I4910    1.0000 0.30969  0.30969  0.19029  Biso   1.000  I
  I4911    1.0000 0.69031  0.30969  0.80971  Biso   1.000  I
  I4912    1.0000 0.80971  0.30969  0.69031  Biso   1.000  I
  I4913    1.0000 0.69031  0.19029  0.69031  Biso   1.000  I
  I4914    1.0000 0.19029  0.19029  0.19029  Biso   1.000  I
  I4915    1.0000 0.30969  0.30969  0.19029  Biso   1.000  I
  I4916    1.0000 0.69031  0.69031  0.19029  Biso   1.000  I
  I4917    1.0000 0.69031  0.80971  0.30969  Biso   1.000  I
  I4918    1.0000 0.80971  0.80971  0.19029  Biso   1.000  I
  I4919    1.0000 0.80971  0.80971  0.19029  Biso   1.000  I
  I4920    1.0000 0.69031  0.69031  0.19029  Biso   1.000  I
  I4921    1.0000 0.19029  0.30969  0.30969  Biso   1.000  I
  I4922    1.0000 0.19029  0.19029  0.19029  Biso   1.000  I
  I4923    1.0000 0.30969  0.30969  0.19029  Biso   1.000  I
  I4924    1.0000 0.19029  0.69031  0.69031  Biso   1.000  I
  I4925    1.0000 0.19029  0.80971  0.80971  Biso   1.000  I
  I4926    1.0000 0.80971  0.80971  0.19029  Biso   1.000  I
  I4927    1.0000 0.69031  0.69031  0.19029  Biso   1.000  I
  I4928    1.0000 0.80971  0.69031  0.30969  Biso   1.000  I
  I4929    1.0000 0.80971  0.19029  0.80971  Biso   1.000  I
  I4930    1.0000 0.69031  0.19029  0.69031  Biso   1.000  I
  I4931    1.0000 0.30969  0.19029  0.30969  Biso   1.000  I
  I4932    1.0000 0.19029  0.19029  0.19029  Biso   1.000  I
  I4933    1.0000 0.30969  0.30969  0.19029  Biso   1.000  I
  I4934    1.0000 0.19029  0.30969  0.30969  Biso   1.000  I
  I4935    1.0000 0.19029  0.19029  0.19029  Biso   1.000  I
  I4936    1.0000 0.30969  0.19029  0.30969  Biso   1.000  I
  I4937    1.0000 0.19029  0.30969  0.30969  Biso   1.000  I
  I4938    1.0000 0.19029  0.19029  0.19029  Biso   1.000  I
  I4939    1.0000 0.30969  0.30969  0.19029  Biso   1.000  I
  I4940    1.0000 0.80971  0.30969  0.69031  Biso   1.000  I
  I4941    1.0000 0.69031  0.30969  0.80971  Biso   1.000  I
  I4942    1.0000 0.80971  0.80971  0.19029  Biso   1.000  I
  I4943    1.0000 0.69031  0.69031  0.19029  Biso   1.000  I
  I4944    1.0000 0.30969  0.80971  0.69031  Biso   1.000  I
  I4945    1.0000 0.30969  0.69031  0.80971  Biso   1.000  I
  I4946    1.0000 0.30969  0.19029  0.30969  Biso   1.000  I
  I4947    1.0000 0.19029  0.30969  0.30969  Biso   1.000  I
  I4948    1.0000 0.30969  0.30969  0.19029  Biso   1.000  I
  I4949    1.0000 0.30969  0.19029  0.30969  Biso   1.000  I
  I4950    1.0000 0.19029  0.19029  0.19029  Biso   1.000  I
  I4951    1.0000 0.30969  0.30969  0.19029  Biso   1.000  I
  I4952    1.0000 0.51400  0.98598  0.48600  Biso   1.000  I
  I4953    1.0000 0.48600  0.01402  0.48600  Biso   1.000  I
  I4954    1.0000 0.51400  0.01402  0.51400  Biso   1.000  I
  I4955    1.0000 0.51400  0.48600  0.98598  Biso   1.000  I
  I4956    1.0000 0.48600  0.48600  0.01402  Biso   1.000  I
  I4957    1.0000 0.51400  0.51400  0.01402  Biso   1.000  I
  I4958    1.0000 0.98598  0.51400  0.48600  Biso   1.000  I
  I4959    1.0000 0.98598  0.48600  0.51400  Biso   1.000  I
  I4960    1.0000 0.01402  0.48600  0.48600  Biso   1.000  I
  I4961    1.0000 0.48600  0.98598  0.51400  Biso   1.000  I
  I4962    1.0000 0.51400  0.98598  0.48600  Biso   1.000  I
  I4963    1.0000 0.51400  0.01402  0.51400  Biso   1.000  I
  I4964    1.0000 0.51400  0.48600  0.98598  Biso   1.000  I
  I4965    1.0000 0.48600  0.51400  0.98598  Biso   1.000  I
  I4966    1.0000 0.51400  0.51400  0.01402  Biso   1.000  I
  I4967    1.0000 0.98598  0.01402  0.98598  Biso   1.000  I
  I4968    1.0000 0.51400  0.01402  0.51400  Biso   1.000  I
  I4969    1.0000 0.01402  0.01402  0.01402  Biso   1.000  I
  I4970    1.0000 0.01402  0.51400  0.51400  Biso   1.000  I
  I4971    1.0000 0.48600  0.01402  0.48600  Biso   1.000  I
  I4972    1.0000 0.48600  0.01402  0.48600  Biso   1.000  I
  I4973    1.0000 0.51400  0.48600  0.98598  Biso   1.000  I
  I4974    1.0000 0.48600  0.48600  0.01402  Biso   1.000  I
  I4975    1.0000 0.51400  0.51400  0.01402  Biso   1.000  I
  I4976    1.0000 0.51400  0.01402  0.51400  Biso   1.000  I
  I4977    1.0000 0.98598  0.01402  0.98598  Biso   1.000  I
  I4978    1.0000 0.48600  0.51400  0.98598  Biso   1.000  I
  I4979    1.0000 0.01402  0.01402  0.01402  Biso   1.000  I
  I4980    1.0000 0.48600  0.01402  0.48600  Biso   1.000  I
  I4981    1.0000 0.48600  0.98598  0.51400  Biso   1.000  I
  I4982    1.0000 0.51400  0.98598  0.48600  Biso   1.000  I
  I4983    1.0000 0.51400  0.01402  0.51400  Biso   1.000  I
  I4984    1.0000 0.98598  0.51400  0.48600  Biso   1.000  I
  I4985    1.0000 0.98598  0.48600  0.51400  Biso   1.000  I
  I4986    1.0000 0.01402  0.51400  0.51400  Biso   1.000  I
  I4987    1.0000 0.51400  0.48600  0.98598  Biso   1.000  I
  I4988    1.0000 0.48600  0.51400  0.98598  Biso   1.000  I
  I4989    1.0000 0.51400  0.51400  0.01402  Biso   1.000  I
  I4990    1.0000 0.48600  0.98598  0.51400  Biso   1.000  I
  I4991    1.0000 0.48600  0.01402  0.48600  Biso   1.000  I
  I4992    1.0000 0.51400  0.01402  0.51400  Biso   1.000  I
  I4993    1.0000 0.98598  0.48600  0.51400  Biso   1.000  I
  I4994    1.0000 0.01402  0.51400  0.51400  Biso   1.000  I
  I4995    1.0000 0.01402  0.48600  0.48600  Biso   1.000  I
  I4996    1.0000 0.51400  0.98598  0.48600  Biso   1.000  I
  I4997    1.0000 0.48600  0.01402  0.48600  Biso   1.000  I
  I4998    1.0000 0.51400  0.01402  0.51400  Biso   1.000  I
  I4999    1.0000 0.48600  0.48600  0.01402  Biso   1.000  I
  I5000    1.0000 0.98598  0.98598  0.01402  Biso   1.000  I
  I5001    1.0000 0.98598  0.01402  0.98598  Biso   1.000  I
  I5002    1.0000 0.01402  0.01402  0.01402  Biso   1.000  I
  I5003    1.0000 0.98598  0.51400  0.48600  Biso   1.000  I
  I5004    1.0000 0.98598  0.48600  0.51400  Biso   1.000  I
  I5005    1.0000 0.01402  0.51400  0.51400  Biso   1.000  I
  I5006    1.0000 0.51400  0.98598  0.48600  Biso   1.000  I
  I5007    1.0000 0.01402  0.98598  0.98598  Biso   1.000  I
  I5008    1.0000 0.48600  0.98598  0.51400  Biso   1.000  I
  I5009    1.0000 0.48600  0.01402  0.48600  Biso   1.000  I
  I5010    1.0000 0.51400  0.01402  0.51400  Biso   1.000  I
  I5011    1.0000 0.01402  0.48600  0.48600  Biso   1.000  I
  I5012    1.0000 0.48600  0.51400  0.98598  Biso   1.000  I
  I5013    1.0000 0.48600  0.48600  0.01402  Biso   1.000  I
  I5014    1.0000 0.51400  0.51400  0.01402  Biso   1.000  I
  I5015    1.0000 0.01402  0.01402  0.01402  Biso   1.000  I
  I5016    1.0000 0.48600  0.01402  0.48600  Biso   1.000  I
  I5017    1.0000 0.98598  0.51400  0.48600  Biso   1.000  I
  I5018    1.0000 0.98598  0.48600  0.51400  Biso   1.000  I
  I5019    1.0000 0.01402  0.51400  0.51400  Biso   1.000  I
  I5020    1.0000 0.98598  0.01402  0.98598  Biso   1.000  I
  I5021    1.0000 0.51400  0.01402  0.51400  Biso   1.000  I
  I5022    1.0000 0.51400  0.48600  0.98598  Biso   1.000  I
  I5023    1.0000 0.48600  0.98598  0.51400  Biso   1.000  I
  I5024    1.0000 0.48600  0.01402  0.48600  Biso   1.000  I
  I5025    1.0000 0.51400  0.01402  0.51400  Biso   1.000  I
  I5026    1.0000 0.01402  0.48600  0.48600  Biso   1.000  I
  I5027    1.0000 0.12502  0.37501  0.37501  Biso   1.000  I
  I5028    1.0000 0.26401  0.26401  0.23601  Biso   1.000  I
  I5029    1.0000 0.12502  0.12502  0.12502  Biso   1.000  I
  I5030    1.0000 0.37501  0.12502  0.37501  Biso   1.000  I
  I5031    1.0000 0.62499  0.87498  0.37501  Biso   1.000  I
  I5032    1.0000 0.87498  0.62499  0.37501  Biso   1.000  I
  I5033    1.0000 0.12502  0.62499  0.62499  Biso   1.000  I
  I5034    1.0000 0.12502  0.87498  0.87498  Biso   1.000  I
  I5035    1.0000 0.12502  0.37501  0.37501  Biso   1.000  I
  I5036    1.0000 0.12502  0.12502  0.12502  Biso   1.000  I
  I5037    1.0000 0.12502  0.62499  0.62499  Biso   1.000  I
  I5038    1.0000 0.26401  0.76399  0.73599  Biso   1.000  I
  I5039    1.0000 0.37501  0.62499  0.87498  Biso   1.000  I
  I5040    1.0000 0.12502  0.87498  0.87498  Biso   1.000  I
  I5041    1.0000 0.12502  0.37501  0.37501  Biso   1.000  I
  I5042    1.0000 0.37501  0.37501  0.12502  Biso   1.000  I
  I5043    1.0000 0.87498  0.12502  0.87498  Biso   1.000  I
  I5044    1.0000 0.73599  0.23601  0.73599  Biso   1.000  I
  I5045    1.0000 0.87498  0.37501  0.62499  Biso   1.000  I
  I5046    1.0000 0.62499  0.37501  0.87498  Biso   1.000  I
  I5047    1.0000 0.62499  0.37501  0.87498  Biso   1.000  I
  I5048    1.0000 0.87498  0.37501  0.62499  Biso   1.000  I
  I5049    1.0000 0.37501  0.12502  0.37501  Biso   1.000  I
  I5050    1.0000 0.23601  0.23601  0.23601  Biso   1.000  I
  I5051    1.0000 0.12502  0.37501  0.37501  Biso   1.000  I
  I5052    1.0000 0.37501  0.37501  0.12502  Biso   1.000  I
  I5053    1.0000 0.12502  0.62499  0.62499  Biso   1.000  I
  I5054    1.0000 0.26401  0.73599  0.76399  Biso   1.000  I
  I5055    1.0000 0.37501  0.87498  0.62499  Biso   1.000  I
  I5056    1.0000 0.12502  0.87498  0.87498  Biso   1.000  I
  I5057    1.0000 0.12502  0.37501  0.37501  Biso   1.000  I
  I5058    1.0000 0.26401  0.23601  0.26401  Biso   1.000  I
  I5059    1.0000 0.12502  0.12502  0.12502  Biso   1.000  I
  I5060    1.0000 0.37501  0.37501  0.12502  Biso   1.000  I
  I5061    1.0000 0.62499  0.37501  0.87498  Biso   1.000  I
  I5062    1.0000 0.76399  0.23601  0.76399  Biso   1.000  I
  I5063    1.0000 0.87498  0.37501  0.62499  Biso   1.000  I
  I5064    1.0000 0.62499  0.12502  0.62499  Biso   1.000  I
  I5065    1.0000 0.12502  0.12502  0.12502  Biso   1.000  I
  I5066    1.0000 0.37501  0.37501  0.12502  Biso   1.000  I
  I5067    1.0000 0.62499  0.62499  0.12502  Biso   1.000  I
  I5068    1.0000 0.76399  0.73599  0.26401  Biso   1.000  I
  I5069    1.0000 0.62499  0.87498  0.37501  Biso   1.000  I
  I5070    1.0000 0.87498  0.87498  0.12502  Biso   1.000  I
  I5071    1.0000 0.87498  0.87498  0.12502  Biso   1.000  I
  I5072    1.0000 0.62499  0.62499  0.12502  Biso   1.000  I
  I5073    1.0000 0.12502  0.37501  0.37501  Biso   1.000  I
  I5074    1.0000 0.26401  0.23601  0.26401  Biso   1.000  I
  I5075    1.0000 0.12502  0.12502  0.12502  Biso   1.000  I
  I5076    1.0000 0.37501  0.37501  0.12502  Biso   1.000  I
  I5077    1.0000 0.12502  0.62499  0.62499  Biso   1.000  I
  I5078    1.0000 0.12502  0.87498  0.87498  Biso   1.000  I
  I5079    1.0000 0.87498  0.87498  0.12502  Biso   1.000  I
  I5080    1.0000 0.73599  0.76399  0.26401  Biso   1.000  I
  I5081    1.0000 0.62499  0.62499  0.12502  Biso   1.000  I
  I5082    1.0000 0.87498  0.62499  0.37501  Biso   1.000  I
  I5083    1.0000 0.87498  0.12502  0.87498  Biso   1.000  I
  I5084    1.0000 0.62499  0.12502  0.62499  Biso   1.000  I
  I5085    1.0000 0.37501  0.12502  0.37501  Biso   1.000  I
  I5086    1.0000 0.23601  0.26401  0.26401  Biso   1.000  I
  I5087    1.0000 0.12502  0.12502  0.12502  Biso   1.000  I
  I5088    1.0000 0.37501  0.37501  0.12502  Biso   1.000  I
  I5089    1.0000 0.12502  0.37501  0.37501  Biso   1.000  I
  I5090    1.0000 0.26401  0.26401  0.23601  Biso   1.000  I
  I5091    1.0000 0.12502  0.12502  0.12502  Biso   1.000  I
  I5092    1.0000 0.37501  0.12502  0.37501  Biso   1.000  I
  I5093    1.0000 0.12502  0.37501  0.37501  Biso   1.000  I
  I5094    1.0000 0.26401  0.23601  0.26401  Biso   1.000  I
  I5095    1.0000 0.12502  0.12502  0.12502  Biso   1.000  I
  I5096    1.0000 0.37501  0.37501  0.12502  Biso   1.000  I
  I5097    1.0000 0.87498  0.37501  0.62499  Biso   1.000  I
  I5098    1.0000 0.62499  0.37501  0.87498  Biso   1.000  I
  I5099    1.0000 0.87498  0.87498  0.12502  Biso   1.000  I
  I5100    1.0000 0.62499  0.62499  0.12502  Biso   1.000  I
  I5101    1.0000 0.37501  0.87498  0.62499  Biso   1.000  I
  I5102    1.0000 0.37501  0.62499  0.87498  Biso   1.000  I
  I5103    1.0000 0.37501  0.12502  0.37501  Biso   1.000  I
  I5104    1.0000 0.23601  0.23601  0.23601  Biso   1.000  I
  I5105    1.0000 0.12502  0.37501  0.37501  Biso   1.000  I
  I5106    1.0000 0.37501  0.37501  0.12502  Biso   1.000  I
  I5107    1.0000 0.37501  0.12502  0.37501  Biso   1.000  I
  I5108    1.0000 0.23601  0.26401  0.26401  Biso   1.000  I
  I5109    1.0000 0.12502  0.12502  0.12502  Biso   1.000  I
  I5110    1.0000 0.37501  0.37501  0.12502  Biso   1.000  I
  I5111    1.0000 0.44028  0.05970  0.44028  Biso   1.000  I
  I5112    1.0000 0.55972  0.05970  0.55972  Biso   1.000  I
  I5113    1.0000 0.55972  0.94030  0.44028  Biso   1.000  I
  I5114    1.0000 0.55972  0.55972  0.05970  Biso   1.000  I
  I5115    1.0000 0.55972  0.44028  0.94030  Biso   1.000  I
  I5116    1.0000 0.05970  0.44028  0.44028  Biso   1.000  I
  I5117    1.0000 0.94030  0.55972  0.44028  Biso   1.000  I
  I5118    1.0000 0.55972  0.94030  0.44028  Biso   1.000  I
  I5119    1.0000 0.55972  0.05970  0.55972  Biso   1.000  I
  I5120    1.0000 0.44028  0.55972  0.94030  Biso   1.000  I
  I5121    1.0000 0.55972  0.55972  0.05970  Biso   1.000  I
  I5122    1.0000 0.55972  0.44028  0.94030  Biso   1.000  I
  I5123    1.0000 0.44028  0.44028  0.05970  Biso   1.000  I
  I5124    1.0000 0.55972  0.55972  0.05970  Biso   1.000  I
  I5125    1.0000 0.55972  0.44028  0.94030  Biso   1.000  I
  I5126    1.0000 0.55972  0.94030  0.44028  Biso   1.000  I
  I5127    1.0000 0.55972  0.05970  0.55972  Biso   1.000  I
  I5128    1.0000 0.44028  0.94030  0.55972  Biso   1.000  I
  I5129    1.0000 0.94030  0.44028  0.55972  Biso   1.000  I
  I5130    1.0000 0.05970  0.55972  0.55972  Biso   1.000  I
  I5131    1.0000 0.55972  0.55972  0.05970  Biso   1.000  I
  I5132    1.0000 0.55972  0.44028  0.94030  Biso   1.000  I
  I5133    1.0000 0.55972  0.05970  0.55972  Biso   1.000  I
  I5134    1.0000 0.44028  0.94030  0.55972  Biso   1.000  I
  I5135    1.0000 0.05970  0.55972  0.55972  Biso   1.000  I
  I5136    1.0000 0.05970  0.44028  0.44028  Biso   1.000  I
  I5137    1.0000 0.94030  0.44028  0.55972  Biso   1.000  I
  I5138    1.0000 0.44028  0.05970  0.44028  Biso   1.000  I
  I5139    1.0000 0.55972  0.05970  0.55972  Biso   1.000  I
  I5140    1.0000 0.55972  0.94030  0.44028  Biso   1.000  I
  I5141    1.0000 0.94030  0.05970  0.94030  Biso   1.000  I
  I5142    1.0000 0.05970  0.05970  0.05970  Biso   1.000  I
  I5143    1.0000 0.94030  0.44028  0.55972  Biso   1.000  I
  I5144    1.0000 0.05970  0.55972  0.55972  Biso   1.000  I
  I5145    1.0000 0.94030  0.55972  0.44028  Biso   1.000  I
  I5146    1.0000 0.44028  0.05970  0.44028  Biso   1.000  I
  I5147    1.0000 0.55972  0.05970  0.55972  Biso   1.000  I
  I5148    1.0000 0.44028  0.94030  0.55972  Biso   1.000  I
  I5149    1.0000 0.44028  0.44028  0.05970  Biso   1.000  I
  I5150    1.0000 0.44028  0.55972  0.94030  Biso   1.000  I
  I5151    1.0000 0.94030  0.44028  0.55972  Biso   1.000  I
  I5152    1.0000 0.05970  0.55972  0.55972  Biso   1.000  I
  I5153    1.0000 0.44028  0.05970  0.44028  Biso   1.000  I
  I5154    1.0000 0.55972  0.05970  0.55972  Biso   1.000  I
  I5155    1.0000 0.44028  0.94030  0.55972  Biso   1.000  I
  I5156    1.0000 0.05970  0.44028  0.44028  Biso   1.000  I
  I5157    1.0000 0.05970  0.05970  0.05970  Biso   1.000  I
  I5158    1.0000 0.55972  0.94030  0.44028  Biso   1.000  I
  I5159    1.0000 0.05970  0.55972  0.55972  Biso   1.000  I
  I5160    1.0000 0.05970  0.94030  0.94030  Biso   1.000  I
  I5161    1.0000 0.05970  0.44028  0.44028  Biso   1.000  I
  I5162    1.0000 0.05970  0.05970  0.05970  Biso   1.000  I
  I5163    1.0000 0.05970  0.55972  0.55972  Biso   1.000  I
  I5164    1.0000 0.05970  0.94030  0.94030  Biso   1.000  I
  I5165    1.0000 0.05970  0.44028  0.44028  Biso   1.000  I
  I5166    1.0000 0.44028  0.44028  0.05970  Biso   1.000  I
  I5167    1.0000 0.94030  0.44028  0.55972  Biso   1.000  I
  I5168    1.0000 0.55972  0.44028  0.94030  Biso   1.000  I
  I5169    1.0000 0.55972  0.44028  0.94030  Biso   1.000  I
  I5170    1.0000 0.94030  0.44028  0.55972  Biso   1.000  I
  I5171    1.0000 0.05970  0.44028  0.44028  Biso   1.000  I
  I5172    1.0000 0.44028  0.44028  0.05970  Biso   1.000  I
  I5173    1.0000 0.05970  0.55972  0.55972  Biso   1.000  I
  I5174    1.0000 0.44028  0.94030  0.55972  Biso   1.000  I
  I5175    1.0000 0.05970  0.94030  0.94030  Biso   1.000  I
  I5176    1.0000 0.05970  0.44028  0.44028  Biso   1.000  I
  I5177    1.0000 0.05970  0.05970  0.05970  Biso   1.000  I
  I5178    1.0000 0.44028  0.44028  0.05970  Biso   1.000  I
  I5179    1.0000 0.55972  0.44028  0.94030  Biso   1.000  I
  I5180    1.0000 0.94030  0.44028  0.55972  Biso   1.000  I
  I5181    1.0000 0.55972  0.05970  0.55972  Biso   1.000  I
  I5182    1.0000 0.05970  0.05970  0.05970  Biso   1.000  I
  I5183    1.0000 0.44028  0.44028  0.05970  Biso   1.000  I
  I5184    1.0000 0.55972  0.55972  0.05970  Biso   1.000  I
  I5185    1.0000 0.55972  0.94030  0.44028  Biso   1.000  I
  I5186    1.0000 0.94030  0.94030  0.05970  Biso   1.000  I
  I5187    1.0000 0.94030  0.94030  0.05970  Biso   1.000  I
  I5188    1.0000 0.55972  0.55972  0.05970  Biso   1.000  I
  I5189    1.0000 0.05970  0.44028  0.44028  Biso   1.000  I
  I5190    1.0000 0.05970  0.05970  0.05970  Biso   1.000  I
  I5191    1.0000 0.44028  0.44028  0.05970  Biso   1.000  I
  I5192    1.0000 0.05970  0.55972  0.55972  Biso   1.000  I
  I5193    1.0000 0.05970  0.94030  0.94030  Biso   1.000  I
  I5194    1.0000 0.94030  0.94030  0.05970  Biso   1.000  I
  I5195    1.0000 0.55972  0.55972  0.05970  Biso   1.000  I
  I5196    1.0000 0.94030  0.05970  0.94030  Biso   1.000  I
  I5197    1.0000 0.55972  0.05970  0.55972  Biso   1.000  I
  I5198    1.0000 0.44028  0.05970  0.44028  Biso   1.000  I
  I5199    1.0000 0.05970  0.05970  0.05970  Biso   1.000  I
  I5200    1.0000 0.44028  0.44028  0.05970  Biso   1.000  I
  I5201    1.0000 0.05970  0.44028  0.44028  Biso   1.000  I
  I5202    1.0000 0.05970  0.05970  0.05970  Biso   1.000  I
  I5203    1.0000 0.44028  0.05970  0.44028  Biso   1.000  I
  I5204    1.0000 0.05970  0.44028  0.44028  Biso   1.000  I
  I5205    1.0000 0.05970  0.05970  0.05970  Biso   1.000  I
  I5206    1.0000 0.44028  0.44028  0.05970  Biso   1.000  I
  I5207    1.0000 0.94030  0.44028  0.55972  Biso   1.000  I
  I5208    1.0000 0.55972  0.44028  0.94030  Biso   1.000  I
  I5209    1.0000 0.94030  0.94030  0.05970  Biso   1.000  I
  I5210    1.0000 0.55972  0.55972  0.05970  Biso   1.000  I
  I5211    1.0000 0.44028  0.94030  0.55972  Biso   1.000  I
  I5212    1.0000 0.05970  0.44028  0.44028  Biso   1.000  I
  I5213    1.0000 0.44028  0.44028  0.05970  Biso   1.000  I
  I5214    1.0000 0.05970  0.05970  0.05970  Biso   1.000  I
  I5215    1.0000 0.44028  0.44028  0.05970  Biso   1.000  I
  I5216    1.0000 0.48600  0.98598  0.51400  Biso   1.000  I
  I5217    1.0000 0.62499  0.12502  0.62499  Biso   1.000  I
  I5218    1.0000 0.62499  0.87498  0.37501  Biso   1.000  I
  I5219    1.0000 0.62499  0.62499  0.12502  Biso   1.000  I
  I5220    1.0000 0.62499  0.37501  0.87498  Biso   1.000  I
  I5221    1.0000 0.12502  0.37501  0.37501  Biso   1.000  I
  I5222    1.0000 0.62499  0.87498  0.37501  Biso   1.000  I
  I5223    1.0000 0.62499  0.12502  0.62499  Biso   1.000  I
  I5224    1.0000 0.48600  0.48600  0.01402  Biso   1.000  I
  I5225    1.0000 0.62499  0.62499  0.12502  Biso   1.000  I
  I5226    1.0000 0.62499  0.37501  0.87498  Biso   1.000  I
  I5227    1.0000 0.48600  0.51400  0.98598  Biso   1.000  I
  I5228    1.0000 0.37501  0.37501  0.12502  Biso   1.000  I
  I5229    1.0000 0.62499  0.62499  0.12502  Biso   1.000  I
  I5230    1.0000 0.62499  0.37501  0.87498  Biso   1.000  I
  I5231    1.0000 0.62499  0.87498  0.37501  Biso   1.000  I
  I5232    1.0000 0.48600  0.01402  0.48600  Biso   1.000  I
  I5233    1.0000 0.62499  0.12502  0.62499  Biso   1.000  I
  I5234    1.0000 0.37501  0.87498  0.62499  Biso   1.000  I
  I5235    1.0000 0.87498  0.37501  0.62499  Biso   1.000  I
  I5236    1.0000 0.12502  0.62499  0.62499  Biso   1.000  I
  I5237    1.0000 0.62499  0.62499  0.12502  Biso   1.000  I
  I5238    1.0000 0.62499  0.37501  0.87498  Biso   1.000  I
  I5239    1.0000 0.62499  0.12502  0.62499  Biso   1.000  I
  I5240    1.0000 0.37501  0.87498  0.62499  Biso   1.000  I
  I5241    1.0000 0.98598  0.51400  0.48600  Biso   1.000  I
  I5242    1.0000 0.12502  0.62499  0.62499  Biso   1.000  I
  I5243    1.0000 0.12502  0.37501  0.37501  Biso   1.000  I
  I5244    1.0000 0.87498  0.37501  0.62499  Biso   1.000  I
  I5245    1.0000 0.48600  0.98598  0.51400  Biso   1.000  I
  I5246    1.0000 0.62499  0.12502  0.62499  Biso   1.000  I
  I5247    1.0000 0.62499  0.87498  0.37501  Biso   1.000  I
  I5248    1.0000 0.12502  0.12502  0.12502  Biso   1.000  I
  I5249    1.0000 0.87498  0.37501  0.62499  Biso   1.000  I
  I5250    1.0000 0.01402  0.48600  0.48600  Biso   1.000  I
  I5251    1.0000 0.12502  0.62499  0.62499  Biso   1.000  I
  I5252    1.0000 0.51400  0.98598  0.48600  Biso   1.000  I
  I5253    1.0000 0.62499  0.12502  0.62499  Biso   1.000  I
  I5254    1.0000 0.37501  0.87498  0.62499  Biso   1.000  I
  I5255    1.0000 0.37501  0.37501  0.12502  Biso   1.000  I
  I5256    1.0000 0.87498  0.37501  0.62499  Biso   1.000  I
  I5257    1.0000 0.12502  0.62499  0.62499  Biso   1.000  I
  I5258    1.0000 0.51400  0.98598  0.48600  Biso   1.000  I
  I5259    1.0000 0.62499  0.12502  0.62499  Biso   1.000  I
  I5260    1.0000 0.37501  0.87498  0.62499  Biso   1.000  I
  I5261    1.0000 0.01402  0.51400  0.51400  Biso   1.000  I
  I5262    1.0000 0.01402  0.98598  0.98598  Biso   1.000  I
  I5263    1.0000 0.48600  0.98598  0.51400  Biso   1.000  I
  I5264    1.0000 0.48600  0.01402  0.48600  Biso   1.000  I
  I5265    1.0000 0.51400  0.01402  0.51400  Biso   1.000  I
  I5266    1.0000 0.01402  0.48600  0.48600  Biso   1.000  I
  I5267    1.0000 0.01402  0.01402  0.01402  Biso   1.000  I
  I5268    1.0000 0.01402  0.51400  0.51400  Biso   1.000  I
  I5269    1.0000 0.01402  0.98598  0.98598  Biso   1.000  I
  I5270    1.0000 0.01402  0.48600  0.48600  Biso   1.000  I
  I5271    1.0000 0.01402  0.01402  0.01402  Biso   1.000  I
  I5272    1.0000 0.98598  0.51400  0.48600  Biso   1.000  I
  I5273    1.0000 0.98598  0.48600  0.51400  Biso   1.000  I
  I5274    1.0000 0.01402  0.51400  0.51400  Biso   1.000  I
  I5275    1.0000 0.51400  0.48600  0.98598  Biso   1.000  I
  I5276    1.0000 0.48600  0.51400  0.98598  Biso   1.000  I
  I5277    1.0000 0.51400  0.51400  0.01402  Biso   1.000  I
  I5278    1.0000 0.98598  0.51400  0.48600  Biso   1.000  I
  I5279    1.0000 0.01402  0.51400  0.51400  Biso   1.000  I
  I5280    1.0000 0.01402  0.48600  0.48600  Biso   1.000  I
  I5281    1.0000 0.48600  0.51400  0.98598  Biso   1.000  I
  I5282    1.0000 0.48600  0.48600  0.01402  Biso   1.000  I
  I5283    1.0000 0.51400  0.51400  0.01402  Biso   1.000  I
  I5284    1.0000 0.48600  0.51400  0.98598  Biso   1.000  I
  I5285    1.0000 0.48600  0.48600  0.01402  Biso   1.000  I
  I5286    1.0000 0.51400  0.51400  0.01402  Biso   1.000  I
  I5287    1.0000 0.01402  0.48600  0.48600  Biso   1.000  I
  I5288    1.0000 0.98598  0.51400  0.48600  Biso   1.000  I
  I5289    1.0000 0.98598  0.48600  0.51400  Biso   1.000  I
  I5290    1.0000 0.01402  0.51400  0.51400  Biso   1.000  I
  I5291    1.0000 0.51400  0.48600  0.98598  Biso   1.000  I
  I5292    1.0000 0.01402  0.48600  0.48600  Biso   1.000  I
  I5293    1.0000 0.51400  0.98598  0.48600  Biso   1.000  I
  I5294    1.0000 0.48600  0.01402  0.48600  Biso   1.000  I
  I5295    1.0000 0.51400  0.01402  0.51400  Biso   1.000  I
  I5296    1.0000 0.01402  0.01402  0.01402  Biso   1.000  I
  I5297    1.0000 0.01402  0.51400  0.51400  Biso   1.000  I
  I5298    1.0000 0.01402  0.98598  0.98598  Biso   1.000  I
  I5299    1.0000 0.51400  0.48600  0.98598  Biso   1.000  I
  I5300    1.0000 0.48600  0.51400  0.98598  Biso   1.000  I
  I5301    1.0000 0.51400  0.51400  0.01402  Biso   1.000  I
  I5302    1.0000 0.48600  0.48600  0.01402  Biso   1.000  I
  I5303    1.0000 0.98598  0.51400  0.48600  Biso   1.000  I
  I5304    1.0000 0.01402  0.51400  0.51400  Biso   1.000  I
  I5305    1.0000 0.01402  0.48600  0.48600  Biso   1.000  I
  I5306    1.0000 0.48600  0.98598  0.51400  Biso   1.000  I
  I5307    1.0000 0.98598  0.98598  0.01402  Biso   1.000  I
  I5308    1.0000 0.51400  0.51400  0.01402  Biso   1.000  I
  I5309    1.0000 0.48600  0.48600  0.01402  Biso   1.000  I
  I5310    1.0000 0.01402  0.01402  0.01402  Biso   1.000  I
  I5311    1.0000 0.01402  0.01402  0.01402  Biso   1.000  I
  I5312    1.0000 0.48600  0.48600  0.01402  Biso   1.000  I
  I5313    1.0000 0.01402  0.51400  0.51400  Biso   1.000  I
  I5314    1.0000 0.51400  0.51400  0.01402  Biso   1.000  I
  I5315    1.0000 0.01402  0.48600  0.48600  Biso   1.000  I
  I5316    1.0000 0.01402  0.01402  0.01402  Biso   1.000  I
  I5317    1.0000 0.01402  0.01402  0.01402  Biso   1.000  I
  I5318    1.0000 0.48600  0.48600  0.01402  Biso   1.000  I
  I5319    1.0000 0.01402  0.01402  0.01402  Biso   1.000  I
  I5320    1.0000 0.48600  0.01402  0.48600  Biso   1.000  I
  I5321    1.0000 0.51400  0.01402  0.51400  Biso   1.000  I
  I5322    1.0000 0.51400  0.51400  0.01402  Biso   1.000  I
  I5323    1.0000 0.01402  0.51400  0.51400  Biso   1.000  I
  I5324    1.0000 0.51400  0.01402  0.51400  Biso   1.000  I
  I5325    1.0000 0.98598  0.48600  0.51400  Biso   1.000  I
  I5326    1.0000 0.98598  0.98598  0.01402  Biso   1.000  I
  I5327    1.0000 0.51400  0.51400  0.01402  Biso   1.000  I
  I5328    1.0000 0.98598  0.51400  0.48600  Biso   1.000  I
  I5329    1.0000 0.01402  0.51400  0.51400  Biso   1.000  I
  I5330    1.0000 0.01402  0.48600  0.48600  Biso   1.000  I
  I5331    1.0000 0.48600  0.48600  0.01402  Biso   1.000  I
  I5332    1.0000 0.01402  0.01402  0.01402  Biso   1.000  I
  I5333    1.0000 0.48600  0.48600  0.01402  Biso   1.000  I
  I5334    1.0000 0.51400  0.98598  0.48600  Biso   1.000  I
  I5335    1.0000 0.48600  0.01402  0.48600  Biso   1.000  I
  I5336    1.0000 0.51400  0.01402  0.51400  Biso   1.000  I
  I5337    1.0000 0.98598  0.48600  0.51400  Biso   1.000  I
  I5338    1.0000 0.51400  0.48600  0.98598  Biso   1.000  I
  I5339    1.0000 0.48600  0.51400  0.98598  Biso   1.000  I
  I5340    1.0000 0.51400  0.51400  0.01402  Biso   1.000  I
  I5341    1.0000 0.98598  0.98598  0.01402  Biso   1.000  I
  I5342    1.0000 0.51400  0.51400  0.01402  Biso   1.000  I
  I5343    1.0000 0.69031  0.19029  0.69031  Biso   1.000  I
  I5344    1.0000 0.69031  0.80971  0.30969  Biso   1.000  I
  I5345    1.0000 0.69031  0.69031  0.19029  Biso   1.000  I
  I5346    1.0000 0.69031  0.30969  0.80971  Biso   1.000  I
  I5347    1.0000 0.19029  0.30969  0.30969  Biso   1.000  I
  I5348    1.0000 0.69031  0.80971  0.30969  Biso   1.000  I
  I5349    1.0000 0.69031  0.19029  0.69031  Biso   1.000  I
  I5350    1.0000 0.69031  0.69031  0.19029  Biso   1.000  I
  I5351    1.0000 0.69031  0.30969  0.80971  Biso   1.000  I
  I5352    1.0000 0.30969  0.30969  0.19029  Biso   1.000  I
  I5353    1.0000 0.69031  0.69031  0.19029  Biso   1.000  I
  I5354    1.0000 0.69031  0.30969  0.80971  Biso   1.000  I
  I5355    1.0000 0.69031  0.80971  0.30969  Biso   1.000  I
  I5356    1.0000 0.69031  0.19029  0.69031  Biso   1.000  I
  I5357    1.0000 0.30969  0.80971  0.69031  Biso   1.000  I
  I5358    1.0000 0.80971  0.30969  0.69031  Biso   1.000  I
  I5359    1.0000 0.19029  0.69031  0.69031  Biso   1.000  I
  I5360    1.0000 0.69031  0.69031  0.19029  Biso   1.000  I
  I5361    1.0000 0.69031  0.30969  0.80971  Biso   1.000  I
  I5362    1.0000 0.69031  0.19029  0.69031  Biso   1.000  I
  I5363    1.0000 0.30969  0.80971  0.69031  Biso   1.000  I
  I5364    1.0000 0.19029  0.69031  0.69031  Biso   1.000  I
  I5365    1.0000 0.19029  0.30969  0.30969  Biso   1.000  I
  I5366    1.0000 0.80971  0.30969  0.69031  Biso   1.000  I
  I5367    1.0000 0.69031  0.19029  0.69031  Biso   1.000  I
  I5368    1.0000 0.69031  0.80971  0.30969  Biso   1.000  I
  I5369    1.0000 0.19029  0.19029  0.19029  Biso   1.000  I
  I5370    1.0000 0.80971  0.30969  0.69031  Biso   1.000  I
  I5371    1.0000 0.19029  0.69031  0.69031  Biso   1.000  I
  I5372    1.0000 0.69031  0.19029  0.69031  Biso   1.000  I
  I5373    1.0000 0.30969  0.80971  0.69031  Biso   1.000  I
  I5374    1.0000 0.30969  0.30969  0.19029  Biso   1.000  I
  I5375    1.0000 0.80971  0.30969  0.69031  Biso   1.000  I
  I5376    1.0000 0.19029  0.69031  0.69031  Biso   1.000  I
  I5377    1.0000 0.69031  0.19029  0.69031  Biso   1.000  I
  I5378    1.0000 0.30969  0.80971  0.69031  Biso   1.000  I
  I5379    1.0000 0.44028  0.05970  0.44028  Biso   1.000  I
  I5380    1.0000 0.55972  0.05970  0.55972  Biso   1.000  I
  I5381    1.0000 0.44028  0.94030  0.55972  Biso   1.000  I
  I5382    1.0000 0.05970  0.55972  0.55972  Biso   1.000  I
  I5383    1.0000 0.94030  0.55972  0.44028  Biso   1.000  I
  I5384    1.0000 0.44028  0.55972  0.94030  Biso   1.000  I
  I5385    1.0000 0.55972  0.55972  0.05970  Biso   1.000  I
  I5386    1.0000 0.05970  0.55972  0.55972  Biso   1.000  I
  I5387    1.0000 0.94030  0.55972  0.44028  Biso   1.000  I
  I5388    1.0000 0.55972  0.55972  0.05970  Biso   1.000  I
  I5389    1.0000 0.44028  0.55972  0.94030  Biso   1.000  I
  I5390    1.0000 0.44028  0.44028  0.05970  Biso   1.000  I
  I5391    1.0000 0.55972  0.55972  0.05970  Biso   1.000  I
  I5392    1.0000 0.44028  0.55972  0.94030  Biso   1.000  I
  I5393    1.0000 0.94030  0.44028  0.55972  Biso   1.000  I
  I5394    1.0000 0.05970  0.55972  0.55972  Biso   1.000  I
  I5395    1.0000 0.94030  0.55972  0.44028  Biso   1.000  I
  I5396    1.0000 0.44028  0.05970  0.44028  Biso   1.000  I
  I5397    1.0000 0.44028  0.55972  0.94030  Biso   1.000  I
  I5398    1.0000 0.55972  0.55972  0.05970  Biso   1.000  I
  I5399    1.0000 0.05970  0.55972  0.55972  Biso   1.000  I
  I5400    1.0000 0.94030  0.55972  0.44028  Biso   1.000  I
  I5401    1.0000 0.05970  0.55972  0.55972  Biso   1.000  I
  I5402    1.0000 0.05970  0.44028  0.44028  Biso   1.000  I
  I5403    1.0000 0.94030  0.55972  0.44028  Biso   1.000  I
  I5404    1.0000 0.44028  0.05970  0.44028  Biso   1.000  I
  I5405    1.0000 0.55972  0.05970  0.55972  Biso   1.000  I
  I5406    1.0000 0.55972  0.94030  0.44028  Biso   1.000  I
  I5407    1.0000 0.44028  0.55972  0.94030  Biso   1.000  I
  I5408    1.0000 0.55972  0.55972  0.05970  Biso   1.000  I
  I5409    1.0000 0.55972  0.44028  0.94030  Biso   1.000  I
  I5410    1.0000 0.73599  0.26401  0.76399  Biso   1.000  I
  I5411    1.0000 0.76399  0.23601  0.76399  Biso   1.000  I
  I5412    1.0000 0.76399  0.26401  0.73599  Biso   1.000  I
  I5413    1.0000 0.76399  0.73599  0.26401  Biso   1.000  I
  I5414    1.0000 0.76399  0.76399  0.23601  Biso   1.000  I
  I5415    1.0000 0.73599  0.73599  0.23601  Biso   1.000  I
  I5416    1.0000 0.76399  0.73599  0.26401  Biso   1.000  I
  I5417    1.0000 0.76399  0.76399  0.23601  Biso   1.000  I
  I5418    1.0000 0.73599  0.76399  0.26401  Biso   1.000  I
  I5419    1.0000 0.73599  0.23601  0.73599  Biso   1.000  I
  I5420    1.0000 0.76399  0.23601  0.76399  Biso   1.000  I
  I5421    1.0000 0.76399  0.26401  0.73599  Biso   1.000  I
  I5422    1.0000 0.26401  0.26401  0.23601  Biso   1.000  I
  I5423    1.0000 0.26401  0.23601  0.26401  Biso   1.000  I
  I5424    1.0000 0.23601  0.23601  0.23601  Biso   1.000  I
  I5425    1.0000 0.73599  0.73599  0.23601  Biso   1.000  I
  I5426    1.0000 0.73599  0.26401  0.76399  Biso   1.000  I
  I5427    1.0000 0.76399  0.23601  0.76399  Biso   1.000  I
  I5428    1.0000 0.76399  0.26401  0.73599  Biso   1.000  I
  I5429    1.0000 0.76399  0.73599  0.26401  Biso   1.000  I
  I5430    1.0000 0.76399  0.76399  0.23601  Biso   1.000  I
  I5431    1.0000 0.73599  0.76399  0.26401  Biso   1.000  I
  I5432    1.0000 0.73599  0.23601  0.73599  Biso   1.000  I
  I5433    1.0000 0.26401  0.23601  0.26401  Biso   1.000  I
  I5434    1.0000 0.23601  0.26401  0.26401  Biso   1.000  I
  I5435    1.0000 0.23601  0.23601  0.23601  Biso   1.000  I
  I5436    1.0000 0.76399  0.73599  0.26401  Biso   1.000  I
  I5437    1.0000 0.76399  0.76399  0.23601  Biso   1.000  I
  I5438    1.0000 0.73599  0.76399  0.26401  Biso   1.000  I
  I5439    1.0000 0.73599  0.23601  0.73599  Biso   1.000  I
  I5440    1.0000 0.76399  0.23601  0.76399  Biso   1.000  I
  I5441    1.0000 0.76399  0.26401  0.73599  Biso   1.000  I
  I5442    1.0000 0.73599  0.73599  0.23601  Biso   1.000  I
  I5443    1.0000 0.73599  0.26401  0.76399  Biso   1.000  I
  I5444    1.0000 0.76399  0.23601  0.76399  Biso   1.000  I
  I5445    1.0000 0.76399  0.26401  0.73599  Biso   1.000  I
  I5446    1.0000 0.23601  0.76399  0.76399  Biso   1.000  I
  I5447    1.0000 0.23601  0.73599  0.73599  Biso   1.000  I
  I5448    1.0000 0.26401  0.73599  0.76399  Biso   1.000  I
  I5449    1.0000 0.73599  0.23601  0.73599  Biso   1.000  I
  I5450    1.0000 0.73599  0.26401  0.76399  Biso   1.000  I
  I5451    1.0000 0.76399  0.23601  0.76399  Biso   1.000  I
  I5452    1.0000 0.23601  0.76399  0.76399  Biso   1.000  I
  I5453    1.0000 0.26401  0.76399  0.73599  Biso   1.000  I
  I5454    1.0000 0.26401  0.73599  0.76399  Biso   1.000  I
  I5455    1.0000 0.76399  0.73599  0.26401  Biso   1.000  I
  I5456    1.0000 0.76399  0.76399  0.23601  Biso   1.000  I
  I5457    1.0000 0.73599  0.76399  0.26401  Biso   1.000  I
  I5458    1.0000 0.73599  0.23601  0.73599  Biso   1.000  I
  I5459    1.0000 0.76399  0.26401  0.73599  Biso   1.000  I
  I5460    1.0000 0.23601  0.76399  0.76399  Biso   1.000  I
  I5461    1.0000 0.23601  0.73599  0.73599  Biso   1.000  I
  I5462    1.0000 0.26401  0.73599  0.76399  Biso   1.000  I
  I5463    1.0000 0.26401  0.76399  0.73599  Biso   1.000  I
  I5464    1.0000 0.26401  0.26401  0.23601  Biso   1.000  I
  I5465    1.0000 0.73599  0.23601  0.73599  Biso   1.000  I
  I5466    1.0000 0.73599  0.26401  0.76399  Biso   1.000  I
  I5467    1.0000 0.76399  0.23601  0.76399  Biso   1.000  I
  I5468    1.0000 0.73599  0.26401  0.76399  Biso   1.000  I
  I5469    1.0000 0.76399  0.23601  0.76399  Biso   1.000  I
  I5470    1.0000 0.76399  0.26401  0.73599  Biso   1.000  I
  I5471    1.0000 0.73599  0.73599  0.23601  Biso   1.000  I
  I5472    1.0000 0.26401  0.26401  0.23601  Biso   1.000  I
  I5473    1.0000 0.26401  0.23601  0.26401  Biso   1.000  I
  I5474    1.0000 0.23601  0.26401  0.26401  Biso   1.000  I
  I5475    1.0000 0.73599  0.23601  0.73599  Biso   1.000  I
  I5476    1.0000 0.73599  0.26401  0.76399  Biso   1.000  I
  I5477    1.0000 0.76399  0.23601  0.76399  Biso   1.000  I
  I5478    1.0000 0.23601  0.76399  0.76399  Biso   1.000  I
  I5479    1.0000 0.26401  0.76399  0.73599  Biso   1.000  I
  I5480    1.0000 0.26401  0.73599  0.76399  Biso   1.000  I
  I5481    1.0000 0.73599  0.26401  0.76399  Biso   1.000  I
  I5482    1.0000 0.76399  0.23601  0.76399  Biso   1.000  I
  I5483    1.0000 0.76399  0.26401  0.73599  Biso   1.000  I
  I5484    1.0000 0.23601  0.73599  0.73599  Biso   1.000  I
  I5485    1.0000 0.26401  0.23601  0.26401  Biso   1.000  I
  I5486    1.0000 0.23601  0.26401  0.26401  Biso   1.000  I
  I5487    1.0000 0.23601  0.23601  0.23601  Biso   1.000  I
  I5488    1.0000 0.73599  0.23601  0.73599  Biso   1.000  I
  I5489    1.0000 0.73599  0.26401  0.76399  Biso   1.000  I
  I5490    1.0000 0.76399  0.23601  0.76399  Biso   1.000  I
  I5491    1.0000 0.26401  0.76399  0.73599  Biso   1.000  I
  I5492    1.0000 0.76399  0.26401  0.73599  Biso   1.000  I
  I5493    1.0000 0.23601  0.76399  0.76399  Biso   1.000  I
  I5494    1.0000 0.23601  0.73599  0.73599  Biso   1.000  I
  I5495    1.0000 0.26401  0.73599  0.76399  Biso   1.000  I
  I5496    1.0000 0.51400  0.98598  0.48600  Biso   1.000  I
  I5497    1.0000 0.37501  0.12502  0.37501  Biso   1.000  I
  I5498    1.0000 0.62499  0.12502  0.62499  Biso   1.000  I
  I5499    1.0000 0.37501  0.87498  0.62499  Biso   1.000  I
  I5500    1.0000 0.12502  0.62499  0.62499  Biso   1.000  I
  I5501    1.0000 0.87498  0.62499  0.37501  Biso   1.000  I
  I5502    1.0000 0.37501  0.62499  0.87498  Biso   1.000  I
  I5503    1.0000 0.62499  0.62499  0.12502  Biso   1.000  I
  I5504    1.0000 0.12502  0.62499  0.62499  Biso   1.000  I
  I5505    1.0000 0.87498  0.62499  0.37501  Biso   1.000  I
  I5506    1.0000 0.62499  0.62499  0.12502  Biso   1.000  I
  I5507    1.0000 0.37501  0.62499  0.87498  Biso   1.000  I
  I5508    1.0000 0.51400  0.48600  0.98598  Biso   1.000  I
  I5509    1.0000 0.37501  0.37501  0.12502  Biso   1.000  I
  I5510    1.0000 0.62499  0.62499  0.12502  Biso   1.000  I
  I5511    1.0000 0.37501  0.62499  0.87498  Biso   1.000  I
  I5512    1.0000 0.87498  0.37501  0.62499  Biso   1.000  I
  I5513    1.0000 0.01402  0.48600  0.48600  Biso   1.000  I
  I5514    1.0000 0.12502  0.62499  0.62499  Biso   1.000  I
  I5515    1.0000 0.87498  0.62499  0.37501  Biso   1.000  I
  I5516    1.0000 0.37501  0.12502  0.37501  Biso   1.000  I
  I5517    1.0000 0.37501  0.62499  0.87498  Biso   1.000  I
  I5518    1.0000 0.62499  0.62499  0.12502  Biso   1.000  I
  I5519    1.0000 0.12502  0.62499  0.62499  Biso   1.000  I
  I5520    1.0000 0.87498  0.62499  0.37501  Biso   1.000  I
  I5521    1.0000 0.98598  0.48600  0.51400  Biso   1.000  I
  I5522    1.0000 0.12502  0.62499  0.62499  Biso   1.000  I
  I5523    1.0000 0.12502  0.37501  0.37501  Biso   1.000  I
  I5524    1.0000 0.87498  0.62499  0.37501  Biso   1.000  I
  I5525    1.0000 0.48600  0.98598  0.51400  Biso   1.000  I
  I5526    1.0000 0.37501  0.12502  0.37501  Biso   1.000  I
  I5527    1.0000 0.62499  0.12502  0.62499  Biso   1.000  I
  I5528    1.0000 0.62499  0.87498  0.37501  Biso   1.000  I
  I5529    1.0000 0.37501  0.62499  0.87498  Biso   1.000  I
  I5530    1.0000 0.48600  0.48600  0.01402  Biso   1.000  I
  I5531    1.0000 0.62499  0.62499  0.12502  Biso   1.000  I
  I5532    1.0000 0.62499  0.37501  0.87498  Biso   1.000  I
  I5533    1.0000 0.80971  0.19029  0.80971  Biso   1.000  I
  I5534    1.0000 0.80971  0.30969  0.69031  Biso   1.000  I
  I5535    1.0000 0.80971  0.80971  0.19029  Biso   1.000  I
  I5536    1.0000 0.69031  0.69031  0.19029  Biso   1.000  I
  I5537    1.0000 0.80971  0.69031  0.30969  Biso   1.000  I
  I5538    1.0000 0.80971  0.80971  0.19029  Biso   1.000  I
  I5539    1.0000 0.80971  0.69031  0.30969  Biso   1.000  I
  I5540    1.0000 0.80971  0.19029  0.80971  Biso   1.000  I
  I5541    1.0000 0.80971  0.30969  0.69031  Biso   1.000  I
  I5542    1.0000 0.69031  0.19029  0.69031  Biso   1.000  I
  I5543    1.0000 0.30969  0.19029  0.30969  Biso   1.000  I
  I5544    1.0000 0.19029  0.19029  0.19029  Biso   1.000  I
  I5545    1.0000 0.30969  0.30969  0.19029  Biso   1.000  I
  I5546    1.0000 0.80971  0.19029  0.80971  Biso   1.000  I
  I5547    1.0000 0.80971  0.30969  0.69031  Biso   1.000  I
  I5548    1.0000 0.80971  0.80971  0.19029  Biso   1.000  I
  I5549    1.0000 0.80971  0.69031  0.30969  Biso   1.000  I
  I5550    1.0000 0.19029  0.19029  0.19029  Biso   1.000  I
  I5551    1.0000 0.30969  0.19029  0.30969  Biso   1.000  I
  I5552    1.0000 0.80971  0.80971  0.19029  Biso   1.000  I
  I5553    1.0000 0.80971  0.69031  0.30969  Biso   1.000  I
  I5554    1.0000 0.80971  0.19029  0.80971  Biso   1.000  I
  I5555    1.0000 0.80971  0.30969  0.69031  Biso   1.000  I
  I5556    1.0000 0.69031  0.19029  0.69031  Biso   1.000  I
  I5557    1.0000 0.80971  0.19029  0.80971  Biso   1.000  I
  I5558    1.0000 0.80971  0.30969  0.69031  Biso   1.000  I
  I5559    1.0000 0.69031  0.30969  0.80971  Biso   1.000  I
  I5560    1.0000 0.30969  0.69031  0.80971  Biso   1.000  I
  I5561    1.0000 0.19029  0.80971  0.80971  Biso   1.000  I
  I5562    1.0000 0.69031  0.30969  0.80971  Biso   1.000  I
  I5563    1.0000 0.80971  0.19029  0.80971  Biso   1.000  I
  I5564    1.0000 0.30969  0.80971  0.69031  Biso   1.000  I
  I5565    1.0000 0.30969  0.69031  0.80971  Biso   1.000  I
  I5566    1.0000 0.19029  0.80971  0.80971  Biso   1.000  I
  I5567    1.0000 0.80971  0.80971  0.19029  Biso   1.000  I
  I5568    1.0000 0.69031  0.80971  0.30969  Biso   1.000  I
  I5569    1.0000 0.80971  0.69031  0.30969  Biso   1.000  I
  I5570    1.0000 0.30969  0.69031  0.80971  Biso   1.000  I
  I5571    1.0000 0.19029  0.80971  0.80971  Biso   1.000  I
  I5572    1.0000 0.69031  0.30969  0.80971  Biso   1.000  I
  I5573    1.0000 0.80971  0.19029  0.80971  Biso   1.000  I
  I5574    1.0000 0.69031  0.19029  0.69031  Biso   1.000  I
  I5575    1.0000 0.80971  0.19029  0.80971  Biso   1.000  I
  I5576    1.0000 0.80971  0.30969  0.69031  Biso   1.000  I
  I5577    1.0000 0.69031  0.30969  0.80971  Biso   1.000  I
  I5578    1.0000 0.30969  0.19029  0.30969  Biso   1.000  I
  I5579    1.0000 0.19029  0.30969  0.30969  Biso   1.000  I
  I5580    1.0000 0.30969  0.30969  0.19029  Biso   1.000  I
  I5581    1.0000 0.69031  0.30969  0.80971  Biso   1.000  I
  I5582    1.0000 0.80971  0.19029  0.80971  Biso   1.000  I
  I5583    1.0000 0.30969  0.69031  0.80971  Biso   1.000  I
  I5584    1.0000 0.19029  0.80971  0.80971  Biso   1.000  I
  I5585    1.0000 0.80971  0.19029  0.80971  Biso   1.000  I
  I5586    1.0000 0.80971  0.30969  0.69031  Biso   1.000  I
  I5587    1.0000 0.69031  0.30969  0.80971  Biso   1.000  I
  I5588    1.0000 0.19029  0.30969  0.30969  Biso   1.000  I
  I5589    1.0000 0.19029  0.19029  0.19029  Biso   1.000  I
  I5590    1.0000 0.30969  0.19029  0.30969  Biso   1.000  I
  I5591    1.0000 0.69031  0.30969  0.80971  Biso   1.000  I
  I5592    1.0000 0.80971  0.19029  0.80971  Biso   1.000  I
  I5593    1.0000 0.69031  0.19029  0.69031  Biso   1.000  I
  I5594    1.0000 0.19029  0.69031  0.69031  Biso   1.000  I
  I5595    1.0000 0.30969  0.69031  0.80971  Biso   1.000  I
  I5596    1.0000 0.19029  0.80971  0.80971  Biso   1.000  I
  I5597    1.0000 0.30969  0.19029  0.30969  Biso   1.000  I
  I5598    1.0000 0.69031  0.19029  0.69031  Biso   1.000  I
  I5599    1.0000 0.30969  0.80971  0.69031  Biso   1.000  I
  I5600    1.0000 0.19029  0.69031  0.69031  Biso   1.000  I
  I5601    1.0000 0.80971  0.69031  0.30969  Biso   1.000  I
  I5602    1.0000 0.30969  0.69031  0.80971  Biso   1.000  I
  I5603    1.0000 0.69031  0.69031  0.19029  Biso   1.000  I
  I5604    1.0000 0.19029  0.69031  0.69031  Biso   1.000  I
  I5605    1.0000 0.80971  0.69031  0.30969  Biso   1.000  I
  I5606    1.0000 0.69031  0.69031  0.19029  Biso   1.000  I
  I5607    1.0000 0.30969  0.69031  0.80971  Biso   1.000  I
  I5608    1.0000 0.30969  0.30969  0.19029  Biso   1.000  I
  I5609    1.0000 0.69031  0.69031  0.19029  Biso   1.000  I
  I5610    1.0000 0.30969  0.69031  0.80971  Biso   1.000  I
  I5611    1.0000 0.80971  0.30969  0.69031  Biso   1.000  I
  I5612    1.0000 0.19029  0.69031  0.69031  Biso   1.000  I
  I5613    1.0000 0.80971  0.69031  0.30969  Biso   1.000  I
  I5614    1.0000 0.30969  0.19029  0.30969  Biso   1.000  I
  I5615    1.0000 0.30969  0.69031  0.80971  Biso   1.000  I
  I5616    1.0000 0.69031  0.69031  0.19029  Biso   1.000  I
  I5617    1.0000 0.19029  0.69031  0.69031  Biso   1.000  I
  I5618    1.0000 0.80971  0.69031  0.30969  Biso   1.000  I
  I5619    1.0000 0.19029  0.69031  0.69031  Biso   1.000  I
  I5620    1.0000 0.19029  0.30969  0.30969  Biso   1.000  I
  I5621    1.0000 0.80971  0.69031  0.30969  Biso   1.000  I
  I5622    1.0000 0.30969  0.19029  0.30969  Biso   1.000  I
  I5623    1.0000 0.69031  0.19029  0.69031  Biso   1.000  I
  I5624    1.0000 0.69031  0.80971  0.30969  Biso   1.000  I
  I5625    1.0000 0.30969  0.69031  0.80971  Biso   1.000  I
  I5626    1.0000 0.69031  0.69031  0.19029  Biso   1.000  I
  I5627    1.0000 0.69031  0.30969  0.80971  Biso   1.000  I
  I5628    1.0000 0.87498  0.12502  0.87498  Biso   1.000  I
  I5629    1.0000 0.87498  0.37501  0.62499  Biso   1.000  I
  I5630    1.0000 0.87498  0.87498  0.12502  Biso   1.000  I
  I5631    1.0000 0.73599  0.76399  0.26401  Biso   1.000  I
  I5632    1.0000 0.62499  0.62499  0.12502  Biso   1.000  I
  I5633    1.0000 0.87498  0.62499  0.37501  Biso   1.000  I
  I5634    1.0000 0.87498  0.87498  0.12502  Biso   1.000  I
  I5635    1.0000 0.87498  0.62499  0.37501  Biso   1.000  I
  I5636    1.0000 0.87498  0.12502  0.87498  Biso   1.000  I
  I5637    1.0000 0.73599  0.26401  0.76399  Biso   1.000  I
  I5638    1.0000 0.87498  0.37501  0.62499  Biso   1.000  I
  I5639    1.0000 0.62499  0.12502  0.62499  Biso   1.000  I
  I5640    1.0000 0.37501  0.12502  0.37501  Biso   1.000  I
  I5641    1.0000 0.23601  0.26401  0.26401  Biso   1.000  I
  I5642    1.0000 0.12502  0.12502  0.12502  Biso   1.000  I
  I5643    1.0000 0.37501  0.37501  0.12502  Biso   1.000  I
  I5644    1.0000 0.87498  0.12502  0.87498  Biso   1.000  I
  I5645    1.0000 0.87498  0.37501  0.62499  Biso   1.000  I
  I5646    1.0000 0.87498  0.87498  0.12502  Biso   1.000  I
  I5647    1.0000 0.87498  0.62499  0.37501  Biso   1.000  I
  I5648    1.0000 0.12502  0.12502  0.12502  Biso   1.000  I
  I5649    1.0000 0.37501  0.12502  0.37501  Biso   1.000  I
  I5650    1.0000 0.87498  0.87498  0.12502  Biso   1.000  I
  I5651    1.0000 0.87498  0.62499  0.37501  Biso   1.000  I
  I5652    1.0000 0.87498  0.12502  0.87498  Biso   1.000  I
  I5653    1.0000 0.73599  0.26401  0.76399  Biso   1.000  I
  I5654    1.0000 0.87498  0.37501  0.62499  Biso   1.000  I
  I5655    1.0000 0.62499  0.12502  0.62499  Biso   1.000  I
  I5656    1.0000 0.87498  0.12502  0.87498  Biso   1.000  I
  I5657    1.0000 0.73599  0.23601  0.73599  Biso   1.000  I
  I5658    1.0000 0.87498  0.37501  0.62499  Biso   1.000  I
  I5659    1.0000 0.62499  0.37501  0.87498  Biso   1.000  I
  I5660    1.0000 0.37501  0.62499  0.87498  Biso   1.000  I
  I5661    1.0000 0.12502  0.87498  0.87498  Biso   1.000  I
  I5662    1.0000 0.62499  0.37501  0.87498  Biso   1.000  I
  I5663    1.0000 0.87498  0.12502  0.87498  Biso   1.000  I
  I5664    1.0000 0.37501  0.87498  0.62499  Biso   1.000  I
  I5665    1.0000 0.23601  0.73599  0.73599  Biso   1.000  I
  I5666    1.0000 0.37501  0.62499  0.87498  Biso   1.000  I
  I5667    1.0000 0.12502  0.87498  0.87498  Biso   1.000  I
  I5668    1.0000 0.87498  0.87498  0.12502  Biso   1.000  I
  I5669    1.0000 0.73599  0.73599  0.23601  Biso   1.000  I
  I5670    1.0000 0.62499  0.87498  0.37501  Biso   1.000  I
  I5671    1.0000 0.87498  0.62499  0.37501  Biso   1.000  I
  I5672    1.0000 0.37501  0.62499  0.87498  Biso   1.000  I
  I5673    1.0000 0.12502  0.87498  0.87498  Biso   1.000  I
  I5674    1.0000 0.62499  0.37501  0.87498  Biso   1.000  I
  I5675    1.0000 0.76399  0.26401  0.73599  Biso   1.000  I
  I5676    1.0000 0.87498  0.12502  0.87498  Biso   1.000  I
  I5677    1.0000 0.62499  0.12502  0.62499  Biso   1.000  I
  I5678    1.0000 0.87498  0.12502  0.87498  Biso   1.000  I
  I5679    1.0000 0.73599  0.23601  0.73599  Biso   1.000  I
  I5680    1.0000 0.87498  0.37501  0.62499  Biso   1.000  I
  I5681    1.0000 0.62499  0.37501  0.87498  Biso   1.000  I
  I5682    1.0000 0.37501  0.12502  0.37501  Biso   1.000  I
  I5683    1.0000 0.23601  0.23601  0.23601  Biso   1.000  I
  I5684    1.0000 0.12502  0.37501  0.37501  Biso   1.000  I
  I5685    1.0000 0.37501  0.37501  0.12502  Biso   1.000  I
  I5686    1.0000 0.62499  0.37501  0.87498  Biso   1.000  I
  I5687    1.0000 0.87498  0.12502  0.87498  Biso   1.000  I
  I5688    1.0000 0.37501  0.62499  0.87498  Biso   1.000  I
  I5689    1.0000 0.12502  0.87498  0.87498  Biso   1.000  I
  I5690    1.0000 0.87498  0.12502  0.87498  Biso   1.000  I
  I5691    1.0000 0.73599  0.23601  0.73599  Biso   1.000  I
  I5692    1.0000 0.87498  0.37501  0.62499  Biso   1.000  I
  I5693    1.0000 0.62499  0.37501  0.87498  Biso   1.000  I
  I5694    1.0000 0.12502  0.37501  0.37501  Biso   1.000  I
  I5695    1.0000 0.26401  0.26401  0.23601  Biso   1.000  I
  I5696    1.0000 0.12502  0.12502  0.12502  Biso   1.000  I
  I5697    1.0000 0.37501  0.12502  0.37501  Biso   1.000  I
  I5698    1.0000 0.62499  0.37501  0.87498  Biso   1.000  I
  I5699    1.0000 0.76399  0.26401  0.73599  Biso   1.000  I
  I5700    1.0000 0.87498  0.12502  0.87498  Biso   1.000  I
  I5701    1.0000 0.62499  0.12502  0.62499  Biso   1.000  I
  I5702    1.0000 0.12502  0.62499  0.62499  Biso   1.000  I
  I5703    1.0000 0.26401  0.76399  0.73599  Biso   1.000  I
  I5704    1.0000 0.37501  0.62499  0.87498  Biso   1.000  I
  I5705    1.0000 0.12502  0.87498  0.87498  Biso   1.000  I
  I5706    1.0000 0.26401  0.26401  0.23601  Biso   1.000  I
  I5707    1.0000 0.23601  0.26401  0.26401  Biso   1.000  I
  I5708    1.0000 0.23601  0.23601  0.23601  Biso   1.000  I
  I5709    1.0000 0.73599  0.26401  0.76399  Biso   1.000  I
  I5710    1.0000 0.76399  0.23601  0.76399  Biso   1.000  I
  I5711    1.0000 0.76399  0.26401  0.73599  Biso   1.000  I
  I5712    1.0000 0.23601  0.76399  0.76399  Biso   1.000  I
  I5713    1.0000 0.23601  0.73599  0.73599  Biso   1.000  I
  I5714    1.0000 0.26401  0.73599  0.76399  Biso   1.000  I
  I5715    1.0000 0.23601  0.76399  0.76399  Biso   1.000  I
  I5716    1.0000 0.26401  0.76399  0.73599  Biso   1.000  I
  I5717    1.0000 0.26401  0.73599  0.76399  Biso   1.000  I
  I5718    1.0000 0.76399  0.76399  0.23601  Biso   1.000  I
  I5719    1.0000 0.73599  0.73599  0.23601  Biso   1.000  I
  I5720    1.0000 0.73599  0.76399  0.26401  Biso   1.000  I
  I5721    1.0000 0.23601  0.76399  0.76399  Biso   1.000  I
  I5722    1.0000 0.23601  0.73599  0.73599  Biso   1.000  I
  I5723    1.0000 0.26401  0.76399  0.73599  Biso   1.000  I
  I5724    1.0000 0.76399  0.73599  0.26401  Biso   1.000  I
  I5725    1.0000 0.76399  0.76399  0.23601  Biso   1.000  I
  I5726    1.0000 0.73599  0.76399  0.26401  Biso   1.000  I
  I5727    1.0000 0.23601  0.76399  0.76399  Biso   1.000  I
  I5728    1.0000 0.26401  0.76399  0.73599  Biso   1.000  I
  I5729    1.0000 0.26401  0.73599  0.76399  Biso   1.000  I
  I5730    1.0000 0.73599  0.73599  0.23601  Biso   1.000  I
  I5731    1.0000 0.76399  0.73599  0.26401  Biso   1.000  I
  I5732    1.0000 0.76399  0.76399  0.23601  Biso   1.000  I
  I5733    1.0000 0.73599  0.76399  0.26401  Biso   1.000  I
  I5734    1.0000 0.23601  0.73599  0.73599  Biso   1.000  I
  I5735    1.0000 0.26401  0.23601  0.26401  Biso   1.000  I
  I5736    1.0000 0.76399  0.73599  0.26401  Biso   1.000  I
  I5737    1.0000 0.76399  0.76399  0.23601  Biso   1.000  I
  I5738    1.0000 0.73599  0.76399  0.26401  Biso   1.000  I
  I5739    1.0000 0.23601  0.76399  0.76399  Biso   1.000  I
  I5740    1.0000 0.23601  0.73599  0.73599  Biso   1.000  I
  I5741    1.0000 0.26401  0.76399  0.73599  Biso   1.000  I
  I5742    1.0000 0.73599  0.23601  0.73599  Biso   1.000  I
  I5743    1.0000 0.23601  0.76399  0.76399  Biso   1.000  I
  I5744    1.0000 0.26401  0.76399  0.73599  Biso   1.000  I
  I5745    1.0000 0.26401  0.73599  0.76399  Biso   1.000  I
  I5746    1.0000 0.73599  0.73599  0.23601  Biso   1.000  I
  I5747    1.0000 0.26401  0.26401  0.23601  Biso   1.000  I
  I5748    1.0000 0.23601  0.26401  0.26401  Biso   1.000  I
  I5749    1.0000 0.23601  0.23601  0.23601  Biso   1.000  I
  I5750    1.0000 0.23601  0.76399  0.76399  Biso   1.000  I
  I5751    1.0000 0.23601  0.73599  0.73599  Biso   1.000  I
  I5752    1.0000 0.26401  0.76399  0.73599  Biso   1.000  I
  I5753    1.0000 0.76399  0.73599  0.26401  Biso   1.000  I
  I5754    1.0000 0.26401  0.73599  0.76399  Biso   1.000  I
  I5755    1.0000 0.76399  0.76399  0.23601  Biso   1.000  I
  I5756    1.0000 0.73599  0.73599  0.23601  Biso   1.000  I
  I5757    1.0000 0.73599  0.76399  0.26401  Biso   1.000  I
  I5758    1.0000 0.23601  0.76399  0.76399  Biso   1.000  I
  I5759    1.0000 0.26401  0.76399  0.73599  Biso   1.000  I
  I5760    1.0000 0.26401  0.73599  0.76399  Biso   1.000  I
  I5761    1.0000 0.26401  0.26401  0.23601  Biso   1.000  I
  I5762    1.0000 0.26401  0.23601  0.26401  Biso   1.000  I
  I5763    1.0000 0.23601  0.23601  0.23601  Biso   1.000  I
  I5764    1.0000 0.76399  0.76399  0.23601  Biso   1.000  I
  I5765    1.0000 0.73599  0.73599  0.23601  Biso   1.000  I
  I5766    1.0000 0.73599  0.76399  0.26401  Biso   1.000  I
  I5767    1.0000 0.23601  0.26401  0.26401  Biso   1.000  I
  I5768    1.0000 0.73599  0.26401  0.76399  Biso   1.000  I
  I5769    1.0000 0.76399  0.23601  0.76399  Biso   1.000  I
  I5770    1.0000 0.76399  0.26401  0.73599  Biso   1.000  I
  I5771    1.0000 0.76399  0.73599  0.26401  Biso   1.000  I
  I5772    1.0000 0.76399  0.76399  0.23601  Biso   1.000  I
  I5773    1.0000 0.73599  0.73599  0.23601  Biso   1.000  I
  I5774    1.0000 0.23601  0.73599  0.73599  Biso   1.000  I
  I5775    1.0000 0.76399  0.73599  0.26401  Biso   1.000  I
  I5776    1.0000 0.76399  0.76399  0.23601  Biso   1.000  I
  I5777    1.0000 0.73599  0.76399  0.26401  Biso   1.000  I
  I5778    1.0000 0.73599  0.23601  0.73599  Biso   1.000  I
  I5779    1.0000 0.94030  0.05970  0.94030  Biso   1.000  I
  I5780    1.0000 0.94030  0.44028  0.55972  Biso   1.000  I
  I5781    1.0000 0.94030  0.94030  0.05970  Biso   1.000  I
  I5782    1.0000 0.55972  0.55972  0.05970  Biso   1.000  I
  I5783    1.0000 0.94030  0.55972  0.44028  Biso   1.000  I
  I5784    1.0000 0.94030  0.94030  0.05970  Biso   1.000  I
  I5785    1.0000 0.94030  0.55972  0.44028  Biso   1.000  I
  I5786    1.0000 0.94030  0.05970  0.94030  Biso   1.000  I
  I5787    1.0000 0.94030  0.44028  0.55972  Biso   1.000  I
  I5788    1.0000 0.55972  0.05970  0.55972  Biso   1.000  I
  I5789    1.0000 0.44028  0.05970  0.44028  Biso   1.000  I
  I5790    1.0000 0.05970  0.05970  0.05970  Biso   1.000  I
  I5791    1.0000 0.44028  0.44028  0.05970  Biso   1.000  I
  I5792    1.0000 0.94030  0.05970  0.94030  Biso   1.000  I
  I5793    1.0000 0.94030  0.44028  0.55972  Biso   1.000  I
  I5794    1.0000 0.94030  0.94030  0.05970  Biso   1.000  I
  I5795    1.0000 0.94030  0.55972  0.44028  Biso   1.000  I
  I5796    1.0000 0.05970  0.05970  0.05970  Biso   1.000  I
  I5797    1.0000 0.44028  0.05970  0.44028  Biso   1.000  I
  I5798    1.0000 0.94030  0.94030  0.05970  Biso   1.000  I
  I5799    1.0000 0.94030  0.55972  0.44028  Biso   1.000  I
  I5800    1.0000 0.94030  0.05970  0.94030  Biso   1.000  I
  I5801    1.0000 0.94030  0.44028  0.55972  Biso   1.000  I
  I5802    1.0000 0.55972  0.05970  0.55972  Biso   1.000  I
  I5803    1.0000 0.94030  0.05970  0.94030  Biso   1.000  I
  I5804    1.0000 0.94030  0.44028  0.55972  Biso   1.000  I
  I5805    1.0000 0.55972  0.44028  0.94030  Biso   1.000  I
  I5806    1.0000 0.44028  0.55972  0.94030  Biso   1.000  I
  I5807    1.0000 0.05970  0.94030  0.94030  Biso   1.000  I
  I5808    1.0000 0.55972  0.44028  0.94030  Biso   1.000  I
  I5809    1.0000 0.94030  0.05970  0.94030  Biso   1.000  I
  I5810    1.0000 0.44028  0.94030  0.55972  Biso   1.000  I
  I5811    1.0000 0.44028  0.55972  0.94030  Biso   1.000  I
  I5812    1.0000 0.05970  0.94030  0.94030  Biso   1.000  I
  I5813    1.0000 0.94030  0.94030  0.05970  Biso   1.000  I
  I5814    1.0000 0.55972  0.94030  0.44028  Biso   1.000  I
  I5815    1.0000 0.94030  0.55972  0.44028  Biso   1.000  I
  I5816    1.0000 0.44028  0.55972  0.94030  Biso   1.000  I
  I5817    1.0000 0.05970  0.94030  0.94030  Biso   1.000  I
  I5818    1.0000 0.55972  0.44028  0.94030  Biso   1.000  I
  I5819    1.0000 0.94030  0.05970  0.94030  Biso   1.000  I
  I5820    1.0000 0.55972  0.05970  0.55972  Biso   1.000  I
  I5821    1.0000 0.94030  0.05970  0.94030  Biso   1.000  I
  I5822    1.0000 0.94030  0.44028  0.55972  Biso   1.000  I
  I5823    1.0000 0.55972  0.44028  0.94030  Biso   1.000  I
  I5824    1.0000 0.44028  0.05970  0.44028  Biso   1.000  I
  I5825    1.0000 0.05970  0.44028  0.44028  Biso   1.000  I
  I5826    1.0000 0.44028  0.44028  0.05970  Biso   1.000  I
  I5827    1.0000 0.55972  0.44028  0.94030  Biso   1.000  I
  I5828    1.0000 0.94030  0.05970  0.94030  Biso   1.000  I
  I5829    1.0000 0.44028  0.55972  0.94030  Biso   1.000  I
  I5830    1.0000 0.05970  0.94030  0.94030  Biso   1.000  I
  I5831    1.0000 0.94030  0.05970  0.94030  Biso   1.000  I
  I5832    1.0000 0.94030  0.44028  0.55972  Biso   1.000  I
  I5833    1.0000 0.55972  0.44028  0.94030  Biso   1.000  I
  I5834    1.0000 0.05970  0.44028  0.44028  Biso   1.000  I
  I5835    1.0000 0.05970  0.05970  0.05970  Biso   1.000  I
  I5836    1.0000 0.44028  0.05970  0.44028  Biso   1.000  I
  I5837    1.0000 0.55972  0.44028  0.94030  Biso   1.000  I
  I5838    1.0000 0.94030  0.05970  0.94030  Biso   1.000  I
  I5839    1.0000 0.55972  0.05970  0.55972  Biso   1.000  I
  I5840    1.0000 0.05970  0.55972  0.55972  Biso   1.000  I
  I5841    1.0000 0.44028  0.55972  0.94030  Biso   1.000  I
  I5842    1.0000 0.05970  0.94030  0.94030  Biso   1.000  I
  I5843    1.0000 0.19029  0.30969  0.30969  Biso   1.000  I
  I5844    1.0000 0.19029  0.19029  0.19029  Biso   1.000  I
  I5845    1.0000 0.80971  0.19029  0.80971  Biso   1.000  I
  I5846    1.0000 0.69031  0.30969  0.80971  Biso   1.000  I
  I5847    1.0000 0.19029  0.69031  0.69031  Biso   1.000  I
  I5848    1.0000 0.30969  0.69031  0.80971  Biso   1.000  I
  I5849    1.0000 0.19029  0.80971  0.80971  Biso   1.000  I
  I5850    1.0000 0.30969  0.80971  0.69031  Biso   1.000  I
  I5851    1.0000 0.19029  0.80971  0.80971  Biso   1.000  I
  I5852    1.0000 0.69031  0.80971  0.30969  Biso   1.000  I
  I5853    1.0000 0.80971  0.80971  0.19029  Biso   1.000  I
  I5854    1.0000 0.30969  0.80971  0.69031  Biso   1.000  I
  I5855    1.0000 0.19029  0.80971  0.80971  Biso   1.000  I
  I5856    1.0000 0.80971  0.80971  0.19029  Biso   1.000  I
  I5857    1.0000 0.69031  0.80971  0.30969  Biso   1.000  I
  I5858    1.0000 0.30969  0.80971  0.69031  Biso   1.000  I
  I5859    1.0000 0.30969  0.69031  0.80971  Biso   1.000  I
  I5860    1.0000 0.19029  0.80971  0.80971  Biso   1.000  I
  I5861    1.0000 0.80971  0.80971  0.19029  Biso   1.000  I
  I5862    1.0000 0.69031  0.80971  0.30969  Biso   1.000  I
  I5863    1.0000 0.80971  0.69031  0.30969  Biso   1.000  I
  I5864    1.0000 0.80971  0.80971  0.19029  Biso   1.000  I
  I5865    1.0000 0.69031  0.80971  0.30969  Biso   1.000  I
  I5866    1.0000 0.19029  0.69031  0.69031  Biso   1.000  I
  I5867    1.0000 0.30969  0.80971  0.69031  Biso   1.000  I
  I5868    1.0000 0.19029  0.80971  0.80971  Biso   1.000  I
  I5869    1.0000 0.30969  0.80971  0.69031  Biso   1.000  I
  I5870    1.0000 0.30969  0.69031  0.80971  Biso   1.000  I
  I5871    1.0000 0.19029  0.80971  0.80971  Biso   1.000  I
  I5872    1.0000 0.19029  0.30969  0.30969  Biso   1.000  I
  I5873    1.0000 0.19029  0.19029  0.19029  Biso   1.000  I
  I5874    1.0000 0.30969  0.30969  0.19029  Biso   1.000  I
  I5875    1.0000 0.19029  0.69031  0.69031  Biso   1.000  I
  I5876    1.0000 0.30969  0.80971  0.69031  Biso   1.000  I
  I5877    1.0000 0.19029  0.80971  0.80971  Biso   1.000  I
  I5878    1.0000 0.69031  0.69031  0.19029  Biso   1.000  I
  I5879    1.0000 0.69031  0.80971  0.30969  Biso   1.000  I
  I5880    1.0000 0.80971  0.80971  0.19029  Biso   1.000  I
  I5881    1.0000 0.30969  0.80971  0.69031  Biso   1.000  I
  I5882    1.0000 0.19029  0.80971  0.80971  Biso   1.000  I
  I5883    1.0000 0.19029  0.19029  0.19029  Biso   1.000  I
  I5884    1.0000 0.30969  0.30969  0.19029  Biso   1.000  I
  I5885    1.0000 0.69031  0.69031  0.19029  Biso   1.000  I
  I5886    1.0000 0.69031  0.80971  0.30969  Biso   1.000  I
  I5887    1.0000 0.80971  0.80971  0.19029  Biso   1.000  I
  I5888    1.0000 0.80971  0.19029  0.80971  Biso   1.000  I
  I5889    1.0000 0.80971  0.30969  0.69031  Biso   1.000  I
  I5890    1.0000 0.80971  0.80971  0.19029  Biso   1.000  I
  I5891    1.0000 0.69031  0.69031  0.19029  Biso   1.000  I
  I5892    1.0000 0.80971  0.69031  0.30969  Biso   1.000  I
  I5893    1.0000 0.80971  0.80971  0.19029  Biso   1.000  I
  I5894    1.0000 0.69031  0.80971  0.30969  Biso   1.000  I
  I5895    1.0000 0.80971  0.69031  0.30969  Biso   1.000  I
  I5896    1.0000 0.98598  0.98598  0.01402  Biso   1.000  I
  I5897    1.0000 0.98598  0.51400  0.48600  Biso   1.000  I
  I5898    1.0000 0.48600  0.48600  0.01402  Biso   1.000  I
  I5899    1.0000 0.98598  0.48600  0.51400  Biso   1.000  I
  I5900    1.0000 0.98598  0.01402  0.98598  Biso   1.000  I
  I5901    1.0000 0.98598  0.48600  0.51400  Biso   1.000  I
  I5902    1.0000 0.98598  0.51400  0.48600  Biso   1.000  I
  I5903    1.0000 0.48600  0.01402  0.48600  Biso   1.000  I
  I5904    1.0000 0.51400  0.01402  0.51400  Biso   1.000  I
  I5905    1.0000 0.51400  0.51400  0.01402  Biso   1.000  I
  I5906    1.0000 0.98598  0.98598  0.01402  Biso   1.000  I
  I5907    1.0000 0.98598  0.51400  0.48600  Biso   1.000  I
  I5908    1.0000 0.98598  0.01402  0.98598  Biso   1.000  I
  I5909    1.0000 0.98598  0.48600  0.51400  Biso   1.000  I
  I5910    1.0000 0.98598  0.01402  0.98598  Biso   1.000  I
  I5911    1.0000 0.51400  0.01402  0.51400  Biso   1.000  I
  I5912    1.0000 0.98598  0.01402  0.98598  Biso   1.000  I
  I5913    1.0000 0.98598  0.48600  0.51400  Biso   1.000  I
  I5914    1.0000 0.98598  0.51400  0.48600  Biso   1.000  I
  I5915    1.0000 0.48600  0.01402  0.48600  Biso   1.000  I
  I5916    1.0000 0.98598  0.51400  0.48600  Biso   1.000  I
  I5917    1.0000 0.48600  0.51400  0.98598  Biso   1.000  I
  I5918    1.0000 0.51400  0.48600  0.98598  Biso   1.000  I
  I5919    1.0000 0.98598  0.01402  0.98598  Biso   1.000  I
  I5920    1.0000 0.48600  0.51400  0.98598  Biso   1.000  I
  I5921    1.0000 0.01402  0.98598  0.98598  Biso   1.000  I
  I5922    1.0000 0.51400  0.98598  0.48600  Biso   1.000  I
  I5923    1.0000 0.48600  0.01402  0.48600  Biso   1.000  I
  I5924    1.0000 0.51400  0.01402  0.51400  Biso   1.000  I
  I5925    1.0000 0.51400  0.48600  0.98598  Biso   1.000  I
  I5926    1.0000 0.98598  0.01402  0.98598  Biso   1.000  I
  I5927    1.0000 0.98598  0.01402  0.98598  Biso   1.000  I
  I5928    1.0000 0.48600  0.98598  0.51400  Biso   1.000  I
  I5929    1.0000 0.98598  0.48600  0.51400  Biso   1.000  I
  I5930    1.0000 0.51400  0.48600  0.98598  Biso   1.000  I
  I5931    1.0000 0.98598  0.01402  0.98598  Biso   1.000  I
  I5932    1.0000 0.48600  0.51400  0.98598  Biso   1.000  I
  I5933    1.0000 0.48600  0.01402  0.48600  Biso   1.000  I
  I5934    1.0000 0.98598  0.98598  0.01402  Biso   1.000  I
  I5935    1.0000 0.98598  0.51400  0.48600  Biso   1.000  I
  I5936    1.0000 0.48600  0.51400  0.98598  Biso   1.000  I
  I5937    1.0000 0.48600  0.48600  0.01402  Biso   1.000  I
  I5938    1.0000 0.51400  0.51400  0.01402  Biso   1.000  I
  I5939    1.0000 0.98598  0.51400  0.48600  Biso   1.000  I
  I5940    1.0000 0.98598  0.48600  0.51400  Biso   1.000  I
  I5941    1.0000 0.01402  0.51400  0.51400  Biso   1.000  I
  I5942    1.0000 0.51400  0.48600  0.98598  Biso   1.000  I
  I5943    1.0000 0.48600  0.51400  0.98598  Biso   1.000  I
  I5944    1.0000 0.01402  0.98598  0.98598  Biso   1.000  I
  I5945    1.0000 0.51400  0.48600  0.98598  Biso   1.000  I
  I5946    1.0000 0.98598  0.01402  0.98598  Biso   1.000  I
  I5947    1.0000 0.01402  0.98598  0.98598  Biso   1.000  I
  I5948    1.0000 0.01402  0.48600  0.48600  Biso   1.000  I
  I5949    1.0000 0.48600  0.51400  0.98598  Biso   1.000  I
  I5950    1.0000 0.01402  0.51400  0.51400  Biso   1.000  I
  I5951    1.0000 0.51400  0.01402  0.51400  Biso   1.000  I
  I5952    1.0000 0.48600  0.51400  0.98598  Biso   1.000  I
  I5953    1.0000 0.48600  0.01402  0.48600  Biso   1.000  I
  I5954    1.0000 0.01402  0.48600  0.48600  Biso   1.000  I
  I5955    1.0000 0.51400  0.48600  0.98598  Biso   1.000  I
  I5956    1.0000 0.12502  0.37501  0.37501  Biso   1.000  I
  I5957    1.0000 0.12502  0.12502  0.12502  Biso   1.000  I
  I5958    1.0000 0.87498  0.12502  0.87498  Biso   1.000  I
  I5959    1.0000 0.62499  0.37501  0.87498  Biso   1.000  I
  I5960    1.0000 0.12502  0.62499  0.62499  Biso   1.000  I
  I5961    1.0000 0.26401  0.76399  0.73599  Biso   1.000  I
  I5962    1.0000 0.37501  0.62499  0.87498  Biso   1.000  I
  I5963    1.0000 0.12502  0.87498  0.87498  Biso   1.000  I
  I5964    1.0000 0.37501  0.87498  0.62499  Biso   1.000  I
  I5965    1.0000 0.12502  0.87498  0.87498  Biso   1.000  I
  I5966    1.0000 0.62499  0.87498  0.37501  Biso   1.000  I
  I5967    1.0000 0.87498  0.87498  0.12502  Biso   1.000  I
  I5968    1.0000 0.37501  0.87498  0.62499  Biso   1.000  I
  I5969    1.0000 0.12502  0.87498  0.87498  Biso   1.000  I
  I5970    1.0000 0.87498  0.87498  0.12502  Biso   1.000  I
  I5971    1.0000 0.62499  0.87498  0.37501  Biso   1.000  I
  I5972    1.0000 0.37501  0.87498  0.62499  Biso   1.000  I
  I5973    1.0000 0.23601  0.73599  0.73599  Biso   1.000  I
  I5974    1.0000 0.37501  0.62499  0.87498  Biso   1.000  I
  I5975    1.0000 0.12502  0.87498  0.87498  Biso   1.000  I
  I5976    1.0000 0.87498  0.87498  0.12502  Biso   1.000  I
  I5977    1.0000 0.73599  0.73599  0.23601  Biso   1.000  I
  I5978    1.0000 0.62499  0.87498  0.37501  Biso   1.000  I
  I5979    1.0000 0.87498  0.62499  0.37501  Biso   1.000  I
  I5980    1.0000 0.87498  0.87498  0.12502  Biso   1.000  I
  I5981    1.0000 0.62499  0.87498  0.37501  Biso   1.000  I
  I5982    1.0000 0.12502  0.62499  0.62499  Biso   1.000  I
  I5983    1.0000 0.26401  0.73599  0.76399  Biso   1.000  I
  I5984    1.0000 0.37501  0.87498  0.62499  Biso   1.000  I
  I5985    1.0000 0.12502  0.87498  0.87498  Biso   1.000  I
  I5986    1.0000 0.37501  0.87498  0.62499  Biso   1.000  I
  I5987    1.0000 0.23601  0.73599  0.73599  Biso   1.000  I
  I5988    1.0000 0.37501  0.62499  0.87498  Biso   1.000  I
  I5989    1.0000 0.12502  0.87498  0.87498  Biso   1.000  I
  I5990    1.0000 0.12502  0.37501  0.37501  Biso   1.000  I
  I5991    1.0000 0.26401  0.23601  0.26401  Biso   1.000  I
  I5992    1.0000 0.12502  0.12502  0.12502  Biso   1.000  I
  I5993    1.0000 0.37501  0.37501  0.12502  Biso   1.000  I
  I5994    1.0000 0.12502  0.62499  0.62499  Biso   1.000  I
  I5995    1.0000 0.26401  0.73599  0.76399  Biso   1.000  I
  I5996    1.0000 0.37501  0.87498  0.62499  Biso   1.000  I
  I5997    1.0000 0.12502  0.87498  0.87498  Biso   1.000  I
  I5998    1.0000 0.62499  0.62499  0.12502  Biso   1.000  I
  I5999    1.0000 0.76399  0.73599  0.26401  Biso   1.000  I
  I6000    1.0000 0.62499  0.87498  0.37501  Biso   1.000  I
  I6001    1.0000 0.87498  0.87498  0.12502  Biso   1.000  I
  I6002    1.0000 0.37501  0.87498  0.62499  Biso   1.000  I
  I6003    1.0000 0.12502  0.87498  0.87498  Biso   1.000  I
  I6004    1.0000 0.12502  0.12502  0.12502  Biso   1.000  I
  I6005    1.0000 0.37501  0.37501  0.12502  Biso   1.000  I
  I6006    1.0000 0.62499  0.62499  0.12502  Biso   1.000  I
  I6007    1.0000 0.76399  0.73599  0.26401  Biso   1.000  I
  I6008    1.0000 0.62499  0.87498  0.37501  Biso   1.000  I
  I6009    1.0000 0.87498  0.87498  0.12502  Biso   1.000  I
  I6010    1.0000 0.87498  0.12502  0.87498  Biso   1.000  I
  I6011    1.0000 0.87498  0.37501  0.62499  Biso   1.000  I
  I6012    1.0000 0.87498  0.87498  0.12502  Biso   1.000  I
  I6013    1.0000 0.73599  0.76399  0.26401  Biso   1.000  I
  I6014    1.0000 0.62499  0.62499  0.12502  Biso   1.000  I
  I6015    1.0000 0.87498  0.62499  0.37501  Biso   1.000  I
  I6016    1.0000 0.87498  0.87498  0.12502  Biso   1.000  I
  I6017    1.0000 0.73599  0.73599  0.23601  Biso   1.000  I
  I6018    1.0000 0.62499  0.87498  0.37501  Biso   1.000  I
  I6019    1.0000 0.87498  0.62499  0.37501  Biso   1.000  I
  I6020    1.0000 0.55972  0.05970  0.55972  Biso   1.000  I
  I6021    1.0000 0.55972  0.55972  0.05970  Biso   1.000  I
  I6022    1.0000 0.44028  0.55972  0.94030  Biso   1.000  I
  I6023    1.0000 0.05970  0.55972  0.55972  Biso   1.000  I
  I6024    1.0000 0.94030  0.55972  0.44028  Biso   1.000  I
  I6025    1.0000 0.05970  0.44028  0.44028  Biso   1.000  I
  I6026    1.0000 0.05970  0.05970  0.05970  Biso   1.000  I
  I6027    1.0000 0.94030  0.05970  0.94030  Biso   1.000  I
  I6028    1.0000 0.55972  0.44028  0.94030  Biso   1.000  I
  I6029    1.0000 0.05970  0.55972  0.55972  Biso   1.000  I
  I6030    1.0000 0.44028  0.55972  0.94030  Biso   1.000  I
  I6031    1.0000 0.05970  0.94030  0.94030  Biso   1.000  I
  I6032    1.0000 0.44028  0.94030  0.55972  Biso   1.000  I
  I6033    1.0000 0.05970  0.94030  0.94030  Biso   1.000  I
  I6034    1.0000 0.55972  0.94030  0.44028  Biso   1.000  I
  I6035    1.0000 0.94030  0.94030  0.05970  Biso   1.000  I
  I6036    1.0000 0.44028  0.94030  0.55972  Biso   1.000  I
  I6037    1.0000 0.05970  0.94030  0.94030  Biso   1.000  I
  I6038    1.0000 0.94030  0.94030  0.05970  Biso   1.000  I
  I6039    1.0000 0.55972  0.94030  0.44028  Biso   1.000  I
  I6040    1.0000 0.44028  0.94030  0.55972  Biso   1.000  I
  I6041    1.0000 0.05970  0.94030  0.94030  Biso   1.000  I
  I6042    1.0000 0.94030  0.94030  0.05970  Biso   1.000  I
  I6043    1.0000 0.55972  0.94030  0.44028  Biso   1.000  I
  I6044    1.0000 0.94030  0.94030  0.05970  Biso   1.000  I
  I6045    1.0000 0.55972  0.94030  0.44028  Biso   1.000  I
  I6046    1.0000 0.05970  0.55972  0.55972  Biso   1.000  I
  I6047    1.0000 0.44028  0.94030  0.55972  Biso   1.000  I
  I6048    1.0000 0.05970  0.94030  0.94030  Biso   1.000  I
  I6049    1.0000 0.44028  0.94030  0.55972  Biso   1.000  I
  I6050    1.0000 0.44028  0.55972  0.94030  Biso   1.000  I
  I6051    1.0000 0.05970  0.94030  0.94030  Biso   1.000  I
  I6052    1.0000 0.05970  0.44028  0.44028  Biso   1.000  I
  I6053    1.0000 0.05970  0.05970  0.05970  Biso   1.000  I
  I6054    1.0000 0.44028  0.44028  0.05970  Biso   1.000  I
  I6055    1.0000 0.05970  0.55972  0.55972  Biso   1.000  I
  I6056    1.0000 0.44028  0.94030  0.55972  Biso   1.000  I
  I6057    1.0000 0.05970  0.94030  0.94030  Biso   1.000  I
  I6058    1.0000 0.55972  0.55972  0.05970  Biso   1.000  I
  I6059    1.0000 0.55972  0.94030  0.44028  Biso   1.000  I
  I6060    1.0000 0.94030  0.94030  0.05970  Biso   1.000  I
  I6061    1.0000 0.44028  0.94030  0.55972  Biso   1.000  I
  I6062    1.0000 0.05970  0.94030  0.94030  Biso   1.000  I
  I6063    1.0000 0.05970  0.05970  0.05970  Biso   1.000  I
  I6064    1.0000 0.44028  0.44028  0.05970  Biso   1.000  I
  I6065    1.0000 0.55972  0.55972  0.05970  Biso   1.000  I
  I6066    1.0000 0.55972  0.94030  0.44028  Biso   1.000  I
  I6067    1.0000 0.94030  0.94030  0.05970  Biso   1.000  I
  I6068    1.0000 0.94030  0.05970  0.94030  Biso   1.000  I
  I6069    1.0000 0.94030  0.44028  0.55972  Biso   1.000  I
  I6070    1.0000 0.94030  0.94030  0.05970  Biso   1.000  I
  I6071    1.0000 0.55972  0.55972  0.05970  Biso   1.000  I
  I6072    1.0000 0.94030  0.55972  0.44028  Biso   1.000  I
  I6073    1.0000 0.94030  0.94030  0.05970  Biso   1.000  I
  I6074    1.0000 0.55972  0.94030  0.44028  Biso   1.000  I
  I6075    1.0000 0.94030  0.55972  0.44028  Biso   1.000  I
  I6076    1.0000 0.62499  0.12502  0.62499  Biso   1.000  I
  I6077    1.0000 0.62499  0.62499  0.12502  Biso   1.000  I
  I6078    1.0000 0.12502  0.62499  0.62499  Biso   1.000  I
  I6079    1.0000 0.01402  0.51400  0.51400  Biso   1.000  I
  I6080    1.0000 0.01402  0.98598  0.98598  Biso   1.000  I
  I6081    1.0000 0.01402  0.98598  0.98598  Biso   1.000  I
  I6082    1.0000 0.48600  0.51400  0.98598  Biso   1.000  I
  I6083    1.0000 0.01402  0.48600  0.48600  Biso   1.000  I
  I6084    1.0000 0.51400  0.48600  0.98598  Biso   1.000  I
  I6085    1.0000 0.51400  0.98598  0.48600  Biso   1.000  I
  I6086    1.0000 0.98598  0.98598  0.01402  Biso   1.000  I
  I6087    1.0000 0.48600  0.98598  0.51400  Biso   1.000  I
  I6088    1.0000 0.01402  0.98598  0.98598  Biso   1.000  I
  I6089    1.0000 0.51400  0.98598  0.48600  Biso   1.000  I
  I6090    1.0000 0.98598  0.98598  0.01402  Biso   1.000  I
  I6091    1.0000 0.01402  0.98598  0.98598  Biso   1.000  I
  I6092    1.0000 0.48600  0.98598  0.51400  Biso   1.000  I
  I6093    1.0000 0.51400  0.98598  0.48600  Biso   1.000  I
  I6094    1.0000 0.98598  0.98598  0.01402  Biso   1.000  I
  I6095    1.0000 0.01402  0.98598  0.98598  Biso   1.000  I
  I6096    1.0000 0.48600  0.98598  0.51400  Biso   1.000  I
  I6097    1.0000 0.01402  0.98598  0.98598  Biso   1.000  I
  I6098    1.0000 0.48600  0.98598  0.51400  Biso   1.000  I
  I6099    1.0000 0.01402  0.48600  0.48600  Biso   1.000  I
  I6100    1.0000 0.51400  0.98598  0.48600  Biso   1.000  I
  I6101    1.0000 0.51400  0.98598  0.48600  Biso   1.000  I
  I6102    1.0000 0.51400  0.48600  0.98598  Biso   1.000  I
  I6103    1.0000 0.01402  0.51400  0.51400  Biso   1.000  I
  I6104    1.0000 0.51400  0.51400  0.01402  Biso   1.000  I
  I6105    1.0000 0.01402  0.48600  0.48600  Biso   1.000  I
  I6106    1.0000 0.51400  0.98598  0.48600  Biso   1.000  I
  I6107    1.0000 0.48600  0.48600  0.01402  Biso   1.000  I
  I6108    1.0000 0.48600  0.98598  0.51400  Biso   1.000  I
  I6109    1.0000 0.51400  0.98598  0.48600  Biso   1.000  I
  I6110    1.0000 0.98598  0.98598  0.01402  Biso   1.000  I
  I6111    1.0000 0.98598  0.98598  0.01402  Biso   1.000  I
  I6112    1.0000 0.51400  0.51400  0.01402  Biso   1.000  I
  I6113    1.0000 0.48600  0.48600  0.01402  Biso   1.000  I
  I6114    1.0000 0.48600  0.98598  0.51400  Biso   1.000  I
  I6115    1.0000 0.98598  0.98598  0.01402  Biso   1.000  I
  I6116    1.0000 0.98598  0.51400  0.48600  Biso   1.000  I
  I6117    1.0000 0.48600  0.48600  0.01402  Biso   1.000  I
  I6118    1.0000 0.98598  0.48600  0.51400  Biso   1.000  I
  I6119    1.0000 0.48600  0.98598  0.51400  Biso   1.000  I
  I6120    1.0000 0.98598  0.48600  0.51400  Biso   1.000  I
  I6121    1.0000 0.69031  0.19029  0.69031  Biso   1.000  I
  I6122    1.0000 0.69031  0.69031  0.19029  Biso   1.000  I
  I6123    1.0000 0.19029  0.69031  0.69031  Biso   1.000  I
  I6124    1.0000 0.73599  0.26401  0.76399  Biso   1.000  I
  I6125    1.0000 0.76399  0.23601  0.76399  Biso   1.000  I
  I6126    1.0000 0.76399  0.26401  0.73599  Biso   1.000  I
  I6127    1.0000 0.76399  0.73599  0.26401  Biso   1.000  I
  I6128    1.0000 0.76399  0.76399  0.23601  Biso   1.000  I
  I6129    1.0000 0.73599  0.76399  0.26401  Biso   1.000  I
  I6130    1.0000 0.23601  0.76399  0.76399  Biso   1.000  I
  I6131    1.0000 0.26401  0.76399  0.73599  Biso   1.000  I
  I6132    1.0000 0.26401  0.73599  0.76399  Biso   1.000  I
  I6133    1.0000 0.80971  0.19029  0.80971  Biso   1.000  I
  I6134    1.0000 0.80971  0.30969  0.69031  Biso   1.000  I
  I6135    1.0000 0.69031  0.30969  0.80971  Biso   1.000  I
  I6136    1.0000 0.80971  0.80971  0.19029  Biso   1.000  I
  I6137    1.0000 0.69031  0.80971  0.30969  Biso   1.000  I
  I6138    1.0000 0.80971  0.69031  0.30969  Biso   1.000  I
  I6139    1.0000 0.30969  0.80971  0.69031  Biso   1.000  I
  I6140    1.0000 0.30969  0.69031  0.80971  Biso   1.000  I
  I6141    1.0000 0.19029  0.80971  0.80971  Biso   1.000  I
  I6142    1.0000 0.87498  0.12502  0.87498  Biso   1.000  I
  I6143    1.0000 0.73599  0.23601  0.73599  Biso   1.000  I
  I6144    1.0000 0.87498  0.37501  0.62499  Biso   1.000  I
  I6145    1.0000 0.62499  0.37501  0.87498  Biso   1.000  I
  I6146    1.0000 0.87498  0.87498  0.12502  Biso   1.000  I
  I6147    1.0000 0.73599  0.73599  0.23601  Biso   1.000  I
  I6148    1.0000 0.62499  0.87498  0.37501  Biso   1.000  I
  I6149    1.0000 0.87498  0.62499  0.37501  Biso   1.000  I
  I6150    1.0000 0.37501  0.87498  0.62499  Biso   1.000  I
  I6151    1.0000 0.23601  0.73599  0.73599  Biso   1.000  I
  I6152    1.0000 0.37501  0.62499  0.87498  Biso   1.000  I
  I6153    1.0000 0.12502  0.87498  0.87498  Biso   1.000  I
  I6154    1.0000 0.94030  0.05970  0.94030  Biso   1.000  I
  I6155    1.0000 0.94030  0.44028  0.55972  Biso   1.000  I
  I6156    1.0000 0.55972  0.44028  0.94030  Biso   1.000  I
  I6157    1.0000 0.94030  0.94030  0.05970  Biso   1.000  I
  I6158    1.0000 0.55972  0.94030  0.44028  Biso   1.000  I
  I6159    1.0000 0.94030  0.55972  0.44028  Biso   1.000  I
  I6160    1.0000 0.44028  0.94030  0.55972  Biso   1.000  I
  I6161    1.0000 0.44028  0.55972  0.94030  Biso   1.000  I
  I6162    1.0000 0.05970  0.94030  0.94030  Biso   1.000  I
  I6163    1.0000 0.98598  0.51400  0.48600  Biso   1.000  I
  I6164    1.0000 0.48600  0.51400  0.98598  Biso   1.000  I
  I6165    1.0000 0.48600  0.98598  0.51400  Biso   1.000  I
  I6166    1.0000 0.98598  0.48600  0.51400  Biso   1.000  I
  I6167    1.0000 0.51400  0.98598  0.48600  Biso   1.000  I
  I6168    1.0000 0.51400  0.48600  0.98598  Biso   1.000  I
  I6169    1.0000 0.30969  0.19029  0.30969  Biso   1.000  I
  I6170    1.0000 0.23601  0.26401  0.26401  Biso   1.000  I
  I6171    1.0000 0.23601  0.23601  0.23601  Biso   1.000  I
  I6172    1.0000 0.26401  0.26401  0.23601  Biso   1.000  I
  I6173    1.0000 0.37501  0.12502  0.37501  Biso   1.000  I
  I6174    1.0000 0.30969  0.30969  0.19029  Biso   1.000  I
  I6175    1.0000 0.19029  0.19029  0.19029  Biso   1.000  I
  I6176    1.0000 0.19029  0.30969  0.30969  Biso   1.000  I
  I6177    1.0000 0.44028  0.05970  0.44028  Biso   1.000  I
  I6178    1.0000 0.37501  0.37501  0.12502  Biso   1.000  I
  I6179    1.0000 0.26401  0.23601  0.26401  Biso   1.000  I
  I6180    1.0000 0.12502  0.12502  0.12502  Biso   1.000  I
  I6181    1.0000 0.12502  0.37501  0.37501  Biso   1.000  I
  I6182    1.0000 0.48600  0.98598  0.51400  Biso   1.000  I
  I6183    1.0000 0.51400  0.98598  0.48600  Biso   1.000  I
  I6184    1.0000 0.51400  0.01402  0.51400  Biso   1.000  I
  I6185    1.0000 0.44028  0.44028  0.05970  Biso   1.000  I
  I6186    1.0000 0.05970  0.05970  0.05970  Biso   1.000  I
  I6187    1.0000 0.05970  0.44028  0.44028  Biso   1.000  I
  I6188    1.0000 0.55972  0.94030  0.44028  Biso   1.000  I
  I6189    1.0000 0.55972  0.05970  0.55972  Biso   1.000  I
  I6190    1.0000 0.44028  0.94030  0.55972  Biso   1.000  I
  I6191    1.0000 0.51400  0.48600  0.98598  Biso   1.000  I
  I6192    1.0000 0.48600  0.51400  0.98598  Biso   1.000  I
  I6193    1.0000 0.51400  0.51400  0.01402  Biso   1.000  I
  I6194    1.0000 0.98598  0.98598  0.01402  Biso   1.000  I
  I6195    1.0000 0.98598  0.01402  0.98598  Biso   1.000  I
  I6196    1.0000 0.01402  0.98598  0.98598  Biso   1.000  I
  I6197    1.0000 0.98598  0.51400  0.48600  Biso   1.000  I
  I6198    1.0000 0.98598  0.48600  0.51400  Biso   1.000  I
  I6199    1.0000 0.01402  0.51400  0.51400  Biso   1.000  I
  I6200    1.0000 0.62499  0.87498  0.37501  Biso   1.000  I
  I6201    1.0000 0.48600  0.01402  0.48600  Biso   1.000  I
  I6202    1.0000 0.62499  0.12502  0.62499  Biso   1.000  I
  I6203    1.0000 0.37501  0.87498  0.62499  Biso   1.000  I
  I6204    1.0000 0.44028  0.55972  0.94030  Biso   1.000  I
  I6205    1.0000 0.55972  0.55972  0.05970  Biso   1.000  I
  I6206    1.0000 0.55972  0.44028  0.94030  Biso   1.000  I
  I6207    1.0000 0.94030  0.05970  0.94030  Biso   1.000  I
  I6208    1.0000 0.05970  0.94030  0.94030  Biso   1.000  I
  I6209    1.0000 0.94030  0.94030  0.05970  Biso   1.000  I
  I6210    1.0000 0.94030  0.44028  0.55972  Biso   1.000  I
  I6211    1.0000 0.05970  0.55972  0.55972  Biso   1.000  I
  I6212    1.0000 0.94030  0.55972  0.44028  Biso   1.000  I
  I6213    1.0000 0.69031  0.80971  0.30969  Biso   1.000  I
  I6214    1.0000 0.69031  0.19029  0.69031  Biso   1.000  I
  I6215    1.0000 0.30969  0.80971  0.69031  Biso   1.000  I
  I6216    1.0000 0.37501  0.62499  0.87498  Biso   1.000  I
  I6217    1.0000 0.48600  0.48600  0.01402  Biso   1.000  I
  I6218    1.0000 0.62499  0.62499  0.12502  Biso   1.000  I
  I6219    1.0000 0.62499  0.37501  0.87498  Biso   1.000  I
  I6220    1.0000 0.87498  0.12502  0.87498  Biso   1.000  I
  I6221    1.0000 0.01402  0.01402  0.01402  Biso   1.000  I
  I6222    1.0000 0.12502  0.87498  0.87498  Biso   1.000  I
  I6223    1.0000 0.87498  0.87498  0.12502  Biso   1.000  I
  I6224    1.0000 0.87498  0.37501  0.62499  Biso   1.000  I
  I6225    1.0000 0.01402  0.48600  0.48600  Biso   1.000  I
  I6226    1.0000 0.12502  0.62499  0.62499  Biso   1.000  I
  I6227    1.0000 0.87498  0.62499  0.37501  Biso   1.000  I
  I6228    1.0000 0.76399  0.73599  0.26401  Biso   1.000  I
  I6229    1.0000 0.76399  0.76399  0.23601  Biso   1.000  I
  I6230    1.0000 0.73599  0.73599  0.23601  Biso   1.000  I
  I6231    1.0000 0.73599  0.26401  0.76399  Biso   1.000  I
  I6232    1.0000 0.76399  0.23601  0.76399  Biso   1.000  I
  I6233    1.0000 0.76399  0.26401  0.73599  Biso   1.000  I
  I6234    1.0000 0.23601  0.76399  0.76399  Biso   1.000  I
  I6235    1.0000 0.23601  0.73599  0.73599  Biso   1.000  I
  I6236    1.0000 0.26401  0.73599  0.76399  Biso   1.000  I
  I6237    1.0000 0.30969  0.69031  0.80971  Biso   1.000  I
  I6238    1.0000 0.69031  0.69031  0.19029  Biso   1.000  I
  I6239    1.0000 0.69031  0.30969  0.80971  Biso   1.000  I
  I6240    1.0000 0.80971  0.19029  0.80971  Biso   1.000  I
  I6241    1.0000 0.19029  0.80971  0.80971  Biso   1.000  I
  I6242    1.0000 0.80971  0.80971  0.19029  Biso   1.000  I
  I6243    1.0000 0.80971  0.30969  0.69031  Biso   1.000  I
  I6244    1.0000 0.19029  0.69031  0.69031  Biso   1.000  I
  I6245    1.0000 0.80971  0.69031  0.30969  Biso   1.000  I
  I6246    1.0000 0.80971  0.80971  0.19029  Biso   1.000  I
  I6247    1.0000 0.69031  0.69031  0.19029  Biso   1.000  I
  I6248    1.0000 0.80971  0.69031  0.30969  Biso   1.000  I
  I6249    1.0000 0.80971  0.19029  0.80971  Biso   1.000  I
  I6250    1.0000 0.80971  0.30969  0.69031  Biso   1.000  I
  I6251    1.0000 0.69031  0.30969  0.80971  Biso   1.000  I
  I6252    1.0000 0.19029  0.69031  0.69031  Biso   1.000  I
  I6253    1.0000 0.30969  0.69031  0.80971  Biso   1.000  I
  I6254    1.0000 0.19029  0.80971  0.80971  Biso   1.000  I
  I6255    1.0000 0.23601  0.76399  0.76399  Biso   1.000  I
  I6256    1.0000 0.23601  0.73599  0.73599  Biso   1.000  I
  I6257    1.0000 0.26401  0.76399  0.73599  Biso   1.000  I
  I6258    1.0000 0.76399  0.73599  0.26401  Biso   1.000  I
  I6259    1.0000 0.76399  0.76399  0.23601  Biso   1.000  I
  I6260    1.0000 0.73599  0.76399  0.26401  Biso   1.000  I
  I6261    1.0000 0.73599  0.23601  0.73599  Biso   1.000  I
  I6262    1.0000 0.76399  0.23601  0.76399  Biso   1.000  I
  I6263    1.0000 0.76399  0.26401  0.73599  Biso   1.000  I
  I6264    1.0000 0.73599  0.23601  0.73599  Biso   1.000  I
  I6265    1.0000 0.73599  0.26401  0.76399  Biso   1.000  I
  I6266    1.0000 0.76399  0.26401  0.73599  Biso   1.000  I
  I6267    1.0000 0.23601  0.73599  0.73599  Biso   1.000  I
  I6268    1.0000 0.26401  0.76399  0.73599  Biso   1.000  I
  I6269    1.0000 0.26401  0.73599  0.76399  Biso   1.000  I
  I6270    1.0000 0.76399  0.73599  0.26401  Biso   1.000  I
  I6271    1.0000 0.73599  0.73599  0.23601  Biso   1.000  I
  I6272    1.0000 0.73599  0.76399  0.26401  Biso   1.000  I
  I6273    1.0000 0.73599  0.23601  0.73599  Biso   1.000  I
  I6274    1.0000 0.73599  0.26401  0.76399  Biso   1.000  I
  I6275    1.0000 0.76399  0.23601  0.76399  Biso   1.000  I
  I6276    1.0000 0.23601  0.76399  0.76399  Biso   1.000  I
  I6277    1.0000 0.26401  0.76399  0.73599  Biso   1.000  I
  I6278    1.0000 0.26401  0.73599  0.76399  Biso   1.000  I
  I6279    1.0000 0.76399  0.76399  0.23601  Biso   1.000  I
  I6280    1.0000 0.73599  0.73599  0.23601  Biso   1.000  I
  I6281    1.0000 0.73599  0.76399  0.26401  Biso   1.000  I
  I6282    1.0000 0.87498  0.87498  0.12502  Biso   1.000  I
  I6283    1.0000 0.73599  0.76399  0.26401  Biso   1.000  I
  I6284    1.0000 0.62499  0.62499  0.12502  Biso   1.000  I
  I6285    1.0000 0.87498  0.62499  0.37501  Biso   1.000  I
  I6286    1.0000 0.87498  0.12502  0.87498  Biso   1.000  I
  I6287    1.0000 0.73599  0.23601  0.73599  Biso   1.000  I
  I6288    1.0000 0.87498  0.37501  0.62499  Biso   1.000  I
  I6289    1.0000 0.62499  0.37501  0.87498  Biso   1.000  I
  I6290    1.0000 0.12502  0.62499  0.62499  Biso   1.000  I
  I6291    1.0000 0.26401  0.76399  0.73599  Biso   1.000  I
  I6292    1.0000 0.37501  0.62499  0.87498  Biso   1.000  I
  I6293    1.0000 0.12502  0.87498  0.87498  Biso   1.000  I
  I6294    1.0000 0.19029  0.69031  0.69031  Biso   1.000  I
  I6295    1.0000 0.30969  0.80971  0.69031  Biso   1.000  I
  I6296    1.0000 0.19029  0.80971  0.80971  Biso   1.000  I
  I6297    1.0000 0.80971  0.80971  0.19029  Biso   1.000  I
  I6298    1.0000 0.69031  0.80971  0.30969  Biso   1.000  I
  I6299    1.0000 0.80971  0.69031  0.30969  Biso   1.000  I
  I6300    1.0000 0.80971  0.19029  0.80971  Biso   1.000  I
  I6301    1.0000 0.80971  0.30969  0.69031  Biso   1.000  I
  I6302    1.0000 0.69031  0.19029  0.69031  Biso   1.000  I
  I6303    1.0000 0.69031  0.30969  0.80971  Biso   1.000  I
  I6304    1.0000 0.80971  0.30969  0.69031  Biso   1.000  I
  I6305    1.0000 0.69031  0.19029  0.69031  Biso   1.000  I
  I6306    1.0000 0.30969  0.80971  0.69031  Biso   1.000  I
  I6307    1.0000 0.30969  0.69031  0.80971  Biso   1.000  I
  I6308    1.0000 0.19029  0.69031  0.69031  Biso   1.000  I
  I6309    1.0000 0.69031  0.69031  0.19029  Biso   1.000  I
  I6310    1.0000 0.69031  0.80971  0.30969  Biso   1.000  I
  I6311    1.0000 0.80971  0.69031  0.30969  Biso   1.000  I
  I6312    1.0000 0.69031  0.30969  0.80971  Biso   1.000  I
  I6313    1.0000 0.80971  0.19029  0.80971  Biso   1.000  I
  I6314    1.0000 0.69031  0.19029  0.69031  Biso   1.000  I
  I6315    1.0000 0.30969  0.80971  0.69031  Biso   1.000  I
  I6316    1.0000 0.30969  0.69031  0.80971  Biso   1.000  I
  I6317    1.0000 0.19029  0.80971  0.80971  Biso   1.000  I
  I6318    1.0000 0.69031  0.69031  0.19029  Biso   1.000  I
  I6319    1.0000 0.69031  0.80971  0.30969  Biso   1.000  I
  I6320    1.0000 0.80971  0.80971  0.19029  Biso   1.000  I
  I6321    1.0000 0.94030  0.94030  0.05970  Biso   1.000  I
  I6322    1.0000 0.55972  0.55972  0.05970  Biso   1.000  I
  I6323    1.0000 0.94030  0.55972  0.44028  Biso   1.000  I
  I6324    1.0000 0.94030  0.05970  0.94030  Biso   1.000  I
  I6325    1.0000 0.94030  0.44028  0.55972  Biso   1.000  I
  I6326    1.0000 0.55972  0.44028  0.94030  Biso   1.000  I
  I6327    1.0000 0.05970  0.55972  0.55972  Biso   1.000  I
  I6328    1.0000 0.44028  0.55972  0.94030  Biso   1.000  I
  I6329    1.0000 0.05970  0.94030  0.94030  Biso   1.000  I
  I6330    1.0000 0.12502  0.62499  0.62499  Biso   1.000  I
  I6331    1.0000 0.26401  0.73599  0.76399  Biso   1.000  I
  I6332    1.0000 0.37501  0.87498  0.62499  Biso   1.000  I
  I6333    1.0000 0.12502  0.87498  0.87498  Biso   1.000  I
  I6334    1.0000 0.87498  0.87498  0.12502  Biso   1.000  I
  I6335    1.0000 0.73599  0.73599  0.23601  Biso   1.000  I
  I6336    1.0000 0.62499  0.87498  0.37501  Biso   1.000  I
  I6337    1.0000 0.87498  0.62499  0.37501  Biso   1.000  I
  I6338    1.0000 0.87498  0.12502  0.87498  Biso   1.000  I
  I6339    1.0000 0.73599  0.26401  0.76399  Biso   1.000  I
  I6340    1.0000 0.87498  0.37501  0.62499  Biso   1.000  I
  I6341    1.0000 0.62499  0.12502  0.62499  Biso   1.000  I
  I6342    1.0000 0.62499  0.37501  0.87498  Biso   1.000  I
  I6343    1.0000 0.76399  0.23601  0.76399  Biso   1.000  I
  I6344    1.0000 0.87498  0.37501  0.62499  Biso   1.000  I
  I6345    1.0000 0.62499  0.12502  0.62499  Biso   1.000  I
  I6346    1.0000 0.37501  0.87498  0.62499  Biso   1.000  I
  I6347    1.0000 0.23601  0.76399  0.76399  Biso   1.000  I
  I6348    1.0000 0.37501  0.62499  0.87498  Biso   1.000  I
  I6349    1.0000 0.12502  0.62499  0.62499  Biso   1.000  I
  I6350    1.0000 0.62499  0.62499  0.12502  Biso   1.000  I
  I6351    1.0000 0.76399  0.76399  0.23601  Biso   1.000  I
  I6352    1.0000 0.62499  0.87498  0.37501  Biso   1.000  I
  I6353    1.0000 0.87498  0.62499  0.37501  Biso   1.000  I
  I6354    1.0000 0.62499  0.37501  0.87498  Biso   1.000  I
  I6355    1.0000 0.76399  0.26401  0.73599  Biso   1.000  I
  I6356    1.0000 0.87498  0.12502  0.87498  Biso   1.000  I
  I6357    1.0000 0.62499  0.12502  0.62499  Biso   1.000  I
  I6358    1.0000 0.37501  0.87498  0.62499  Biso   1.000  I
  I6359    1.0000 0.23601  0.73599  0.73599  Biso   1.000  I
  I6360    1.0000 0.37501  0.62499  0.87498  Biso   1.000  I
  I6361    1.0000 0.12502  0.87498  0.87498  Biso   1.000  I
  I6362    1.0000 0.62499  0.62499  0.12502  Biso   1.000  I
  I6363    1.0000 0.76399  0.73599  0.26401  Biso   1.000  I
  I6364    1.0000 0.62499  0.87498  0.37501  Biso   1.000  I
  I6365    1.0000 0.87498  0.87498  0.12502  Biso   1.000  I
  I6366    1.0000 0.01402  0.98598  0.98598  Biso   1.000  I
  I6367    1.0000 0.01402  0.01402  0.01402  Biso   1.000  I
  I6368    1.0000 0.98598  0.01402  0.98598  Biso   1.000  I
  I6369    1.0000 0.51400  0.48600  0.98598  Biso   1.000  I
  I6370    1.0000 0.48600  0.48600  0.01402  Biso   1.000  I
  I6371    1.0000 0.48600  0.51400  0.98598  Biso   1.000  I
  I6372    1.0000 0.98598  0.48600  0.51400  Biso   1.000  I
  I6373    1.0000 0.01402  0.51400  0.51400  Biso   1.000  I
  I6374    1.0000 0.01402  0.48600  0.48600  Biso   1.000  I
  I6375    1.0000 0.98598  0.98598  0.01402  Biso   1.000  I
  I6376    1.0000 0.01402  0.98598  0.98598  Biso   1.000  I
  I6377    1.0000 0.01402  0.01402  0.01402  Biso   1.000  I
  I6378    1.0000 0.01402  0.51400  0.51400  Biso   1.000  I
  I6379    1.0000 0.01402  0.48600  0.48600  Biso   1.000  I
  I6380    1.0000 0.98598  0.51400  0.48600  Biso   1.000  I
  I6381    1.0000 0.48600  0.48600  0.01402  Biso   1.000  I
  I6382    1.0000 0.51400  0.51400  0.01402  Biso   1.000  I
  I6383    1.0000 0.48600  0.51400  0.98598  Biso   1.000  I
  I6384    1.0000 0.98598  0.48600  0.51400  Biso   1.000  I
  I6385    1.0000 0.01402  0.48600  0.48600  Biso   1.000  I
  I6386    1.0000 0.98598  0.51400  0.48600  Biso   1.000  I
  I6387    1.0000 0.51400  0.48600  0.98598  Biso   1.000  I
  I6388    1.0000 0.48600  0.48600  0.01402  Biso   1.000  I
  I6389    1.0000 0.51400  0.51400  0.01402  Biso   1.000  I
  I6390    1.0000 0.98598  0.98598  0.01402  Biso   1.000  I
  I6391    1.0000 0.01402  0.01402  0.01402  Biso   1.000  I
  I6392    1.0000 0.98598  0.01402  0.98598  Biso   1.000  I
  I6393    1.0000 0.05970  0.55972  0.55972  Biso   1.000  I
  I6394    1.0000 0.44028  0.94030  0.55972  Biso   1.000  I
  I6395    1.0000 0.05970  0.94030  0.94030  Biso   1.000  I
  I6396    1.0000 0.94030  0.94030  0.05970  Biso   1.000  I
  I6397    1.0000 0.55972  0.94030  0.44028  Biso   1.000  I
  I6398    1.0000 0.94030  0.55972  0.44028  Biso   1.000  I
  I6399    1.0000 0.94030  0.05970  0.94030  Biso   1.000  I
  I6400    1.0000 0.94030  0.44028  0.55972  Biso   1.000  I
  I6401    1.0000 0.55972  0.05970  0.55972  Biso   1.000  I
  I6402    1.0000 0.55972  0.44028  0.94030  Biso   1.000  I
  I6403    1.0000 0.94030  0.44028  0.55972  Biso   1.000  I
  I6404    1.0000 0.55972  0.05970  0.55972  Biso   1.000  I
  I6405    1.0000 0.44028  0.94030  0.55972  Biso   1.000  I
  I6406    1.0000 0.44028  0.55972  0.94030  Biso   1.000  I
  I6407    1.0000 0.05970  0.55972  0.55972  Biso   1.000  I
  I6408    1.0000 0.55972  0.55972  0.05970  Biso   1.000  I
  I6409    1.0000 0.55972  0.94030  0.44028  Biso   1.000  I
  I6410    1.0000 0.94030  0.55972  0.44028  Biso   1.000  I
  I6411    1.0000 0.55972  0.44028  0.94030  Biso   1.000  I
  I6412    1.0000 0.94030  0.05970  0.94030  Biso   1.000  I
  I6413    1.0000 0.55972  0.05970  0.55972  Biso   1.000  I
  I6414    1.0000 0.44028  0.94030  0.55972  Biso   1.000  I
  I6415    1.0000 0.44028  0.55972  0.94030  Biso   1.000  I
  I6416    1.0000 0.05970  0.94030  0.94030  Biso   1.000  I
  I6417    1.0000 0.55972  0.55972  0.05970  Biso   1.000  I
  I6418    1.0000 0.55972  0.94030  0.44028  Biso   1.000  I
  I6419    1.0000 0.94030  0.94030  0.05970  Biso   1.000  I
  I6420    1.0000 0.05970  0.05970  0.05970  Biso   1.000  I
  I6421    1.0000 0.05970  0.94030  0.94030  Biso   1.000  I
  I6422    1.0000 0.44028  0.44028  0.05970  Biso   1.000  I
  I6423    1.0000 0.55972  0.44028  0.94030  Biso   1.000  I
  I6424    1.0000 0.05970  0.55972  0.55972  Biso   1.000  I
  I6425    1.0000 0.05970  0.44028  0.44028  Biso   1.000  I
  I6426    1.0000 0.94030  0.44028  0.55972  Biso   1.000  I
  I6427    1.0000 0.05970  0.94030  0.94030  Biso   1.000  I
  I6428    1.0000 0.05970  0.05970  0.05970  Biso   1.000  I
  I6429    1.0000 0.94030  0.94030  0.05970  Biso   1.000  I
  I6430    1.0000 0.05970  0.44028  0.44028  Biso   1.000  I
  I6431    1.0000 0.05970  0.55972  0.55972  Biso   1.000  I
  I6432    1.0000 0.55972  0.55972  0.05970  Biso   1.000  I
  I6433    1.0000 0.44028  0.44028  0.05970  Biso   1.000  I
  I6434    1.0000 0.05970  0.44028  0.44028  Biso   1.000  I
  I6435    1.0000 0.94030  0.44028  0.55972  Biso   1.000  I
  I6436    1.0000 0.44028  0.44028  0.05970  Biso   1.000  I
  I6437    1.0000 0.55972  0.55972  0.05970  Biso   1.000  I
  I6438    1.0000 0.55972  0.44028  0.94030  Biso   1.000  I
  I6439    1.0000 0.05970  0.05970  0.05970  Biso   1.000  I
  I6440    1.0000 0.94030  0.94030  0.05970  Biso   1.000  I
  I6441    1.0000 0.98598  0.51400  0.48600  Biso   1.000  I
  I6442    1.0000 0.98598  0.48600  0.51400  Biso   1.000  I
  I6443    1.0000 0.01402  0.48600  0.48600  Biso   1.000  I
  I6444    1.0000 0.51400  0.98598  0.48600  Biso   1.000  I
  I6445    1.0000 0.48600  0.01402  0.48600  Biso   1.000  I
  I6446    1.0000 0.51400  0.01402  0.51400  Biso   1.000  I
  I6447    1.0000 0.98598  0.98598  0.01402  Biso   1.000  I
  I6448    1.0000 0.98598  0.01402  0.98598  Biso   1.000  I
  I6449    1.0000 0.01402  0.01402  0.01402  Biso   1.000  I
  I6450    1.0000 0.98598  0.01402  0.98598  Biso   1.000  I
  I6451    1.0000 0.01402  0.98598  0.98598  Biso   1.000  I
  I6452    1.0000 0.01402  0.01402  0.01402  Biso   1.000  I
  I6453    1.0000 0.48600  0.98598  0.51400  Biso   1.000  I
  I6454    1.0000 0.48600  0.01402  0.48600  Biso   1.000  I
  I6455    1.0000 0.51400  0.01402  0.51400  Biso   1.000  I
  I6456    1.0000 0.98598  0.48600  0.51400  Biso   1.000  I
  I6457    1.0000 0.98598  0.98598  0.01402  Biso   1.000  I
  I6458    1.0000 0.98598  0.51400  0.48600  Biso   1.000  I
  I6459    1.0000 0.01402  0.51400  0.51400  Biso   1.000  I
  I6460    1.0000 0.01402  0.48600  0.48600  Biso   1.000  I
  I6461    1.0000 0.48600  0.98598  0.51400  Biso   1.000  I
  I6462    1.0000 0.51400  0.98598  0.48600  Biso   1.000  I
  I6463    1.0000 0.48600  0.01402  0.48600  Biso   1.000  I
  I6464    1.0000 0.48600  0.51400  0.98598  Biso   1.000  I
  I6465    1.0000 0.48600  0.48600  0.01402  Biso   1.000  I
  I6466    1.0000 0.51400  0.51400  0.01402  Biso   1.000  I
  I6467    1.0000 0.01402  0.51400  0.51400  Biso   1.000  I
  I6468    1.0000 0.48600  0.98598  0.51400  Biso   1.000  I
  I6469    1.0000 0.51400  0.98598  0.48600  Biso   1.000  I
  I6470    1.0000 0.48600  0.01402  0.48600  Biso   1.000  I
  I6471    1.0000 0.51400  0.01402  0.51400  Biso   1.000  I
  I6472    1.0000 0.51400  0.51400  0.01402  Biso   1.000  I
  I6473    1.0000 0.98598  0.51400  0.48600  Biso   1.000  I
  I6474    1.0000 0.98598  0.48600  0.51400  Biso   1.000  I
  I6475    1.0000 0.01402  0.48600  0.48600  Biso   1.000  I
  I6476    1.0000 0.51400  0.48600  0.98598  Biso   1.000  I
  I6477    1.0000 0.48600  0.51400  0.98598  Biso   1.000  I
  I6478    1.0000 0.48600  0.48600  0.01402  Biso   1.000  I
  I6479    1.0000 0.48600  0.98598  0.51400  Biso   1.000  I
  I6480    1.0000 0.48600  0.01402  0.48600  Biso   1.000  I
  I6481    1.0000 0.51400  0.01402  0.51400  Biso   1.000  I
  I6482    1.0000 0.01402  0.51400  0.51400  Biso   1.000  I
  I6483    1.0000 0.48600  0.51400  0.98598  Biso   1.000  I
  I6484    1.0000 0.48600  0.48600  0.01402  Biso   1.000  I
  I6485    1.0000 0.51400  0.51400  0.01402  Biso   1.000  I
  I6486    1.0000 0.01402  0.98598  0.98598  Biso   1.000  I
  I6487    1.0000 0.51400  0.98598  0.48600  Biso   1.000  I
  I6488    1.0000 0.51400  0.98598  0.48600  Biso   1.000  I
  I6489    1.0000 0.51400  0.48600  0.98598  Biso   1.000  I
  I6490    1.0000 0.98598  0.98598  0.01402  Biso   1.000  I
  I6491    1.0000 0.98598  0.01402  0.98598  Biso   1.000  I
  I6492    1.0000 0.01402  0.01402  0.01402  Biso   1.000  I
  I6493    1.0000 0.51400  0.48600  0.98598  Biso   1.000  I
  I6494    1.0000 0.48600  0.98598  0.51400  Biso   1.000  I
  I6495    1.0000 0.48600  0.01402  0.48600  Biso   1.000  I
  I6496    1.0000 0.51400  0.01402  0.51400  Biso   1.000  I
  I6497    1.0000 0.01402  0.98598  0.98598  Biso   1.000  I
  I6498    1.0000 0.12502  0.12502  0.12502  Biso   1.000  I
  I6499    1.0000 0.12502  0.87498  0.87498  Biso   1.000  I
  I6500    1.0000 0.37501  0.37501  0.12502  Biso   1.000  I
  I6501    1.0000 0.62499  0.37501  0.87498  Biso   1.000  I
  I6502    1.0000 0.98598  0.51400  0.48600  Biso   1.000  I
  I6503    1.0000 0.12502  0.62499  0.62499  Biso   1.000  I
  I6504    1.0000 0.12502  0.37501  0.37501  Biso   1.000  I
  I6505    1.0000 0.87498  0.37501  0.62499  Biso   1.000  I
  I6506    1.0000 0.98598  0.01402  0.98598  Biso   1.000  I
  I6507    1.0000 0.12502  0.87498  0.87498  Biso   1.000  I
  I6508    1.0000 0.12502  0.12502  0.12502  Biso   1.000  I
  I6509    1.0000 0.87498  0.87498  0.12502  Biso   1.000  I
  I6510    1.0000 0.12502  0.37501  0.37501  Biso   1.000  I
  I6511    1.0000 0.12502  0.62499  0.62499  Biso   1.000  I
  I6512    1.0000 0.62499  0.62499  0.12502  Biso   1.000  I
  I6513    1.0000 0.37501  0.37501  0.12502  Biso   1.000  I
  I6514    1.0000 0.12502  0.37501  0.37501  Biso   1.000  I
  I6515    1.0000 0.87498  0.37501  0.62499  Biso   1.000  I
  I6516    1.0000 0.48600  0.51400  0.98598  Biso   1.000  I
  I6517    1.0000 0.37501  0.37501  0.12502  Biso   1.000  I
  I6518    1.0000 0.62499  0.62499  0.12502  Biso   1.000  I
  I6519    1.0000 0.62499  0.37501  0.87498  Biso   1.000  I
  I6520    1.0000 0.12502  0.12502  0.12502  Biso   1.000  I
  I6521    1.0000 0.87498  0.87498  0.12502  Biso   1.000  I
  I6522    1.0000 0.05970  0.44028  0.44028  Biso   1.000  I
  I6523    1.0000 0.94030  0.55972  0.44028  Biso   1.000  I
  I6524    1.0000 0.44028  0.05970  0.44028  Biso   1.000  I
  I6525    1.0000 0.55972  0.05970  0.55972  Biso   1.000  I
  I6526    1.0000 0.55972  0.94030  0.44028  Biso   1.000  I
  I6527    1.0000 0.94030  0.05970  0.94030  Biso   1.000  I
  I6528    1.0000 0.05970  0.05970  0.05970  Biso   1.000  I
  I6529    1.0000 0.05970  0.94030  0.94030  Biso   1.000  I
  I6530    1.0000 0.05970  0.05970  0.05970  Biso   1.000  I
  I6531    1.0000 0.94030  0.05970  0.94030  Biso   1.000  I
  I6532    1.0000 0.44028  0.05970  0.44028  Biso   1.000  I
  I6533    1.0000 0.55972  0.05970  0.55972  Biso   1.000  I
  I6534    1.0000 0.05970  0.55972  0.55972  Biso   1.000  I
  I6535    1.0000 0.05970  0.44028  0.44028  Biso   1.000  I
  I6536    1.0000 0.94030  0.55972  0.44028  Biso   1.000  I
  I6537    1.0000 0.55972  0.94030  0.44028  Biso   1.000  I
  I6538    1.0000 0.44028  0.05970  0.44028  Biso   1.000  I
  I6539    1.0000 0.44028  0.44028  0.05970  Biso   1.000  I
  I6540    1.0000 0.44028  0.55972  0.94030  Biso   1.000  I
  I6541    1.0000 0.55972  0.94030  0.44028  Biso   1.000  I
  I6542    1.0000 0.44028  0.05970  0.44028  Biso   1.000  I
  I6543    1.0000 0.44028  0.94030  0.55972  Biso   1.000  I
  I6544    1.0000 0.94030  0.44028  0.55972  Biso   1.000  I
  I6545    1.0000 0.05970  0.44028  0.44028  Biso   1.000  I
  I6546    1.0000 0.94030  0.55972  0.44028  Biso   1.000  I
  I6547    1.0000 0.44028  0.55972  0.94030  Biso   1.000  I
  I6548    1.0000 0.44028  0.44028  0.05970  Biso   1.000  I
  I6549    1.0000 0.55972  0.44028  0.94030  Biso   1.000  I
  I6550    1.0000 0.44028  0.05970  0.44028  Biso   1.000  I
  I6551    1.0000 0.44028  0.94030  0.55972  Biso   1.000  I
  I6552    1.0000 0.44028  0.44028  0.05970  Biso   1.000  I
  I6553    1.0000 0.55972  0.55972  0.05970  Biso   1.000  I
  I6554    1.0000 0.44028  0.55972  0.94030  Biso   1.000  I
  I6555    1.0000 0.94030  0.05970  0.94030  Biso   1.000  I
  I6556    1.0000 0.05970  0.05970  0.05970  Biso   1.000  I
  I6557    1.0000 0.94030  0.94030  0.05970  Biso   1.000  I
  I6558    1.0000 0.44028  0.05970  0.44028  Biso   1.000  I
  I6559    1.0000 0.55972  0.05970  0.55972  Biso   1.000  I
  I6560    1.0000 0.44028  0.94030  0.55972  Biso   1.000  I
  I6561    1.0000 0.19029  0.19029  0.19029  Biso   1.000  I
  I6562    1.0000 0.19029  0.80971  0.80971  Biso   1.000  I
  I6563    1.0000 0.30969  0.30969  0.19029  Biso   1.000  I
  I6564    1.0000 0.69031  0.30969  0.80971  Biso   1.000  I
  I6565    1.0000 0.19029  0.69031  0.69031  Biso   1.000  I
  I6566    1.0000 0.19029  0.30969  0.30969  Biso   1.000  I
  I6567    1.0000 0.80971  0.30969  0.69031  Biso   1.000  I
  I6568    1.0000 0.19029  0.80971  0.80971  Biso   1.000  I
  I6569    1.0000 0.19029  0.19029  0.19029  Biso   1.000  I
  I6570    1.0000 0.80971  0.80971  0.19029  Biso   1.000  I
  I6571    1.0000 0.19029  0.30969  0.30969  Biso   1.000  I
  I6572    1.0000 0.19029  0.69031  0.69031  Biso   1.000  I
  I6573    1.0000 0.69031  0.69031  0.19029  Biso   1.000  I
  I6574    1.0000 0.30969  0.30969  0.19029  Biso   1.000  I
  I6575    1.0000 0.19029  0.30969  0.30969  Biso   1.000  I
  I6576    1.0000 0.80971  0.30969  0.69031  Biso   1.000  I
  I6577    1.0000 0.30969  0.30969  0.19029  Biso   1.000  I
  I6578    1.0000 0.69031  0.69031  0.19029  Biso   1.000  I
  I6579    1.0000 0.69031  0.30969  0.80971  Biso   1.000  I
  I6580    1.0000 0.19029  0.19029  0.19029  Biso   1.000  I
  I6581    1.0000 0.80971  0.80971  0.19029  Biso   1.000  I
  I6582    1.0000 0.12502  0.37501  0.37501  Biso   1.000  I
  I6583    1.0000 0.87498  0.62499  0.37501  Biso   1.000  I
  I6584    1.0000 0.48600  0.98598  0.51400  Biso   1.000  I
  I6585    1.0000 0.37501  0.12502  0.37501  Biso   1.000  I
  I6586    1.0000 0.62499  0.12502  0.62499  Biso   1.000  I
  I6587    1.0000 0.62499  0.87498  0.37501  Biso   1.000  I
  I6588    1.0000 0.87498  0.12502  0.87498  Biso   1.000  I
  I6589    1.0000 0.12502  0.12502  0.12502  Biso   1.000  I
  I6590    1.0000 0.98598  0.98598  0.01402  Biso   1.000  I
  I6591    1.0000 0.12502  0.87498  0.87498  Biso   1.000  I
  I6592    1.0000 0.12502  0.12502  0.12502  Biso   1.000  I
  I6593    1.0000 0.87498  0.12502  0.87498  Biso   1.000  I
  I6594    1.0000 0.37501  0.12502  0.37501  Biso   1.000  I
  I6595    1.0000 0.62499  0.12502  0.62499  Biso   1.000  I
  I6596    1.0000 0.98598  0.48600  0.51400  Biso   1.000  I
  I6597    1.0000 0.12502  0.62499  0.62499  Biso   1.000  I
  I6598    1.0000 0.12502  0.37501  0.37501  Biso   1.000  I
  I6599    1.0000 0.87498  0.62499  0.37501  Biso   1.000  I
  I6600    1.0000 0.62499  0.87498  0.37501  Biso   1.000  I
  I6601    1.0000 0.37501  0.12502  0.37501  Biso   1.000  I
  I6602    1.0000 0.37501  0.37501  0.12502  Biso   1.000  I
  I6603    1.0000 0.37501  0.62499  0.87498  Biso   1.000  I
  I6604    1.0000 0.62499  0.87498  0.37501  Biso   1.000  I
  I6605    1.0000 0.51400  0.01402  0.51400  Biso   1.000  I
  I6606    1.0000 0.37501  0.12502  0.37501  Biso   1.000  I
  I6607    1.0000 0.37501  0.87498  0.62499  Biso   1.000  I
  I6608    1.0000 0.87498  0.37501  0.62499  Biso   1.000  I
  I6609    1.0000 0.01402  0.51400  0.51400  Biso   1.000  I
  I6610    1.0000 0.12502  0.37501  0.37501  Biso   1.000  I
  I6611    1.0000 0.87498  0.62499  0.37501  Biso   1.000  I
  I6612    1.0000 0.37501  0.62499  0.87498  Biso   1.000  I
  I6613    1.0000 0.51400  0.51400  0.01402  Biso   1.000  I
  I6614    1.0000 0.37501  0.37501  0.12502  Biso   1.000  I
  I6615    1.0000 0.62499  0.37501  0.87498  Biso   1.000  I
  I6616    1.0000 0.37501  0.12502  0.37501  Biso   1.000  I
  I6617    1.0000 0.37501  0.87498  0.62499  Biso   1.000  I
  I6618    1.0000 0.51400  0.48600  0.98598  Biso   1.000  I
  I6619    1.0000 0.37501  0.37501  0.12502  Biso   1.000  I
  I6620    1.0000 0.62499  0.62499  0.12502  Biso   1.000  I
  I6621    1.0000 0.37501  0.62499  0.87498  Biso   1.000  I
  I6622    1.0000 0.87498  0.12502  0.87498  Biso   1.000  I
  I6623    1.0000 0.01402  0.98598  0.98598  Biso   1.000  I
  I6624    1.0000 0.12502  0.12502  0.12502  Biso   1.000  I
  I6625    1.0000 0.87498  0.87498  0.12502  Biso   1.000  I
  I6626    1.0000 0.51400  0.98598  0.48600  Biso   1.000  I
  I6627    1.0000 0.37501  0.12502  0.37501  Biso   1.000  I
  I6628    1.0000 0.62499  0.12502  0.62499  Biso   1.000  I
  I6629    1.0000 0.37501  0.87498  0.62499  Biso   1.000  I
  I6630    1.0000 0.26401  0.26401  0.23601  Biso   1.000  I
  I6631    1.0000 0.26401  0.23601  0.26401  Biso   1.000  I
  I6632    1.0000 0.23601  0.26401  0.26401  Biso   1.000  I
  I6633    1.0000 0.23601  0.73599  0.73599  Biso   1.000  I
  I6634    1.0000 0.26401  0.76399  0.73599  Biso   1.000  I
  I6635    1.0000 0.26401  0.73599  0.76399  Biso   1.000  I
  I6636    1.0000 0.26401  0.23601  0.26401  Biso   1.000  I
  I6637    1.0000 0.23601  0.26401  0.26401  Biso   1.000  I
  I6638    1.0000 0.23601  0.23601  0.23601  Biso   1.000  I
  I6639    1.0000 0.73599  0.23601  0.73599  Biso   1.000  I
  I6640    1.0000 0.76399  0.23601  0.76399  Biso   1.000  I
  I6641    1.0000 0.76399  0.26401  0.73599  Biso   1.000  I
  I6642    1.0000 0.23601  0.76399  0.76399  Biso   1.000  I
  I6643    1.0000 0.26401  0.76399  0.73599  Biso   1.000  I
  I6644    1.0000 0.26401  0.73599  0.76399  Biso   1.000  I
  I6645    1.0000 0.26401  0.26401  0.23601  Biso   1.000  I
  I6646    1.0000 0.26401  0.23601  0.26401  Biso   1.000  I
  I6647    1.0000 0.23601  0.23601  0.23601  Biso   1.000  I
  I6648    1.0000 0.73599  0.23601  0.73599  Biso   1.000  I
  I6649    1.0000 0.73599  0.26401  0.76399  Biso   1.000  I
  I6650    1.0000 0.76399  0.23601  0.76399  Biso   1.000  I
  I6651    1.0000 0.23601  0.73599  0.73599  Biso   1.000  I
  I6652    1.0000 0.26401  0.26401  0.23601  Biso   1.000  I
  I6653    1.0000 0.26401  0.23601  0.26401  Biso   1.000  I
  I6654    1.0000 0.23601  0.26401  0.26401  Biso   1.000  I
  I6655    1.0000 0.76399  0.73599  0.26401  Biso   1.000  I
  I6656    1.0000 0.73599  0.73599  0.23601  Biso   1.000  I
  I6657    1.0000 0.73599  0.76399  0.26401  Biso   1.000  I
  I6658    1.0000 0.23601  0.23601  0.23601  Biso   1.000  I
  I6659    1.0000 0.23601  0.76399  0.76399  Biso   1.000  I
  I6660    1.0000 0.26401  0.76399  0.73599  Biso   1.000  I
  I6661    1.0000 0.26401  0.73599  0.76399  Biso   1.000  I
  I6662    1.0000 0.76399  0.73599  0.26401  Biso   1.000  I
  I6663    1.0000 0.76399  0.76399  0.23601  Biso   1.000  I
  I6664    1.0000 0.73599  0.76399  0.26401  Biso   1.000  I
  I6665    1.0000 0.26401  0.23601  0.26401  Biso   1.000  I
  I6666    1.0000 0.23601  0.26401  0.26401  Biso   1.000  I
  I6667    1.0000 0.23601  0.23601  0.23601  Biso   1.000  I
  I6668    1.0000 0.26401  0.26401  0.23601  Biso   1.000  I
  I6669    1.0000 0.73599  0.23601  0.73599  Biso   1.000  I
  I6670    1.0000 0.73599  0.26401  0.76399  Biso   1.000  I
  I6671    1.0000 0.76399  0.23601  0.76399  Biso   1.000  I
  I6672    1.0000 0.26401  0.23601  0.26401  Biso   1.000  I
  I6673    1.0000 0.23601  0.26401  0.26401  Biso   1.000  I
  I6674    1.0000 0.23601  0.23601  0.23601  Biso   1.000  I
  I6675    1.0000 0.76399  0.76399  0.23601  Biso   1.000  I
  I6676    1.0000 0.76399  0.26401  0.73599  Biso   1.000  I
  I6677    1.0000 0.26401  0.26401  0.23601  Biso   1.000  I
  I6678    1.0000 0.76399  0.73599  0.26401  Biso   1.000  I
  I6679    1.0000 0.73599  0.73599  0.23601  Biso   1.000  I
  I6680    1.0000 0.73599  0.76399  0.26401  Biso   1.000  I
  I6681    1.0000 0.19029  0.30969  0.30969  Biso   1.000  I
  I6682    1.0000 0.80971  0.69031  0.30969  Biso   1.000  I
  I6683    1.0000 0.30969  0.19029  0.30969  Biso   1.000  I
  I6684    1.0000 0.69031  0.19029  0.69031  Biso   1.000  I
  I6685    1.0000 0.69031  0.80971  0.30969  Biso   1.000  I
  I6686    1.0000 0.80971  0.19029  0.80971  Biso   1.000  I
  I6687    1.0000 0.19029  0.19029  0.19029  Biso   1.000  I
  I6688    1.0000 0.19029  0.80971  0.80971  Biso   1.000  I
  I6689    1.0000 0.19029  0.19029  0.19029  Biso   1.000  I
  I6690    1.0000 0.80971  0.19029  0.80971  Biso   1.000  I
  I6691    1.0000 0.30969  0.19029  0.30969  Biso   1.000  I
  I6692    1.0000 0.69031  0.19029  0.69031  Biso   1.000  I
  I6693    1.0000 0.19029  0.69031  0.69031  Biso   1.000  I
  I6694    1.0000 0.19029  0.30969  0.30969  Biso   1.000  I
  I6695    1.0000 0.80971  0.69031  0.30969  Biso   1.000  I
  I6696    1.0000 0.69031  0.80971  0.30969  Biso   1.000  I
  I6697    1.0000 0.30969  0.19029  0.30969  Biso   1.000  I
  I6698    1.0000 0.30969  0.30969  0.19029  Biso   1.000  I
  I6699    1.0000 0.30969  0.69031  0.80971  Biso   1.000  I
  I6700    1.0000 0.69031  0.80971  0.30969  Biso   1.000  I
  I6701    1.0000 0.30969  0.19029  0.30969  Biso   1.000  I
  I6702    1.0000 0.30969  0.80971  0.69031  Biso   1.000  I
  I6703    1.0000 0.80971  0.30969  0.69031  Biso   1.000  I
  I6704    1.0000 0.19029  0.30969  0.30969  Biso   1.000  I
  I6705    1.0000 0.80971  0.69031  0.30969  Biso   1.000  I
  I6706    1.0000 0.30969  0.69031  0.80971  Biso   1.000  I
  I6707    1.0000 0.30969  0.30969  0.19029  Biso   1.000  I
  I6708    1.0000 0.69031  0.30969  0.80971  Biso   1.000  I
  I6709    1.0000 0.30969  0.19029  0.30969  Biso   1.000  I
  I6710    1.0000 0.30969  0.80971  0.69031  Biso   1.000  I
  I6711    1.0000 0.30969  0.30969  0.19029  Biso   1.000  I
  I6712    1.0000 0.69031  0.69031  0.19029  Biso   1.000  I
  I6713    1.0000 0.30969  0.69031  0.80971  Biso   1.000  I
  I6714    1.0000 0.80971  0.19029  0.80971  Biso   1.000  I
  I6715    1.0000 0.19029  0.19029  0.19029  Biso   1.000  I
  I6716    1.0000 0.80971  0.80971  0.19029  Biso   1.000  I
  I6717    1.0000 0.30969  0.19029  0.30969  Biso   1.000  I
  I6718    1.0000 0.69031  0.19029  0.69031  Biso   1.000  I
  I6719    1.0000 0.30969  0.80971  0.69031  Biso   1.000  I
  I6720    1.0000 0.30969  0.19029  0.30969  Biso   1.000  I
  I6721    1.0000 0.30969  0.30969  0.19029  Biso   1.000  I
  I6722    1.0000 0.30969  0.80971  0.69031  Biso   1.000  I
  I6723    1.0000 0.30969  0.69031  0.80971  Biso   1.000  I
  I6724    1.0000 0.19029  0.69031  0.69031  Biso   1.000  I
  I6725    1.0000 0.19029  0.19029  0.19029  Biso   1.000  I
  I6726    1.0000 0.30969  0.19029  0.30969  Biso   1.000  I
  I6727    1.0000 0.80971  0.19029  0.80971  Biso   1.000  I
  I6728    1.0000 0.80971  0.30969  0.69031  Biso   1.000  I
  I6729    1.0000 0.69031  0.19029  0.69031  Biso   1.000  I
  I6730    1.0000 0.30969  0.80971  0.69031  Biso   1.000  I
  I6731    1.0000 0.30969  0.69031  0.80971  Biso   1.000  I
  I6732    1.0000 0.30969  0.19029  0.30969  Biso   1.000  I
  I6733    1.0000 0.19029  0.19029  0.19029  Biso   1.000  I
  I6734    1.0000 0.30969  0.30969  0.19029  Biso   1.000  I
  I6735    1.0000 0.80971  0.19029  0.80971  Biso   1.000  I
  I6736    1.0000 0.69031  0.19029  0.69031  Biso   1.000  I
  I6737    1.0000 0.30969  0.19029  0.30969  Biso   1.000  I
  I6738    1.0000 0.19029  0.30969  0.30969  Biso   1.000  I
  I6739    1.0000 0.30969  0.30969  0.19029  Biso   1.000  I
  I6740    1.0000 0.69031  0.80971  0.30969  Biso   1.000  I
  I6741    1.0000 0.80971  0.69031  0.30969  Biso   1.000  I
  I6742    1.0000 0.30969  0.80971  0.69031  Biso   1.000  I
  I6743    1.0000 0.30969  0.69031  0.80971  Biso   1.000  I
  I6744    1.0000 0.19029  0.80971  0.80971  Biso   1.000  I
  I6745    1.0000 0.80971  0.80971  0.19029  Biso   1.000  I
  I6746    1.0000 0.69031  0.80971  0.30969  Biso   1.000  I
  I6747    1.0000 0.80971  0.69031  0.30969  Biso   1.000  I
  I6748    1.0000 0.19029  0.30969  0.30969  Biso   1.000  I
  I6749    1.0000 0.30969  0.19029  0.30969  Biso   1.000  I
  I6750    1.0000 0.69031  0.30969  0.80971  Biso   1.000  I
  I6751    1.0000 0.80971  0.19029  0.80971  Biso   1.000  I
  I6752    1.0000 0.69031  0.19029  0.69031  Biso   1.000  I
  I6753    1.0000 0.19029  0.30969  0.30969  Biso   1.000  I
  I6754    1.0000 0.19029  0.19029  0.19029  Biso   1.000  I
  I6755    1.0000 0.30969  0.19029  0.30969  Biso   1.000  I
  I6756    1.0000 0.69031  0.69031  0.19029  Biso   1.000  I
  I6757    1.0000 0.69031  0.80971  0.30969  Biso   1.000  I
  I6758    1.0000 0.80971  0.69031  0.30969  Biso   1.000  I
  I6759    1.0000 0.26401  0.26401  0.23601  Biso   1.000  I
  I6760    1.0000 0.26401  0.23601  0.26401  Biso   1.000  I
  I6761    1.0000 0.23601  0.23601  0.23601  Biso   1.000  I
  I6762    1.0000 0.76399  0.76399  0.23601  Biso   1.000  I
  I6763    1.0000 0.73599  0.73599  0.23601  Biso   1.000  I
  I6764    1.0000 0.73599  0.76399  0.26401  Biso   1.000  I
  I6765    1.0000 0.26401  0.26401  0.23601  Biso   1.000  I
  I6766    1.0000 0.23601  0.26401  0.26401  Biso   1.000  I
  I6767    1.0000 0.23601  0.23601  0.23601  Biso   1.000  I
  I6768    1.0000 0.73599  0.26401  0.76399  Biso   1.000  I
  I6769    1.0000 0.76399  0.23601  0.76399  Biso   1.000  I
  I6770    1.0000 0.76399  0.26401  0.73599  Biso   1.000  I
  I6771    1.0000 0.76399  0.73599  0.26401  Biso   1.000  I
  I6772    1.0000 0.76399  0.76399  0.23601  Biso   1.000  I
  I6773    1.0000 0.73599  0.73599  0.23601  Biso   1.000  I
  I6774    1.0000 0.73599  0.23601  0.73599  Biso   1.000  I
  I6775    1.0000 0.73599  0.26401  0.76399  Biso   1.000  I
  I6776    1.0000 0.76399  0.26401  0.73599  Biso   1.000  I
  I6777    1.0000 0.26401  0.26401  0.23601  Biso   1.000  I
  I6778    1.0000 0.26401  0.23601  0.26401  Biso   1.000  I
  I6779    1.0000 0.23601  0.26401  0.26401  Biso   1.000  I
  I6780    1.0000 0.23601  0.73599  0.73599  Biso   1.000  I
  I6781    1.0000 0.26401  0.76399  0.73599  Biso   1.000  I
  I6782    1.0000 0.26401  0.73599  0.76399  Biso   1.000  I
  I6783    1.0000 0.26401  0.26401  0.23601  Biso   1.000  I
  I6784    1.0000 0.26401  0.23601  0.26401  Biso   1.000  I
  I6785    1.0000 0.23601  0.26401  0.26401  Biso   1.000  I
  I6786    1.0000 0.73599  0.23601  0.73599  Biso   1.000  I
  I6787    1.0000 0.23601  0.23601  0.23601  Biso   1.000  I
  I6788    1.0000 0.73599  0.26401  0.76399  Biso   1.000  I
  I6789    1.0000 0.76399  0.23601  0.76399  Biso   1.000  I
  I6790    1.0000 0.76399  0.26401  0.73599  Biso   1.000  I
  I6791    1.0000 0.23601  0.76399  0.76399  Biso   1.000  I
  I6792    1.0000 0.26401  0.26401  0.23601  Biso   1.000  I
  I6793    1.0000 0.26401  0.23601  0.26401  Biso   1.000  I
  I6794    1.0000 0.23601  0.23601  0.23601  Biso   1.000  I
  I6795    1.0000 0.73599  0.76399  0.26401  Biso   1.000  I
  I6796    1.0000 0.76399  0.73599  0.26401  Biso   1.000  I
  I6797    1.0000 0.76399  0.76399  0.23601  Biso   1.000  I
  I6798    1.0000 0.73599  0.73599  0.23601  Biso   1.000  I
  I6799    1.0000 0.23601  0.26401  0.26401  Biso   1.000  I
  I6800    1.0000 0.23601  0.26401  0.26401  Biso   1.000  I
  I6801    1.0000 0.23601  0.23601  0.23601  Biso   1.000  I
  I6802    1.0000 0.26401  0.23601  0.26401  Biso   1.000  I
  I6803    1.0000 0.23601  0.76399  0.76399  Biso   1.000  I
  I6804    1.0000 0.23601  0.73599  0.73599  Biso   1.000  I
  I6805    1.0000 0.26401  0.76399  0.73599  Biso   1.000  I
  I6806    1.0000 0.76399  0.73599  0.26401  Biso   1.000  I
  I6807    1.0000 0.76399  0.76399  0.23601  Biso   1.000  I
  I6808    1.0000 0.73599  0.73599  0.23601  Biso   1.000  I
  I6809    1.0000 0.26401  0.26401  0.23601  Biso   1.000  I
  I6810    1.0000 0.23601  0.26401  0.26401  Biso   1.000  I
  I6811    1.0000 0.23601  0.23601  0.23601  Biso   1.000  I
  I6812    1.0000 0.23601  0.76399  0.76399  Biso   1.000  I
  I6813    1.0000 0.23601  0.73599  0.73599  Biso   1.000  I
  I6814    1.0000 0.26401  0.73599  0.76399  Biso   1.000  I
  I6815    1.0000 0.73599  0.23601  0.73599  Biso   1.000  I
  I6816    1.0000 0.73599  0.26401  0.76399  Biso   1.000  I
  I6817    1.0000 0.76399  0.23601  0.76399  Biso   1.000  I
  I6818    1.0000 0.26401  0.26401  0.23601  Biso   1.000  I
  I6819    1.0000 0.26401  0.23601  0.26401  Biso   1.000  I
  I6820    1.0000 0.23601  0.23601  0.23601  Biso   1.000  I
  I6821    1.0000 0.73599  0.76399  0.26401  Biso   1.000  I
  I6822    1.0000 0.26401  0.76399  0.73599  Biso   1.000  I
  I6823    1.0000 0.26401  0.23601  0.26401  Biso   1.000  I
  I6824    1.0000 0.23601  0.26401  0.26401  Biso   1.000  I
  I6825    1.0000 0.23601  0.23601  0.23601  Biso   1.000  I
  I6826    1.0000 0.76399  0.26401  0.73599  Biso   1.000  I
  I6827    1.0000 0.26401  0.26401  0.23601  Biso   1.000  I
  I6828    1.0000 0.23601  0.76399  0.76399  Biso   1.000  I
  I6829    1.0000 0.23601  0.73599  0.73599  Biso   1.000  I
  I6830    1.0000 0.26401  0.73599  0.76399  Biso   1.000  I
  I6831    1.0000 0.26401  0.23601  0.26401  Biso   1.000  I
  I6832    1.0000 0.23601  0.26401  0.26401  Biso   1.000  I
  I6833    1.0000 0.23601  0.23601  0.23601  Biso   1.000  I
  I6834    1.0000 0.76399  0.73599  0.26401  Biso   1.000  I
  I6835    1.0000 0.76399  0.76399  0.23601  Biso   1.000  I
  I6836    1.0000 0.73599  0.76399  0.26401  Biso   1.000  I
  I6837    1.0000 0.23601  0.76399  0.76399  Biso   1.000  I
  I6838    1.0000 0.23601  0.73599  0.73599  Biso   1.000  I
  I6839    1.0000 0.26401  0.76399  0.73599  Biso   1.000  I
  I6840    1.0000 0.73599  0.23601  0.73599  Biso   1.000  I
  I6841    1.0000 0.73599  0.26401  0.76399  Biso   1.000  I
  I6842    1.0000 0.76399  0.26401  0.73599  Biso   1.000  I
  I6843    1.0000 0.26401  0.26401  0.23601  Biso   1.000  I
  I6844    1.0000 0.26401  0.23601  0.26401  Biso   1.000  I
  I6845    1.0000 0.23601  0.26401  0.26401  Biso   1.000  I
  I6846    1.0000 0.73599  0.73599  0.23601  Biso   1.000  I
  I6847    1.0000 0.26401  0.26401  0.23601  Biso   1.000  I
  I6848    1.0000 0.23601  0.26401  0.26401  Biso   1.000  I
  I6849    1.0000 0.23601  0.23601  0.23601  Biso   1.000  I
  I6850    1.0000 0.76399  0.23601  0.76399  Biso   1.000  I
  I6851    1.0000 0.26401  0.73599  0.76399  Biso   1.000  I
  I6852    1.0000 0.37501  0.12502  0.37501  Biso   1.000  I
  I6853    1.0000 0.37501  0.37501  0.12502  Biso   1.000  I
  I6854    1.0000 0.37501  0.87498  0.62499  Biso   1.000  I
  I6855    1.0000 0.23601  0.76399  0.76399  Biso   1.000  I
  I6856    1.0000 0.37501  0.62499  0.87498  Biso   1.000  I
  I6857    1.0000 0.12502  0.62499  0.62499  Biso   1.000  I
  I6858    1.0000 0.12502  0.12502  0.12502  Biso   1.000  I
  I6859    1.0000 0.37501  0.12502  0.37501  Biso   1.000  I
  I6860    1.0000 0.87498  0.12502  0.87498  Biso   1.000  I
  I6861    1.0000 0.73599  0.26401  0.76399  Biso   1.000  I
  I6862    1.0000 0.87498  0.37501  0.62499  Biso   1.000  I
  I6863    1.0000 0.62499  0.12502  0.62499  Biso   1.000  I
  I6864    1.0000 0.37501  0.87498  0.62499  Biso   1.000  I
  I6865    1.0000 0.37501  0.62499  0.87498  Biso   1.000  I
  I6866    1.0000 0.37501  0.12502  0.37501  Biso   1.000  I
  I6867    1.0000 0.23601  0.26401  0.26401  Biso   1.000  I
  I6868    1.0000 0.12502  0.12502  0.12502  Biso   1.000  I
  I6869    1.0000 0.37501  0.37501  0.12502  Biso   1.000  I
  I6870    1.0000 0.87498  0.12502  0.87498  Biso   1.000  I
  I6871    1.0000 0.62499  0.12502  0.62499  Biso   1.000  I
  I6872    1.0000 0.37501  0.12502  0.37501  Biso   1.000  I
  I6873    1.0000 0.23601  0.23601  0.23601  Biso   1.000  I
  I6874    1.0000 0.12502  0.37501  0.37501  Biso   1.000  I
  I6875    1.0000 0.37501  0.37501  0.12502  Biso   1.000  I
  I6876    1.0000 0.62499  0.87498  0.37501  Biso   1.000  I
  I6877    1.0000 0.87498  0.62499  0.37501  Biso   1.000  I
  I6878    1.0000 0.37501  0.87498  0.62499  Biso   1.000  I
  I6879    1.0000 0.23601  0.73599  0.73599  Biso   1.000  I
  I6880    1.0000 0.37501  0.62499  0.87498  Biso   1.000  I
  I6881    1.0000 0.12502  0.87498  0.87498  Biso   1.000  I
  I6882    1.0000 0.87498  0.87498  0.12502  Biso   1.000  I
  I6883    1.0000 0.73599  0.73599  0.23601  Biso   1.000  I
  I6884    1.0000 0.62499  0.87498  0.37501  Biso   1.000  I
  I6885    1.0000 0.87498  0.62499  0.37501  Biso   1.000  I
  I6886    1.0000 0.12502  0.37501  0.37501  Biso   1.000  I
  I6887    1.0000 0.37501  0.12502  0.37501  Biso   1.000  I
  I6888    1.0000 0.62499  0.37501  0.87498  Biso   1.000  I
  I6889    1.0000 0.76399  0.26401  0.73599  Biso   1.000  I
  I6890    1.0000 0.87498  0.12502  0.87498  Biso   1.000  I
  I6891    1.0000 0.62499  0.12502  0.62499  Biso   1.000  I
  I6892    1.0000 0.12502  0.37501  0.37501  Biso   1.000  I
  I6893    1.0000 0.26401  0.26401  0.23601  Biso   1.000  I
  I6894    1.0000 0.12502  0.12502  0.12502  Biso   1.000  I
  I6895    1.0000 0.37501  0.12502  0.37501  Biso   1.000  I
  I6896    1.0000 0.62499  0.62499  0.12502  Biso   1.000  I
  I6897    1.0000 0.76399  0.76399  0.23601  Biso   1.000  I
  I6898    1.0000 0.62499  0.87498  0.37501  Biso   1.000  I
  I6899    1.0000 0.87498  0.62499  0.37501  Biso   1.000  I
  I6900    1.0000 0.19029  0.19029  0.19029  Biso   1.000  I
  I6901    1.0000 0.30969  0.30969  0.19029  Biso   1.000  I
  I6902    1.0000 0.69031  0.69031  0.19029  Biso   1.000  I
  I6903    1.0000 0.69031  0.80971  0.30969  Biso   1.000  I
  I6904    1.0000 0.80971  0.80971  0.19029  Biso   1.000  I
  I6905    1.0000 0.19029  0.30969  0.30969  Biso   1.000  I
  I6906    1.0000 0.19029  0.19029  0.19029  Biso   1.000  I
  I6907    1.0000 0.30969  0.30969  0.19029  Biso   1.000  I
  I6908    1.0000 0.80971  0.30969  0.69031  Biso   1.000  I
  I6909    1.0000 0.69031  0.30969  0.80971  Biso   1.000  I
  I6910    1.0000 0.80971  0.80971  0.19029  Biso   1.000  I
  I6911    1.0000 0.69031  0.69031  0.19029  Biso   1.000  I
  I6912    1.0000 0.69031  0.30969  0.80971  Biso   1.000  I
  I6913    1.0000 0.80971  0.30969  0.69031  Biso   1.000  I
  I6914    1.0000 0.69031  0.19029  0.69031  Biso   1.000  I
  I6915    1.0000 0.19029  0.30969  0.30969  Biso   1.000  I
  I6916    1.0000 0.30969  0.30969  0.19029  Biso   1.000  I
  I6917    1.0000 0.30969  0.80971  0.69031  Biso   1.000  I
  I6918    1.0000 0.30969  0.69031  0.80971  Biso   1.000  I
  I6919    1.0000 0.30969  0.19029  0.30969  Biso   1.000  I
  I6920    1.0000 0.19029  0.30969  0.30969  Biso   1.000  I
  I6921    1.0000 0.30969  0.30969  0.19029  Biso   1.000  I
  I6922    1.0000 0.80971  0.19029  0.80971  Biso   1.000  I
  I6923    1.0000 0.80971  0.30969  0.69031  Biso   1.000  I
  I6924    1.0000 0.69031  0.30969  0.80971  Biso   1.000  I
  I6925    1.0000 0.30969  0.19029  0.30969  Biso   1.000  I
  I6926    1.0000 0.19029  0.19029  0.19029  Biso   1.000  I
  I6927    1.0000 0.30969  0.30969  0.19029  Biso   1.000  I
  I6928    1.0000 0.80971  0.80971  0.19029  Biso   1.000  I
  I6929    1.0000 0.69031  0.69031  0.19029  Biso   1.000  I
  I6930    1.0000 0.80971  0.69031  0.30969  Biso   1.000  I
  I6931    1.0000 0.19029  0.19029  0.19029  Biso   1.000  I
  I6932    1.0000 0.19029  0.30969  0.30969  Biso   1.000  I
  I6933    1.0000 0.19029  0.69031  0.69031  Biso   1.000  I
  I6934    1.0000 0.30969  0.80971  0.69031  Biso   1.000  I
  I6935    1.0000 0.19029  0.80971  0.80971  Biso   1.000  I
  I6936    1.0000 0.80971  0.80971  0.19029  Biso   1.000  I
  I6937    1.0000 0.69031  0.69031  0.19029  Biso   1.000  I
  I6938    1.0000 0.19029  0.30969  0.30969  Biso   1.000  I
  I6939    1.0000 0.19029  0.19029  0.19029  Biso   1.000  I
  I6940    1.0000 0.30969  0.30969  0.19029  Biso   1.000  I
  I6941    1.0000 0.19029  0.69031  0.69031  Biso   1.000  I
  I6942    1.0000 0.19029  0.80971  0.80971  Biso   1.000  I
  I6943    1.0000 0.80971  0.19029  0.80971  Biso   1.000  I
  I6944    1.0000 0.69031  0.19029  0.69031  Biso   1.000  I
  I6945    1.0000 0.30969  0.19029  0.30969  Biso   1.000  I
  I6946    1.0000 0.19029  0.19029  0.19029  Biso   1.000  I
  I6947    1.0000 0.30969  0.30969  0.19029  Biso   1.000  I
  I6948    1.0000 0.19029  0.30969  0.30969  Biso   1.000  I
  I6949    1.0000 0.19029  0.19029  0.19029  Biso   1.000  I
  I6950    1.0000 0.30969  0.19029  0.30969  Biso   1.000  I
  I6951    1.0000 0.19029  0.69031  0.69031  Biso   1.000  I
  I6952    1.0000 0.30969  0.69031  0.80971  Biso   1.000  I
  I6953    1.0000 0.19029  0.80971  0.80971  Biso   1.000  I
  I6954    1.0000 0.19029  0.30969  0.30969  Biso   1.000  I
  I6955    1.0000 0.19029  0.19029  0.19029  Biso   1.000  I
  I6956    1.0000 0.30969  0.19029  0.30969  Biso   1.000  I
  I6957    1.0000 0.69031  0.80971  0.30969  Biso   1.000  I
  I6958    1.0000 0.80971  0.69031  0.30969  Biso   1.000  I
  I6959    1.0000 0.19029  0.69031  0.69031  Biso   1.000  I
  I6960    1.0000 0.19029  0.80971  0.80971  Biso   1.000  I
  I6961    1.0000 0.69031  0.30969  0.80971  Biso   1.000  I
  I6962    1.0000 0.80971  0.30969  0.69031  Biso   1.000  I
  I6963    1.0000 0.30969  0.19029  0.30969  Biso   1.000  I
  I6964    1.0000 0.19029  0.30969  0.30969  Biso   1.000  I
  I6965    1.0000 0.30969  0.30969  0.19029  Biso   1.000  I
  I6966    1.0000 0.19029  0.30969  0.30969  Biso   1.000  I
  I6967    1.0000 0.19029  0.19029  0.19029  Biso   1.000  I
  I6968    1.0000 0.30969  0.30969  0.19029  Biso   1.000  I
  I6969    1.0000 0.44028  0.05970  0.44028  Biso   1.000  I
  I6970    1.0000 0.44028  0.44028  0.05970  Biso   1.000  I
  I6971    1.0000 0.44028  0.94030  0.55972  Biso   1.000  I
  I6972    1.0000 0.44028  0.55972  0.94030  Biso   1.000  I
  I6973    1.0000 0.05970  0.55972  0.55972  Biso   1.000  I
  I6974    1.0000 0.05970  0.05970  0.05970  Biso   1.000  I
  I6975    1.0000 0.44028  0.05970  0.44028  Biso   1.000  I
  I6976    1.0000 0.94030  0.05970  0.94030  Biso   1.000  I
  I6977    1.0000 0.94030  0.44028  0.55972  Biso   1.000  I
  I6978    1.0000 0.55972  0.05970  0.55972  Biso   1.000  I
  I6979    1.0000 0.44028  0.94030  0.55972  Biso   1.000  I
  I6980    1.0000 0.44028  0.55972  0.94030  Biso   1.000  I
  I6981    1.0000 0.44028  0.05970  0.44028  Biso   1.000  I
  I6982    1.0000 0.05970  0.05970  0.05970  Biso   1.000  I
  I6983    1.0000 0.44028  0.44028  0.05970  Biso   1.000  I
  I6984    1.0000 0.94030  0.05970  0.94030  Biso   1.000  I
  I6985    1.0000 0.55972  0.05970  0.55972  Biso   1.000  I
  I6986    1.0000 0.44028  0.05970  0.44028  Biso   1.000  I
  I6987    1.0000 0.05970  0.44028  0.44028  Biso   1.000  I
  I6988    1.0000 0.44028  0.44028  0.05970  Biso   1.000  I
  I6989    1.0000 0.55972  0.94030  0.44028  Biso   1.000  I
  I6990    1.0000 0.94030  0.55972  0.44028  Biso   1.000  I
  I6991    1.0000 0.44028  0.94030  0.55972  Biso   1.000  I
  I6992    1.0000 0.44028  0.55972  0.94030  Biso   1.000  I
  I6993    1.0000 0.05970  0.94030  0.94030  Biso   1.000  I
  I6994    1.0000 0.94030  0.94030  0.05970  Biso   1.000  I
  I6995    1.0000 0.55972  0.94030  0.44028  Biso   1.000  I
  I6996    1.0000 0.94030  0.55972  0.44028  Biso   1.000  I
  I6997    1.0000 0.05970  0.44028  0.44028  Biso   1.000  I
  I6998    1.0000 0.44028  0.05970  0.44028  Biso   1.000  I
  I6999    1.0000 0.55972  0.44028  0.94030  Biso   1.000  I
  I7000    1.0000 0.94030  0.05970  0.94030  Biso   1.000  I
  I7001    1.0000 0.55972  0.05970  0.55972  Biso   1.000  I
  I7002    1.0000 0.05970  0.44028  0.44028  Biso   1.000  I
  I7003    1.0000 0.05970  0.05970  0.05970  Biso   1.000  I
  I7004    1.0000 0.44028  0.05970  0.44028  Biso   1.000  I
  I7005    1.0000 0.55972  0.55972  0.05970  Biso   1.000  I
  I7006    1.0000 0.55972  0.94030  0.44028  Biso   1.000  I
  I7007    1.0000 0.94030  0.55972  0.44028  Biso   1.000  I
  I7008    1.0000 0.12502  0.12502  0.12502  Biso   1.000  I
  I7009    1.0000 0.37501  0.37501  0.12502  Biso   1.000  I
  I7010    1.0000 0.62499  0.62499  0.12502  Biso   1.000  I
  I7011    1.0000 0.76399  0.73599  0.26401  Biso   1.000  I
  I7012    1.0000 0.62499  0.87498  0.37501  Biso   1.000  I
  I7013    1.0000 0.87498  0.87498  0.12502  Biso   1.000  I
  I7014    1.0000 0.12502  0.37501  0.37501  Biso   1.000  I
  I7015    1.0000 0.26401  0.23601  0.26401  Biso   1.000  I
  I7016    1.0000 0.12502  0.12502  0.12502  Biso   1.000  I
  I7017    1.0000 0.37501  0.37501  0.12502  Biso   1.000  I
  I7018    1.0000 0.87498  0.37501  0.62499  Biso   1.000  I
  I7019    1.0000 0.62499  0.37501  0.87498  Biso   1.000  I
  I7020    1.0000 0.87498  0.87498  0.12502  Biso   1.000  I
  I7021    1.0000 0.62499  0.62499  0.12502  Biso   1.000  I
  I7022    1.0000 0.62499  0.37501  0.87498  Biso   1.000  I
  I7023    1.0000 0.76399  0.23601  0.76399  Biso   1.000  I
  I7024    1.0000 0.87498  0.37501  0.62499  Biso   1.000  I
  I7025    1.0000 0.62499  0.12502  0.62499  Biso   1.000  I
  I7026    1.0000 0.12502  0.37501  0.37501  Biso   1.000  I
  I7027    1.0000 0.37501  0.37501  0.12502  Biso   1.000  I
  I7028    1.0000 0.37501  0.87498  0.62499  Biso   1.000  I
  I7029    1.0000 0.37501  0.62499  0.87498  Biso   1.000  I
  I7030    1.0000 0.37501  0.12502  0.37501  Biso   1.000  I
  I7031    1.0000 0.23601  0.23601  0.23601  Biso   1.000  I
  I7032    1.0000 0.12502  0.37501  0.37501  Biso   1.000  I
  I7033    1.0000 0.37501  0.37501  0.12502  Biso   1.000  I
  I7034    1.0000 0.87498  0.12502  0.87498  Biso   1.000  I
  I7035    1.0000 0.73599  0.23601  0.73599  Biso   1.000  I
  I7036    1.0000 0.87498  0.37501  0.62499  Biso   1.000  I
  I7037    1.0000 0.62499  0.37501  0.87498  Biso   1.000  I
  I7038    1.0000 0.37501  0.12502  0.37501  Biso   1.000  I
  I7039    1.0000 0.23601  0.26401  0.26401  Biso   1.000  I
  I7040    1.0000 0.12502  0.12502  0.12502  Biso   1.000  I
  I7041    1.0000 0.37501  0.37501  0.12502  Biso   1.000  I
  I7042    1.0000 0.87498  0.87498  0.12502  Biso   1.000  I
  I7043    1.0000 0.73599  0.76399  0.26401  Biso   1.000  I
  I7044    1.0000 0.62499  0.62499  0.12502  Biso   1.000  I
  I7045    1.0000 0.87498  0.62499  0.37501  Biso   1.000  I
  I7046    1.0000 0.12502  0.12502  0.12502  Biso   1.000  I
  I7047    1.0000 0.12502  0.37501  0.37501  Biso   1.000  I
  I7048    1.0000 0.12502  0.62499  0.62499  Biso   1.000  I
  I7049    1.0000 0.26401  0.73599  0.76399  Biso   1.000  I
  I7050    1.0000 0.37501  0.87498  0.62499  Biso   1.000  I
  I7051    1.0000 0.12502  0.87498  0.87498  Biso   1.000  I
  I7052    1.0000 0.87498  0.87498  0.12502  Biso   1.000  I
  I7053    1.0000 0.62499  0.62499  0.12502  Biso   1.000  I
  I7054    1.0000 0.12502  0.37501  0.37501  Biso   1.000  I
  I7055    1.0000 0.26401  0.23601  0.26401  Biso   1.000  I
  I7056    1.0000 0.12502  0.12502  0.12502  Biso   1.000  I
  I7057    1.0000 0.37501  0.37501  0.12502  Biso   1.000  I
  I7058    1.0000 0.12502  0.62499  0.62499  Biso   1.000  I
  I7059    1.0000 0.12502  0.87498  0.87498  Biso   1.000  I
  I7060    1.0000 0.87498  0.12502  0.87498  Biso   1.000  I
  I7061    1.0000 0.62499  0.12502  0.62499  Biso   1.000  I
  I7062    1.0000 0.37501  0.12502  0.37501  Biso   1.000  I
  I7063    1.0000 0.23601  0.26401  0.26401  Biso   1.000  I
  I7064    1.0000 0.12502  0.12502  0.12502  Biso   1.000  I
  I7065    1.0000 0.37501  0.37501  0.12502  Biso   1.000  I
  I7066    1.0000 0.12502  0.37501  0.37501  Biso   1.000  I
  I7067    1.0000 0.26401  0.26401  0.23601  Biso   1.000  I
  I7068    1.0000 0.12502  0.12502  0.12502  Biso   1.000  I
  I7069    1.0000 0.37501  0.12502  0.37501  Biso   1.000  I
  I7070    1.0000 0.12502  0.62499  0.62499  Biso   1.000  I
  I7071    1.0000 0.26401  0.76399  0.73599  Biso   1.000  I
  I7072    1.0000 0.37501  0.62499  0.87498  Biso   1.000  I
  I7073    1.0000 0.12502  0.87498  0.87498  Biso   1.000  I
  I7074    1.0000 0.12502  0.37501  0.37501  Biso   1.000  I
  I7075    1.0000 0.26401  0.26401  0.23601  Biso   1.000  I
  I7076    1.0000 0.12502  0.12502  0.12502  Biso   1.000  I
  I7077    1.0000 0.37501  0.12502  0.37501  Biso   1.000  I
  I7078    1.0000 0.62499  0.87498  0.37501  Biso   1.000  I
  I7079    1.0000 0.87498  0.62499  0.37501  Biso   1.000  I
  I7080    1.0000 0.12502  0.62499  0.62499  Biso   1.000  I
  I7081    1.0000 0.12502  0.87498  0.87498  Biso   1.000  I
  I7082    1.0000 0.62499  0.37501  0.87498  Biso   1.000  I
  I7083    1.0000 0.87498  0.37501  0.62499  Biso   1.000  I
  I7084    1.0000 0.37501  0.12502  0.37501  Biso   1.000  I
  I7085    1.0000 0.23601  0.23601  0.23601  Biso   1.000  I
  I7086    1.0000 0.12502  0.37501  0.37501  Biso   1.000  I
  I7087    1.0000 0.37501  0.37501  0.12502  Biso   1.000  I
  I7088    1.0000 0.12502  0.37501  0.37501  Biso   1.000  I
  I7089    1.0000 0.26401  0.23601  0.26401  Biso   1.000  I
  I7090    1.0000 0.12502  0.12502  0.12502  Biso   1.000  I
  I7091    1.0000 0.37501  0.37501  0.12502  Biso   1.000  I
  I7092    1.0000 0.48600  0.98598  0.51400  Biso   1.000  I
  I7093    1.0000 0.51400  0.98598  0.48600  Biso   1.000  I
  I7094    1.0000 0.51400  0.01402  0.51400  Biso   1.000  I
  I7095    1.0000 0.51400  0.48600  0.98598  Biso   1.000  I
  I7096    1.0000 0.51400  0.51400  0.01402  Biso   1.000  I
  I7097    1.0000 0.48600  0.51400  0.98598  Biso   1.000  I
  I7098    1.0000 0.51400  0.98598  0.48600  Biso   1.000  I
  I7099    1.0000 0.48600  0.01402  0.48600  Biso   1.000  I
  I7100    1.0000 0.51400  0.01402  0.51400  Biso   1.000  I
  I7101    1.0000 0.51400  0.48600  0.98598  Biso   1.000  I
  I7102    1.0000 0.48600  0.48600  0.01402  Biso   1.000  I
  I7103    1.0000 0.51400  0.51400  0.01402  Biso   1.000  I
  I7104    1.0000 0.98598  0.51400  0.48600  Biso   1.000  I
  I7105    1.0000 0.98598  0.48600  0.51400  Biso   1.000  I
  I7106    1.0000 0.01402  0.48600  0.48600  Biso   1.000  I
  I7107    1.0000 0.98598  0.01402  0.98598  Biso   1.000  I
  I7108    1.0000 0.51400  0.01402  0.51400  Biso   1.000  I
  I7109    1.0000 0.01402  0.01402  0.01402  Biso   1.000  I
  I7110    1.0000 0.01402  0.51400  0.51400  Biso   1.000  I
  I7111    1.0000 0.48600  0.01402  0.48600  Biso   1.000  I
  I7112    1.0000 0.48600  0.01402  0.48600  Biso   1.000  I
  I7113    1.0000 0.51400  0.48600  0.98598  Biso   1.000  I
  I7114    1.0000 0.48600  0.48600  0.01402  Biso   1.000  I
  I7115    1.0000 0.51400  0.51400  0.01402  Biso   1.000  I
  I7116    1.0000 0.51400  0.01402  0.51400  Biso   1.000  I
  I7117    1.0000 0.98598  0.01402  0.98598  Biso   1.000  I
  I7118    1.0000 0.48600  0.51400  0.98598  Biso   1.000  I
  I7119    1.0000 0.01402  0.01402  0.01402  Biso   1.000  I
  I7120    1.0000 0.48600  0.01402  0.48600  Biso   1.000  I
  I7121    1.0000 0.48600  0.98598  0.51400  Biso   1.000  I
  I7122    1.0000 0.51400  0.98598  0.48600  Biso   1.000  I
  I7123    1.0000 0.51400  0.01402  0.51400  Biso   1.000  I
  I7124    1.0000 0.98598  0.48600  0.51400  Biso   1.000  I
  I7125    1.0000 0.01402  0.51400  0.51400  Biso   1.000  I
  I7126    1.0000 0.98598  0.51400  0.48600  Biso   1.000  I
  I7127    1.0000 0.51400  0.48600  0.98598  Biso   1.000  I
  I7128    1.0000 0.51400  0.51400  0.01402  Biso   1.000  I
  I7129    1.0000 0.48600  0.51400  0.98598  Biso   1.000  I
  I7130    1.0000 0.48600  0.98598  0.51400  Biso   1.000  I
  I7131    1.0000 0.51400  0.01402  0.51400  Biso   1.000  I
  I7132    1.0000 0.48600  0.01402  0.48600  Biso   1.000  I
  I7133    1.0000 0.98598  0.48600  0.51400  Biso   1.000  I
  I7134    1.0000 0.01402  0.51400  0.51400  Biso   1.000  I
  I7135    1.0000 0.01402  0.48600  0.48600  Biso   1.000  I
  I7136    1.0000 0.51400  0.98598  0.48600  Biso   1.000  I
  I7137    1.0000 0.51400  0.01402  0.51400  Biso   1.000  I
  I7138    1.0000 0.48600  0.01402  0.48600  Biso   1.000  I
  I7139    1.0000 0.48600  0.48600  0.01402  Biso   1.000  I
  I7140    1.0000 0.98598  0.98598  0.01402  Biso   1.000  I
  I7141    1.0000 0.01402  0.01402  0.01402  Biso   1.000  I
  I7142    1.0000 0.98598  0.01402  0.98598  Biso   1.000  I
  I7143    1.0000 0.01402  0.98598  0.98598  Biso   1.000  I
  I7144    1.0000 0.48600  0.98598  0.51400  Biso   1.000  I
  I7145    1.0000 0.48600  0.01402  0.48600  Biso   1.000  I
  I7146    1.0000 0.51400  0.01402  0.51400  Biso   1.000  I
  I7147    1.0000 0.01402  0.48600  0.48600  Biso   1.000  I
  I7148    1.0000 0.98598  0.48600  0.51400  Biso   1.000  I
  I7149    1.0000 0.01402  0.51400  0.51400  Biso   1.000  I
  I7150    1.0000 0.98598  0.51400  0.48600  Biso   1.000  I
  I7151    1.0000 0.51400  0.98598  0.48600  Biso   1.000  I
  I7152    1.0000 0.48600  0.51400  0.98598  Biso   1.000  I
  I7153    1.0000 0.48600  0.48600  0.01402  Biso   1.000  I
  I7154    1.0000 0.51400  0.51400  0.01402  Biso   1.000  I
  I7155    1.0000 0.01402  0.01402  0.01402  Biso   1.000  I
  I7156    1.0000 0.48600  0.01402  0.48600  Biso   1.000  I
  I7157    1.0000 0.98598  0.48600  0.51400  Biso   1.000  I
  I7158    1.0000 0.01402  0.51400  0.51400  Biso   1.000  I
  I7159    1.0000 0.98598  0.51400  0.48600  Biso   1.000  I
  I7160    1.0000 0.98598  0.01402  0.98598  Biso   1.000  I
  I7161    1.0000 0.51400  0.01402  0.51400  Biso   1.000  I
  I7162    1.0000 0.51400  0.48600  0.98598  Biso   1.000  I
  I7163    1.0000 0.48600  0.98598  0.51400  Biso   1.000  I
  I7164    1.0000 0.51400  0.01402  0.51400  Biso   1.000  I
  I7165    1.0000 0.48600  0.01402  0.48600  Biso   1.000  I
  I7166    1.0000 0.01402  0.48600  0.48600  Biso   1.000  I
  I7167    1.0000 0.05970  0.05970  0.05970  Biso   1.000  I
  I7168    1.0000 0.44028  0.44028  0.05970  Biso   1.000  I
  I7169    1.0000 0.55972  0.55972  0.05970  Biso   1.000  I
  I7170    1.0000 0.55972  0.94030  0.44028  Biso   1.000  I
  I7171    1.0000 0.94030  0.94030  0.05970  Biso   1.000  I
  I7172    1.0000 0.05970  0.44028  0.44028  Biso   1.000  I
  I7173    1.0000 0.05970  0.05970  0.05970  Biso   1.000  I
  I7174    1.0000 0.44028  0.44028  0.05970  Biso   1.000  I
  I7175    1.0000 0.94030  0.44028  0.55972  Biso   1.000  I
  I7176    1.0000 0.55972  0.44028  0.94030  Biso   1.000  I
  I7177    1.0000 0.94030  0.94030  0.05970  Biso   1.000  I
  I7178    1.0000 0.55972  0.55972  0.05970  Biso   1.000  I
  I7179    1.0000 0.55972  0.44028  0.94030  Biso   1.000  I
  I7180    1.0000 0.94030  0.44028  0.55972  Biso   1.000  I
  I7181    1.0000 0.55972  0.05970  0.55972  Biso   1.000  I
  I7182    1.0000 0.05970  0.44028  0.44028  Biso   1.000  I
  I7183    1.0000 0.44028  0.44028  0.05970  Biso   1.000  I
  I7184    1.0000 0.44028  0.94030  0.55972  Biso   1.000  I
  I7185    1.0000 0.44028  0.55972  0.94030  Biso   1.000  I
  I7186    1.0000 0.44028  0.05970  0.44028  Biso   1.000  I
  I7187    1.0000 0.05970  0.44028  0.44028  Biso   1.000  I
  I7188    1.0000 0.44028  0.44028  0.05970  Biso   1.000  I
  I7189    1.0000 0.94030  0.05970  0.94030  Biso   1.000  I
  I7190    1.0000 0.94030  0.44028  0.55972  Biso   1.000  I
  I7191    1.0000 0.55972  0.44028  0.94030  Biso   1.000  I
  I7192    1.0000 0.44028  0.05970  0.44028  Biso   1.000  I
  I7193    1.0000 0.05970  0.05970  0.05970  Biso   1.000  I
  I7194    1.0000 0.44028  0.44028  0.05970  Biso   1.000  I
  I7195    1.0000 0.94030  0.94030  0.05970  Biso   1.000  I
  I7196    1.0000 0.55972  0.55972  0.05970  Biso   1.000  I
  I7197    1.0000 0.94030  0.55972  0.44028  Biso   1.000  I
  I7198    1.0000 0.05970  0.05970  0.05970  Biso   1.000  I
  I7199    1.0000 0.05970  0.44028  0.44028  Biso   1.000  I
  I7200    1.0000 0.05970  0.55972  0.55972  Biso   1.000  I
  I7201    1.0000 0.44028  0.94030  0.55972  Biso   1.000  I
  I7202    1.0000 0.05970  0.94030  0.94030  Biso   1.000  I
  I7203    1.0000 0.94030  0.94030  0.05970  Biso   1.000  I
  I7204    1.0000 0.55972  0.55972  0.05970  Biso   1.000  I
  I7205    1.0000 0.05970  0.44028  0.44028  Biso   1.000  I
  I7206    1.0000 0.05970  0.05970  0.05970  Biso   1.000  I
  I7207    1.0000 0.44028  0.44028  0.05970  Biso   1.000  I
  I7208    1.0000 0.05970  0.55972  0.55972  Biso   1.000  I
  I7209    1.0000 0.05970  0.94030  0.94030  Biso   1.000  I
  I7210    1.0000 0.94030  0.05970  0.94030  Biso   1.000  I
  I7211    1.0000 0.55972  0.05970  0.55972  Biso   1.000  I
  I7212    1.0000 0.44028  0.05970  0.44028  Biso   1.000  I
  I7213    1.0000 0.05970  0.05970  0.05970  Biso   1.000  I
  I7214    1.0000 0.44028  0.44028  0.05970  Biso   1.000  I
  I7215    1.0000 0.05970  0.44028  0.44028  Biso   1.000  I
  I7216    1.0000 0.05970  0.05970  0.05970  Biso   1.000  I
  I7217    1.0000 0.44028  0.05970  0.44028  Biso   1.000  I
  I7218    1.0000 0.05970  0.55972  0.55972  Biso   1.000  I
  I7219    1.0000 0.44028  0.55972  0.94030  Biso   1.000  I
  I7220    1.0000 0.05970  0.94030  0.94030  Biso   1.000  I
  I7221    1.0000 0.05970  0.44028  0.44028  Biso   1.000  I
  I7222    1.0000 0.05970  0.05970  0.05970  Biso   1.000  I
  I7223    1.0000 0.44028  0.05970  0.44028  Biso   1.000  I
  I7224    1.0000 0.55972  0.94030  0.44028  Biso   1.000  I
  I7225    1.0000 0.94030  0.55972  0.44028  Biso   1.000  I
  I7226    1.0000 0.05970  0.55972  0.55972  Biso   1.000  I
  I7227    1.0000 0.05970  0.94030  0.94030  Biso   1.000  I
  I7228    1.0000 0.55972  0.44028  0.94030  Biso   1.000  I
  I7229    1.0000 0.94030  0.44028  0.55972  Biso   1.000  I
  I7230    1.0000 0.44028  0.05970  0.44028  Biso   1.000  I
  I7231    1.0000 0.05970  0.44028  0.44028  Biso   1.000  I
  I7232    1.0000 0.44028  0.44028  0.05970  Biso   1.000  I
  I7233    1.0000 0.05970  0.44028  0.44028  Biso   1.000  I
  I7234    1.0000 0.05970  0.05970  0.05970  Biso   1.000  I
  I7235    1.0000 0.44028  0.44028  0.05970  Biso   1.000  I
  I7236    1.0000 0.55972  0.94030  0.44028  Biso   1.000  I
  I7237    1.0000 0.55972  0.05970  0.55972  Biso   1.000  I
  I7238    1.0000 0.55972  0.55972  0.05970  Biso   1.000  I
  I7239    1.0000 0.55972  0.44028  0.94030  Biso   1.000  I
  I7240    1.0000 0.55972  0.05970  0.55972  Biso   1.000  I
  I7241    1.0000 0.55972  0.94030  0.44028  Biso   1.000  I
  I7242    1.0000 0.55972  0.55972  0.05970  Biso   1.000  I
  I7243    1.0000 0.55972  0.44028  0.94030  Biso   1.000  I
  I7244    1.0000 0.05970  0.44028  0.44028  Biso   1.000  I
  I7245    1.0000 0.44028  0.44028  0.05970  Biso   1.000  I
  I7246    1.0000 0.55972  0.55972  0.05970  Biso   1.000  I
  I7247    1.0000 0.55972  0.44028  0.94030  Biso   1.000  I
  I7248    1.0000 0.55972  0.94030  0.44028  Biso   1.000  I
  I7249    1.0000 0.55972  0.05970  0.55972  Biso   1.000  I
  I7250    1.0000 0.44028  0.94030  0.55972  Biso   1.000  I
  I7251    1.0000 0.05970  0.55972  0.55972  Biso   1.000  I
  I7252    1.0000 0.94030  0.44028  0.55972  Biso   1.000  I
  I7253    1.0000 0.55972  0.55972  0.05970  Biso   1.000  I
  I7254    1.0000 0.55972  0.44028  0.94030  Biso   1.000  I
  I7255    1.0000 0.55972  0.05970  0.55972  Biso   1.000  I
  I7256    1.0000 0.44028  0.94030  0.55972  Biso   1.000  I
  I7257    1.0000 0.05970  0.55972  0.55972  Biso   1.000  I
  I7258    1.0000 0.05970  0.44028  0.44028  Biso   1.000  I
  I7259    1.0000 0.94030  0.44028  0.55972  Biso   1.000  I
  I7260    1.0000 0.55972  0.05970  0.55972  Biso   1.000  I
  I7261    1.0000 0.55972  0.94030  0.44028  Biso   1.000  I
  I7262    1.0000 0.05970  0.05970  0.05970  Biso   1.000  I
  I7263    1.0000 0.55972  0.05970  0.55972  Biso   1.000  I
  I7264    1.0000 0.44028  0.94030  0.55972  Biso   1.000  I
  I7265    1.0000 0.05970  0.55972  0.55972  Biso   1.000  I
  I7266    1.0000 0.94030  0.44028  0.55972  Biso   1.000  I
  I7267    1.0000 0.44028  0.44028  0.05970  Biso   1.000  I
  I7268    1.0000 0.05970  0.55972  0.55972  Biso   1.000  I
  I7269    1.0000 0.94030  0.44028  0.55972  Biso   1.000  I
  I7270    1.0000 0.55972  0.05970  0.55972  Biso   1.000  I
  I7271    1.0000 0.44028  0.94030  0.55972  Biso   1.000  I
  I7272    1.0000 0.98598  0.98598  0.01402  Biso   1.000  I
  I7273    1.0000 0.51400  0.51400  0.01402  Biso   1.000  I
  I7274    1.0000 0.48600  0.48600  0.01402  Biso   1.000  I
  I7275    1.0000 0.48600  0.98598  0.51400  Biso   1.000  I
  I7276    1.0000 0.48600  0.01402  0.48600  Biso   1.000  I
  I7277    1.0000 0.51400  0.01402  0.51400  Biso   1.000  I
  I7278    1.0000 0.01402  0.01402  0.01402  Biso   1.000  I
  I7279    1.0000 0.98598  0.51400  0.48600  Biso   1.000  I
  I7280    1.0000 0.98598  0.48600  0.51400  Biso   1.000  I
  I7281    1.0000 0.01402  0.51400  0.51400  Biso   1.000  I
  I7282    1.0000 0.98598  0.98598  0.01402  Biso   1.000  I
  I7283    1.0000 0.51400  0.51400  0.01402  Biso   1.000  I
  I7284    1.0000 0.98598  0.51400  0.48600  Biso   1.000  I
  I7285    1.0000 0.01402  0.51400  0.51400  Biso   1.000  I
  I7286    1.0000 0.01402  0.48600  0.48600  Biso   1.000  I
  I7287    1.0000 0.48600  0.51400  0.98598  Biso   1.000  I
  I7288    1.0000 0.48600  0.48600  0.01402  Biso   1.000  I
  I7289    1.0000 0.51400  0.51400  0.01402  Biso   1.000  I
  I7290    1.0000 0.01402  0.01402  0.01402  Biso   1.000  I
  I7291    1.0000 0.48600  0.48600  0.01402  Biso   1.000  I
  I7292    1.0000 0.48600  0.51400  0.98598  Biso   1.000  I
  I7293    1.0000 0.48600  0.48600  0.01402  Biso   1.000  I
  I7294    1.0000 0.51400  0.51400  0.01402  Biso   1.000  I
  I7295    1.0000 0.01402  0.48600  0.48600  Biso   1.000  I
  I7296    1.0000 0.51400  0.98598  0.48600  Biso   1.000  I
  I7297    1.0000 0.98598  0.51400  0.48600  Biso   1.000  I
  I7298    1.0000 0.98598  0.48600  0.51400  Biso   1.000  I
  I7299    1.0000 0.01402  0.51400  0.51400  Biso   1.000  I
  I7300    1.0000 0.51400  0.48600  0.98598  Biso   1.000  I
  I7301    1.0000 0.51400  0.98598  0.48600  Biso   1.000  I
  I7302    1.0000 0.48600  0.01402  0.48600  Biso   1.000  I
  I7303    1.0000 0.51400  0.01402  0.51400  Biso   1.000  I
  I7304    1.0000 0.48600  0.48600  0.01402  Biso   1.000  I
  I7305    1.0000 0.48600  0.98598  0.51400  Biso   1.000  I
  I7306    1.0000 0.98598  0.51400  0.48600  Biso   1.000  I
  I7307    1.0000 0.98598  0.48600  0.51400  Biso   1.000  I
  I7308    1.0000 0.01402  0.51400  0.51400  Biso   1.000  I
  I7309    1.0000 0.51400  0.48600  0.98598  Biso   1.000  I
  I7310    1.0000 0.48600  0.51400  0.98598  Biso   1.000  I
  I7311    1.0000 0.51400  0.51400  0.01402  Biso   1.000  I
  I7312    1.0000 0.01402  0.48600  0.48600  Biso   1.000  I
  I7313    1.0000 0.48600  0.51400  0.98598  Biso   1.000  I
  I7314    1.0000 0.48600  0.48600  0.01402  Biso   1.000  I
  I7315    1.0000 0.51400  0.51400  0.01402  Biso   1.000  I
  I7316    1.0000 0.48600  0.98598  0.51400  Biso   1.000  I
  I7317    1.0000 0.98598  0.98598  0.01402  Biso   1.000  I
  I7318    1.0000 0.51400  0.51400  0.01402  Biso   1.000  I
  I7319    1.0000 0.01402  0.01402  0.01402  Biso   1.000  I
  I7320    1.0000 0.48600  0.48600  0.01402  Biso   1.000  I
  I7321    1.0000 0.01402  0.98598  0.98598  Biso   1.000  I
  I7322    1.0000 0.01402  0.51400  0.51400  Biso   1.000  I
  I7323    1.0000 0.01402  0.48600  0.48600  Biso   1.000  I
  I7324    1.0000 0.01402  0.01402  0.01402  Biso   1.000  I
  I7325    1.0000 0.01402  0.01402  0.01402  Biso   1.000  I
  I7326    1.0000 0.48600  0.48600  0.01402  Biso   1.000  I
  I7327    1.0000 0.01402  0.51400  0.51400  Biso   1.000  I
  I7328    1.0000 0.51400  0.51400  0.01402  Biso   1.000  I
  I7329    1.0000 0.01402  0.48600  0.48600  Biso   1.000  I
  I7330    1.0000 0.01402  0.01402  0.01402  Biso   1.000  I
  I7331    1.0000 0.01402  0.01402  0.01402  Biso   1.000  I
  I7332    1.0000 0.48600  0.01402  0.48600  Biso   1.000  I
  I7333    1.0000 0.51400  0.01402  0.51400  Biso   1.000  I
  I7334    1.0000 0.51400  0.51400  0.01402  Biso   1.000  I
  I7335    1.0000 0.01402  0.51400  0.51400  Biso   1.000  I
  I7336    1.0000 0.51400  0.01402  0.51400  Biso   1.000  I
  I7337    1.0000 0.01402  0.48600  0.48600  Biso   1.000  I
  I7338    1.0000 0.01402  0.01402  0.01402  Biso   1.000  I
  I7339    1.0000 0.01402  0.51400  0.51400  Biso   1.000  I
  I7340    1.0000 0.01402  0.98598  0.98598  Biso   1.000  I
  I7341    1.0000 0.51400  0.98598  0.48600  Biso   1.000  I
  I7342    1.0000 0.48600  0.98598  0.51400  Biso   1.000  I
  I7343    1.0000 0.48600  0.01402  0.48600  Biso   1.000  I
  I7344    1.0000 0.51400  0.01402  0.51400  Biso   1.000  I
  I7345    1.0000 0.01402  0.48600  0.48600  Biso   1.000  I
  I7346    1.0000 0.01402  0.48600  0.48600  Biso   1.000  I
  I7347    1.0000 0.01402  0.01402  0.01402  Biso   1.000  I
  I7348    1.0000 0.48600  0.51400  0.98598  Biso   1.000  I
  I7349    1.0000 0.48600  0.48600  0.01402  Biso   1.000  I
  I7350    1.0000 0.51400  0.51400  0.01402  Biso   1.000  I
  I7351    1.0000 0.01402  0.48600  0.48600  Biso   1.000  I
  I7352    1.0000 0.51400  0.98598  0.48600  Biso   1.000  I
  I7353    1.0000 0.98598  0.51400  0.48600  Biso   1.000  I
  I7354    1.0000 0.98598  0.48600  0.51400  Biso   1.000  I
  I7355    1.0000 0.01402  0.51400  0.51400  Biso   1.000  I
  I7356    1.0000 0.51400  0.48600  0.98598  Biso   1.000  I
  I7357    1.0000 0.01402  0.51400  0.51400  Biso   1.000  I
  I7358    1.0000 0.01402  0.98598  0.98598  Biso   1.000  I
  I7359    1.0000 0.51400  0.48600  0.98598  Biso   1.000  I
  I7360    1.0000 0.62499  0.87498  0.37501  Biso   1.000  I
  I7361    1.0000 0.62499  0.12502  0.62499  Biso   1.000  I
  I7362    1.0000 0.62499  0.62499  0.12502  Biso   1.000  I
  I7363    1.0000 0.62499  0.37501  0.87498  Biso   1.000  I
  I7364    1.0000 0.62499  0.12502  0.62499  Biso   1.000  I
  I7365    1.0000 0.62499  0.87498  0.37501  Biso   1.000  I
  I7366    1.0000 0.62499  0.62499  0.12502  Biso   1.000  I
  I7367    1.0000 0.62499  0.37501  0.87498  Biso   1.000  I
  I7368    1.0000 0.12502  0.37501  0.37501  Biso   1.000  I
  I7369    1.0000 0.48600  0.51400  0.98598  Biso   1.000  I
  I7370    1.0000 0.37501  0.37501  0.12502  Biso   1.000  I
  I7371    1.0000 0.62499  0.62499  0.12502  Biso   1.000  I
  I7372    1.0000 0.62499  0.37501  0.87498  Biso   1.000  I
  I7373    1.0000 0.62499  0.87498  0.37501  Biso   1.000  I
  I7374    1.0000 0.48600  0.01402  0.48600  Biso   1.000  I
  I7375    1.0000 0.62499  0.12502  0.62499  Biso   1.000  I
  I7376    1.0000 0.37501  0.87498  0.62499  Biso   1.000  I
  I7377    1.0000 0.12502  0.62499  0.62499  Biso   1.000  I
  I7378    1.0000 0.87498  0.37501  0.62499  Biso   1.000  I
  I7379    1.0000 0.62499  0.62499  0.12502  Biso   1.000  I
  I7380    1.0000 0.62499  0.37501  0.87498  Biso   1.000  I
  I7381    1.0000 0.62499  0.12502  0.62499  Biso   1.000  I
  I7382    1.0000 0.37501  0.87498  0.62499  Biso   1.000  I
  I7383    1.0000 0.98598  0.51400  0.48600  Biso   1.000  I
  I7384    1.0000 0.12502  0.62499  0.62499  Biso   1.000  I
  I7385    1.0000 0.12502  0.37501  0.37501  Biso   1.000  I
  I7386    1.0000 0.87498  0.37501  0.62499  Biso   1.000  I
  I7387    1.0000 0.62499  0.12502  0.62499  Biso   1.000  I
  I7388    1.0000 0.62499  0.87498  0.37501  Biso   1.000  I
  I7389    1.0000 0.12502  0.12502  0.12502  Biso   1.000  I
  I7390    1.0000 0.62499  0.12502  0.62499  Biso   1.000  I
  I7391    1.0000 0.37501  0.87498  0.62499  Biso   1.000  I
  I7392    1.0000 0.12502  0.62499  0.62499  Biso   1.000  I
  I7393    1.0000 0.87498  0.37501  0.62499  Biso   1.000  I
  I7394    1.0000 0.37501  0.37501  0.12502  Biso   1.000  I
  I7395    1.0000 0.12502  0.62499  0.62499  Biso   1.000  I
  I7396    1.0000 0.87498  0.37501  0.62499  Biso   1.000  I
  I7397    1.0000 0.62499  0.12502  0.62499  Biso   1.000  I
  I7398    1.0000 0.37501  0.87498  0.62499  Biso   1.000  I
  I7399    1.0000 0.44028  0.05970  0.44028  Biso   1.000  I
  I7400    1.0000 0.05970  0.55972  0.55972  Biso   1.000  I
  I7401    1.0000 0.94030  0.55972  0.44028  Biso   1.000  I
  I7402    1.0000 0.05970  0.55972  0.55972  Biso   1.000  I
  I7403    1.0000 0.05970  0.44028  0.44028  Biso   1.000  I
  I7404    1.0000 0.94030  0.55972  0.44028  Biso   1.000  I
  I7405    1.0000 0.55972  0.55972  0.05970  Biso   1.000  I
  I7406    1.0000 0.44028  0.55972  0.94030  Biso   1.000  I
  I7407    1.0000 0.55972  0.55972  0.05970  Biso   1.000  I
  I7408    1.0000 0.44028  0.55972  0.94030  Biso   1.000  I
  I7409    1.0000 0.05970  0.55972  0.55972  Biso   1.000  I
  I7410    1.0000 0.94030  0.55972  0.44028  Biso   1.000  I
  I7411    1.0000 0.44028  0.05970  0.44028  Biso   1.000  I
  I7412    1.0000 0.55972  0.05970  0.55972  Biso   1.000  I
  I7413    1.0000 0.55972  0.94030  0.44028  Biso   1.000  I
  I7414    1.0000 0.05970  0.55972  0.55972  Biso   1.000  I
  I7415    1.0000 0.94030  0.55972  0.44028  Biso   1.000  I
  I7416    1.0000 0.44028  0.55972  0.94030  Biso   1.000  I
  I7417    1.0000 0.55972  0.55972  0.05970  Biso   1.000  I
  I7418    1.0000 0.55972  0.44028  0.94030  Biso   1.000  I
  I7419    1.0000 0.55972  0.55972  0.05970  Biso   1.000  I
  I7420    1.0000 0.44028  0.55972  0.94030  Biso   1.000  I
  I7421    1.0000 0.44028  0.05970  0.44028  Biso   1.000  I
  I7422    1.0000 0.55972  0.05970  0.55972  Biso   1.000  I
  I7423    1.0000 0.44028  0.94030  0.55972  Biso   1.000  I
  I7424    1.0000 0.44028  0.44028  0.05970  Biso   1.000  I
  I7425    1.0000 0.55972  0.55972  0.05970  Biso   1.000  I
  I7426    1.0000 0.44028  0.55972  0.94030  Biso   1.000  I
  I7427    1.0000 0.94030  0.44028  0.55972  Biso   1.000  I
  I7428    1.0000 0.05970  0.55972  0.55972  Biso   1.000  I
  I7429    1.0000 0.94030  0.55972  0.44028  Biso   1.000  I
  I7430    1.0000 0.69031  0.80971  0.30969  Biso   1.000  I
  I7431    1.0000 0.69031  0.19029  0.69031  Biso   1.000  I
  I7432    1.0000 0.69031  0.69031  0.19029  Biso   1.000  I
  I7433    1.0000 0.69031  0.30969  0.80971  Biso   1.000  I
  I7434    1.0000 0.69031  0.19029  0.69031  Biso   1.000  I
  I7435    1.0000 0.69031  0.80971  0.30969  Biso   1.000  I
  I7436    1.0000 0.69031  0.69031  0.19029  Biso   1.000  I
  I7437    1.0000 0.69031  0.30969  0.80971  Biso   1.000  I
  I7438    1.0000 0.19029  0.30969  0.30969  Biso   1.000  I
  I7439    1.0000 0.30969  0.30969  0.19029  Biso   1.000  I
  I7440    1.0000 0.69031  0.69031  0.19029  Biso   1.000  I
  I7441    1.0000 0.69031  0.30969  0.80971  Biso   1.000  I
  I7442    1.0000 0.69031  0.80971  0.30969  Biso   1.000  I
  I7443    1.0000 0.69031  0.19029  0.69031  Biso   1.000  I
  I7444    1.0000 0.30969  0.80971  0.69031  Biso   1.000  I
  I7445    1.0000 0.19029  0.69031  0.69031  Biso   1.000  I
  I7446    1.0000 0.80971  0.30969  0.69031  Biso   1.000  I
  I7447    1.0000 0.69031  0.69031  0.19029  Biso   1.000  I
  I7448    1.0000 0.69031  0.30969  0.80971  Biso   1.000  I
  I7449    1.0000 0.69031  0.19029  0.69031  Biso   1.000  I
  I7450    1.0000 0.30969  0.80971  0.69031  Biso   1.000  I
  I7451    1.0000 0.19029  0.69031  0.69031  Biso   1.000  I
  I7452    1.0000 0.19029  0.30969  0.30969  Biso   1.000  I
  I7453    1.0000 0.80971  0.30969  0.69031  Biso   1.000  I
  I7454    1.0000 0.69031  0.19029  0.69031  Biso   1.000  I
  I7455    1.0000 0.69031  0.80971  0.30969  Biso   1.000  I
  I7456    1.0000 0.19029  0.19029  0.19029  Biso   1.000  I
  I7457    1.0000 0.69031  0.19029  0.69031  Biso   1.000  I
  I7458    1.0000 0.30969  0.80971  0.69031  Biso   1.000  I
  I7459    1.0000 0.19029  0.69031  0.69031  Biso   1.000  I
  I7460    1.0000 0.80971  0.30969  0.69031  Biso   1.000  I
  I7461    1.0000 0.30969  0.30969  0.19029  Biso   1.000  I
  I7462    1.0000 0.19029  0.69031  0.69031  Biso   1.000  I
  I7463    1.0000 0.80971  0.30969  0.69031  Biso   1.000  I
  I7464    1.0000 0.69031  0.19029  0.69031  Biso   1.000  I
  I7465    1.0000 0.30969  0.80971  0.69031  Biso   1.000  I
  I7466    1.0000 0.37501  0.12502  0.37501  Biso   1.000  I
  I7467    1.0000 0.12502  0.62499  0.62499  Biso   1.000  I
  I7468    1.0000 0.87498  0.62499  0.37501  Biso   1.000  I
  I7469    1.0000 0.98598  0.48600  0.51400  Biso   1.000  I
  I7470    1.0000 0.12502  0.62499  0.62499  Biso   1.000  I
  I7471    1.0000 0.12502  0.37501  0.37501  Biso   1.000  I
  I7472    1.0000 0.87498  0.62499  0.37501  Biso   1.000  I
  I7473    1.0000 0.62499  0.62499  0.12502  Biso   1.000  I
  I7474    1.0000 0.37501  0.62499  0.87498  Biso   1.000  I
  I7475    1.0000 0.62499  0.62499  0.12502  Biso   1.000  I
  I7476    1.0000 0.37501  0.62499  0.87498  Biso   1.000  I
  I7477    1.0000 0.12502  0.62499  0.62499  Biso   1.000  I
  I7478    1.0000 0.87498  0.62499  0.37501  Biso   1.000  I
  I7479    1.0000 0.48600  0.98598  0.51400  Biso   1.000  I
  I7480    1.0000 0.37501  0.12502  0.37501  Biso   1.000  I
  I7481    1.0000 0.62499  0.12502  0.62499  Biso   1.000  I
  I7482    1.0000 0.62499  0.87498  0.37501  Biso   1.000  I
  I7483    1.0000 0.12502  0.62499  0.62499  Biso   1.000  I
  I7484    1.0000 0.87498  0.62499  0.37501  Biso   1.000  I
  I7485    1.0000 0.37501  0.62499  0.87498  Biso   1.000  I
  I7486    1.0000 0.48600  0.48600  0.01402  Biso   1.000  I
  I7487    1.0000 0.62499  0.62499  0.12502  Biso   1.000  I
  I7488    1.0000 0.62499  0.37501  0.87498  Biso   1.000  I
  I7489    1.0000 0.62499  0.62499  0.12502  Biso   1.000  I
  I7490    1.0000 0.37501  0.62499  0.87498  Biso   1.000  I
  I7491    1.0000 0.51400  0.98598  0.48600  Biso   1.000  I
  I7492    1.0000 0.37501  0.12502  0.37501  Biso   1.000  I
  I7493    1.0000 0.62499  0.12502  0.62499  Biso   1.000  I
  I7494    1.0000 0.37501  0.87498  0.62499  Biso   1.000  I
  I7495    1.0000 0.51400  0.48600  0.98598  Biso   1.000  I
  I7496    1.0000 0.37501  0.37501  0.12502  Biso   1.000  I
  I7497    1.0000 0.62499  0.62499  0.12502  Biso   1.000  I
  I7498    1.0000 0.37501  0.62499  0.87498  Biso   1.000  I
  I7499    1.0000 0.87498  0.37501  0.62499  Biso   1.000  I
  I7500    1.0000 0.01402  0.48600  0.48600  Biso   1.000  I
  I7501    1.0000 0.12502  0.62499  0.62499  Biso   1.000  I
  I7502    1.0000 0.87498  0.62499  0.37501  Biso   1.000  I
  I7503    1.0000 0.76399  0.73599  0.26401  Biso   1.000  I
  I7504    1.0000 0.76399  0.76399  0.23601  Biso   1.000  I
  I7505    1.0000 0.73599  0.73599  0.23601  Biso   1.000  I
  I7506    1.0000 0.76399  0.23601  0.76399  Biso   1.000  I
  I7507    1.0000 0.76399  0.26401  0.73599  Biso   1.000  I
  I7508    1.0000 0.73599  0.26401  0.76399  Biso   1.000  I
  I7509    1.0000 0.76399  0.73599  0.26401  Biso   1.000  I
  I7510    1.0000 0.76399  0.76399  0.23601  Biso   1.000  I
  I7511    1.0000 0.73599  0.76399  0.26401  Biso   1.000  I
  I7512    1.0000 0.73599  0.23601  0.73599  Biso   1.000  I
  I7513    1.0000 0.76399  0.23601  0.76399  Biso   1.000  I
  I7514    1.0000 0.76399  0.26401  0.73599  Biso   1.000  I
  I7515    1.0000 0.73599  0.26401  0.76399  Biso   1.000  I
  I7516    1.0000 0.76399  0.73599  0.26401  Biso   1.000  I
  I7517    1.0000 0.76399  0.76399  0.23601  Biso   1.000  I
  I7518    1.0000 0.73599  0.73599  0.23601  Biso   1.000  I
  I7519    1.0000 0.73599  0.76399  0.26401  Biso   1.000  I
  I7520    1.0000 0.73599  0.23601  0.73599  Biso   1.000  I
  I7521    1.0000 0.76399  0.23601  0.76399  Biso   1.000  I
  I7522    1.0000 0.76399  0.26401  0.73599  Biso   1.000  I
  I7523    1.0000 0.26401  0.26401  0.23601  Biso   1.000  I
  I7524    1.0000 0.26401  0.23601  0.26401  Biso   1.000  I
  I7525    1.0000 0.23601  0.23601  0.23601  Biso   1.000  I
  I7526    1.0000 0.26401  0.23601  0.26401  Biso   1.000  I
  I7527    1.0000 0.23601  0.26401  0.26401  Biso   1.000  I
  I7528    1.0000 0.23601  0.23601  0.23601  Biso   1.000  I
  I7529    1.0000 0.76399  0.73599  0.26401  Biso   1.000  I
  I7530    1.0000 0.76399  0.76399  0.23601  Biso   1.000  I
  I7531    1.0000 0.73599  0.76399  0.26401  Biso   1.000  I
  I7532    1.0000 0.73599  0.23601  0.73599  Biso   1.000  I
  I7533    1.0000 0.76399  0.23601  0.76399  Biso   1.000  I
  I7534    1.0000 0.76399  0.26401  0.73599  Biso   1.000  I
  I7535    1.0000 0.73599  0.73599  0.23601  Biso   1.000  I
  I7536    1.0000 0.73599  0.26401  0.76399  Biso   1.000  I
  I7537    1.0000 0.76399  0.23601  0.76399  Biso   1.000  I
  I7538    1.0000 0.76399  0.26401  0.73599  Biso   1.000  I
  I7539    1.0000 0.23601  0.76399  0.76399  Biso   1.000  I
  I7540    1.0000 0.23601  0.73599  0.73599  Biso   1.000  I
  I7541    1.0000 0.26401  0.73599  0.76399  Biso   1.000  I
  I7542    1.0000 0.23601  0.76399  0.76399  Biso   1.000  I
  I7543    1.0000 0.26401  0.76399  0.73599  Biso   1.000  I
  I7544    1.0000 0.26401  0.73599  0.76399  Biso   1.000  I
  I7545    1.0000 0.73599  0.26401  0.76399  Biso   1.000  I
  I7546    1.0000 0.76399  0.23601  0.76399  Biso   1.000  I
  I7547    1.0000 0.73599  0.23601  0.73599  Biso   1.000  I
  I7548    1.0000 0.76399  0.73599  0.26401  Biso   1.000  I
  I7549    1.0000 0.76399  0.76399  0.23601  Biso   1.000  I
  I7550    1.0000 0.73599  0.76399  0.26401  Biso   1.000  I
  I7551    1.0000 0.73599  0.23601  0.73599  Biso   1.000  I
  I7552    1.0000 0.76399  0.26401  0.73599  Biso   1.000  I
  I7553    1.0000 0.23601  0.76399  0.76399  Biso   1.000  I
  I7554    1.0000 0.23601  0.73599  0.73599  Biso   1.000  I
  I7555    1.0000 0.26401  0.73599  0.76399  Biso   1.000  I
  I7556    1.0000 0.26401  0.76399  0.73599  Biso   1.000  I
  I7557    1.0000 0.26401  0.26401  0.23601  Biso   1.000  I
  I7558    1.0000 0.73599  0.23601  0.73599  Biso   1.000  I
  I7559    1.0000 0.73599  0.26401  0.76399  Biso   1.000  I
  I7560    1.0000 0.76399  0.23601  0.76399  Biso   1.000  I
  I7561    1.0000 0.73599  0.26401  0.76399  Biso   1.000  I
  I7562    1.0000 0.76399  0.23601  0.76399  Biso   1.000  I
  I7563    1.0000 0.76399  0.26401  0.73599  Biso   1.000  I
  I7564    1.0000 0.73599  0.73599  0.23601  Biso   1.000  I
  I7565    1.0000 0.26401  0.26401  0.23601  Biso   1.000  I
  I7566    1.0000 0.26401  0.23601  0.26401  Biso   1.000  I
  I7567    1.0000 0.23601  0.26401  0.26401  Biso   1.000  I
  I7568    1.0000 0.73599  0.26401  0.76399  Biso   1.000  I
  I7569    1.0000 0.76399  0.23601  0.76399  Biso   1.000  I
  I7570    1.0000 0.76399  0.26401  0.73599  Biso   1.000  I
  I7571    1.0000 0.23601  0.76399  0.76399  Biso   1.000  I
  I7572    1.0000 0.26401  0.73599  0.76399  Biso   1.000  I
  I7573    1.0000 0.23601  0.73599  0.73599  Biso   1.000  I
  I7574    1.0000 0.26401  0.76399  0.73599  Biso   1.000  I
  I7575    1.0000 0.73599  0.26401  0.76399  Biso   1.000  I
  I7576    1.0000 0.76399  0.23601  0.76399  Biso   1.000  I
  I7577    1.0000 0.73599  0.23601  0.73599  Biso   1.000  I
  I7578    1.0000 0.26401  0.23601  0.26401  Biso   1.000  I
  I7579    1.0000 0.23601  0.26401  0.26401  Biso   1.000  I
  I7580    1.0000 0.23601  0.23601  0.23601  Biso   1.000  I
  I7581    1.0000 0.26401  0.76399  0.73599  Biso   1.000  I
  I7582    1.0000 0.73599  0.23601  0.73599  Biso   1.000  I
  I7583    1.0000 0.73599  0.26401  0.76399  Biso   1.000  I
  I7584    1.0000 0.76399  0.23601  0.76399  Biso   1.000  I
  I7585    1.0000 0.76399  0.26401  0.73599  Biso   1.000  I
  I7586    1.0000 0.23601  0.76399  0.76399  Biso   1.000  I
  I7587    1.0000 0.23601  0.73599  0.73599  Biso   1.000  I
  I7588    1.0000 0.26401  0.73599  0.76399  Biso   1.000  I
  I7589    1.0000 0.30969  0.19029  0.30969  Biso   1.000  I
  I7590    1.0000 0.19029  0.69031  0.69031  Biso   1.000  I
  I7591    1.0000 0.80971  0.69031  0.30969  Biso   1.000  I
  I7592    1.0000 0.19029  0.69031  0.69031  Biso   1.000  I
  I7593    1.0000 0.19029  0.30969  0.30969  Biso   1.000  I
  I7594    1.0000 0.80971  0.69031  0.30969  Biso   1.000  I
  I7595    1.0000 0.69031  0.69031  0.19029  Biso   1.000  I
  I7596    1.0000 0.30969  0.69031  0.80971  Biso   1.000  I
  I7597    1.0000 0.69031  0.69031  0.19029  Biso   1.000  I
  I7598    1.0000 0.30969  0.69031  0.80971  Biso   1.000  I
  I7599    1.0000 0.19029  0.69031  0.69031  Biso   1.000  I
  I7600    1.0000 0.80971  0.69031  0.30969  Biso   1.000  I
  I7601    1.0000 0.30969  0.19029  0.30969  Biso   1.000  I
  I7602    1.0000 0.69031  0.19029  0.69031  Biso   1.000  I
  I7603    1.0000 0.69031  0.80971  0.30969  Biso   1.000  I
  I7604    1.0000 0.19029  0.69031  0.69031  Biso   1.000  I
  I7605    1.0000 0.80971  0.69031  0.30969  Biso   1.000  I
  I7606    1.0000 0.30969  0.69031  0.80971  Biso   1.000  I
  I7607    1.0000 0.69031  0.69031  0.19029  Biso   1.000  I
  I7608    1.0000 0.69031  0.30969  0.80971  Biso   1.000  I
  I7609    1.0000 0.69031  0.69031  0.19029  Biso   1.000  I
  I7610    1.0000 0.30969  0.69031  0.80971  Biso   1.000  I
  I7611    1.0000 0.30969  0.19029  0.30969  Biso   1.000  I
  I7612    1.0000 0.69031  0.19029  0.69031  Biso   1.000  I
  I7613    1.0000 0.30969  0.80971  0.69031  Biso   1.000  I
  I7614    1.0000 0.30969  0.30969  0.19029  Biso   1.000  I
  I7615    1.0000 0.69031  0.69031  0.19029  Biso   1.000  I
  I7616    1.0000 0.30969  0.69031  0.80971  Biso   1.000  I
  I7617    1.0000 0.80971  0.30969  0.69031  Biso   1.000  I
  I7618    1.0000 0.19029  0.69031  0.69031  Biso   1.000  I
  I7619    1.0000 0.80971  0.69031  0.30969  Biso   1.000  I
  I7620    1.0000 0.80971  0.80971  0.19029  Biso   1.000  I
  I7621    1.0000 0.80971  0.69031  0.30969  Biso   1.000  I
  I7622    1.0000 0.80971  0.30969  0.69031  Biso   1.000  I
  I7623    1.0000 0.80971  0.19029  0.80971  Biso   1.000  I
  I7624    1.0000 0.80971  0.80971  0.19029  Biso   1.000  I
  I7625    1.0000 0.80971  0.69031  0.30969  Biso   1.000  I
  I7626    1.0000 0.80971  0.19029  0.80971  Biso   1.000  I
  I7627    1.0000 0.80971  0.30969  0.69031  Biso   1.000  I
  I7628    1.0000 0.80971  0.80971  0.19029  Biso   1.000  I
  I7629    1.0000 0.69031  0.69031  0.19029  Biso   1.000  I
  I7630    1.0000 0.80971  0.69031  0.30969  Biso   1.000  I
  I7631    1.0000 0.80971  0.19029  0.80971  Biso   1.000  I
  I7632    1.0000 0.80971  0.30969  0.69031  Biso   1.000  I
  I7633    1.0000 0.69031  0.19029  0.69031  Biso   1.000  I
  I7634    1.0000 0.30969  0.19029  0.30969  Biso   1.000  I
  I7635    1.0000 0.19029  0.19029  0.19029  Biso   1.000  I
  I7636    1.0000 0.30969  0.30969  0.19029  Biso   1.000  I
  I7637    1.0000 0.19029  0.19029  0.19029  Biso   1.000  I
  I7638    1.0000 0.30969  0.19029  0.30969  Biso   1.000  I
  I7639    1.0000 0.80971  0.80971  0.19029  Biso   1.000  I
  I7640    1.0000 0.80971  0.69031  0.30969  Biso   1.000  I
  I7641    1.0000 0.80971  0.19029  0.80971  Biso   1.000  I
  I7642    1.0000 0.80971  0.30969  0.69031  Biso   1.000  I
  I7643    1.0000 0.69031  0.19029  0.69031  Biso   1.000  I
  I7644    1.0000 0.80971  0.19029  0.80971  Biso   1.000  I
  I7645    1.0000 0.80971  0.30969  0.69031  Biso   1.000  I
  I7646    1.0000 0.69031  0.30969  0.80971  Biso   1.000  I
  I7647    1.0000 0.30969  0.69031  0.80971  Biso   1.000  I
  I7648    1.0000 0.19029  0.80971  0.80971  Biso   1.000  I
  I7649    1.0000 0.30969  0.80971  0.69031  Biso   1.000  I
  I7650    1.0000 0.30969  0.69031  0.80971  Biso   1.000  I
  I7651    1.0000 0.19029  0.80971  0.80971  Biso   1.000  I
  I7652    1.0000 0.80971  0.19029  0.80971  Biso   1.000  I
  I7653    1.0000 0.69031  0.30969  0.80971  Biso   1.000  I
  I7654    1.0000 0.80971  0.80971  0.19029  Biso   1.000  I
  I7655    1.0000 0.69031  0.80971  0.30969  Biso   1.000  I
  I7656    1.0000 0.80971  0.69031  0.30969  Biso   1.000  I
  I7657    1.0000 0.30969  0.69031  0.80971  Biso   1.000  I
  I7658    1.0000 0.19029  0.80971  0.80971  Biso   1.000  I
  I7659    1.0000 0.69031  0.30969  0.80971  Biso   1.000  I
  I7660    1.0000 0.80971  0.19029  0.80971  Biso   1.000  I
  I7661    1.0000 0.69031  0.19029  0.69031  Biso   1.000  I
  I7662    1.0000 0.80971  0.19029  0.80971  Biso   1.000  I
  I7663    1.0000 0.80971  0.30969  0.69031  Biso   1.000  I
  I7664    1.0000 0.69031  0.30969  0.80971  Biso   1.000  I
  I7665    1.0000 0.30969  0.19029  0.30969  Biso   1.000  I
  I7666    1.0000 0.19029  0.30969  0.30969  Biso   1.000  I
  I7667    1.0000 0.30969  0.30969  0.19029  Biso   1.000  I
  I7668    1.0000 0.80971  0.19029  0.80971  Biso   1.000  I
  I7669    1.0000 0.80971  0.30969  0.69031  Biso   1.000  I
  I7670    1.0000 0.69031  0.30969  0.80971  Biso   1.000  I
  I7671    1.0000 0.30969  0.69031  0.80971  Biso   1.000  I
  I7672    1.0000 0.19029  0.80971  0.80971  Biso   1.000  I
  I7673    1.0000 0.80971  0.19029  0.80971  Biso   1.000  I
  I7674    1.0000 0.69031  0.30969  0.80971  Biso   1.000  I
  I7675    1.0000 0.19029  0.30969  0.30969  Biso   1.000  I
  I7676    1.0000 0.19029  0.19029  0.19029  Biso   1.000  I
  I7677    1.0000 0.30969  0.19029  0.30969  Biso   1.000  I
  I7678    1.0000 0.69031  0.30969  0.80971  Biso   1.000  I
  I7679    1.0000 0.80971  0.19029  0.80971  Biso   1.000  I
  I7680    1.0000 0.69031  0.19029  0.69031  Biso   1.000  I
  I7681    1.0000 0.19029  0.69031  0.69031  Biso   1.000  I
  I7682    1.0000 0.30969  0.69031  0.80971  Biso   1.000  I
  I7683    1.0000 0.19029  0.80971  0.80971  Biso   1.000  I
  I7684    1.0000 0.26401  0.26401  0.23601  Biso   1.000  I
  I7685    1.0000 0.23601  0.26401  0.26401  Biso   1.000  I
  I7686    1.0000 0.23601  0.23601  0.23601  Biso   1.000  I
  I7687    1.0000 0.23601  0.76399  0.76399  Biso   1.000  I
  I7688    1.0000 0.26401  0.76399  0.73599  Biso   1.000  I
  I7689    1.0000 0.26401  0.73599  0.76399  Biso   1.000  I
  I7690    1.0000 0.76399  0.76399  0.23601  Biso   1.000  I
  I7691    1.0000 0.73599  0.73599  0.23601  Biso   1.000  I
  I7692    1.0000 0.73599  0.76399  0.26401  Biso   1.000  I
  I7693    1.0000 0.23601  0.76399  0.76399  Biso   1.000  I
  I7694    1.0000 0.26401  0.76399  0.73599  Biso   1.000  I
  I7695    1.0000 0.26401  0.73599  0.76399  Biso   1.000  I
  I7696    1.0000 0.26401  0.26401  0.23601  Biso   1.000  I
  I7697    1.0000 0.26401  0.23601  0.26401  Biso   1.000  I
  I7698    1.0000 0.23601  0.23601  0.23601  Biso   1.000  I
  I7699    1.0000 0.76399  0.76399  0.23601  Biso   1.000  I
  I7700    1.0000 0.73599  0.73599  0.23601  Biso   1.000  I
  I7701    1.0000 0.73599  0.76399  0.26401  Biso   1.000  I
  I7702    1.0000 0.76399  0.73599  0.26401  Biso   1.000  I
  I7703    1.0000 0.76399  0.76399  0.23601  Biso   1.000  I
  I7704    1.0000 0.73599  0.76399  0.26401  Biso   1.000  I
  I7705    1.0000 0.23601  0.73599  0.73599  Biso   1.000  I
  I7706    1.0000 0.76399  0.73599  0.26401  Biso   1.000  I
  I7707    1.0000 0.76399  0.76399  0.23601  Biso   1.000  I
  I7708    1.0000 0.73599  0.76399  0.26401  Biso   1.000  I
  I7709    1.0000 0.23601  0.76399  0.76399  Biso   1.000  I
  I7710    1.0000 0.23601  0.73599  0.73599  Biso   1.000  I
  I7711    1.0000 0.26401  0.76399  0.73599  Biso   1.000  I
  I7712    1.0000 0.23601  0.76399  0.76399  Biso   1.000  I
  I7713    1.0000 0.26401  0.76399  0.73599  Biso   1.000  I
  I7714    1.0000 0.26401  0.73599  0.76399  Biso   1.000  I
  I7715    1.0000 0.73599  0.73599  0.23601  Biso   1.000  I
  I7716    1.0000 0.23601  0.26401  0.26401  Biso   1.000  I
  I7717    1.0000 0.73599  0.26401  0.76399  Biso   1.000  I
  I7718    1.0000 0.76399  0.23601  0.76399  Biso   1.000  I
  I7719    1.0000 0.76399  0.26401  0.73599  Biso   1.000  I
  I7720    1.0000 0.76399  0.73599  0.26401  Biso   1.000  I
  I7721    1.0000 0.76399  0.76399  0.23601  Biso   1.000  I
  I7722    1.0000 0.73599  0.73599  0.23601  Biso   1.000  I
  I7723    1.0000 0.23601  0.76399  0.76399  Biso   1.000  I
  I7724    1.0000 0.26401  0.76399  0.73599  Biso   1.000  I
  I7725    1.0000 0.26401  0.73599  0.76399  Biso   1.000  I
  I7726    1.0000 0.73599  0.73599  0.23601  Biso   1.000  I
  I7727    1.0000 0.23601  0.73599  0.73599  Biso   1.000  I
  I7728    1.0000 0.76399  0.73599  0.26401  Biso   1.000  I
  I7729    1.0000 0.76399  0.76399  0.23601  Biso   1.000  I
  I7730    1.0000 0.73599  0.76399  0.26401  Biso   1.000  I
  I7731    1.0000 0.73599  0.23601  0.73599  Biso   1.000  I
  I7732    1.0000 0.76399  0.73599  0.26401  Biso   1.000  I
  I7733    1.0000 0.76399  0.76399  0.23601  Biso   1.000  I
  I7734    1.0000 0.73599  0.76399  0.26401  Biso   1.000  I
  I7735    1.0000 0.23601  0.73599  0.73599  Biso   1.000  I
  I7736    1.0000 0.26401  0.26401  0.23601  Biso   1.000  I
  I7737    1.0000 0.23601  0.26401  0.26401  Biso   1.000  I
  I7738    1.0000 0.23601  0.23601  0.23601  Biso   1.000  I
  I7739    1.0000 0.73599  0.26401  0.76399  Biso   1.000  I
  I7740    1.0000 0.76399  0.23601  0.76399  Biso   1.000  I
  I7741    1.0000 0.76399  0.26401  0.73599  Biso   1.000  I
  I7742    1.0000 0.23601  0.76399  0.76399  Biso   1.000  I
  I7743    1.0000 0.23601  0.73599  0.73599  Biso   1.000  I
  I7744    1.0000 0.26401  0.73599  0.76399  Biso   1.000  I
  I7745    1.0000 0.26401  0.23601  0.26401  Biso   1.000  I
  I7746    1.0000 0.76399  0.73599  0.26401  Biso   1.000  I
  I7747    1.0000 0.76399  0.76399  0.23601  Biso   1.000  I
  I7748    1.0000 0.73599  0.76399  0.26401  Biso   1.000  I
  I7749    1.0000 0.23601  0.76399  0.76399  Biso   1.000  I
  I7750    1.0000 0.23601  0.73599  0.73599  Biso   1.000  I
  I7751    1.0000 0.26401  0.76399  0.73599  Biso   1.000  I
  I7752    1.0000 0.73599  0.23601  0.73599  Biso   1.000  I
  I7753    1.0000 0.23601  0.76399  0.76399  Biso   1.000  I
  I7754    1.0000 0.26401  0.76399  0.73599  Biso   1.000  I
  I7755    1.0000 0.26401  0.73599  0.76399  Biso   1.000  I
  I7756    1.0000 0.73599  0.73599  0.23601  Biso   1.000  I
  I7757    1.0000 0.87498  0.87498  0.12502  Biso   1.000  I
  I7758    1.0000 0.87498  0.62499  0.37501  Biso   1.000  I
  I7759    1.0000 0.87498  0.37501  0.62499  Biso   1.000  I
  I7760    1.0000 0.87498  0.12502  0.87498  Biso   1.000  I
  I7761    1.0000 0.87498  0.87498  0.12502  Biso   1.000  I
  I7762    1.0000 0.87498  0.62499  0.37501  Biso   1.000  I
  I7763    1.0000 0.87498  0.12502  0.87498  Biso   1.000  I
  I7764    1.0000 0.87498  0.37501  0.62499  Biso   1.000  I
  I7765    1.0000 0.87498  0.87498  0.12502  Biso   1.000  I
  I7766    1.0000 0.73599  0.76399  0.26401  Biso   1.000  I
  I7767    1.0000 0.62499  0.62499  0.12502  Biso   1.000  I
  I7768    1.0000 0.87498  0.62499  0.37501  Biso   1.000  I
  I7769    1.0000 0.87498  0.12502  0.87498  Biso   1.000  I
  I7770    1.0000 0.73599  0.26401  0.76399  Biso   1.000  I
  I7771    1.0000 0.87498  0.37501  0.62499  Biso   1.000  I
  I7772    1.0000 0.62499  0.12502  0.62499  Biso   1.000  I
  I7773    1.0000 0.37501  0.12502  0.37501  Biso   1.000  I
  I7774    1.0000 0.23601  0.26401  0.26401  Biso   1.000  I
  I7775    1.0000 0.12502  0.12502  0.12502  Biso   1.000  I
  I7776    1.0000 0.37501  0.37501  0.12502  Biso   1.000  I
  I7777    1.0000 0.12502  0.12502  0.12502  Biso   1.000  I
  I7778    1.0000 0.37501  0.12502  0.37501  Biso   1.000  I
  I7779    1.0000 0.87498  0.87498  0.12502  Biso   1.000  I
  I7780    1.0000 0.87498  0.62499  0.37501  Biso   1.000  I
  I7781    1.0000 0.87498  0.12502  0.87498  Biso   1.000  I
  I7782    1.0000 0.73599  0.26401  0.76399  Biso   1.000  I
  I7783    1.0000 0.87498  0.37501  0.62499  Biso   1.000  I
  I7784    1.0000 0.62499  0.12502  0.62499  Biso   1.000  I
  I7785    1.0000 0.87498  0.12502  0.87498  Biso   1.000  I
  I7786    1.0000 0.73599  0.23601  0.73599  Biso   1.000  I
  I7787    1.0000 0.87498  0.37501  0.62499  Biso   1.000  I
  I7788    1.0000 0.62499  0.37501  0.87498  Biso   1.000  I
  I7789    1.0000 0.37501  0.62499  0.87498  Biso   1.000  I
  I7790    1.0000 0.12502  0.87498  0.87498  Biso   1.000  I
  I7791    1.0000 0.37501  0.87498  0.62499  Biso   1.000  I
  I7792    1.0000 0.23601  0.73599  0.73599  Biso   1.000  I
  I7793    1.0000 0.37501  0.62499  0.87498  Biso   1.000  I
  I7794    1.0000 0.12502  0.87498  0.87498  Biso   1.000  I
  I7795    1.0000 0.87498  0.12502  0.87498  Biso   1.000  I
  I7796    1.0000 0.62499  0.37501  0.87498  Biso   1.000  I
  I7797    1.0000 0.87498  0.87498  0.12502  Biso   1.000  I
  I7798    1.0000 0.73599  0.73599  0.23601  Biso   1.000  I
  I7799    1.0000 0.62499  0.87498  0.37501  Biso   1.000  I
  I7800    1.0000 0.87498  0.62499  0.37501  Biso   1.000  I
  I7801    1.0000 0.37501  0.62499  0.87498  Biso   1.000  I
  I7802    1.0000 0.12502  0.87498  0.87498  Biso   1.000  I
  I7803    1.0000 0.62499  0.37501  0.87498  Biso   1.000  I
  I7804    1.0000 0.76399  0.26401  0.73599  Biso   1.000  I
  I7805    1.0000 0.87498  0.12502  0.87498  Biso   1.000  I
  I7806    1.0000 0.62499  0.12502  0.62499  Biso   1.000  I
  I7807    1.0000 0.87498  0.12502  0.87498  Biso   1.000  I
  I7808    1.0000 0.73599  0.23601  0.73599  Biso   1.000  I
  I7809    1.0000 0.87498  0.37501  0.62499  Biso   1.000  I
  I7810    1.0000 0.62499  0.37501  0.87498  Biso   1.000  I
  I7811    1.0000 0.37501  0.12502  0.37501  Biso   1.000  I
  I7812    1.0000 0.23601  0.23601  0.23601  Biso   1.000  I
  I7813    1.0000 0.12502  0.37501  0.37501  Biso   1.000  I
  I7814    1.0000 0.37501  0.37501  0.12502  Biso   1.000  I
  I7815    1.0000 0.87498  0.12502  0.87498  Biso   1.000  I
  I7816    1.0000 0.73599  0.23601  0.73599  Biso   1.000  I
  I7817    1.0000 0.87498  0.37501  0.62499  Biso   1.000  I
  I7818    1.0000 0.62499  0.37501  0.87498  Biso   1.000  I
  I7819    1.0000 0.37501  0.62499  0.87498  Biso   1.000  I
  I7820    1.0000 0.12502  0.87498  0.87498  Biso   1.000  I
  I7821    1.0000 0.87498  0.12502  0.87498  Biso   1.000  I
  I7822    1.0000 0.62499  0.37501  0.87498  Biso   1.000  I
  I7823    1.0000 0.12502  0.37501  0.37501  Biso   1.000  I
  I7824    1.0000 0.26401  0.26401  0.23601  Biso   1.000  I
  I7825    1.0000 0.12502  0.12502  0.12502  Biso   1.000  I
  I7826    1.0000 0.37501  0.12502  0.37501  Biso   1.000  I
  I7827    1.0000 0.62499  0.37501  0.87498  Biso   1.000  I
  I7828    1.0000 0.76399  0.26401  0.73599  Biso   1.000  I
  I7829    1.0000 0.87498  0.12502  0.87498  Biso   1.000  I
  I7830    1.0000 0.62499  0.12502  0.62499  Biso   1.000  I
  I7831    1.0000 0.12502  0.62499  0.62499  Biso   1.000  I
  I7832    1.0000 0.26401  0.76399  0.73599  Biso   1.000  I
  I7833    1.0000 0.37501  0.62499  0.87498  Biso   1.000  I
  I7834    1.0000 0.12502  0.87498  0.87498  Biso   1.000  I
  I7835    1.0000 0.19029  0.30969  0.30969  Biso   1.000  I
  I7836    1.0000 0.19029  0.19029  0.19029  Biso   1.000  I
  I7837    1.0000 0.30969  0.30969  0.19029  Biso   1.000  I
  I7838    1.0000 0.30969  0.80971  0.69031  Biso   1.000  I
  I7839    1.0000 0.19029  0.80971  0.80971  Biso   1.000  I
  I7840    1.0000 0.69031  0.69031  0.19029  Biso   1.000  I
  I7841    1.0000 0.69031  0.80971  0.30969  Biso   1.000  I
  I7842    1.0000 0.80971  0.80971  0.19029  Biso   1.000  I
  I7843    1.0000 0.30969  0.80971  0.69031  Biso   1.000  I
  I7844    1.0000 0.19029  0.80971  0.80971  Biso   1.000  I
  I7845    1.0000 0.19029  0.19029  0.19029  Biso   1.000  I
  I7846    1.0000 0.30969  0.30969  0.19029  Biso   1.000  I
  I7847    1.0000 0.69031  0.69031  0.19029  Biso   1.000  I
  I7848    1.0000 0.69031  0.80971  0.30969  Biso   1.000  I
  I7849    1.0000 0.80971  0.80971  0.19029  Biso   1.000  I
  I7850    1.0000 0.80971  0.80971  0.19029  Biso   1.000  I
  I7851    1.0000 0.69031  0.80971  0.30969  Biso   1.000  I
  I7852    1.0000 0.80971  0.80971  0.19029  Biso   1.000  I
  I7853    1.0000 0.69031  0.80971  0.30969  Biso   1.000  I
  I7854    1.0000 0.19029  0.69031  0.69031  Biso   1.000  I
  I7855    1.0000 0.30969  0.80971  0.69031  Biso   1.000  I
  I7856    1.0000 0.19029  0.80971  0.80971  Biso   1.000  I
  I7857    1.0000 0.30969  0.80971  0.69031  Biso   1.000  I
  I7858    1.0000 0.19029  0.80971  0.80971  Biso   1.000  I
  I7859    1.0000 0.80971  0.19029  0.80971  Biso   1.000  I
  I7860    1.0000 0.80971  0.30969  0.69031  Biso   1.000  I
  I7861    1.0000 0.80971  0.80971  0.19029  Biso   1.000  I
  I7862    1.0000 0.69031  0.69031  0.19029  Biso   1.000  I
  I7863    1.0000 0.80971  0.69031  0.30969  Biso   1.000  I
  I7864    1.0000 0.30969  0.80971  0.69031  Biso   1.000  I
  I7865    1.0000 0.30969  0.69031  0.80971  Biso   1.000  I
  I7866    1.0000 0.19029  0.80971  0.80971  Biso   1.000  I
  I7867    1.0000 0.80971  0.80971  0.19029  Biso   1.000  I
  I7868    1.0000 0.69031  0.80971  0.30969  Biso   1.000  I
  I7869    1.0000 0.80971  0.69031  0.30969  Biso   1.000  I
  I7870    1.0000 0.80971  0.80971  0.19029  Biso   1.000  I
  I7871    1.0000 0.69031  0.80971  0.30969  Biso   1.000  I
  I7872    1.0000 0.80971  0.69031  0.30969  Biso   1.000  I
  I7873    1.0000 0.19029  0.30969  0.30969  Biso   1.000  I
  I7874    1.0000 0.19029  0.19029  0.19029  Biso   1.000  I
  I7875    1.0000 0.80971  0.19029  0.80971  Biso   1.000  I
  I7876    1.0000 0.69031  0.30969  0.80971  Biso   1.000  I
  I7877    1.0000 0.19029  0.69031  0.69031  Biso   1.000  I
  I7878    1.0000 0.30969  0.69031  0.80971  Biso   1.000  I
  I7879    1.0000 0.19029  0.80971  0.80971  Biso   1.000  I
  I7880    1.0000 0.80971  0.80971  0.19029  Biso   1.000  I
  I7881    1.0000 0.69031  0.80971  0.30969  Biso   1.000  I
  I7882    1.0000 0.19029  0.69031  0.69031  Biso   1.000  I
  I7883    1.0000 0.30969  0.80971  0.69031  Biso   1.000  I
  I7884    1.0000 0.19029  0.80971  0.80971  Biso   1.000  I
  I7885    1.0000 0.30969  0.80971  0.69031  Biso   1.000  I
  I7886    1.0000 0.30969  0.69031  0.80971  Biso   1.000  I
  I7887    1.0000 0.19029  0.80971  0.80971  Biso   1.000  I
  I7888    1.0000 0.94030  0.94030  0.05970  Biso   1.000  I
  I7889    1.0000 0.94030  0.55972  0.44028  Biso   1.000  I
  I7890    1.0000 0.94030  0.44028  0.55972  Biso   1.000  I
  I7891    1.0000 0.94030  0.05970  0.94030  Biso   1.000  I
  I7892    1.0000 0.94030  0.94030  0.05970  Biso   1.000  I
  I7893    1.0000 0.94030  0.55972  0.44028  Biso   1.000  I
  I7894    1.0000 0.94030  0.05970  0.94030  Biso   1.000  I
  I7895    1.0000 0.94030  0.44028  0.55972  Biso   1.000  I
  I7896    1.0000 0.94030  0.94030  0.05970  Biso   1.000  I
  I7897    1.0000 0.55972  0.55972  0.05970  Biso   1.000  I
  I7898    1.0000 0.94030  0.55972  0.44028  Biso   1.000  I
  I7899    1.0000 0.94030  0.05970  0.94030  Biso   1.000  I
  I7900    1.0000 0.94030  0.44028  0.55972  Biso   1.000  I
  I7901    1.0000 0.55972  0.05970  0.55972  Biso   1.000  I
  I7902    1.0000 0.44028  0.05970  0.44028  Biso   1.000  I
  I7903    1.0000 0.05970  0.05970  0.05970  Biso   1.000  I
  I7904    1.0000 0.44028  0.44028  0.05970  Biso   1.000  I
  I7905    1.0000 0.05970  0.05970  0.05970  Biso   1.000  I
  I7906    1.0000 0.44028  0.05970  0.44028  Biso   1.000  I
  I7907    1.0000 0.94030  0.94030  0.05970  Biso   1.000  I
  I7908    1.0000 0.94030  0.55972  0.44028  Biso   1.000  I
  I7909    1.0000 0.94030  0.05970  0.94030  Biso   1.000  I
  I7910    1.0000 0.94030  0.44028  0.55972  Biso   1.000  I
  I7911    1.0000 0.55972  0.05970  0.55972  Biso   1.000  I
  I7912    1.0000 0.94030  0.05970  0.94030  Biso   1.000  I
  I7913    1.0000 0.94030  0.44028  0.55972  Biso   1.000  I
  I7914    1.0000 0.55972  0.44028  0.94030  Biso   1.000  I
  I7915    1.0000 0.44028  0.55972  0.94030  Biso   1.000  I
  I7916    1.0000 0.05970  0.94030  0.94030  Biso   1.000  I
  I7917    1.0000 0.44028  0.94030  0.55972  Biso   1.000  I
  I7918    1.0000 0.44028  0.55972  0.94030  Biso   1.000  I
  I7919    1.0000 0.05970  0.94030  0.94030  Biso   1.000  I
  I7920    1.0000 0.94030  0.05970  0.94030  Biso   1.000  I
  I7921    1.0000 0.55972  0.44028  0.94030  Biso   1.000  I
  I7922    1.0000 0.94030  0.94030  0.05970  Biso   1.000  I
  I7923    1.0000 0.55972  0.94030  0.44028  Biso   1.000  I
  I7924    1.0000 0.94030  0.55972  0.44028  Biso   1.000  I
  I7925    1.0000 0.44028  0.55972  0.94030  Biso   1.000  I
  I7926    1.0000 0.05970  0.94030  0.94030  Biso   1.000  I
  I7927    1.0000 0.55972  0.44028  0.94030  Biso   1.000  I
  I7928    1.0000 0.94030  0.05970  0.94030  Biso   1.000  I
  I7929    1.0000 0.55972  0.05970  0.55972  Biso   1.000  I
  I7930    1.0000 0.94030  0.05970  0.94030  Biso   1.000  I
  I7931    1.0000 0.94030  0.44028  0.55972  Biso   1.000  I
  I7932    1.0000 0.55972  0.44028  0.94030  Biso   1.000  I
  I7933    1.0000 0.44028  0.05970  0.44028  Biso   1.000  I
  I7934    1.0000 0.05970  0.44028  0.44028  Biso   1.000  I
  I7935    1.0000 0.44028  0.44028  0.05970  Biso   1.000  I
  I7936    1.0000 0.94030  0.05970  0.94030  Biso   1.000  I
  I7937    1.0000 0.94030  0.44028  0.55972  Biso   1.000  I
  I7938    1.0000 0.55972  0.44028  0.94030  Biso   1.000  I
  I7939    1.0000 0.44028  0.55972  0.94030  Biso   1.000  I
  I7940    1.0000 0.05970  0.94030  0.94030  Biso   1.000  I
  I7941    1.0000 0.94030  0.05970  0.94030  Biso   1.000  I
  I7942    1.0000 0.55972  0.44028  0.94030  Biso   1.000  I
  I7943    1.0000 0.05970  0.44028  0.44028  Biso   1.000  I
  I7944    1.0000 0.05970  0.05970  0.05970  Biso   1.000  I
  I7945    1.0000 0.44028  0.05970  0.44028  Biso   1.000  I
  I7946    1.0000 0.55972  0.44028  0.94030  Biso   1.000  I
  I7947    1.0000 0.94030  0.05970  0.94030  Biso   1.000  I
  I7948    1.0000 0.55972  0.05970  0.55972  Biso   1.000  I
  I7949    1.0000 0.05970  0.55972  0.55972  Biso   1.000  I
  I7950    1.0000 0.44028  0.55972  0.94030  Biso   1.000  I
  I7951    1.0000 0.05970  0.94030  0.94030  Biso   1.000  I
  I7952    1.0000 0.12502  0.37501  0.37501  Biso   1.000  I
  I7953    1.0000 0.26401  0.23601  0.26401  Biso   1.000  I
  I7954    1.0000 0.12502  0.12502  0.12502  Biso   1.000  I
  I7955    1.0000 0.37501  0.37501  0.12502  Biso   1.000  I
  I7956    1.0000 0.37501  0.87498  0.62499  Biso   1.000  I
  I7957    1.0000 0.12502  0.87498  0.87498  Biso   1.000  I
  I7958    1.0000 0.62499  0.62499  0.12502  Biso   1.000  I
  I7959    1.0000 0.76399  0.73599  0.26401  Biso   1.000  I
  I7960    1.0000 0.62499  0.87498  0.37501  Biso   1.000  I
  I7961    1.0000 0.87498  0.87498  0.12502  Biso   1.000  I
  I7962    1.0000 0.37501  0.87498  0.62499  Biso   1.000  I
  I7963    1.0000 0.12502  0.87498  0.87498  Biso   1.000  I
  I7964    1.0000 0.12502  0.12502  0.12502  Biso   1.000  I
  I7965    1.0000 0.37501  0.37501  0.12502  Biso   1.000  I
  I7966    1.0000 0.62499  0.62499  0.12502  Biso   1.000  I
  I7967    1.0000 0.76399  0.73599  0.26401  Biso   1.000  I
  I7968    1.0000 0.62499  0.87498  0.37501  Biso   1.000  I
  I7969    1.0000 0.87498  0.87498  0.12502  Biso   1.000  I
  I7970    1.0000 0.87498  0.87498  0.12502  Biso   1.000  I
  I7971    1.0000 0.62499  0.87498  0.37501  Biso   1.000  I
  I7972    1.0000 0.87498  0.87498  0.12502  Biso   1.000  I
  I7973    1.0000 0.62499  0.87498  0.37501  Biso   1.000  I
  I7974    1.0000 0.12502  0.62499  0.62499  Biso   1.000  I
  I7975    1.0000 0.26401  0.73599  0.76399  Biso   1.000  I
  I7976    1.0000 0.37501  0.87498  0.62499  Biso   1.000  I
  I7977    1.0000 0.12502  0.87498  0.87498  Biso   1.000  I
  I7978    1.0000 0.37501  0.87498  0.62499  Biso   1.000  I
  I7979    1.0000 0.12502  0.87498  0.87498  Biso   1.000  I
  I7980    1.0000 0.87498  0.12502  0.87498  Biso   1.000  I
  I7981    1.0000 0.87498  0.37501  0.62499  Biso   1.000  I
  I7982    1.0000 0.87498  0.87498  0.12502  Biso   1.000  I
  I7983    1.0000 0.73599  0.76399  0.26401  Biso   1.000  I
  I7984    1.0000 0.62499  0.62499  0.12502  Biso   1.000  I
  I7985    1.0000 0.87498  0.62499  0.37501  Biso   1.000  I
  I7986    1.0000 0.37501  0.87498  0.62499  Biso   1.000  I
  I7987    1.0000 0.23601  0.73599  0.73599  Biso   1.000  I
  I7988    1.0000 0.37501  0.62499  0.87498  Biso   1.000  I
  I7989    1.0000 0.12502  0.87498  0.87498  Biso   1.000  I
  I7990    1.0000 0.87498  0.87498  0.12502  Biso   1.000  I
  I7991    1.0000 0.73599  0.73599  0.23601  Biso   1.000  I
  I7992    1.0000 0.62499  0.87498  0.37501  Biso   1.000  I
  I7993    1.0000 0.87498  0.62499  0.37501  Biso   1.000  I
  I7994    1.0000 0.87498  0.87498  0.12502  Biso   1.000  I
  I7995    1.0000 0.73599  0.73599  0.23601  Biso   1.000  I
  I7996    1.0000 0.62499  0.87498  0.37501  Biso   1.000  I
  I7997    1.0000 0.87498  0.62499  0.37501  Biso   1.000  I
  I7998    1.0000 0.12502  0.37501  0.37501  Biso   1.000  I
  I7999    1.0000 0.12502  0.12502  0.12502  Biso   1.000  I
  I8000    1.0000 0.87498  0.12502  0.87498  Biso   1.000  I
  I8001    1.0000 0.62499  0.37501  0.87498  Biso   1.000  I
  I8002    1.0000 0.12502  0.62499  0.62499  Biso   1.000  I
  I8003    1.0000 0.26401  0.76399  0.73599  Biso   1.000  I
  I8004    1.0000 0.37501  0.62499  0.87498  Biso   1.000  I
  I8005    1.0000 0.12502  0.87498  0.87498  Biso   1.000  I
  I8006    1.0000 0.87498  0.87498  0.12502  Biso   1.000  I
  I8007    1.0000 0.62499  0.87498  0.37501  Biso   1.000  I
  I8008    1.0000 0.12502  0.62499  0.62499  Biso   1.000  I
  I8009    1.0000 0.26401  0.73599  0.76399  Biso   1.000  I
  I8010    1.0000 0.37501  0.87498  0.62499  Biso   1.000  I
  I8011    1.0000 0.12502  0.87498  0.87498  Biso   1.000  I
  I8012    1.0000 0.37501  0.87498  0.62499  Biso   1.000  I
  I8013    1.0000 0.23601  0.73599  0.73599  Biso   1.000  I
  I8014    1.0000 0.37501  0.62499  0.87498  Biso   1.000  I
  I8015    1.0000 0.12502  0.87498  0.87498  Biso   1.000  I
  I8016    1.0000 0.98598  0.01402  0.98598  Biso   1.000  I
  I8017    1.0000 0.98598  0.48600  0.51400  Biso   1.000  I
  I8018    1.0000 0.98598  0.51400  0.48600  Biso   1.000  I
  I8019    1.0000 0.98598  0.98598  0.01402  Biso   1.000  I
  I8020    1.0000 0.98598  0.01402  0.98598  Biso   1.000  I
  I8021    1.0000 0.98598  0.48600  0.51400  Biso   1.000  I
  I8022    1.0000 0.98598  0.98598  0.01402  Biso   1.000  I
  I8023    1.0000 0.98598  0.51400  0.48600  Biso   1.000  I
  I8024    1.0000 0.48600  0.48600  0.01402  Biso   1.000  I
  I8025    1.0000 0.98598  0.48600  0.51400  Biso   1.000  I
  I8026    1.0000 0.98598  0.51400  0.48600  Biso   1.000  I
  I8027    1.0000 0.48600  0.01402  0.48600  Biso   1.000  I
  I8028    1.0000 0.51400  0.01402  0.51400  Biso   1.000  I
  I8029    1.0000 0.51400  0.51400  0.01402  Biso   1.000  I
  I8030    1.0000 0.98598  0.01402  0.98598  Biso   1.000  I
  I8031    1.0000 0.51400  0.01402  0.51400  Biso   1.000  I
  I8032    1.0000 0.98598  0.01402  0.98598  Biso   1.000  I
  I8033    1.0000 0.98598  0.48600  0.51400  Biso   1.000  I
  I8034    1.0000 0.98598  0.51400  0.48600  Biso   1.000  I
  I8035    1.0000 0.48600  0.01402  0.48600  Biso   1.000  I
  I8036    1.0000 0.98598  0.51400  0.48600  Biso   1.000  I
  I8037    1.0000 0.48600  0.51400  0.98598  Biso   1.000  I
  I8038    1.0000 0.51400  0.48600  0.98598  Biso   1.000  I
  I8039    1.0000 0.98598  0.01402  0.98598  Biso   1.000  I
  I8040    1.0000 0.51400  0.98598  0.48600  Biso   1.000  I
  I8041    1.0000 0.51400  0.01402  0.51400  Biso   1.000  I
  I8042    1.0000 0.48600  0.01402  0.48600  Biso   1.000  I
  I8043    1.0000 0.51400  0.48600  0.98598  Biso   1.000  I
  I8044    1.0000 0.98598  0.01402  0.98598  Biso   1.000  I
  I8045    1.0000 0.01402  0.98598  0.98598  Biso   1.000  I
  I8046    1.0000 0.48600  0.51400  0.98598  Biso   1.000  I
  I8047    1.0000 0.98598  0.01402  0.98598  Biso   1.000  I
  I8048    1.0000 0.48600  0.98598  0.51400  Biso   1.000  I
  I8049    1.0000 0.98598  0.48600  0.51400  Biso   1.000  I
  I8050    1.0000 0.51400  0.48600  0.98598  Biso   1.000  I
  I8051    1.0000 0.98598  0.01402  0.98598  Biso   1.000  I
  I8052    1.0000 0.48600  0.51400  0.98598  Biso   1.000  I
  I8053    1.0000 0.48600  0.01402  0.48600  Biso   1.000  I
  I8054    1.0000 0.98598  0.98598  0.01402  Biso   1.000  I
  I8055    1.0000 0.98598  0.51400  0.48600  Biso   1.000  I
  I8056    1.0000 0.48600  0.51400  0.98598  Biso   1.000  I
  I8057    1.0000 0.48600  0.48600  0.01402  Biso   1.000  I
  I8058    1.0000 0.51400  0.51400  0.01402  Biso   1.000  I
  I8059    1.0000 0.98598  0.51400  0.48600  Biso   1.000  I
  I8060    1.0000 0.98598  0.48600  0.51400  Biso   1.000  I
  I8061    1.0000 0.01402  0.51400  0.51400  Biso   1.000  I
  I8062    1.0000 0.51400  0.48600  0.98598  Biso   1.000  I
  I8063    1.0000 0.01402  0.98598  0.98598  Biso   1.000  I
  I8064    1.0000 0.01402  0.48600  0.48600  Biso   1.000  I
  I8065    1.0000 0.48600  0.51400  0.98598  Biso   1.000  I
  I8066    1.0000 0.51400  0.48600  0.98598  Biso   1.000  I
  I8067    1.0000 0.98598  0.01402  0.98598  Biso   1.000  I
  I8068    1.0000 0.01402  0.98598  0.98598  Biso   1.000  I
  I8069    1.0000 0.48600  0.51400  0.98598  Biso   1.000  I
  I8070    1.0000 0.01402  0.51400  0.51400  Biso   1.000  I
  I8071    1.0000 0.51400  0.01402  0.51400  Biso   1.000  I
  I8072    1.0000 0.48600  0.51400  0.98598  Biso   1.000  I
  I8073    1.0000 0.48600  0.01402  0.48600  Biso   1.000  I
  I8074    1.0000 0.01402  0.48600  0.48600  Biso   1.000  I
  I8075    1.0000 0.51400  0.48600  0.98598  Biso   1.000  I
  I8076    1.0000 0.05970  0.44028  0.44028  Biso   1.000  I
  I8077    1.0000 0.05970  0.05970  0.05970  Biso   1.000  I
  I8078    1.0000 0.44028  0.44028  0.05970  Biso   1.000  I
  I8079    1.0000 0.44028  0.94030  0.55972  Biso   1.000  I
  I8080    1.0000 0.05970  0.94030  0.94030  Biso   1.000  I
  I8081    1.0000 0.55972  0.55972  0.05970  Biso   1.000  I
  I8082    1.0000 0.55972  0.94030  0.44028  Biso   1.000  I
  I8083    1.0000 0.94030  0.94030  0.05970  Biso   1.000  I
  I8084    1.0000 0.44028  0.94030  0.55972  Biso   1.000  I
  I8085    1.0000 0.05970  0.94030  0.94030  Biso   1.000  I
  I8086    1.0000 0.05970  0.05970  0.05970  Biso   1.000  I
  I8087    1.0000 0.44028  0.44028  0.05970  Biso   1.000  I
  I8088    1.0000 0.55972  0.55972  0.05970  Biso   1.000  I
  I8089    1.0000 0.55972  0.94030  0.44028  Biso   1.000  I
  I8090    1.0000 0.94030  0.94030  0.05970  Biso   1.000  I
  I8091    1.0000 0.94030  0.94030  0.05970  Biso   1.000  I
  I8092    1.0000 0.55972  0.94030  0.44028  Biso   1.000  I
  I8093    1.0000 0.94030  0.94030  0.05970  Biso   1.000  I
  I8094    1.0000 0.55972  0.94030  0.44028  Biso   1.000  I
  I8095    1.0000 0.05970  0.55972  0.55972  Biso   1.000  I
  I8096    1.0000 0.44028  0.94030  0.55972  Biso   1.000  I
  I8097    1.0000 0.05970  0.94030  0.94030  Biso   1.000  I
  I8098    1.0000 0.44028  0.94030  0.55972  Biso   1.000  I
  I8099    1.0000 0.05970  0.94030  0.94030  Biso   1.000  I
  I8100    1.0000 0.94030  0.05970  0.94030  Biso   1.000  I
  I8101    1.0000 0.94030  0.44028  0.55972  Biso   1.000  I
  I8102    1.0000 0.94030  0.94030  0.05970  Biso   1.000  I
  I8103    1.0000 0.55972  0.55972  0.05970  Biso   1.000  I
  I8104    1.0000 0.94030  0.55972  0.44028  Biso   1.000  I
  I8105    1.0000 0.44028  0.94030  0.55972  Biso   1.000  I
  I8106    1.0000 0.44028  0.55972  0.94030  Biso   1.000  I
  I8107    1.0000 0.05970  0.94030  0.94030  Biso   1.000  I
  I8108    1.0000 0.94030  0.94030  0.05970  Biso   1.000  I
  I8109    1.0000 0.55972  0.94030  0.44028  Biso   1.000  I
  I8110    1.0000 0.94030  0.55972  0.44028  Biso   1.000  I
  I8111    1.0000 0.94030  0.94030  0.05970  Biso   1.000  I
  I8112    1.0000 0.55972  0.94030  0.44028  Biso   1.000  I
  I8113    1.0000 0.94030  0.55972  0.44028  Biso   1.000  I
  I8114    1.0000 0.05970  0.44028  0.44028  Biso   1.000  I
  I8115    1.0000 0.05970  0.05970  0.05970  Biso   1.000  I
  I8116    1.0000 0.94030  0.05970  0.94030  Biso   1.000  I
  I8117    1.0000 0.55972  0.44028  0.94030  Biso   1.000  I
  I8118    1.0000 0.05970  0.55972  0.55972  Biso   1.000  I
  I8119    1.0000 0.44028  0.55972  0.94030  Biso   1.000  I
  I8120    1.0000 0.05970  0.94030  0.94030  Biso   1.000  I
  I8121    1.0000 0.94030  0.94030  0.05970  Biso   1.000  I
  I8122    1.0000 0.55972  0.94030  0.44028  Biso   1.000  I
  I8123    1.0000 0.05970  0.55972  0.55972  Biso   1.000  I
  I8124    1.0000 0.44028  0.94030  0.55972  Biso   1.000  I
  I8125    1.0000 0.05970  0.94030  0.94030  Biso   1.000  I
  I8126    1.0000 0.44028  0.94030  0.55972  Biso   1.000  I
  I8127    1.0000 0.44028  0.55972  0.94030  Biso   1.000  I
  I8128    1.0000 0.05970  0.94030  0.94030  Biso   1.000  I
  I8129    1.0000 0.55972  0.05970  0.55972  Biso   1.000  I
  I8130    1.0000 0.55972  0.55972  0.05970  Biso   1.000  I
  I8131    1.0000 0.05970  0.55972  0.55972  Biso   1.000  I
  I8132    1.0000 0.01402  0.51400  0.51400  Biso   1.000  I
  I8133    1.0000 0.51400  0.51400  0.01402  Biso   1.000  I
  I8134    1.0000 0.51400  0.98598  0.48600  Biso   1.000  I
  I8135    1.0000 0.98598  0.98598  0.01402  Biso   1.000  I
  I8136    1.0000 0.48600  0.48600  0.01402  Biso   1.000  I
  I8137    1.0000 0.48600  0.98598  0.51400  Biso   1.000  I
  I8138    1.0000 0.51400  0.98598  0.48600  Biso   1.000  I
  I8139    1.0000 0.98598  0.98598  0.01402  Biso   1.000  I
  I8140    1.0000 0.98598  0.98598  0.01402  Biso   1.000  I
  I8141    1.0000 0.51400  0.51400  0.01402  Biso   1.000  I
  I8142    1.0000 0.48600  0.48600  0.01402  Biso   1.000  I
  I8143    1.0000 0.48600  0.98598  0.51400  Biso   1.000  I
  I8144    1.0000 0.01402  0.98598  0.98598  Biso   1.000  I
  I8145    1.0000 0.48600  0.98598  0.51400  Biso   1.000  I
  I8146    1.0000 0.01402  0.98598  0.98598  Biso   1.000  I
  I8147    1.0000 0.48600  0.98598  0.51400  Biso   1.000  I
  I8148    1.0000 0.01402  0.48600  0.48600  Biso   1.000  I
  I8149    1.0000 0.51400  0.98598  0.48600  Biso   1.000  I
  I8150    1.0000 0.51400  0.98598  0.48600  Biso   1.000  I
  I8151    1.0000 0.98598  0.98598  0.01402  Biso   1.000  I
  I8152    1.0000 0.98598  0.98598  0.01402  Biso   1.000  I
  I8153    1.0000 0.98598  0.51400  0.48600  Biso   1.000  I
  I8154    1.0000 0.48600  0.48600  0.01402  Biso   1.000  I
  I8155    1.0000 0.98598  0.48600  0.51400  Biso   1.000  I
  I8156    1.0000 0.51400  0.98598  0.48600  Biso   1.000  I
  I8157    1.0000 0.98598  0.98598  0.01402  Biso   1.000  I
  I8158    1.0000 0.48600  0.98598  0.51400  Biso   1.000  I
  I8159    1.0000 0.98598  0.48600  0.51400  Biso   1.000  I
  I8160    1.0000 0.01402  0.98598  0.98598  Biso   1.000  I
  I8161    1.0000 0.48600  0.98598  0.51400  Biso   1.000  I
  I8162    1.0000 0.01402  0.51400  0.51400  Biso   1.000  I
  I8163    1.0000 0.01402  0.98598  0.98598  Biso   1.000  I
  I8164    1.0000 0.01402  0.98598  0.98598  Biso   1.000  I
  I8165    1.0000 0.48600  0.51400  0.98598  Biso   1.000  I
  I8166    1.0000 0.01402  0.48600  0.48600  Biso   1.000  I
  I8167    1.0000 0.51400  0.48600  0.98598  Biso   1.000  I
  I8168    1.0000 0.01402  0.98598  0.98598  Biso   1.000  I
  I8169    1.0000 0.48600  0.98598  0.51400  Biso   1.000  I
  I8170    1.0000 0.01402  0.48600  0.48600  Biso   1.000  I
  I8171    1.0000 0.51400  0.98598  0.48600  Biso   1.000  I
  I8172    1.0000 0.51400  0.98598  0.48600  Biso   1.000  I
  I8173    1.0000 0.51400  0.48600  0.98598  Biso   1.000  I
  I8174    1.0000 0.62499  0.12502  0.62499  Biso   1.000  I
  I8175    1.0000 0.62499  0.62499  0.12502  Biso   1.000  I
  I8176    1.0000 0.12502  0.62499  0.62499  Biso   1.000  I
  I8177    1.0000 0.69031  0.19029  0.69031  Biso   1.000  I
  I8178    1.0000 0.69031  0.69031  0.19029  Biso   1.000  I
  I8179    1.0000 0.19029  0.69031  0.69031  Biso   1.000  I
  I8180    1.0000 0.73599  0.26401  0.76399  Biso   1.000  I
  I8181    1.0000 0.76399  0.23601  0.76399  Biso   1.000  I
  I8182    1.0000 0.76399  0.26401  0.73599  Biso   1.000  I
  I8183    1.0000 0.76399  0.73599  0.26401  Biso   1.000  I
  I8184    1.0000 0.76399  0.76399  0.23601  Biso   1.000  I
  I8185    1.0000 0.73599  0.76399  0.26401  Biso   1.000  I
  I8186    1.0000 0.23601  0.76399  0.76399  Biso   1.000  I
  I8187    1.0000 0.26401  0.76399  0.73599  Biso   1.000  I
  I8188    1.0000 0.26401  0.73599  0.76399  Biso   1.000  I
  I8189    1.0000 0.80971  0.19029  0.80971  Biso   1.000  I
  I8190    1.0000 0.80971  0.30969  0.69031  Biso   1.000  I
  I8191    1.0000 0.69031  0.30969  0.80971  Biso   1.000  I
  I8192    1.0000 0.80971  0.80971  0.19029  Biso   1.000  I
  I8193    1.0000 0.69031  0.80971  0.30969  Biso   1.000  I
  I8194    1.0000 0.80971  0.69031  0.30969  Biso   1.000  I
  I8195    1.0000 0.30969  0.80971  0.69031  Biso   1.000  I
  I8196    1.0000 0.30969  0.69031  0.80971  Biso   1.000  I
  I8197    1.0000 0.19029  0.80971  0.80971  Biso   1.000  I
  I8198    1.0000 0.87498  0.12502  0.87498  Biso   1.000  I
  I8199    1.0000 0.73599  0.23601  0.73599  Biso   1.000  I
  I8200    1.0000 0.87498  0.37501  0.62499  Biso   1.000  I
  I8201    1.0000 0.62499  0.37501  0.87498  Biso   1.000  I
  I8202    1.0000 0.87498  0.87498  0.12502  Biso   1.000  I
  I8203    1.0000 0.73599  0.73599  0.23601  Biso   1.000  I
  I8204    1.0000 0.62499  0.87498  0.37501  Biso   1.000  I
  I8205    1.0000 0.87498  0.62499  0.37501  Biso   1.000  I
  I8206    1.0000 0.37501  0.87498  0.62499  Biso   1.000  I
  I8207    1.0000 0.23601  0.73599  0.73599  Biso   1.000  I
  I8208    1.0000 0.37501  0.62499  0.87498  Biso   1.000  I
  I8209    1.0000 0.12502  0.87498  0.87498  Biso   1.000  I
  I8210    1.0000 0.94030  0.05970  0.94030  Biso   1.000  I
  I8211    1.0000 0.94030  0.44028  0.55972  Biso   1.000  I
  I8212    1.0000 0.55972  0.44028  0.94030  Biso   1.000  I
  I8213    1.0000 0.94030  0.94030  0.05970  Biso   1.000  I
  I8214    1.0000 0.55972  0.94030  0.44028  Biso   1.000  I
  I8215    1.0000 0.94030  0.55972  0.44028  Biso   1.000  I
  I8216    1.0000 0.44028  0.94030  0.55972  Biso   1.000  I
  I8217    1.0000 0.44028  0.55972  0.94030  Biso   1.000  I
  I8218    1.0000 0.05970  0.94030  0.94030  Biso   1.000  I
  I8219    1.0000 0.98598  0.51400  0.48600  Biso   1.000  I
  I8220    1.0000 0.48600  0.51400  0.98598  Biso   1.000  I
  I8221    1.0000 0.48600  0.98598  0.51400  Biso   1.000  I
  I8222    1.0000 0.98598  0.48600  0.51400  Biso   1.000  I
  I8223    1.0000 0.51400  0.98598  0.48600  Biso   1.000  I
  I8224    1.0000 0.51400  0.48600  0.98598  Biso   1.000  I
  I8225    1.0000 0.30969  0.19029  0.30969  Biso   1.000  I
  I8226    1.0000 0.37501  0.12502  0.37501  Biso   1.000  I
  I8227    1.0000 0.26401  0.26401  0.23601  Biso   1.000  I
  I8228    1.0000 0.23601  0.26401  0.26401  Biso   1.000  I
  I8229    1.0000 0.23601  0.23601  0.23601  Biso   1.000  I
  I8230    1.0000 0.44028  0.05970  0.44028  Biso   1.000  I
  I8231    1.0000 0.19029  0.30969  0.30969  Biso   1.000  I
  I8232    1.0000 0.19029  0.19029  0.19029  Biso   1.000  I
  I8233    1.0000 0.30969  0.30969  0.19029  Biso   1.000  I
  I8234    1.0000 0.48600  0.98598  0.51400  Biso   1.000  I
  I8235    1.0000 0.51400  0.98598  0.48600  Biso   1.000  I
  I8236    1.0000 0.51400  0.01402  0.51400  Biso   1.000  I
  I8237    1.0000 0.12502  0.37501  0.37501  Biso   1.000  I
  I8238    1.0000 0.26401  0.23601  0.26401  Biso   1.000  I
  I8239    1.0000 0.12502  0.12502  0.12502  Biso   1.000  I
  I8240    1.0000 0.37501  0.37501  0.12502  Biso   1.000  I
  I8241    1.0000 0.55972  0.94030  0.44028  Biso   1.000  I
  I8242    1.0000 0.55972  0.05970  0.55972  Biso   1.000  I
  I8243    1.0000 0.44028  0.94030  0.55972  Biso   1.000  I
  I8244    1.0000 0.05970  0.44028  0.44028  Biso   1.000  I
  I8245    1.0000 0.05970  0.05970  0.05970  Biso   1.000  I
  I8246    1.0000 0.44028  0.44028  0.05970  Biso   1.000  I
  I8247    1.0000 0.62499  0.87498  0.37501  Biso   1.000  I
  I8248    1.0000 0.48600  0.01402  0.48600  Biso   1.000  I
  I8249    1.0000 0.62499  0.12502  0.62499  Biso   1.000  I
  I8250    1.0000 0.37501  0.87498  0.62499  Biso   1.000  I
  I8251    1.0000 0.98598  0.51400  0.48600  Biso   1.000  I
  I8252    1.0000 0.98598  0.48600  0.51400  Biso   1.000  I
  I8253    1.0000 0.01402  0.51400  0.51400  Biso   1.000  I
  I8254    1.0000 0.98598  0.98598  0.01402  Biso   1.000  I
  I8255    1.0000 0.98598  0.01402  0.98598  Biso   1.000  I
  I8256    1.0000 0.01402  0.98598  0.98598  Biso   1.000  I
  I8257    1.0000 0.51400  0.48600  0.98598  Biso   1.000  I
  I8258    1.0000 0.48600  0.51400  0.98598  Biso   1.000  I
  I8259    1.0000 0.51400  0.51400  0.01402  Biso   1.000  I
  I8260    1.0000 0.69031  0.80971  0.30969  Biso   1.000  I
  I8261    1.0000 0.69031  0.19029  0.69031  Biso   1.000  I
  I8262    1.0000 0.30969  0.80971  0.69031  Biso   1.000  I
  I8263    1.0000 0.94030  0.44028  0.55972  Biso   1.000  I
  I8264    1.0000 0.05970  0.55972  0.55972  Biso   1.000  I
  I8265    1.0000 0.94030  0.55972  0.44028  Biso   1.000  I
  I8266    1.0000 0.94030  0.05970  0.94030  Biso   1.000  I
  I8267    1.0000 0.05970  0.94030  0.94030  Biso   1.000  I
  I8268    1.0000 0.94030  0.94030  0.05970  Biso   1.000  I
  I8269    1.0000 0.44028  0.55972  0.94030  Biso   1.000  I
  I8270    1.0000 0.55972  0.55972  0.05970  Biso   1.000  I
  I8271    1.0000 0.55972  0.44028  0.94030  Biso   1.000  I
  I8272    1.0000 0.76399  0.73599  0.26401  Biso   1.000  I
  I8273    1.0000 0.76399  0.76399  0.23601  Biso   1.000  I
  I8274    1.0000 0.73599  0.73599  0.23601  Biso   1.000  I
  I8275    1.0000 0.73599  0.26401  0.76399  Biso   1.000  I
  I8276    1.0000 0.76399  0.23601  0.76399  Biso   1.000  I
  I8277    1.0000 0.76399  0.26401  0.73599  Biso   1.000  I
  I8278    1.0000 0.23601  0.76399  0.76399  Biso   1.000  I
  I8279    1.0000 0.23601  0.73599  0.73599  Biso   1.000  I
  I8280    1.0000 0.26401  0.73599  0.76399  Biso   1.000  I
  I8281    1.0000 0.87498  0.37501  0.62499  Biso   1.000  I
  I8282    1.0000 0.01402  0.48600  0.48600  Biso   1.000  I
  I8283    1.0000 0.12502  0.62499  0.62499  Biso   1.000  I
  I8284    1.0000 0.87498  0.62499  0.37501  Biso   1.000  I
  I8285    1.0000 0.87498  0.12502  0.87498  Biso   1.000  I
  I8286    1.0000 0.01402  0.01402  0.01402  Biso   1.000  I
  I8287    1.0000 0.12502  0.87498  0.87498  Biso   1.000  I
  I8288    1.0000 0.87498  0.87498  0.12502  Biso   1.000  I
  I8289    1.0000 0.37501  0.62499  0.87498  Biso   1.000  I
  I8290    1.0000 0.48600  0.48600  0.01402  Biso   1.000  I
  I8291    1.0000 0.62499  0.62499  0.12502  Biso   1.000  I
  I8292    1.0000 0.62499  0.37501  0.87498  Biso   1.000  I
  I8293    1.0000 0.80971  0.80971  0.19029  Biso   1.000  I
  I8294    1.0000 0.69031  0.69031  0.19029  Biso   1.000  I
  I8295    1.0000 0.80971  0.69031  0.30969  Biso   1.000  I
  I8296    1.0000 0.80971  0.19029  0.80971  Biso   1.000  I
  I8297    1.0000 0.80971  0.30969  0.69031  Biso   1.000  I
  I8298    1.0000 0.69031  0.30969  0.80971  Biso   1.000  I
  I8299    1.0000 0.19029  0.69031  0.69031  Biso   1.000  I
  I8300    1.0000 0.30969  0.69031  0.80971  Biso   1.000  I
  I8301    1.0000 0.19029  0.80971  0.80971  Biso   1.000  I
  I8302    1.0000 0.80971  0.30969  0.69031  Biso   1.000  I
  I8303    1.0000 0.19029  0.69031  0.69031  Biso   1.000  I
  I8304    1.0000 0.80971  0.69031  0.30969  Biso   1.000  I
  I8305    1.0000 0.80971  0.19029  0.80971  Biso   1.000  I
  I8306    1.0000 0.19029  0.80971  0.80971  Biso   1.000  I
  I8307    1.0000 0.80971  0.80971  0.19029  Biso   1.000  I
  I8308    1.0000 0.30969  0.69031  0.80971  Biso   1.000  I
  I8309    1.0000 0.69031  0.69031  0.19029  Biso   1.000  I
  I8310    1.0000 0.69031  0.30969  0.80971  Biso   1.000  I
  I8311    1.0000 0.87498  0.87498  0.12502  Biso   1.000  I
  I8312    1.0000 0.73599  0.76399  0.26401  Biso   1.000  I
  I8313    1.0000 0.62499  0.62499  0.12502  Biso   1.000  I
  I8314    1.0000 0.87498  0.62499  0.37501  Biso   1.000  I
  I8315    1.0000 0.87498  0.12502  0.87498  Biso   1.000  I
  I8316    1.0000 0.73599  0.23601  0.73599  Biso   1.000  I
  I8317    1.0000 0.87498  0.37501  0.62499  Biso   1.000  I
  I8318    1.0000 0.62499  0.37501  0.87498  Biso   1.000  I
  I8319    1.0000 0.12502  0.62499  0.62499  Biso   1.000  I
  I8320    1.0000 0.26401  0.76399  0.73599  Biso   1.000  I
  I8321    1.0000 0.37501  0.62499  0.87498  Biso   1.000  I
  I8322    1.0000 0.12502  0.87498  0.87498  Biso   1.000  I
  I8323    1.0000 0.73599  0.23601  0.73599  Biso   1.000  I
  I8324    1.0000 0.73599  0.26401  0.76399  Biso   1.000  I
  I8325    1.0000 0.76399  0.23601  0.76399  Biso   1.000  I
  I8326    1.0000 0.23601  0.76399  0.76399  Biso   1.000  I
  I8327    1.0000 0.26401  0.76399  0.73599  Biso   1.000  I
  I8328    1.0000 0.26401  0.73599  0.76399  Biso   1.000  I
  I8329    1.0000 0.76399  0.76399  0.23601  Biso   1.000  I
  I8330    1.0000 0.73599  0.73599  0.23601  Biso   1.000  I
  I8331    1.0000 0.73599  0.76399  0.26401  Biso   1.000  I
  I8332    1.0000 0.73599  0.23601  0.73599  Biso   1.000  I
  I8333    1.0000 0.73599  0.26401  0.76399  Biso   1.000  I
  I8334    1.0000 0.76399  0.26401  0.73599  Biso   1.000  I
  I8335    1.0000 0.23601  0.73599  0.73599  Biso   1.000  I
  I8336    1.0000 0.26401  0.76399  0.73599  Biso   1.000  I
  I8337    1.0000 0.26401  0.73599  0.76399  Biso   1.000  I
  I8338    1.0000 0.76399  0.73599  0.26401  Biso   1.000  I
  I8339    1.0000 0.73599  0.73599  0.23601  Biso   1.000  I
  I8340    1.0000 0.73599  0.76399  0.26401  Biso   1.000  I
  I8341    1.0000 0.23601  0.76399  0.76399  Biso   1.000  I
  I8342    1.0000 0.23601  0.73599  0.73599  Biso   1.000  I
  I8343    1.0000 0.26401  0.76399  0.73599  Biso   1.000  I
  I8344    1.0000 0.76399  0.73599  0.26401  Biso   1.000  I
  I8345    1.0000 0.76399  0.76399  0.23601  Biso   1.000  I
  I8346    1.0000 0.73599  0.76399  0.26401  Biso   1.000  I
  I8347    1.0000 0.73599  0.23601  0.73599  Biso   1.000  I
  I8348    1.0000 0.76399  0.23601  0.76399  Biso   1.000  I
  I8349    1.0000 0.76399  0.26401  0.73599  Biso   1.000  I
  I8350    1.0000 0.94030  0.94030  0.05970  Biso   1.000  I
  I8351    1.0000 0.55972  0.55972  0.05970  Biso   1.000  I
  I8352    1.0000 0.94030  0.55972  0.44028  Biso   1.000  I
  I8353    1.0000 0.94030  0.05970  0.94030  Biso   1.000  I
  I8354    1.0000 0.94030  0.44028  0.55972  Biso   1.000  I
  I8355    1.0000 0.55972  0.44028  0.94030  Biso   1.000  I
  I8356    1.0000 0.05970  0.55972  0.55972  Biso   1.000  I
  I8357    1.0000 0.44028  0.55972  0.94030  Biso   1.000  I
  I8358    1.0000 0.05970  0.94030  0.94030  Biso   1.000  I
  I8359    1.0000 0.69031  0.30969  0.80971  Biso   1.000  I
  I8360    1.0000 0.80971  0.19029  0.80971  Biso   1.000  I
  I8361    1.0000 0.69031  0.19029  0.69031  Biso   1.000  I
  I8362    1.0000 0.30969  0.80971  0.69031  Biso   1.000  I
  I8363    1.0000 0.30969  0.69031  0.80971  Biso   1.000  I
  I8364    1.0000 0.19029  0.80971  0.80971  Biso   1.000  I
  I8365    1.0000 0.69031  0.69031  0.19029  Biso   1.000  I
  I8366    1.0000 0.69031  0.80971  0.30969  Biso   1.000  I
  I8367    1.0000 0.80971  0.80971  0.19029  Biso   1.000  I
  I8368    1.0000 0.69031  0.30969  0.80971  Biso   1.000  I
  I8369    1.0000 0.80971  0.30969  0.69031  Biso   1.000  I
  I8370    1.0000 0.69031  0.19029  0.69031  Biso   1.000  I
  I8371    1.0000 0.30969  0.80971  0.69031  Biso   1.000  I
  I8372    1.0000 0.30969  0.69031  0.80971  Biso   1.000  I
  I8373    1.0000 0.19029  0.69031  0.69031  Biso   1.000  I
  I8374    1.0000 0.69031  0.69031  0.19029  Biso   1.000  I
  I8375    1.0000 0.69031  0.80971  0.30969  Biso   1.000  I
  I8376    1.0000 0.80971  0.69031  0.30969  Biso   1.000  I
  I8377    1.0000 0.19029  0.69031  0.69031  Biso   1.000  I
  I8378    1.0000 0.30969  0.80971  0.69031  Biso   1.000  I
  I8379    1.0000 0.19029  0.80971  0.80971  Biso   1.000  I
  I8380    1.0000 0.80971  0.80971  0.19029  Biso   1.000  I
  I8381    1.0000 0.69031  0.80971  0.30969  Biso   1.000  I
  I8382    1.0000 0.80971  0.69031  0.30969  Biso   1.000  I
  I8383    1.0000 0.80971  0.19029  0.80971  Biso   1.000  I
  I8384    1.0000 0.80971  0.30969  0.69031  Biso   1.000  I
  I8385    1.0000 0.69031  0.19029  0.69031  Biso   1.000  I
  I8386    1.0000 0.98598  0.01402  0.98598  Biso   1.000  I
  I8387    1.0000 0.01402  0.98598  0.98598  Biso   1.000  I
  I8388    1.0000 0.01402  0.01402  0.01402  Biso   1.000  I
  I8389    1.0000 0.51400  0.48600  0.98598  Biso   1.000  I
  I8390    1.0000 0.48600  0.51400  0.98598  Biso   1.000  I
  I8391    1.0000 0.48600  0.48600  0.01402  Biso   1.000  I
  I8392    1.0000 0.98598  0.48600  0.51400  Biso   1.000  I
  I8393    1.0000 0.01402  0.51400  0.51400  Biso   1.000  I
  I8394    1.0000 0.01402  0.48600  0.48600  Biso   1.000  I
  I8395    1.0000 0.98598  0.98598  0.01402  Biso   1.000  I
  I8396    1.0000 0.01402  0.98598  0.98598  Biso   1.000  I
  I8397    1.0000 0.01402  0.01402  0.01402  Biso   1.000  I
  I8398    1.0000 0.98598  0.51400  0.48600  Biso   1.000  I
  I8399    1.0000 0.01402  0.51400  0.51400  Biso   1.000  I
  I8400    1.0000 0.01402  0.48600  0.48600  Biso   1.000  I
  I8401    1.0000 0.48600  0.51400  0.98598  Biso   1.000  I
  I8402    1.0000 0.48600  0.48600  0.01402  Biso   1.000  I
  I8403    1.0000 0.51400  0.51400  0.01402  Biso   1.000  I
  I8404    1.0000 0.98598  0.51400  0.48600  Biso   1.000  I
  I8405    1.0000 0.98598  0.48600  0.51400  Biso   1.000  I
  I8406    1.0000 0.01402  0.48600  0.48600  Biso   1.000  I
  I8407    1.0000 0.51400  0.48600  0.98598  Biso   1.000  I
  I8408    1.0000 0.48600  0.48600  0.01402  Biso   1.000  I
  I8409    1.0000 0.51400  0.51400  0.01402  Biso   1.000  I
  I8410    1.0000 0.98598  0.98598  0.01402  Biso   1.000  I
  I8411    1.0000 0.98598  0.01402  0.98598  Biso   1.000  I
  I8412    1.0000 0.01402  0.01402  0.01402  Biso   1.000  I
  I8413    1.0000 0.62499  0.37501  0.87498  Biso   1.000  I
  I8414    1.0000 0.76399  0.26401  0.73599  Biso   1.000  I
  I8415    1.0000 0.87498  0.12502  0.87498  Biso   1.000  I
  I8416    1.0000 0.62499  0.12502  0.62499  Biso   1.000  I
  I8417    1.0000 0.37501  0.87498  0.62499  Biso   1.000  I
  I8418    1.0000 0.23601  0.73599  0.73599  Biso   1.000  I
  I8419    1.0000 0.37501  0.62499  0.87498  Biso   1.000  I
  I8420    1.0000 0.12502  0.87498  0.87498  Biso   1.000  I
  I8421    1.0000 0.62499  0.62499  0.12502  Biso   1.000  I
  I8422    1.0000 0.76399  0.73599  0.26401  Biso   1.000  I
  I8423    1.0000 0.62499  0.87498  0.37501  Biso   1.000  I
  I8424    1.0000 0.87498  0.87498  0.12502  Biso   1.000  I
  I8425    1.0000 0.62499  0.37501  0.87498  Biso   1.000  I
  I8426    1.0000 0.76399  0.23601  0.76399  Biso   1.000  I
  I8427    1.0000 0.87498  0.37501  0.62499  Biso   1.000  I
  I8428    1.0000 0.62499  0.12502  0.62499  Biso   1.000  I
  I8429    1.0000 0.37501  0.87498  0.62499  Biso   1.000  I
  I8430    1.0000 0.23601  0.76399  0.76399  Biso   1.000  I
  I8431    1.0000 0.37501  0.62499  0.87498  Biso   1.000  I
  I8432    1.0000 0.12502  0.62499  0.62499  Biso   1.000  I
  I8433    1.0000 0.62499  0.62499  0.12502  Biso   1.000  I
  I8434    1.0000 0.76399  0.76399  0.23601  Biso   1.000  I
  I8435    1.0000 0.62499  0.87498  0.37501  Biso   1.000  I
  I8436    1.0000 0.87498  0.62499  0.37501  Biso   1.000  I
  I8437    1.0000 0.12502  0.62499  0.62499  Biso   1.000  I
  I8438    1.0000 0.26401  0.73599  0.76399  Biso   1.000  I
  I8439    1.0000 0.37501  0.87498  0.62499  Biso   1.000  I
  I8440    1.0000 0.12502  0.87498  0.87498  Biso   1.000  I
  I8441    1.0000 0.87498  0.87498  0.12502  Biso   1.000  I
  I8442    1.0000 0.73599  0.73599  0.23601  Biso   1.000  I
  I8443    1.0000 0.62499  0.87498  0.37501  Biso   1.000  I
  I8444    1.0000 0.87498  0.62499  0.37501  Biso   1.000  I
  I8445    1.0000 0.87498  0.12502  0.87498  Biso   1.000  I
  I8446    1.0000 0.73599  0.26401  0.76399  Biso   1.000  I
  I8447    1.0000 0.87498  0.37501  0.62499  Biso   1.000  I
  I8448    1.0000 0.62499  0.12502  0.62499  Biso   1.000  I
  I8449    1.0000 0.05970  0.94030  0.94030  Biso   1.000  I
  I8450    1.0000 0.05970  0.05970  0.05970  Biso   1.000  I
  I8451    1.0000 0.94030  0.05970  0.94030  Biso   1.000  I
  I8452    1.0000 0.44028  0.55972  0.94030  Biso   1.000  I
  I8453    1.0000 0.44028  0.44028  0.05970  Biso   1.000  I
  I8454    1.0000 0.55972  0.44028  0.94030  Biso   1.000  I
  I8455    1.0000 0.05970  0.55972  0.55972  Biso   1.000  I
  I8456    1.0000 0.05970  0.44028  0.44028  Biso   1.000  I
  I8457    1.0000 0.94030  0.44028  0.55972  Biso   1.000  I
  I8458    1.0000 0.05970  0.94030  0.94030  Biso   1.000  I
  I8459    1.0000 0.05970  0.05970  0.05970  Biso   1.000  I
  I8460    1.0000 0.94030  0.94030  0.05970  Biso   1.000  I
  I8461    1.0000 0.05970  0.55972  0.55972  Biso   1.000  I
  I8462    1.0000 0.05970  0.44028  0.44028  Biso   1.000  I
  I8463    1.0000 0.94030  0.55972  0.44028  Biso   1.000  I
  I8464    1.0000 0.44028  0.44028  0.05970  Biso   1.000  I
  I8465    1.0000 0.55972  0.55972  0.05970  Biso   1.000  I
  I8466    1.0000 0.44028  0.55972  0.94030  Biso   1.000  I
  I8467    1.0000 0.94030  0.44028  0.55972  Biso   1.000  I
  I8468    1.0000 0.05970  0.44028  0.44028  Biso   1.000  I
  I8469    1.0000 0.94030  0.55972  0.44028  Biso   1.000  I
  I8470    1.0000 0.44028  0.44028  0.05970  Biso   1.000  I
  I8471    1.0000 0.55972  0.55972  0.05970  Biso   1.000  I
  I8472    1.0000 0.55972  0.44028  0.94030  Biso   1.000  I
  I8473    1.0000 0.94030  0.05970  0.94030  Biso   1.000  I
  I8474    1.0000 0.05970  0.05970  0.05970  Biso   1.000  I
  I8475    1.0000 0.94030  0.94030  0.05970  Biso   1.000  I
  I8476    1.0000 0.55972  0.44028  0.94030  Biso   1.000  I
  I8477    1.0000 0.55972  0.05970  0.55972  Biso   1.000  I
  I8478    1.0000 0.44028  0.94030  0.55972  Biso   1.000  I
  I8479    1.0000 0.05970  0.94030  0.94030  Biso   1.000  I
  I8480    1.0000 0.55972  0.55972  0.05970  Biso   1.000  I
  I8481    1.0000 0.55972  0.94030  0.44028  Biso   1.000  I
  I8482    1.0000 0.94030  0.94030  0.05970  Biso   1.000  I
  I8483    1.0000 0.55972  0.44028  0.94030  Biso   1.000  I
  I8484    1.0000 0.94030  0.44028  0.55972  Biso   1.000  I
  I8485    1.0000 0.55972  0.05970  0.55972  Biso   1.000  I
  I8486    1.0000 0.44028  0.94030  0.55972  Biso   1.000  I
  I8487    1.0000 0.05970  0.55972  0.55972  Biso   1.000  I
  I8488    1.0000 0.55972  0.55972  0.05970  Biso   1.000  I
  I8489    1.0000 0.55972  0.94030  0.44028  Biso   1.000  I
  I8490    1.0000 0.05970  0.55972  0.55972  Biso   1.000  I
  I8491    1.0000 0.44028  0.94030  0.55972  Biso   1.000  I
  I8492    1.0000 0.05970  0.94030  0.94030  Biso   1.000  I
  I8493    1.0000 0.94030  0.94030  0.05970  Biso   1.000  I
  I8494    1.0000 0.55972  0.94030  0.44028  Biso   1.000  I
  I8495    1.0000 0.94030  0.44028  0.55972  Biso   1.000  I
  I8496    1.0000 0.55972  0.05970  0.55972  Biso   1.000  I
  I8497    1.0000 0.98598  0.98598  0.01402  Biso   1.000  I
  I8498    1.0000 0.12502  0.87498  0.87498  Biso   1.000  I
  I8499    1.0000 0.12502  0.12502  0.12502  Biso   1.000  I
  I8500    1.0000 0.51400  0.51400  0.01402  Biso   1.000  I
  I8501    1.0000 0.37501  0.37501  0.12502  Biso   1.000  I
  I8502    1.0000 0.62499  0.37501  0.87498  Biso   1.000  I
  I8503    1.0000 0.98598  0.51400  0.48600  Biso   1.000  I
  I8504    1.0000 0.12502  0.62499  0.62499  Biso   1.000  I
  I8505    1.0000 0.12502  0.37501  0.37501  Biso   1.000  I
  I8506    1.0000 0.87498  0.37501  0.62499  Biso   1.000  I
  I8507    1.0000 0.98598  0.01402  0.98598  Biso   1.000  I
  I8508    1.0000 0.12502  0.87498  0.87498  Biso   1.000  I
  I8509    1.0000 0.12502  0.12502  0.12502  Biso   1.000  I
  I8510    1.0000 0.87498  0.87498  0.12502  Biso   1.000  I
  I8511    1.0000 0.98598  0.48600  0.51400  Biso   1.000  I
  I8512    1.0000 0.12502  0.62499  0.62499  Biso   1.000  I
  I8513    1.0000 0.12502  0.37501  0.37501  Biso   1.000  I
  I8514    1.0000 0.51400  0.48600  0.98598  Biso   1.000  I
  I8515    1.0000 0.37501  0.37501  0.12502  Biso   1.000  I
  I8516    1.0000 0.62499  0.62499  0.12502  Biso   1.000  I
  I8517    1.0000 0.87498  0.37501  0.62499  Biso   1.000  I
  I8518    1.0000 0.01402  0.51400  0.51400  Biso   1.000  I
  I8519    1.0000 0.12502  0.37501  0.37501  Biso   1.000  I
  I8520    1.0000 0.48600  0.51400  0.98598  Biso   1.000  I
  I8521    1.0000 0.37501  0.37501  0.12502  Biso   1.000  I
  I8522    1.0000 0.62499  0.62499  0.12502  Biso   1.000  I
  I8523    1.0000 0.62499  0.37501  0.87498  Biso   1.000  I
  I8524    1.0000 0.01402  0.98598  0.98598  Biso   1.000  I
  I8525    1.0000 0.12502  0.12502  0.12502  Biso   1.000  I
  I8526    1.0000 0.87498  0.87498  0.12502  Biso   1.000  I
  I8527    1.0000 0.48600  0.51400  0.98598  Biso   1.000  I
  I8528    1.0000 0.48600  0.48600  0.01402  Biso   1.000  I
  I8529    1.0000 0.51400  0.51400  0.01402  Biso   1.000  I
  I8530    1.0000 0.48600  0.98598  0.51400  Biso   1.000  I
  I8531    1.0000 0.51400  0.98598  0.48600  Biso   1.000  I
  I8532    1.0000 0.48600  0.01402  0.48600  Biso   1.000  I
  I8533    1.0000 0.51400  0.98598  0.48600  Biso   1.000  I
  I8534    1.0000 0.48600  0.01402  0.48600  Biso   1.000  I
  I8535    1.0000 0.51400  0.01402  0.51400  Biso   1.000  I
  I8536    1.0000 0.98598  0.98598  0.01402  Biso   1.000  I
  I8537    1.0000 0.98598  0.01402  0.98598  Biso   1.000  I
  I8538    1.0000 0.01402  0.01402  0.01402  Biso   1.000  I
  I8539    1.0000 0.51400  0.48600  0.98598  Biso   1.000  I
  I8540    1.0000 0.48600  0.51400  0.98598  Biso   1.000  I
  I8541    1.0000 0.48600  0.48600  0.01402  Biso   1.000  I
  I8542    1.0000 0.48600  0.98598  0.51400  Biso   1.000  I
  I8543    1.0000 0.48600  0.01402  0.48600  Biso   1.000  I
  I8544    1.0000 0.51400  0.01402  0.51400  Biso   1.000  I
  I8545    1.0000 0.98598  0.01402  0.98598  Biso   1.000  I
  I8546    1.0000 0.01402  0.98598  0.98598  Biso   1.000  I
  I8547    1.0000 0.01402  0.01402  0.01402  Biso   1.000  I
  I8548    1.0000 0.51400  0.51400  0.01402  Biso   1.000  I
  I8549    1.0000 0.98598  0.51400  0.48600  Biso   1.000  I
  I8550    1.0000 0.01402  0.51400  0.51400  Biso   1.000  I
  I8551    1.0000 0.01402  0.48600  0.48600  Biso   1.000  I
  I8552    1.0000 0.48600  0.98598  0.51400  Biso   1.000  I
  I8553    1.0000 0.51400  0.98598  0.48600  Biso   1.000  I
  I8554    1.0000 0.48600  0.01402  0.48600  Biso   1.000  I
  I8555    1.0000 0.51400  0.98598  0.48600  Biso   1.000  I
  I8556    1.0000 0.48600  0.01402  0.48600  Biso   1.000  I
  I8557    1.0000 0.51400  0.01402  0.51400  Biso   1.000  I
  I8558    1.0000 0.98598  0.51400  0.48600  Biso   1.000  I
  I8559    1.0000 0.98598  0.48600  0.51400  Biso   1.000  I
  I8560    1.0000 0.01402  0.48600  0.48600  Biso   1.000  I
  I8561    1.0000 0.51400  0.48600  0.98598  Biso   1.000  I
  I8562    1.0000 0.48600  0.51400  0.98598  Biso   1.000  I
  I8563    1.0000 0.48600  0.48600  0.01402  Biso   1.000  I
  I8564    1.0000 0.51400  0.01402  0.51400  Biso   1.000  I
  I8565    1.0000 0.98598  0.48600  0.51400  Biso   1.000  I
  I8566    1.0000 0.51400  0.98598  0.48600  Biso   1.000  I
  I8567    1.0000 0.48600  0.01402  0.48600  Biso   1.000  I
  I8568    1.0000 0.51400  0.01402  0.51400  Biso   1.000  I
  I8569    1.0000 0.98598  0.98598  0.01402  Biso   1.000  I
  I8570    1.0000 0.98598  0.01402  0.98598  Biso   1.000  I
  I8571    1.0000 0.01402  0.98598  0.98598  Biso   1.000  I
  I8572    1.0000 0.01402  0.01402  0.01402  Biso   1.000  I
  I8573    1.0000 0.48600  0.98598  0.51400  Biso   1.000  I
  I8574    1.0000 0.98598  0.51400  0.48600  Biso   1.000  I
  I8575    1.0000 0.01402  0.51400  0.51400  Biso   1.000  I
  I8576    1.0000 0.01402  0.48600  0.48600  Biso   1.000  I
  I8577    1.0000 0.48600  0.98598  0.51400  Biso   1.000  I
  I8578    1.0000 0.19029  0.80971  0.80971  Biso   1.000  I
  I8579    1.0000 0.19029  0.19029  0.19029  Biso   1.000  I
  I8580    1.0000 0.30969  0.30969  0.19029  Biso   1.000  I
  I8581    1.0000 0.69031  0.30969  0.80971  Biso   1.000  I
  I8582    1.0000 0.19029  0.69031  0.69031  Biso   1.000  I
  I8583    1.0000 0.19029  0.30969  0.30969  Biso   1.000  I
  I8584    1.0000 0.80971  0.30969  0.69031  Biso   1.000  I
  I8585    1.0000 0.19029  0.80971  0.80971  Biso   1.000  I
  I8586    1.0000 0.19029  0.19029  0.19029  Biso   1.000  I
  I8587    1.0000 0.80971  0.80971  0.19029  Biso   1.000  I
  I8588    1.0000 0.19029  0.69031  0.69031  Biso   1.000  I
  I8589    1.0000 0.19029  0.30969  0.30969  Biso   1.000  I
  I8590    1.0000 0.30969  0.30969  0.19029  Biso   1.000  I
  I8591    1.0000 0.69031  0.69031  0.19029  Biso   1.000  I
  I8592    1.0000 0.80971  0.30969  0.69031  Biso   1.000  I
  I8593    1.0000 0.19029  0.30969  0.30969  Biso   1.000  I
  I8594    1.0000 0.30969  0.30969  0.19029  Biso   1.000  I
  I8595    1.0000 0.69031  0.69031  0.19029  Biso   1.000  I
  I8596    1.0000 0.69031  0.30969  0.80971  Biso   1.000  I
  I8597    1.0000 0.19029  0.19029  0.19029  Biso   1.000  I
  I8598    1.0000 0.80971  0.80971  0.19029  Biso   1.000  I
  I8599    1.0000 0.44028  0.44028  0.05970  Biso   1.000  I
  I8600    1.0000 0.55972  0.55972  0.05970  Biso   1.000  I
  I8601    1.0000 0.44028  0.55972  0.94030  Biso   1.000  I
  I8602    1.0000 0.44028  0.05970  0.44028  Biso   1.000  I
  I8603    1.0000 0.44028  0.94030  0.55972  Biso   1.000  I
  I8604    1.0000 0.44028  0.05970  0.44028  Biso   1.000  I
  I8605    1.0000 0.55972  0.05970  0.55972  Biso   1.000  I
  I8606    1.0000 0.94030  0.05970  0.94030  Biso   1.000  I
  I8607    1.0000 0.05970  0.05970  0.05970  Biso   1.000  I
  I8608    1.0000 0.94030  0.94030  0.05970  Biso   1.000  I
  I8609    1.0000 0.44028  0.55972  0.94030  Biso   1.000  I
  I8610    1.0000 0.44028  0.44028  0.05970  Biso   1.000  I
  I8611    1.0000 0.44028  0.05970  0.44028  Biso   1.000  I
  I8612    1.0000 0.55972  0.05970  0.55972  Biso   1.000  I
  I8613    1.0000 0.44028  0.94030  0.55972  Biso   1.000  I
  I8614    1.0000 0.05970  0.05970  0.05970  Biso   1.000  I
  I8615    1.0000 0.94030  0.05970  0.94030  Biso   1.000  I
  I8616    1.0000 0.05970  0.44028  0.44028  Biso   1.000  I
  I8617    1.0000 0.94030  0.55972  0.44028  Biso   1.000  I
  I8618    1.0000 0.55972  0.94030  0.44028  Biso   1.000  I
  I8619    1.0000 0.44028  0.05970  0.44028  Biso   1.000  I
  I8620    1.0000 0.44028  0.94030  0.55972  Biso   1.000  I
  I8621    1.0000 0.44028  0.05970  0.44028  Biso   1.000  I
  I8622    1.0000 0.55972  0.94030  0.44028  Biso   1.000  I
  I8623    1.0000 0.94030  0.44028  0.55972  Biso   1.000  I
  I8624    1.0000 0.05970  0.44028  0.44028  Biso   1.000  I
  I8625    1.0000 0.94030  0.55972  0.44028  Biso   1.000  I
  I8626    1.0000 0.44028  0.55972  0.94030  Biso   1.000  I
  I8627    1.0000 0.44028  0.44028  0.05970  Biso   1.000  I
  I8628    1.0000 0.55972  0.44028  0.94030  Biso   1.000  I
  I8629    1.0000 0.44028  0.05970  0.44028  Biso   1.000  I
  I8630    1.0000 0.55972  0.05970  0.55972  Biso   1.000  I
  I8631    1.0000 0.55972  0.94030  0.44028  Biso   1.000  I
  I8632    1.0000 0.05970  0.94030  0.94030  Biso   1.000  I
  I8633    1.0000 0.05970  0.05970  0.05970  Biso   1.000  I
  I8634    1.0000 0.94030  0.05970  0.94030  Biso   1.000  I
  I8635    1.0000 0.05970  0.55972  0.55972  Biso   1.000  I
  I8636    1.0000 0.05970  0.44028  0.44028  Biso   1.000  I
  I8637    1.0000 0.94030  0.55972  0.44028  Biso   1.000  I
  I8638    1.0000 0.23601  0.73599  0.73599  Biso   1.000  I
  I8639    1.0000 0.26401  0.76399  0.73599  Biso   1.000  I
  I8640    1.0000 0.26401  0.73599  0.76399  Biso   1.000  I
  I8641    1.0000 0.26401  0.26401  0.23601  Biso   1.000  I
  I8642    1.0000 0.26401  0.23601  0.26401  Biso   1.000  I
  I8643    1.0000 0.23601  0.26401  0.26401  Biso   1.000  I
  I8644    1.0000 0.26401  0.23601  0.26401  Biso   1.000  I
  I8645    1.0000 0.23601  0.26401  0.26401  Biso   1.000  I
  I8646    1.0000 0.23601  0.23601  0.23601  Biso   1.000  I
  I8647    1.0000 0.73599  0.23601  0.73599  Biso   1.000  I
  I8648    1.0000 0.76399  0.23601  0.76399  Biso   1.000  I
  I8649    1.0000 0.76399  0.26401  0.73599  Biso   1.000  I
  I8650    1.0000 0.23601  0.76399  0.76399  Biso   1.000  I
  I8651    1.0000 0.26401  0.76399  0.73599  Biso   1.000  I
  I8652    1.0000 0.26401  0.73599  0.76399  Biso   1.000  I
  I8653    1.0000 0.26401  0.26401  0.23601  Biso   1.000  I
  I8654    1.0000 0.26401  0.23601  0.26401  Biso   1.000  I
  I8655    1.0000 0.23601  0.23601  0.23601  Biso   1.000  I
  I8656    1.0000 0.73599  0.23601  0.73599  Biso   1.000  I
  I8657    1.0000 0.73599  0.26401  0.76399  Biso   1.000  I
  I8658    1.0000 0.76399  0.23601  0.76399  Biso   1.000  I
  I8659    1.0000 0.23601  0.73599  0.73599  Biso   1.000  I
  I8660    1.0000 0.26401  0.26401  0.23601  Biso   1.000  I
  I8661    1.0000 0.26401  0.23601  0.26401  Biso   1.000  I
  I8662    1.0000 0.23601  0.26401  0.26401  Biso   1.000  I
  I8663    1.0000 0.76399  0.73599  0.26401  Biso   1.000  I
  I8664    1.0000 0.73599  0.73599  0.23601  Biso   1.000  I
  I8665    1.0000 0.73599  0.76399  0.26401  Biso   1.000  I
  I8666    1.0000 0.23601  0.76399  0.76399  Biso   1.000  I
  I8667    1.0000 0.26401  0.76399  0.73599  Biso   1.000  I
  I8668    1.0000 0.26401  0.73599  0.76399  Biso   1.000  I
  I8669    1.0000 0.23601  0.23601  0.23601  Biso   1.000  I
  I8670    1.0000 0.26401  0.23601  0.26401  Biso   1.000  I
  I8671    1.0000 0.23601  0.26401  0.26401  Biso   1.000  I
  I8672    1.0000 0.23601  0.23601  0.23601  Biso   1.000  I
  I8673    1.0000 0.76399  0.73599  0.26401  Biso   1.000  I
  I8674    1.0000 0.76399  0.76399  0.23601  Biso   1.000  I
  I8675    1.0000 0.73599  0.76399  0.26401  Biso   1.000  I
  I8676    1.0000 0.73599  0.23601  0.73599  Biso   1.000  I
  I8677    1.0000 0.73599  0.26401  0.76399  Biso   1.000  I
  I8678    1.0000 0.76399  0.23601  0.76399  Biso   1.000  I
  I8679    1.0000 0.26401  0.26401  0.23601  Biso   1.000  I
  I8680    1.0000 0.26401  0.23601  0.26401  Biso   1.000  I
  I8681    1.0000 0.23601  0.26401  0.26401  Biso   1.000  I
  I8682    1.0000 0.23601  0.23601  0.23601  Biso   1.000  I
  I8683    1.0000 0.76399  0.76399  0.23601  Biso   1.000  I
  I8684    1.0000 0.76399  0.26401  0.73599  Biso   1.000  I
  I8685    1.0000 0.26401  0.26401  0.23601  Biso   1.000  I
  I8686    1.0000 0.76399  0.73599  0.26401  Biso   1.000  I
  I8687    1.0000 0.73599  0.73599  0.23601  Biso   1.000  I
  I8688    1.0000 0.73599  0.76399  0.26401  Biso   1.000  I
  I8689    1.0000 0.51400  0.48600  0.98598  Biso   1.000  I
  I8690    1.0000 0.37501  0.37501  0.12502  Biso   1.000  I
  I8691    1.0000 0.62499  0.62499  0.12502  Biso   1.000  I
  I8692    1.0000 0.37501  0.62499  0.87498  Biso   1.000  I
  I8693    1.0000 0.37501  0.12502  0.37501  Biso   1.000  I
  I8694    1.0000 0.37501  0.87498  0.62499  Biso   1.000  I
  I8695    1.0000 0.37501  0.12502  0.37501  Biso   1.000  I
  I8696    1.0000 0.62499  0.12502  0.62499  Biso   1.000  I
  I8697    1.0000 0.87498  0.12502  0.87498  Biso   1.000  I
  I8698    1.0000 0.01402  0.98598  0.98598  Biso   1.000  I
  I8699    1.0000 0.12502  0.12502  0.12502  Biso   1.000  I
  I8700    1.0000 0.87498  0.87498  0.12502  Biso   1.000  I
  I8701    1.0000 0.37501  0.62499  0.87498  Biso   1.000  I
  I8702    1.0000 0.37501  0.37501  0.12502  Biso   1.000  I
  I8703    1.0000 0.51400  0.98598  0.48600  Biso   1.000  I
  I8704    1.0000 0.37501  0.12502  0.37501  Biso   1.000  I
  I8705    1.0000 0.62499  0.12502  0.62499  Biso   1.000  I
  I8706    1.0000 0.37501  0.87498  0.62499  Biso   1.000  I
  I8707    1.0000 0.12502  0.12502  0.12502  Biso   1.000  I
  I8708    1.0000 0.87498  0.12502  0.87498  Biso   1.000  I
  I8709    1.0000 0.12502  0.37501  0.37501  Biso   1.000  I
  I8710    1.0000 0.87498  0.62499  0.37501  Biso   1.000  I
  I8711    1.0000 0.62499  0.87498  0.37501  Biso   1.000  I
  I8712    1.0000 0.51400  0.01402  0.51400  Biso   1.000  I
  I8713    1.0000 0.37501  0.12502  0.37501  Biso   1.000  I
  I8714    1.0000 0.37501  0.87498  0.62499  Biso   1.000  I
  I8715    1.0000 0.37501  0.12502  0.37501  Biso   1.000  I
  I8716    1.0000 0.62499  0.87498  0.37501  Biso   1.000  I
  I8717    1.0000 0.87498  0.37501  0.62499  Biso   1.000  I
  I8718    1.0000 0.01402  0.51400  0.51400  Biso   1.000  I
  I8719    1.0000 0.12502  0.37501  0.37501  Biso   1.000  I
  I8720    1.0000 0.87498  0.62499  0.37501  Biso   1.000  I
  I8721    1.0000 0.37501  0.62499  0.87498  Biso   1.000  I
  I8722    1.0000 0.51400  0.51400  0.01402  Biso   1.000  I
  I8723    1.0000 0.37501  0.37501  0.12502  Biso   1.000  I
  I8724    1.0000 0.62499  0.37501  0.87498  Biso   1.000  I
  I8725    1.0000 0.48600  0.98598  0.51400  Biso   1.000  I
  I8726    1.0000 0.37501  0.12502  0.37501  Biso   1.000  I
  I8727    1.0000 0.62499  0.12502  0.62499  Biso   1.000  I
  I8728    1.0000 0.62499  0.87498  0.37501  Biso   1.000  I
  I8729    1.0000 0.98598  0.98598  0.01402  Biso   1.000  I
  I8730    1.0000 0.12502  0.87498  0.87498  Biso   1.000  I
  I8731    1.0000 0.12502  0.12502  0.12502  Biso   1.000  I
  I8732    1.0000 0.87498  0.12502  0.87498  Biso   1.000  I
  I8733    1.0000 0.98598  0.48600  0.51400  Biso   1.000  I
  I8734    1.0000 0.12502  0.62499  0.62499  Biso   1.000  I
  I8735    1.0000 0.12502  0.37501  0.37501  Biso   1.000  I
  I8736    1.0000 0.87498  0.62499  0.37501  Biso   1.000  I
  I8737    1.0000 0.30969  0.80971  0.69031  Biso   1.000  I
  I8738    1.0000 0.30969  0.69031  0.80971  Biso   1.000  I
  I8739    1.0000 0.19029  0.69031  0.69031  Biso   1.000  I
  I8740    1.0000 0.30969  0.19029  0.30969  Biso   1.000  I
  I8741    1.0000 0.30969  0.30969  0.19029  Biso   1.000  I
  I8742    1.0000 0.19029  0.19029  0.19029  Biso   1.000  I
  I8743    1.0000 0.30969  0.19029  0.30969  Biso   1.000  I
  I8744    1.0000 0.80971  0.19029  0.80971  Biso   1.000  I
  I8745    1.0000 0.80971  0.30969  0.69031  Biso   1.000  I
  I8746    1.0000 0.69031  0.19029  0.69031  Biso   1.000  I
  I8747    1.0000 0.30969  0.80971  0.69031  Biso   1.000  I
  I8748    1.0000 0.30969  0.69031  0.80971  Biso   1.000  I
  I8749    1.0000 0.30969  0.19029  0.30969  Biso   1.000  I
  I8750    1.0000 0.19029  0.19029  0.19029  Biso   1.000  I
  I8751    1.0000 0.30969  0.30969  0.19029  Biso   1.000  I
  I8752    1.0000 0.80971  0.19029  0.80971  Biso   1.000  I
  I8753    1.0000 0.69031  0.19029  0.69031  Biso   1.000  I
  I8754    1.0000 0.30969  0.19029  0.30969  Biso   1.000  I
  I8755    1.0000 0.19029  0.30969  0.30969  Biso   1.000  I
  I8756    1.0000 0.30969  0.30969  0.19029  Biso   1.000  I
  I8757    1.0000 0.69031  0.80971  0.30969  Biso   1.000  I
  I8758    1.0000 0.80971  0.69031  0.30969  Biso   1.000  I
  I8759    1.0000 0.30969  0.80971  0.69031  Biso   1.000  I
  I8760    1.0000 0.30969  0.69031  0.80971  Biso   1.000  I
  I8761    1.0000 0.19029  0.80971  0.80971  Biso   1.000  I
  I8762    1.0000 0.19029  0.30969  0.30969  Biso   1.000  I
  I8763    1.0000 0.30969  0.19029  0.30969  Biso   1.000  I
  I8764    1.0000 0.80971  0.80971  0.19029  Biso   1.000  I
  I8765    1.0000 0.69031  0.80971  0.30969  Biso   1.000  I
  I8766    1.0000 0.80971  0.69031  0.30969  Biso   1.000  I
  I8767    1.0000 0.69031  0.30969  0.80971  Biso   1.000  I
  I8768    1.0000 0.80971  0.19029  0.80971  Biso   1.000  I
  I8769    1.0000 0.69031  0.19029  0.69031  Biso   1.000  I
  I8770    1.0000 0.19029  0.30969  0.30969  Biso   1.000  I
  I8771    1.0000 0.19029  0.19029  0.19029  Biso   1.000  I
  I8772    1.0000 0.30969  0.19029  0.30969  Biso   1.000  I
  I8773    1.0000 0.69031  0.69031  0.19029  Biso   1.000  I
  I8774    1.0000 0.69031  0.80971  0.30969  Biso   1.000  I
  I8775    1.0000 0.80971  0.69031  0.30969  Biso   1.000  I
  I8776    1.0000 0.30969  0.30969  0.19029  Biso   1.000  I
  I8777    1.0000 0.69031  0.69031  0.19029  Biso   1.000  I
  I8778    1.0000 0.30969  0.69031  0.80971  Biso   1.000  I
  I8779    1.0000 0.30969  0.19029  0.30969  Biso   1.000  I
  I8780    1.0000 0.30969  0.80971  0.69031  Biso   1.000  I
  I8781    1.0000 0.30969  0.19029  0.30969  Biso   1.000  I
  I8782    1.0000 0.69031  0.19029  0.69031  Biso   1.000  I
  I8783    1.0000 0.80971  0.19029  0.80971  Biso   1.000  I
  I8784    1.0000 0.19029  0.19029  0.19029  Biso   1.000  I
  I8785    1.0000 0.80971  0.80971  0.19029  Biso   1.000  I
  I8786    1.0000 0.30969  0.69031  0.80971  Biso   1.000  I
  I8787    1.0000 0.30969  0.30969  0.19029  Biso   1.000  I
  I8788    1.0000 0.30969  0.19029  0.30969  Biso   1.000  I
  I8789    1.0000 0.69031  0.19029  0.69031  Biso   1.000  I
  I8790    1.0000 0.30969  0.80971  0.69031  Biso   1.000  I
  I8791    1.0000 0.19029  0.19029  0.19029  Biso   1.000  I
  I8792    1.0000 0.80971  0.19029  0.80971  Biso   1.000  I
  I8793    1.0000 0.19029  0.30969  0.30969  Biso   1.000  I
  I8794    1.0000 0.80971  0.69031  0.30969  Biso   1.000  I
  I8795    1.0000 0.69031  0.80971  0.30969  Biso   1.000  I
  I8796    1.0000 0.30969  0.19029  0.30969  Biso   1.000  I
  I8797    1.0000 0.30969  0.80971  0.69031  Biso   1.000  I
  I8798    1.0000 0.30969  0.19029  0.30969  Biso   1.000  I
  I8799    1.0000 0.69031  0.80971  0.30969  Biso   1.000  I
  I8800    1.0000 0.80971  0.30969  0.69031  Biso   1.000  I
  I8801    1.0000 0.19029  0.30969  0.30969  Biso   1.000  I
  I8802    1.0000 0.80971  0.69031  0.30969  Biso   1.000  I
  I8803    1.0000 0.30969  0.69031  0.80971  Biso   1.000  I
  I8804    1.0000 0.30969  0.30969  0.19029  Biso   1.000  I
  I8805    1.0000 0.69031  0.30969  0.80971  Biso   1.000  I
  I8806    1.0000 0.30969  0.19029  0.30969  Biso   1.000  I
  I8807    1.0000 0.69031  0.19029  0.69031  Biso   1.000  I
  I8808    1.0000 0.69031  0.80971  0.30969  Biso   1.000  I
  I8809    1.0000 0.19029  0.80971  0.80971  Biso   1.000  I
  I8810    1.0000 0.19029  0.19029  0.19029  Biso   1.000  I
  I8811    1.0000 0.80971  0.19029  0.80971  Biso   1.000  I
  I8812    1.0000 0.19029  0.69031  0.69031  Biso   1.000  I
  I8813    1.0000 0.19029  0.30969  0.30969  Biso   1.000  I
  I8814    1.0000 0.80971  0.69031  0.30969  Biso   1.000  I
  I8815    1.0000 0.37501  0.87498  0.62499  Biso   1.000  I
  I8816    1.0000 0.23601  0.76399  0.76399  Biso   1.000  I
  I8817    1.0000 0.37501  0.62499  0.87498  Biso   1.000  I
  I8818    1.0000 0.12502  0.62499  0.62499  Biso   1.000  I
  I8819    1.0000 0.37501  0.12502  0.37501  Biso   1.000  I
  I8820    1.0000 0.37501  0.37501  0.12502  Biso   1.000  I
  I8821    1.0000 0.12502  0.12502  0.12502  Biso   1.000  I
  I8822    1.0000 0.37501  0.12502  0.37501  Biso   1.000  I
  I8823    1.0000 0.87498  0.12502  0.87498  Biso   1.000  I
  I8824    1.0000 0.73599  0.26401  0.76399  Biso   1.000  I
  I8825    1.0000 0.87498  0.37501  0.62499  Biso   1.000  I
  I8826    1.0000 0.62499  0.12502  0.62499  Biso   1.000  I
  I8827    1.0000 0.37501  0.87498  0.62499  Biso   1.000  I
  I8828    1.0000 0.37501  0.62499  0.87498  Biso   1.000  I
  I8829    1.0000 0.37501  0.12502  0.37501  Biso   1.000  I
  I8830    1.0000 0.23601  0.26401  0.26401  Biso   1.000  I
  I8831    1.0000 0.12502  0.12502  0.12502  Biso   1.000  I
  I8832    1.0000 0.37501  0.37501  0.12502  Biso   1.000  I
  I8833    1.0000 0.87498  0.12502  0.87498  Biso   1.000  I
  I8834    1.0000 0.62499  0.12502  0.62499  Biso   1.000  I
  I8835    1.0000 0.37501  0.12502  0.37501  Biso   1.000  I
  I8836    1.0000 0.23601  0.23601  0.23601  Biso   1.000  I
  I8837    1.0000 0.12502  0.37501  0.37501  Biso   1.000  I
  I8838    1.0000 0.37501  0.37501  0.12502  Biso   1.000  I
  I8839    1.0000 0.62499  0.87498  0.37501  Biso   1.000  I
  I8840    1.0000 0.87498  0.62499  0.37501  Biso   1.000  I
  I8841    1.0000 0.37501  0.87498  0.62499  Biso   1.000  I
  I8842    1.0000 0.23601  0.73599  0.73599  Biso   1.000  I
  I8843    1.0000 0.37501  0.62499  0.87498  Biso   1.000  I
  I8844    1.0000 0.12502  0.87498  0.87498  Biso   1.000  I
  I8845    1.0000 0.12502  0.37501  0.37501  Biso   1.000  I
  I8846    1.0000 0.37501  0.12502  0.37501  Biso   1.000  I
  I8847    1.0000 0.87498  0.87498  0.12502  Biso   1.000  I
  I8848    1.0000 0.73599  0.73599  0.23601  Biso   1.000  I
  I8849    1.0000 0.62499  0.87498  0.37501  Biso   1.000  I
  I8850    1.0000 0.87498  0.62499  0.37501  Biso   1.000  I
  I8851    1.0000 0.62499  0.37501  0.87498  Biso   1.000  I
  I8852    1.0000 0.76399  0.26401  0.73599  Biso   1.000  I
  I8853    1.0000 0.87498  0.12502  0.87498  Biso   1.000  I
  I8854    1.0000 0.62499  0.12502  0.62499  Biso   1.000  I
  I8855    1.0000 0.12502  0.37501  0.37501  Biso   1.000  I
  I8856    1.0000 0.26401  0.26401  0.23601  Biso   1.000  I
  I8857    1.0000 0.12502  0.12502  0.12502  Biso   1.000  I
  I8858    1.0000 0.37501  0.12502  0.37501  Biso   1.000  I
  I8859    1.0000 0.62499  0.62499  0.12502  Biso   1.000  I
  I8860    1.0000 0.76399  0.76399  0.23601  Biso   1.000  I
  I8861    1.0000 0.62499  0.87498  0.37501  Biso   1.000  I
  I8862    1.0000 0.87498  0.62499  0.37501  Biso   1.000  I
  I8863    1.0000 0.26401  0.23601  0.26401  Biso   1.000  I
  I8864    1.0000 0.23601  0.26401  0.26401  Biso   1.000  I
  I8865    1.0000 0.23601  0.23601  0.23601  Biso   1.000  I
  I8866    1.0000 0.76399  0.73599  0.26401  Biso   1.000  I
  I8867    1.0000 0.76399  0.76399  0.23601  Biso   1.000  I
  I8868    1.0000 0.73599  0.76399  0.26401  Biso   1.000  I
  I8869    1.0000 0.23601  0.76399  0.76399  Biso   1.000  I
  I8870    1.0000 0.23601  0.73599  0.73599  Biso   1.000  I
  I8871    1.0000 0.26401  0.76399  0.73599  Biso   1.000  I
  I8872    1.0000 0.26401  0.26401  0.23601  Biso   1.000  I
  I8873    1.0000 0.23601  0.26401  0.26401  Biso   1.000  I
  I8874    1.0000 0.23601  0.23601  0.23601  Biso   1.000  I
  I8875    1.0000 0.23601  0.76399  0.76399  Biso   1.000  I
  I8876    1.0000 0.23601  0.73599  0.73599  Biso   1.000  I
  I8877    1.0000 0.26401  0.73599  0.76399  Biso   1.000  I
  I8878    1.0000 0.26401  0.26401  0.23601  Biso   1.000  I
  I8879    1.0000 0.23601  0.26401  0.26401  Biso   1.000  I
  I8880    1.0000 0.23601  0.23601  0.23601  Biso   1.000  I
  I8881    1.0000 0.73599  0.26401  0.76399  Biso   1.000  I
  I8882    1.0000 0.76399  0.23601  0.76399  Biso   1.000  I
  I8883    1.0000 0.76399  0.26401  0.73599  Biso   1.000  I
  I8884    1.0000 0.73599  0.23601  0.73599  Biso   1.000  I
  I8885    1.0000 0.73599  0.26401  0.76399  Biso   1.000  I
  I8886    1.0000 0.76399  0.26401  0.73599  Biso   1.000  I
  I8887    1.0000 0.26401  0.26401  0.23601  Biso   1.000  I
  I8888    1.0000 0.26401  0.23601  0.26401  Biso   1.000  I
  I8889    1.0000 0.23601  0.26401  0.26401  Biso   1.000  I
  I8890    1.0000 0.73599  0.73599  0.23601  Biso   1.000  I
  I8891    1.0000 0.23601  0.76399  0.76399  Biso   1.000  I
  I8892    1.0000 0.23601  0.73599  0.73599  Biso   1.000  I
  I8893    1.0000 0.26401  0.76399  0.73599  Biso   1.000  I
  I8894    1.0000 0.26401  0.23601  0.26401  Biso   1.000  I
  I8895    1.0000 0.26401  0.26401  0.23601  Biso   1.000  I
  I8896    1.0000 0.23601  0.26401  0.26401  Biso   1.000  I
  I8897    1.0000 0.23601  0.23601  0.23601  Biso   1.000  I
  I8898    1.0000 0.76399  0.23601  0.76399  Biso   1.000  I
  I8899    1.0000 0.26401  0.73599  0.76399  Biso   1.000  I
  I8900    1.0000 0.26401  0.23601  0.26401  Biso   1.000  I
  I8901    1.0000 0.73599  0.23601  0.73599  Biso   1.000  I
  I8902    1.0000 0.73599  0.26401  0.76399  Biso   1.000  I
  I8903    1.0000 0.76399  0.26401  0.73599  Biso   1.000  I
  I8904    1.0000 0.26401  0.26401  0.23601  Biso   1.000  I
  I8905    1.0000 0.26401  0.23601  0.26401  Biso   1.000  I
  I8906    1.0000 0.23601  0.23601  0.23601  Biso   1.000  I
  I8907    1.0000 0.76399  0.76399  0.23601  Biso   1.000  I
  I8908    1.0000 0.73599  0.73599  0.23601  Biso   1.000  I
  I8909    1.0000 0.73599  0.76399  0.26401  Biso   1.000  I
  I8910    1.0000 0.76399  0.73599  0.26401  Biso   1.000  I
  I8911    1.0000 0.76399  0.76399  0.23601  Biso   1.000  I
  I8912    1.0000 0.73599  0.73599  0.23601  Biso   1.000  I
  I8913    1.0000 0.26401  0.26401  0.23601  Biso   1.000  I
  I8914    1.0000 0.23601  0.26401  0.26401  Biso   1.000  I
  I8915    1.0000 0.23601  0.23601  0.23601  Biso   1.000  I
  I8916    1.0000 0.23601  0.76399  0.76399  Biso   1.000  I
  I8917    1.0000 0.23601  0.73599  0.73599  Biso   1.000  I
  I8918    1.0000 0.26401  0.73599  0.76399  Biso   1.000  I
  I8919    1.0000 0.23601  0.26401  0.26401  Biso   1.000  I
  I8920    1.0000 0.76399  0.73599  0.26401  Biso   1.000  I
  I8921    1.0000 0.76399  0.76399  0.23601  Biso   1.000  I
  I8922    1.0000 0.73599  0.73599  0.23601  Biso   1.000  I
  I8923    1.0000 0.73599  0.23601  0.73599  Biso   1.000  I
  I8924    1.0000 0.73599  0.26401  0.76399  Biso   1.000  I
  I8925    1.0000 0.76399  0.23601  0.76399  Biso   1.000  I
  I8926    1.0000 0.26401  0.26401  0.23601  Biso   1.000  I
  I8927    1.0000 0.26401  0.23601  0.26401  Biso   1.000  I
  I8928    1.0000 0.23601  0.23601  0.23601  Biso   1.000  I
  I8929    1.0000 0.73599  0.76399  0.26401  Biso   1.000  I
  I8930    1.0000 0.26401  0.76399  0.73599  Biso   1.000  I
  I8931    1.0000 0.26401  0.23601  0.26401  Biso   1.000  I
  I8932    1.0000 0.23601  0.26401  0.26401  Biso   1.000  I
  I8933    1.0000 0.23601  0.23601  0.23601  Biso   1.000  I
  I8934    1.0000 0.76399  0.26401  0.73599  Biso   1.000  I
  I8935    1.0000 0.26401  0.26401  0.23601  Biso   1.000  I
  I8936    1.0000 0.23601  0.26401  0.26401  Biso   1.000  I
  I8937    1.0000 0.23601  0.23601  0.23601  Biso   1.000  I
  I8938    1.0000 0.73599  0.26401  0.76399  Biso   1.000  I
  I8939    1.0000 0.76399  0.23601  0.76399  Biso   1.000  I
  I8940    1.0000 0.76399  0.26401  0.73599  Biso   1.000  I
  I8941    1.0000 0.76399  0.73599  0.26401  Biso   1.000  I
  I8942    1.0000 0.76399  0.76399  0.23601  Biso   1.000  I
  I8943    1.0000 0.73599  0.73599  0.23601  Biso   1.000  I
  I8944    1.0000 0.23601  0.73599  0.73599  Biso   1.000  I
  I8945    1.0000 0.26401  0.76399  0.73599  Biso   1.000  I
  I8946    1.0000 0.26401  0.73599  0.76399  Biso   1.000  I
  I8947    1.0000 0.26401  0.26401  0.23601  Biso   1.000  I
  I8948    1.0000 0.26401  0.23601  0.26401  Biso   1.000  I
  I8949    1.0000 0.23601  0.26401  0.26401  Biso   1.000  I
  I8950    1.0000 0.73599  0.23601  0.73599  Biso   1.000  I
  I8951    1.0000 0.23601  0.76399  0.76399  Biso   1.000  I
  I8952    1.0000 0.26401  0.26401  0.23601  Biso   1.000  I
  I8953    1.0000 0.26401  0.23601  0.26401  Biso   1.000  I
  I8954    1.0000 0.23601  0.23601  0.23601  Biso   1.000  I
  I8955    1.0000 0.73599  0.76399  0.26401  Biso   1.000  I
  I8956    1.0000 0.44028  0.94030  0.55972  Biso   1.000  I
  I8957    1.0000 0.44028  0.55972  0.94030  Biso   1.000  I
  I8958    1.0000 0.05970  0.55972  0.55972  Biso   1.000  I
  I8959    1.0000 0.44028  0.05970  0.44028  Biso   1.000  I
  I8960    1.0000 0.44028  0.44028  0.05970  Biso   1.000  I
  I8961    1.0000 0.05970  0.05970  0.05970  Biso   1.000  I
  I8962    1.0000 0.44028  0.05970  0.44028  Biso   1.000  I
  I8963    1.0000 0.94030  0.05970  0.94030  Biso   1.000  I
  I8964    1.0000 0.94030  0.44028  0.55972  Biso   1.000  I
  I8965    1.0000 0.55972  0.05970  0.55972  Biso   1.000  I
  I8966    1.0000 0.44028  0.94030  0.55972  Biso   1.000  I
  I8967    1.0000 0.44028  0.55972  0.94030  Biso   1.000  I
  I8968    1.0000 0.44028  0.05970  0.44028  Biso   1.000  I
  I8969    1.0000 0.05970  0.05970  0.05970  Biso   1.000  I
  I8970    1.0000 0.44028  0.44028  0.05970  Biso   1.000  I
  I8971    1.0000 0.94030  0.05970  0.94030  Biso   1.000  I
  I8972    1.0000 0.55972  0.05970  0.55972  Biso   1.000  I
  I8973    1.0000 0.44028  0.05970  0.44028  Biso   1.000  I
  I8974    1.0000 0.05970  0.44028  0.44028  Biso   1.000  I
  I8975    1.0000 0.44028  0.44028  0.05970  Biso   1.000  I
  I8976    1.0000 0.55972  0.94030  0.44028  Biso   1.000  I
  I8977    1.0000 0.94030  0.55972  0.44028  Biso   1.000  I
  I8978    1.0000 0.44028  0.94030  0.55972  Biso   1.000  I
  I8979    1.0000 0.44028  0.55972  0.94030  Biso   1.000  I
  I8980    1.0000 0.05970  0.94030  0.94030  Biso   1.000  I
  I8981    1.0000 0.05970  0.44028  0.44028  Biso   1.000  I
  I8982    1.0000 0.44028  0.05970  0.44028  Biso   1.000  I
  I8983    1.0000 0.94030  0.94030  0.05970  Biso   1.000  I
  I8984    1.0000 0.55972  0.94030  0.44028  Biso   1.000  I
  I8985    1.0000 0.94030  0.55972  0.44028  Biso   1.000  I
  I8986    1.0000 0.55972  0.44028  0.94030  Biso   1.000  I
  I8987    1.0000 0.94030  0.05970  0.94030  Biso   1.000  I
  I8988    1.0000 0.55972  0.05970  0.55972  Biso   1.000  I
  I8989    1.0000 0.05970  0.44028  0.44028  Biso   1.000  I
  I8990    1.0000 0.05970  0.05970  0.05970  Biso   1.000  I
  I8991    1.0000 0.44028  0.05970  0.44028  Biso   1.000  I
  I8992    1.0000 0.55972  0.55972  0.05970  Biso   1.000  I
  I8993    1.0000 0.55972  0.94030  0.44028  Biso   1.000  I
  I8994    1.0000 0.94030  0.55972  0.44028  Biso   1.000  I
  I8995    1.0000 0.19029  0.30969  0.30969  Biso   1.000  I
  I8996    1.0000 0.19029  0.19029  0.19029  Biso   1.000  I
  I8997    1.0000 0.30969  0.19029  0.30969  Biso   1.000  I
  I8998    1.0000 0.69031  0.80971  0.30969  Biso   1.000  I
  I8999    1.0000 0.80971  0.69031  0.30969  Biso   1.000  I
  I9000    1.0000 0.19029  0.69031  0.69031  Biso   1.000  I
  I9001    1.0000 0.19029  0.80971  0.80971  Biso   1.000  I
  I9002    1.0000 0.19029  0.30969  0.30969  Biso   1.000  I
  I9003    1.0000 0.19029  0.19029  0.19029  Biso   1.000  I
  I9004    1.0000 0.19029  0.69031  0.69031  Biso   1.000  I
  I9005    1.0000 0.30969  0.69031  0.80971  Biso   1.000  I
  I9006    1.0000 0.19029  0.80971  0.80971  Biso   1.000  I
  I9007    1.0000 0.19029  0.30969  0.30969  Biso   1.000  I
  I9008    1.0000 0.30969  0.30969  0.19029  Biso   1.000  I
  I9009    1.0000 0.80971  0.19029  0.80971  Biso   1.000  I
  I9010    1.0000 0.80971  0.30969  0.69031  Biso   1.000  I
  I9011    1.0000 0.69031  0.30969  0.80971  Biso   1.000  I
  I9012    1.0000 0.69031  0.30969  0.80971  Biso   1.000  I
  I9013    1.0000 0.80971  0.30969  0.69031  Biso   1.000  I
  I9014    1.0000 0.30969  0.19029  0.30969  Biso   1.000  I
  I9015    1.0000 0.19029  0.30969  0.30969  Biso   1.000  I
  I9016    1.0000 0.30969  0.30969  0.19029  Biso   1.000  I
  I9017    1.0000 0.19029  0.69031  0.69031  Biso   1.000  I
  I9018    1.0000 0.30969  0.80971  0.69031  Biso   1.000  I
  I9019    1.0000 0.19029  0.80971  0.80971  Biso   1.000  I
  I9020    1.0000 0.19029  0.30969  0.30969  Biso   1.000  I
  I9021    1.0000 0.19029  0.19029  0.19029  Biso   1.000  I
  I9022    1.0000 0.30969  0.30969  0.19029  Biso   1.000  I
  I9023    1.0000 0.69031  0.30969  0.80971  Biso   1.000  I
  I9024    1.0000 0.80971  0.30969  0.69031  Biso   1.000  I
  I9025    1.0000 0.69031  0.19029  0.69031  Biso   1.000  I
  I9026    1.0000 0.19029  0.19029  0.19029  Biso   1.000  I
  I9027    1.0000 0.30969  0.30969  0.19029  Biso   1.000  I
  I9028    1.0000 0.69031  0.69031  0.19029  Biso   1.000  I
  I9029    1.0000 0.69031  0.80971  0.30969  Biso   1.000  I
  I9030    1.0000 0.80971  0.80971  0.19029  Biso   1.000  I
  I9031    1.0000 0.80971  0.80971  0.19029  Biso   1.000  I
  I9032    1.0000 0.69031  0.69031  0.19029  Biso   1.000  I
  I9033    1.0000 0.19029  0.30969  0.30969  Biso   1.000  I
  I9034    1.0000 0.19029  0.19029  0.19029  Biso   1.000  I
  I9035    1.0000 0.30969  0.30969  0.19029  Biso   1.000  I
  I9036    1.0000 0.19029  0.69031  0.69031  Biso   1.000  I
  I9037    1.0000 0.19029  0.80971  0.80971  Biso   1.000  I
  I9038    1.0000 0.80971  0.80971  0.19029  Biso   1.000  I
  I9039    1.0000 0.69031  0.69031  0.19029  Biso   1.000  I
  I9040    1.0000 0.80971  0.69031  0.30969  Biso   1.000  I
  I9041    1.0000 0.80971  0.19029  0.80971  Biso   1.000  I
  I9042    1.0000 0.69031  0.19029  0.69031  Biso   1.000  I
  I9043    1.0000 0.30969  0.19029  0.30969  Biso   1.000  I
  I9044    1.0000 0.19029  0.19029  0.19029  Biso   1.000  I
  I9045    1.0000 0.30969  0.30969  0.19029  Biso   1.000  I
  I9046    1.0000 0.19029  0.30969  0.30969  Biso   1.000  I
  I9047    1.0000 0.19029  0.19029  0.19029  Biso   1.000  I
  I9048    1.0000 0.30969  0.19029  0.30969  Biso   1.000  I
  I9049    1.0000 0.19029  0.30969  0.30969  Biso   1.000  I
  I9050    1.0000 0.19029  0.19029  0.19029  Biso   1.000  I
  I9051    1.0000 0.30969  0.30969  0.19029  Biso   1.000  I
  I9052    1.0000 0.80971  0.30969  0.69031  Biso   1.000  I
  I9053    1.0000 0.69031  0.30969  0.80971  Biso   1.000  I
  I9054    1.0000 0.80971  0.80971  0.19029  Biso   1.000  I
  I9055    1.0000 0.69031  0.69031  0.19029  Biso   1.000  I
  I9056    1.0000 0.30969  0.80971  0.69031  Biso   1.000  I
  I9057    1.0000 0.30969  0.69031  0.80971  Biso   1.000  I
  I9058    1.0000 0.30969  0.19029  0.30969  Biso   1.000  I
  I9059    1.0000 0.19029  0.30969  0.30969  Biso   1.000  I
  I9060    1.0000 0.30969  0.30969  0.19029  Biso   1.000  I
  I9061    1.0000 0.30969  0.19029  0.30969  Biso   1.000  I
  I9062    1.0000 0.19029  0.19029  0.19029  Biso   1.000  I
  I9063    1.0000 0.30969  0.30969  0.19029  Biso   1.000  I
  I9064    1.0000 0.51400  0.98598  0.48600  Biso   1.000  I
  I9065    1.0000 0.48600  0.01402  0.48600  Biso   1.000  I
  I9066    1.0000 0.51400  0.01402  0.51400  Biso   1.000  I
  I9067    1.0000 0.51400  0.48600  0.98598  Biso   1.000  I
  I9068    1.0000 0.48600  0.48600  0.01402  Biso   1.000  I
  I9069    1.0000 0.51400  0.51400  0.01402  Biso   1.000  I
  I9070    1.0000 0.98598  0.51400  0.48600  Biso   1.000  I
  I9071    1.0000 0.98598  0.48600  0.51400  Biso   1.000  I
  I9072    1.0000 0.01402  0.48600  0.48600  Biso   1.000  I
  I9073    1.0000 0.48600  0.98598  0.51400  Biso   1.000  I
  I9074    1.0000 0.51400  0.98598  0.48600  Biso   1.000  I
  I9075    1.0000 0.51400  0.01402  0.51400  Biso   1.000  I
  I9076    1.0000 0.51400  0.48600  0.98598  Biso   1.000  I
  I9077    1.0000 0.48600  0.51400  0.98598  Biso   1.000  I
  I9078    1.0000 0.51400  0.51400  0.01402  Biso   1.000  I
  I9079    1.0000 0.98598  0.01402  0.98598  Biso   1.000  I
  I9080    1.0000 0.51400  0.01402  0.51400  Biso   1.000  I
  I9081    1.0000 0.01402  0.01402  0.01402  Biso   1.000  I
  I9082    1.0000 0.01402  0.51400  0.51400  Biso   1.000  I
  I9083    1.0000 0.48600  0.01402  0.48600  Biso   1.000  I
  I9084    1.0000 0.48600  0.01402  0.48600  Biso   1.000  I
  I9085    1.0000 0.51400  0.48600  0.98598  Biso   1.000  I
  I9086    1.0000 0.48600  0.48600  0.01402  Biso   1.000  I
  I9087    1.0000 0.51400  0.51400  0.01402  Biso   1.000  I
  I9088    1.0000 0.51400  0.01402  0.51400  Biso   1.000  I
  I9089    1.0000 0.98598  0.01402  0.98598  Biso   1.000  I
  I9090    1.0000 0.48600  0.51400  0.98598  Biso   1.000  I
  I9091    1.0000 0.01402  0.01402  0.01402  Biso   1.000  I
  I9092    1.0000 0.48600  0.01402  0.48600  Biso   1.000  I
  I9093    1.0000 0.48600  0.98598  0.51400  Biso   1.000  I
  I9094    1.0000 0.51400  0.98598  0.48600  Biso   1.000  I
  I9095    1.0000 0.51400  0.01402  0.51400  Biso   1.000  I
  I9096    1.0000 0.98598  0.51400  0.48600  Biso   1.000  I
  I9097    1.0000 0.98598  0.48600  0.51400  Biso   1.000  I
  I9098    1.0000 0.01402  0.51400  0.51400  Biso   1.000  I
  I9099    1.0000 0.51400  0.48600  0.98598  Biso   1.000  I
  I9100    1.0000 0.48600  0.51400  0.98598  Biso   1.000  I
  I9101    1.0000 0.51400  0.51400  0.01402  Biso   1.000  I
  I9102    1.0000 0.48600  0.98598  0.51400  Biso   1.000  I
  I9103    1.0000 0.48600  0.01402  0.48600  Biso   1.000  I
  I9104    1.0000 0.51400  0.01402  0.51400  Biso   1.000  I
  I9105    1.0000 0.98598  0.48600  0.51400  Biso   1.000  I
  I9106    1.0000 0.01402  0.51400  0.51400  Biso   1.000  I
  I9107    1.0000 0.01402  0.48600  0.48600  Biso   1.000  I
  I9108    1.0000 0.51400  0.98598  0.48600  Biso   1.000  I
  I9109    1.0000 0.48600  0.01402  0.48600  Biso   1.000  I
  I9110    1.0000 0.51400  0.01402  0.51400  Biso   1.000  I
  I9111    1.0000 0.48600  0.48600  0.01402  Biso   1.000  I
  I9112    1.0000 0.98598  0.98598  0.01402  Biso   1.000  I
  I9113    1.0000 0.98598  0.01402  0.98598  Biso   1.000  I
  I9114    1.0000 0.01402  0.01402  0.01402  Biso   1.000  I
  I9115    1.0000 0.98598  0.51400  0.48600  Biso   1.000  I
  I9116    1.0000 0.98598  0.48600  0.51400  Biso   1.000  I
  I9117    1.0000 0.01402  0.51400  0.51400  Biso   1.000  I
  I9118    1.0000 0.51400  0.98598  0.48600  Biso   1.000  I
  I9119    1.0000 0.01402  0.98598  0.98598  Biso   1.000  I
  I9120    1.0000 0.48600  0.98598  0.51400  Biso   1.000  I
  I9121    1.0000 0.48600  0.01402  0.48600  Biso   1.000  I
  I9122    1.0000 0.51400  0.01402  0.51400  Biso   1.000  I
  I9123    1.0000 0.01402  0.48600  0.48600  Biso   1.000  I
  I9124    1.0000 0.48600  0.51400  0.98598  Biso   1.000  I
  I9125    1.0000 0.48600  0.48600  0.01402  Biso   1.000  I
  I9126    1.0000 0.51400  0.51400  0.01402  Biso   1.000  I
  I9127    1.0000 0.01402  0.01402  0.01402  Biso   1.000  I
  I9128    1.0000 0.48600  0.01402  0.48600  Biso   1.000  I
  I9129    1.0000 0.98598  0.51400  0.48600  Biso   1.000  I
  I9130    1.0000 0.98598  0.48600  0.51400  Biso   1.000  I
  I9131    1.0000 0.01402  0.51400  0.51400  Biso   1.000  I
  I9132    1.0000 0.98598  0.01402  0.98598  Biso   1.000  I
  I9133    1.0000 0.51400  0.01402  0.51400  Biso   1.000  I
  I9134    1.0000 0.51400  0.48600  0.98598  Biso   1.000  I
  I9135    1.0000 0.48600  0.98598  0.51400  Biso   1.000  I
  I9136    1.0000 0.48600  0.01402  0.48600  Biso   1.000  I
  I9137    1.0000 0.51400  0.01402  0.51400  Biso   1.000  I
  I9138    1.0000 0.01402  0.48600  0.48600  Biso   1.000  I
  I9139    1.0000 0.12502  0.37501  0.37501  Biso   1.000  I
  I9140    1.0000 0.26401  0.26401  0.23601  Biso   1.000  I
  I9141    1.0000 0.12502  0.12502  0.12502  Biso   1.000  I
  I9142    1.0000 0.37501  0.12502  0.37501  Biso   1.000  I
  I9143    1.0000 0.62499  0.87498  0.37501  Biso   1.000  I
  I9144    1.0000 0.87498  0.62499  0.37501  Biso   1.000  I
  I9145    1.0000 0.12502  0.62499  0.62499  Biso   1.000  I
  I9146    1.0000 0.12502  0.87498  0.87498  Biso   1.000  I
  I9147    1.0000 0.12502  0.37501  0.37501  Biso   1.000  I
  I9148    1.0000 0.12502  0.12502  0.12502  Biso   1.000  I
  I9149    1.0000 0.12502  0.62499  0.62499  Biso   1.000  I
  I9150    1.0000 0.26401  0.76399  0.73599  Biso   1.000  I
  I9151    1.0000 0.37501  0.62499  0.87498  Biso   1.000  I
  I9152    1.0000 0.12502  0.87498  0.87498  Biso   1.000  I
  I9153    1.0000 0.12502  0.37501  0.37501  Biso   1.000  I
  I9154    1.0000 0.37501  0.37501  0.12502  Biso   1.000  I
  I9155    1.0000 0.87498  0.12502  0.87498  Biso   1.000  I
  I9156    1.0000 0.73599  0.23601  0.73599  Biso   1.000  I
  I9157    1.0000 0.87498  0.37501  0.62499  Biso   1.000  I
  I9158    1.0000 0.62499  0.37501  0.87498  Biso   1.000  I
  I9159    1.0000 0.62499  0.37501  0.87498  Biso   1.000  I
  I9160    1.0000 0.87498  0.37501  0.62499  Biso   1.000  I
  I9161    1.0000 0.37501  0.12502  0.37501  Biso   1.000  I
  I9162    1.0000 0.23601  0.23601  0.23601  Biso   1.000  I
  I9163    1.0000 0.12502  0.37501  0.37501  Biso   1.000  I
  I9164    1.0000 0.37501  0.37501  0.12502  Biso   1.000  I
  I9165    1.0000 0.12502  0.62499  0.62499  Biso   1.000  I
  I9166    1.0000 0.26401  0.73599  0.76399  Biso   1.000  I
  I9167    1.0000 0.37501  0.87498  0.62499  Biso   1.000  I
  I9168    1.0000 0.12502  0.87498  0.87498  Biso   1.000  I
  I9169    1.0000 0.12502  0.37501  0.37501  Biso   1.000  I
  I9170    1.0000 0.26401  0.23601  0.26401  Biso   1.000  I
  I9171    1.0000 0.12502  0.12502  0.12502  Biso   1.000  I
  I9172    1.0000 0.37501  0.37501  0.12502  Biso   1.000  I
  I9173    1.0000 0.62499  0.37501  0.87498  Biso   1.000  I
  I9174    1.0000 0.76399  0.23601  0.76399  Biso   1.000  I
  I9175    1.0000 0.87498  0.37501  0.62499  Biso   1.000  I
  I9176    1.0000 0.62499  0.12502  0.62499  Biso   1.000  I
  I9177    1.0000 0.12502  0.12502  0.12502  Biso   1.000  I
  I9178    1.0000 0.37501  0.37501  0.12502  Biso   1.000  I
  I9179    1.0000 0.62499  0.62499  0.12502  Biso   1.000  I
  I9180    1.0000 0.76399  0.73599  0.26401  Biso   1.000  I
  I9181    1.0000 0.62499  0.87498  0.37501  Biso   1.000  I
  I9182    1.0000 0.87498  0.87498  0.12502  Biso   1.000  I
  I9183    1.0000 0.87498  0.87498  0.12502  Biso   1.000  I
  I9184    1.0000 0.62499  0.62499  0.12502  Biso   1.000  I
  I9185    1.0000 0.12502  0.37501  0.37501  Biso   1.000  I
  I9186    1.0000 0.26401  0.23601  0.26401  Biso   1.000  I
  I9187    1.0000 0.12502  0.12502  0.12502  Biso   1.000  I
  I9188    1.0000 0.37501  0.37501  0.12502  Biso   1.000  I
  I9189    1.0000 0.12502  0.62499  0.62499  Biso   1.000  I
  I9190    1.0000 0.12502  0.87498  0.87498  Biso   1.000  I
  I9191    1.0000 0.87498  0.87498  0.12502  Biso   1.000  I
  I9192    1.0000 0.73599  0.76399  0.26401  Biso   1.000  I
  I9193    1.0000 0.62499  0.62499  0.12502  Biso   1.000  I
  I9194    1.0000 0.87498  0.62499  0.37501  Biso   1.000  I
  I9195    1.0000 0.87498  0.12502  0.87498  Biso   1.000  I
  I9196    1.0000 0.62499  0.12502  0.62499  Biso   1.000  I
  I9197    1.0000 0.37501  0.12502  0.37501  Biso   1.000  I
  I9198    1.0000 0.23601  0.26401  0.26401  Biso   1.000  I
  I9199    1.0000 0.12502  0.12502  0.12502  Biso   1.000  I
  I9200    1.0000 0.37501  0.37501  0.12502  Biso   1.000  I
  I9201    1.0000 0.12502  0.37501  0.37501  Biso   1.000  I
  I9202    1.0000 0.26401  0.26401  0.23601  Biso   1.000  I
  I9203    1.0000 0.12502  0.12502  0.12502  Biso   1.000  I
  I9204    1.0000 0.37501  0.12502  0.37501  Biso   1.000  I
  I9205    1.0000 0.12502  0.37501  0.37501  Biso   1.000  I
  I9206    1.0000 0.26401  0.23601  0.26401  Biso   1.000  I
  I9207    1.0000 0.12502  0.12502  0.12502  Biso   1.000  I
  I9208    1.0000 0.37501  0.37501  0.12502  Biso   1.000  I
  I9209    1.0000 0.87498  0.37501  0.62499  Biso   1.000  I
  I9210    1.0000 0.62499  0.37501  0.87498  Biso   1.000  I
  I9211    1.0000 0.87498  0.87498  0.12502  Biso   1.000  I
  I9212    1.0000 0.62499  0.62499  0.12502  Biso   1.000  I
  I9213    1.0000 0.37501  0.87498  0.62499  Biso   1.000  I
  I9214    1.0000 0.37501  0.62499  0.87498  Biso   1.000  I
  I9215    1.0000 0.37501  0.12502  0.37501  Biso   1.000  I
  I9216    1.0000 0.23601  0.23601  0.23601  Biso   1.000  I
  I9217    1.0000 0.12502  0.37501  0.37501  Biso   1.000  I
  I9218    1.0000 0.37501  0.37501  0.12502  Biso   1.000  I
  I9219    1.0000 0.37501  0.12502  0.37501  Biso   1.000  I
  I9220    1.0000 0.23601  0.26401  0.26401  Biso   1.000  I
  I9221    1.0000 0.12502  0.12502  0.12502  Biso   1.000  I
  I9222    1.0000 0.37501  0.37501  0.12502  Biso   1.000  I
  I9223    1.0000 0.44028  0.05970  0.44028  Biso   1.000  I
  I9224    1.0000 0.55972  0.05970  0.55972  Biso   1.000  I
  I9225    1.0000 0.55972  0.94030  0.44028  Biso   1.000  I
  I9226    1.0000 0.55972  0.55972  0.05970  Biso   1.000  I
  I9227    1.0000 0.55972  0.44028  0.94030  Biso   1.000  I
  I9228    1.0000 0.05970  0.44028  0.44028  Biso   1.000  I
  I9229    1.0000 0.94030  0.55972  0.44028  Biso   1.000  I
  I9230    1.0000 0.55972  0.94030  0.44028  Biso   1.000  I
  I9231    1.0000 0.55972  0.05970  0.55972  Biso   1.000  I
  I9232    1.0000 0.44028  0.55972  0.94030  Biso   1.000  I
  I9233    1.0000 0.55972  0.55972  0.05970  Biso   1.000  I
  I9234    1.0000 0.55972  0.44028  0.94030  Biso   1.000  I
  I9235    1.0000 0.44028  0.44028  0.05970  Biso   1.000  I
  I9236    1.0000 0.55972  0.55972  0.05970  Biso   1.000  I
  I9237    1.0000 0.55972  0.44028  0.94030  Biso   1.000  I
  I9238    1.0000 0.55972  0.94030  0.44028  Biso   1.000  I
  I9239    1.0000 0.55972  0.05970  0.55972  Biso   1.000  I
  I9240    1.0000 0.44028  0.94030  0.55972  Biso   1.000  I
  I9241    1.0000 0.94030  0.44028  0.55972  Biso   1.000  I
  I9242    1.0000 0.05970  0.55972  0.55972  Biso   1.000  I
  I9243    1.0000 0.55972  0.55972  0.05970  Biso   1.000  I
  I9244    1.0000 0.55972  0.44028  0.94030  Biso   1.000  I
  I9245    1.0000 0.55972  0.05970  0.55972  Biso   1.000  I
  I9246    1.0000 0.44028  0.94030  0.55972  Biso   1.000  I
  I9247    1.0000 0.05970  0.55972  0.55972  Biso   1.000  I
  I9248    1.0000 0.05970  0.44028  0.44028  Biso   1.000  I
  I9249    1.0000 0.94030  0.44028  0.55972  Biso   1.000  I
  I9250    1.0000 0.44028  0.05970  0.44028  Biso   1.000  I
  I9251    1.0000 0.55972  0.05970  0.55972  Biso   1.000  I
  I9252    1.0000 0.55972  0.94030  0.44028  Biso   1.000  I
  I9253    1.0000 0.94030  0.05970  0.94030  Biso   1.000  I
  I9254    1.0000 0.05970  0.05970  0.05970  Biso   1.000  I
  I9255    1.0000 0.94030  0.44028  0.55972  Biso   1.000  I
  I9256    1.0000 0.05970  0.55972  0.55972  Biso   1.000  I
  I9257    1.0000 0.94030  0.55972  0.44028  Biso   1.000  I
  I9258    1.0000 0.44028  0.05970  0.44028  Biso   1.000  I
  I9259    1.0000 0.55972  0.05970  0.55972  Biso   1.000  I
  I9260    1.0000 0.44028  0.94030  0.55972  Biso   1.000  I
  I9261    1.0000 0.44028  0.44028  0.05970  Biso   1.000  I
  I9262    1.0000 0.44028  0.55972  0.94030  Biso   1.000  I
  I9263    1.0000 0.94030  0.44028  0.55972  Biso   1.000  I
  I9264    1.0000 0.05970  0.55972  0.55972  Biso   1.000  I
  I9265    1.0000 0.44028  0.05970  0.44028  Biso   1.000  I
  I9266    1.0000 0.55972  0.05970  0.55972  Biso   1.000  I
  I9267    1.0000 0.44028  0.94030  0.55972  Biso   1.000  I
  I9268    1.0000 0.05970  0.44028  0.44028  Biso   1.000  I
  I9269    1.0000 0.05970  0.05970  0.05970  Biso   1.000  I
  I9270    1.0000 0.55972  0.94030  0.44028  Biso   1.000  I
  I9271    1.0000 0.05970  0.55972  0.55972  Biso   1.000  I
  I9272    1.0000 0.05970  0.94030  0.94030  Biso   1.000  I
  I9273    1.0000 0.05970  0.44028  0.44028  Biso   1.000  I
  I9274    1.0000 0.05970  0.05970  0.05970  Biso   1.000  I
  I9275    1.0000 0.05970  0.55972  0.55972  Biso   1.000  I
  I9276    1.0000 0.05970  0.94030  0.94030  Biso   1.000  I
  I9277    1.0000 0.05970  0.44028  0.44028  Biso   1.000  I
  I9278    1.0000 0.44028  0.44028  0.05970  Biso   1.000  I
  I9279    1.0000 0.94030  0.44028  0.55972  Biso   1.000  I
  I9280    1.0000 0.55972  0.44028  0.94030  Biso   1.000  I
  I9281    1.0000 0.55972  0.44028  0.94030  Biso   1.000  I
  I9282    1.0000 0.94030  0.44028  0.55972  Biso   1.000  I
  I9283    1.0000 0.05970  0.44028  0.44028  Biso   1.000  I
  I9284    1.0000 0.44028  0.44028  0.05970  Biso   1.000  I
  I9285    1.0000 0.05970  0.55972  0.55972  Biso   1.000  I
  I9286    1.0000 0.44028  0.94030  0.55972  Biso   1.000  I
  I9287    1.0000 0.05970  0.94030  0.94030  Biso   1.000  I
  I9288    1.0000 0.05970  0.44028  0.44028  Biso   1.000  I
  I9289    1.0000 0.05970  0.05970  0.05970  Biso   1.000  I
  I9290    1.0000 0.44028  0.44028  0.05970  Biso   1.000  I
  I9291    1.0000 0.55972  0.44028  0.94030  Biso   1.000  I
  I9292    1.0000 0.94030  0.44028  0.55972  Biso   1.000  I
  I9293    1.0000 0.55972  0.05970  0.55972  Biso   1.000  I
  I9294    1.0000 0.05970  0.05970  0.05970  Biso   1.000  I
  I9295    1.0000 0.44028  0.44028  0.05970  Biso   1.000  I
  I9296    1.0000 0.55972  0.55972  0.05970  Biso   1.000  I
  I9297    1.0000 0.55972  0.94030  0.44028  Biso   1.000  I
  I9298    1.0000 0.94030  0.94030  0.05970  Biso   1.000  I
  I9299    1.0000 0.94030  0.94030  0.05970  Biso   1.000  I
  I9300    1.0000 0.55972  0.55972  0.05970  Biso   1.000  I
  I9301    1.0000 0.05970  0.44028  0.44028  Biso   1.000  I
  I9302    1.0000 0.05970  0.05970  0.05970  Biso   1.000  I
  I9303    1.0000 0.44028  0.44028  0.05970  Biso   1.000  I
  I9304    1.0000 0.05970  0.55972  0.55972  Biso   1.000  I
  I9305    1.0000 0.05970  0.94030  0.94030  Biso   1.000  I
  I9306    1.0000 0.94030  0.94030  0.05970  Biso   1.000  I
  I9307    1.0000 0.55972  0.55972  0.05970  Biso   1.000  I
  I9308    1.0000 0.94030  0.05970  0.94030  Biso   1.000  I
  I9309    1.0000 0.55972  0.05970  0.55972  Biso   1.000  I
  I9310    1.0000 0.44028  0.05970  0.44028  Biso   1.000  I
  I9311    1.0000 0.05970  0.05970  0.05970  Biso   1.000  I
  I9312    1.0000 0.44028  0.44028  0.05970  Biso   1.000  I
  I9313    1.0000 0.05970  0.44028  0.44028  Biso   1.000  I
  I9314    1.0000 0.05970  0.05970  0.05970  Biso   1.000  I
  I9315    1.0000 0.44028  0.05970  0.44028  Biso   1.000  I
  I9316    1.0000 0.05970  0.44028  0.44028  Biso   1.000  I
  I9317    1.0000 0.05970  0.05970  0.05970  Biso   1.000  I
  I9318    1.0000 0.44028  0.44028  0.05970  Biso   1.000  I
  I9319    1.0000 0.94030  0.44028  0.55972  Biso   1.000  I
  I9320    1.0000 0.55972  0.44028  0.94030  Biso   1.000  I
  I9321    1.0000 0.94030  0.94030  0.05970  Biso   1.000  I
  I9322    1.0000 0.55972  0.55972  0.05970  Biso   1.000  I
  I9323    1.0000 0.44028  0.94030  0.55972  Biso   1.000  I
  I9324    1.0000 0.05970  0.44028  0.44028  Biso   1.000  I
  I9325    1.0000 0.44028  0.44028  0.05970  Biso   1.000  I
  I9326    1.0000 0.05970  0.05970  0.05970  Biso   1.000  I
  I9327    1.0000 0.44028  0.44028  0.05970  Biso   1.000  I
  I9328    1.0000 0.48600  0.98598  0.51400  Biso   1.000  I
  I9329    1.0000 0.62499  0.12502  0.62499  Biso   1.000  I
  I9330    1.0000 0.62499  0.87498  0.37501  Biso   1.000  I
  I9331    1.0000 0.62499  0.62499  0.12502  Biso   1.000  I
  I9332    1.0000 0.62499  0.37501  0.87498  Biso   1.000  I
  I9333    1.0000 0.12502  0.37501  0.37501  Biso   1.000  I
  I9334    1.0000 0.62499  0.87498  0.37501  Biso   1.000  I
  I9335    1.0000 0.62499  0.12502  0.62499  Biso   1.000  I
  I9336    1.0000 0.48600  0.48600  0.01402  Biso   1.000  I
  I9337    1.0000 0.62499  0.62499  0.12502  Biso   1.000  I
  I9338    1.0000 0.62499  0.37501  0.87498  Biso   1.000  I
  I9339    1.0000 0.48600  0.51400  0.98598  Biso   1.000  I
  I9340    1.0000 0.37501  0.37501  0.12502  Biso   1.000  I
  I9341    1.0000 0.62499  0.62499  0.12502  Biso   1.000  I
  I9342    1.0000 0.62499  0.37501  0.87498  Biso   1.000  I
  I9343    1.0000 0.62499  0.87498  0.37501  Biso   1.000  I
  I9344    1.0000 0.48600  0.01402  0.48600  Biso   1.000  I
  I9345    1.0000 0.62499  0.12502  0.62499  Biso   1.000  I
  I9346    1.0000 0.37501  0.87498  0.62499  Biso   1.000  I
  I9347    1.0000 0.87498  0.37501  0.62499  Biso   1.000  I
  I9348    1.0000 0.12502  0.62499  0.62499  Biso   1.000  I
  I9349    1.0000 0.62499  0.62499  0.12502  Biso   1.000  I
  I9350    1.0000 0.62499  0.37501  0.87498  Biso   1.000  I
  I9351    1.0000 0.62499  0.12502  0.62499  Biso   1.000  I
  I9352    1.0000 0.37501  0.87498  0.62499  Biso   1.000  I
  I9353    1.0000 0.98598  0.51400  0.48600  Biso   1.000  I
  I9354    1.0000 0.12502  0.62499  0.62499  Biso   1.000  I
  I9355    1.0000 0.12502  0.37501  0.37501  Biso   1.000  I
  I9356    1.0000 0.87498  0.37501  0.62499  Biso   1.000  I
  I9357    1.0000 0.48600  0.98598  0.51400  Biso   1.000  I
  I9358    1.0000 0.62499  0.12502  0.62499  Biso   1.000  I
  I9359    1.0000 0.62499  0.87498  0.37501  Biso   1.000  I
  I9360    1.0000 0.12502  0.12502  0.12502  Biso   1.000  I
  I9361    1.0000 0.87498  0.37501  0.62499  Biso   1.000  I
  I9362    1.0000 0.01402  0.48600  0.48600  Biso   1.000  I
  I9363    1.0000 0.12502  0.62499  0.62499  Biso   1.000  I
  I9364    1.0000 0.51400  0.98598  0.48600  Biso   1.000  I
  I9365    1.0000 0.62499  0.12502  0.62499  Biso   1.000  I
  I9366    1.0000 0.37501  0.87498  0.62499  Biso   1.000  I
  I9367    1.0000 0.37501  0.37501  0.12502  Biso   1.000  I
  I9368    1.0000 0.87498  0.37501  0.62499  Biso   1.000  I
  I9369    1.0000 0.12502  0.62499  0.62499  Biso   1.000  I
  I9370    1.0000 0.51400  0.98598  0.48600  Biso   1.000  I
  I9371    1.0000 0.62499  0.12502  0.62499  Biso   1.000  I
  I9372    1.0000 0.37501  0.87498  0.62499  Biso   1.000  I
  I9373    1.0000 0.01402  0.51400  0.51400  Biso   1.000  I
  I9374    1.0000 0.01402  0.98598  0.98598  Biso   1.000  I
  I9375    1.0000 0.48600  0.98598  0.51400  Biso   1.000  I
  I9376    1.0000 0.48600  0.01402  0.48600  Biso   1.000  I
  I9377    1.0000 0.51400  0.01402  0.51400  Biso   1.000  I
  I9378    1.0000 0.01402  0.48600  0.48600  Biso   1.000  I
  I9379    1.0000 0.01402  0.01402  0.01402  Biso   1.000  I
  I9380    1.0000 0.01402  0.51400  0.51400  Biso   1.000  I
  I9381    1.0000 0.01402  0.98598  0.98598  Biso   1.000  I
  I9382    1.0000 0.01402  0.48600  0.48600  Biso   1.000  I
  I9383    1.0000 0.01402  0.01402  0.01402  Biso   1.000  I
  I9384    1.0000 0.98598  0.51400  0.48600  Biso   1.000  I
  I9385    1.0000 0.98598  0.48600  0.51400  Biso   1.000  I
  I9386    1.0000 0.01402  0.51400  0.51400  Biso   1.000  I
  I9387    1.0000 0.51400  0.48600  0.98598  Biso   1.000  I
  I9388    1.0000 0.48600  0.51400  0.98598  Biso   1.000  I
  I9389    1.0000 0.51400  0.51400  0.01402  Biso   1.000  I
  I9390    1.0000 0.98598  0.51400  0.48600  Biso   1.000  I
  I9391    1.0000 0.01402  0.51400  0.51400  Biso   1.000  I
  I9392    1.0000 0.01402  0.48600  0.48600  Biso   1.000  I
  I9393    1.0000 0.48600  0.51400  0.98598  Biso   1.000  I
  I9394    1.0000 0.48600  0.48600  0.01402  Biso   1.000  I
  I9395    1.0000 0.51400  0.51400  0.01402  Biso   1.000  I
  I9396    1.0000 0.48600  0.51400  0.98598  Biso   1.000  I
  I9397    1.0000 0.48600  0.48600  0.01402  Biso   1.000  I
  I9398    1.0000 0.51400  0.51400  0.01402  Biso   1.000  I
  I9399    1.0000 0.01402  0.48600  0.48600  Biso   1.000  I
  I9400    1.0000 0.98598  0.51400  0.48600  Biso   1.000  I
  I9401    1.0000 0.98598  0.48600  0.51400  Biso   1.000  I
  I9402    1.0000 0.01402  0.51400  0.51400  Biso   1.000  I
  I9403    1.0000 0.51400  0.48600  0.98598  Biso   1.000  I
  I9404    1.0000 0.01402  0.48600  0.48600  Biso   1.000  I
  I9405    1.0000 0.51400  0.98598  0.48600  Biso   1.000  I
  I9406    1.0000 0.48600  0.01402  0.48600  Biso   1.000  I
  I9407    1.0000 0.51400  0.01402  0.51400  Biso   1.000  I
  I9408    1.0000 0.01402  0.01402  0.01402  Biso   1.000  I
  I9409    1.0000 0.01402  0.51400  0.51400  Biso   1.000  I
  I9410    1.0000 0.01402  0.98598  0.98598  Biso   1.000  I
  I9411    1.0000 0.51400  0.48600  0.98598  Biso   1.000  I
  I9412    1.0000 0.48600  0.51400  0.98598  Biso   1.000  I
  I9413    1.0000 0.51400  0.51400  0.01402  Biso   1.000  I
  I9414    1.0000 0.48600  0.48600  0.01402  Biso   1.000  I
  I9415    1.0000 0.98598  0.51400  0.48600  Biso   1.000  I
  I9416    1.0000 0.01402  0.51400  0.51400  Biso   1.000  I
  I9417    1.0000 0.01402  0.48600  0.48600  Biso   1.000  I
  I9418    1.0000 0.48600  0.98598  0.51400  Biso   1.000  I
  I9419    1.0000 0.98598  0.98598  0.01402  Biso   1.000  I
  I9420    1.0000 0.51400  0.51400  0.01402  Biso   1.000  I
  I9421    1.0000 0.48600  0.48600  0.01402  Biso   1.000  I
  I9422    1.0000 0.01402  0.01402  0.01402  Biso   1.000  I
  I9423    1.0000 0.01402  0.01402  0.01402  Biso   1.000  I
  I9424    1.0000 0.48600  0.48600  0.01402  Biso   1.000  I
  I9425    1.0000 0.01402  0.51400  0.51400  Biso   1.000  I
  I9426    1.0000 0.51400  0.51400  0.01402  Biso   1.000  I
  I9427    1.0000 0.01402  0.48600  0.48600  Biso   1.000  I
  I9428    1.0000 0.01402  0.01402  0.01402  Biso   1.000  I
  I9429    1.0000 0.01402  0.01402  0.01402  Biso   1.000  I
  I9430    1.0000 0.48600  0.48600  0.01402  Biso   1.000  I
  I9431    1.0000 0.01402  0.01402  0.01402  Biso   1.000  I
  I9432    1.0000 0.48600  0.01402  0.48600  Biso   1.000  I
  I9433    1.0000 0.51400  0.01402  0.51400  Biso   1.000  I
  I9434    1.0000 0.51400  0.51400  0.01402  Biso   1.000  I
  I9435    1.0000 0.01402  0.51400  0.51400  Biso   1.000  I
  I9436    1.0000 0.51400  0.01402  0.51400  Biso   1.000  I
  I9437    1.0000 0.98598  0.48600  0.51400  Biso   1.000  I
  I9438    1.0000 0.98598  0.98598  0.01402  Biso   1.000  I
  I9439    1.0000 0.51400  0.51400  0.01402  Biso   1.000  I
  I9440    1.0000 0.98598  0.51400  0.48600  Biso   1.000  I
  I9441    1.0000 0.01402  0.51400  0.51400  Biso   1.000  I
  I9442    1.0000 0.01402  0.48600  0.48600  Biso   1.000  I
  I9443    1.0000 0.48600  0.48600  0.01402  Biso   1.000  I
  I9444    1.0000 0.01402  0.01402  0.01402  Biso   1.000  I
  I9445    1.0000 0.48600  0.48600  0.01402  Biso   1.000  I
  I9446    1.0000 0.51400  0.98598  0.48600  Biso   1.000  I
  I9447    1.0000 0.48600  0.01402  0.48600  Biso   1.000  I
  I9448    1.0000 0.51400  0.01402  0.51400  Biso   1.000  I
  I9449    1.0000 0.98598  0.48600  0.51400  Biso   1.000  I
  I9450    1.0000 0.51400  0.48600  0.98598  Biso   1.000  I
  I9451    1.0000 0.48600  0.51400  0.98598  Biso   1.000  I
  I9452    1.0000 0.51400  0.51400  0.01402  Biso   1.000  I
  I9453    1.0000 0.98598  0.98598  0.01402  Biso   1.000  I
  I9454    1.0000 0.51400  0.51400  0.01402  Biso   1.000  I
  I9455    1.0000 0.69031  0.19029  0.69031  Biso   1.000  I
  I9456    1.0000 0.69031  0.80971  0.30969  Biso   1.000  I
  I9457    1.0000 0.69031  0.69031  0.19029  Biso   1.000  I
  I9458    1.0000 0.69031  0.30969  0.80971  Biso   1.000  I
  I9459    1.0000 0.19029  0.30969  0.30969  Biso   1.000  I
  I9460    1.0000 0.69031  0.80971  0.30969  Biso   1.000  I
  I9461    1.0000 0.69031  0.19029  0.69031  Biso   1.000  I
  I9462    1.0000 0.69031  0.69031  0.19029  Biso   1.000  I
  I9463    1.0000 0.69031  0.30969  0.80971  Biso   1.000  I
  I9464    1.0000 0.30969  0.30969  0.19029  Biso   1.000  I
  I9465    1.0000 0.69031  0.69031  0.19029  Biso   1.000  I
  I9466    1.0000 0.69031  0.30969  0.80971  Biso   1.000  I
  I9467    1.0000 0.69031  0.80971  0.30969  Biso   1.000  I
  I9468    1.0000 0.69031  0.19029  0.69031  Biso   1.000  I
  I9469    1.0000 0.30969  0.80971  0.69031  Biso   1.000  I
  I9470    1.0000 0.80971  0.30969  0.69031  Biso   1.000  I
  I9471    1.0000 0.19029  0.69031  0.69031  Biso   1.000  I
  I9472    1.0000 0.69031  0.69031  0.19029  Biso   1.000  I
  I9473    1.0000 0.69031  0.30969  0.80971  Biso   1.000  I
  I9474    1.0000 0.69031  0.19029  0.69031  Biso   1.000  I
  I9475    1.0000 0.30969  0.80971  0.69031  Biso   1.000  I
  I9476    1.0000 0.19029  0.69031  0.69031  Biso   1.000  I
  I9477    1.0000 0.19029  0.30969  0.30969  Biso   1.000  I
  I9478    1.0000 0.80971  0.30969  0.69031  Biso   1.000  I
  I9479    1.0000 0.69031  0.19029  0.69031  Biso   1.000  I
  I9480    1.0000 0.69031  0.80971  0.30969  Biso   1.000  I
  I9481    1.0000 0.19029  0.19029  0.19029  Biso   1.000  I
  I9482    1.0000 0.80971  0.30969  0.69031  Biso   1.000  I
  I9483    1.0000 0.19029  0.69031  0.69031  Biso   1.000  I
  I9484    1.0000 0.69031  0.19029  0.69031  Biso   1.000  I
  I9485    1.0000 0.30969  0.80971  0.69031  Biso   1.000  I
  I9486    1.0000 0.30969  0.30969  0.19029  Biso   1.000  I
  I9487    1.0000 0.80971  0.30969  0.69031  Biso   1.000  I
  I9488    1.0000 0.19029  0.69031  0.69031  Biso   1.000  I
  I9489    1.0000 0.69031  0.19029  0.69031  Biso   1.000  I
  I9490    1.0000 0.30969  0.80971  0.69031  Biso   1.000  I
  I9491    1.0000 0.44028  0.05970  0.44028  Biso   1.000  I
  I9492    1.0000 0.55972  0.05970  0.55972  Biso   1.000  I
  I9493    1.0000 0.44028  0.94030  0.55972  Biso   1.000  I
  I9494    1.0000 0.05970  0.55972  0.55972  Biso   1.000  I
  I9495    1.0000 0.94030  0.55972  0.44028  Biso   1.000  I
  I9496    1.0000 0.44028  0.55972  0.94030  Biso   1.000  I
  I9497    1.0000 0.55972  0.55972  0.05970  Biso   1.000  I
  I9498    1.0000 0.05970  0.55972  0.55972  Biso   1.000  I
  I9499    1.0000 0.94030  0.55972  0.44028  Biso   1.000  I
  I9500    1.0000 0.55972  0.55972  0.05970  Biso   1.000  I
  I9501    1.0000 0.44028  0.55972  0.94030  Biso   1.000  I
  I9502    1.0000 0.44028  0.44028  0.05970  Biso   1.000  I
  I9503    1.0000 0.55972  0.55972  0.05970  Biso   1.000  I
  I9504    1.0000 0.44028  0.55972  0.94030  Biso   1.000  I
  I9505    1.0000 0.94030  0.44028  0.55972  Biso   1.000  I
  I9506    1.0000 0.05970  0.55972  0.55972  Biso   1.000  I
  I9507    1.0000 0.94030  0.55972  0.44028  Biso   1.000  I
  I9508    1.0000 0.44028  0.05970  0.44028  Biso   1.000  I
  I9509    1.0000 0.44028  0.55972  0.94030  Biso   1.000  I
  I9510    1.0000 0.55972  0.55972  0.05970  Biso   1.000  I
  I9511    1.0000 0.05970  0.55972  0.55972  Biso   1.000  I
  I9512    1.0000 0.94030  0.55972  0.44028  Biso   1.000  I
  I9513    1.0000 0.05970  0.55972  0.55972  Biso   1.000  I
  I9514    1.0000 0.05970  0.44028  0.44028  Biso   1.000  I
  I9515    1.0000 0.94030  0.55972  0.44028  Biso   1.000  I
  I9516    1.0000 0.44028  0.05970  0.44028  Biso   1.000  I
  I9517    1.0000 0.55972  0.05970  0.55972  Biso   1.000  I
  I9518    1.0000 0.55972  0.94030  0.44028  Biso   1.000  I
  I9519    1.0000 0.44028  0.55972  0.94030  Biso   1.000  I
  I9520    1.0000 0.55972  0.55972  0.05970  Biso   1.000  I
  I9521    1.0000 0.55972  0.44028  0.94030  Biso   1.000  I
  I9522    1.0000 0.73599  0.26401  0.76399  Biso   1.000  I
  I9523    1.0000 0.76399  0.23601  0.76399  Biso   1.000  I
  I9524    1.0000 0.76399  0.26401  0.73599  Biso   1.000  I
  I9525    1.0000 0.76399  0.73599  0.26401  Biso   1.000  I
  I9526    1.0000 0.76399  0.76399  0.23601  Biso   1.000  I
  I9527    1.0000 0.73599  0.73599  0.23601  Biso   1.000  I
  I9528    1.0000 0.76399  0.73599  0.26401  Biso   1.000  I
  I9529    1.0000 0.76399  0.76399  0.23601  Biso   1.000  I
  I9530    1.0000 0.73599  0.76399  0.26401  Biso   1.000  I
  I9531    1.0000 0.73599  0.23601  0.73599  Biso   1.000  I
  I9532    1.0000 0.76399  0.23601  0.76399  Biso   1.000  I
  I9533    1.0000 0.76399  0.26401  0.73599  Biso   1.000  I
  I9534    1.0000 0.26401  0.26401  0.23601  Biso   1.000  I
  I9535    1.0000 0.26401  0.23601  0.26401  Biso   1.000  I
  I9536    1.0000 0.23601  0.23601  0.23601  Biso   1.000  I
  I9537    1.0000 0.73599  0.73599  0.23601  Biso   1.000  I
  I9538    1.0000 0.73599  0.26401  0.76399  Biso   1.000  I
  I9539    1.0000 0.76399  0.23601  0.76399  Biso   1.000  I
  I9540    1.0000 0.76399  0.26401  0.73599  Biso   1.000  I
  I9541    1.0000 0.76399  0.73599  0.26401  Biso   1.000  I
  I9542    1.0000 0.76399  0.76399  0.23601  Biso   1.000  I
  I9543    1.0000 0.73599  0.76399  0.26401  Biso   1.000  I
  I9544    1.0000 0.73599  0.23601  0.73599  Biso   1.000  I
  I9545    1.0000 0.26401  0.23601  0.26401  Biso   1.000  I
  I9546    1.0000 0.23601  0.26401  0.26401  Biso   1.000  I
  I9547    1.0000 0.23601  0.23601  0.23601  Biso   1.000  I
  I9548    1.0000 0.76399  0.73599  0.26401  Biso   1.000  I
  I9549    1.0000 0.76399  0.76399  0.23601  Biso   1.000  I
  I9550    1.0000 0.73599  0.76399  0.26401  Biso   1.000  I
  I9551    1.0000 0.73599  0.23601  0.73599  Biso   1.000  I
  I9552    1.0000 0.76399  0.23601  0.76399  Biso   1.000  I
  I9553    1.0000 0.76399  0.26401  0.73599  Biso   1.000  I
  I9554    1.0000 0.73599  0.73599  0.23601  Biso   1.000  I
  I9555    1.0000 0.73599  0.26401  0.76399  Biso   1.000  I
  I9556    1.0000 0.76399  0.23601  0.76399  Biso   1.000  I
  I9557    1.0000 0.76399  0.26401  0.73599  Biso   1.000  I
  I9558    1.0000 0.23601  0.76399  0.76399  Biso   1.000  I
  I9559    1.0000 0.23601  0.73599  0.73599  Biso   1.000  I
  I9560    1.0000 0.26401  0.73599  0.76399  Biso   1.000  I
  I9561    1.0000 0.73599  0.23601  0.73599  Biso   1.000  I
  I9562    1.0000 0.73599  0.26401  0.76399  Biso   1.000  I
  I9563    1.0000 0.76399  0.23601  0.76399  Biso   1.000  I
  I9564    1.0000 0.23601  0.76399  0.76399  Biso   1.000  I
  I9565    1.0000 0.26401  0.76399  0.73599  Biso   1.000  I
  I9566    1.0000 0.26401  0.73599  0.76399  Biso   1.000  I
  I9567    1.0000 0.76399  0.73599  0.26401  Biso   1.000  I
  I9568    1.0000 0.76399  0.76399  0.23601  Biso   1.000  I
  I9569    1.0000 0.73599  0.76399  0.26401  Biso   1.000  I
  I9570    1.0000 0.73599  0.23601  0.73599  Biso   1.000  I
  I9571    1.0000 0.76399  0.26401  0.73599  Biso   1.000  I
  I9572    1.0000 0.23601  0.76399  0.76399  Biso   1.000  I
  I9573    1.0000 0.23601  0.73599  0.73599  Biso   1.000  I
  I9574    1.0000 0.26401  0.73599  0.76399  Biso   1.000  I
  I9575    1.0000 0.26401  0.76399  0.73599  Biso   1.000  I
  I9576    1.0000 0.26401  0.26401  0.23601  Biso   1.000  I
  I9577    1.0000 0.73599  0.23601  0.73599  Biso   1.000  I
  I9578    1.0000 0.73599  0.26401  0.76399  Biso   1.000  I
  I9579    1.0000 0.76399  0.23601  0.76399  Biso   1.000  I
  I9580    1.0000 0.73599  0.26401  0.76399  Biso   1.000  I
  I9581    1.0000 0.76399  0.23601  0.76399  Biso   1.000  I
  I9582    1.0000 0.76399  0.26401  0.73599  Biso   1.000  I
  I9583    1.0000 0.73599  0.73599  0.23601  Biso   1.000  I
  I9584    1.0000 0.26401  0.26401  0.23601  Biso   1.000  I
  I9585    1.0000 0.26401  0.23601  0.26401  Biso   1.000  I
  I9586    1.0000 0.23601  0.26401  0.26401  Biso   1.000  I
  I9587    1.0000 0.73599  0.23601  0.73599  Biso   1.000  I
  I9588    1.0000 0.73599  0.26401  0.76399  Biso   1.000  I
  I9589    1.0000 0.76399  0.23601  0.76399  Biso   1.000  I
  I9590    1.0000 0.23601  0.76399  0.76399  Biso   1.000  I
  I9591    1.0000 0.26401  0.76399  0.73599  Biso   1.000  I
  I9592    1.0000 0.26401  0.73599  0.76399  Biso   1.000  I
  I9593    1.0000 0.73599  0.26401  0.76399  Biso   1.000  I
  I9594    1.0000 0.76399  0.23601  0.76399  Biso   1.000  I
  I9595    1.0000 0.76399  0.26401  0.73599  Biso   1.000  I
  I9596    1.0000 0.23601  0.73599  0.73599  Biso   1.000  I
  I9597    1.0000 0.26401  0.23601  0.26401  Biso   1.000  I
  I9598    1.0000 0.23601  0.26401  0.26401  Biso   1.000  I
  I9599    1.0000 0.23601  0.23601  0.23601  Biso   1.000  I
  I9600    1.0000 0.73599  0.23601  0.73599  Biso   1.000  I
  I9601    1.0000 0.73599  0.26401  0.76399  Biso   1.000  I
  I9602    1.0000 0.76399  0.23601  0.76399  Biso   1.000  I
  I9603    1.0000 0.26401  0.76399  0.73599  Biso   1.000  I
  I9604    1.0000 0.76399  0.26401  0.73599  Biso   1.000  I
  I9605    1.0000 0.23601  0.76399  0.76399  Biso   1.000  I
  I9606    1.0000 0.23601  0.73599  0.73599  Biso   1.000  I
  I9607    1.0000 0.26401  0.73599  0.76399  Biso   1.000  I
  I9608    1.0000 0.51400  0.98598  0.48600  Biso   1.000  I
  I9609    1.0000 0.37501  0.12502  0.37501  Biso   1.000  I
  I9610    1.0000 0.62499  0.12502  0.62499  Biso   1.000  I
  I9611    1.0000 0.37501  0.87498  0.62499  Biso   1.000  I
  I9612    1.0000 0.12502  0.62499  0.62499  Biso   1.000  I
  I9613    1.0000 0.87498  0.62499  0.37501  Biso   1.000  I
  I9614    1.0000 0.37501  0.62499  0.87498  Biso   1.000  I
  I9615    1.0000 0.62499  0.62499  0.12502  Biso   1.000  I
  I9616    1.0000 0.12502  0.62499  0.62499  Biso   1.000  I
  I9617    1.0000 0.87498  0.62499  0.37501  Biso   1.000  I
  I9618    1.0000 0.62499  0.62499  0.12502  Biso   1.000  I
  I9619    1.0000 0.37501  0.62499  0.87498  Biso   1.000  I
  I9620    1.0000 0.51400  0.48600  0.98598  Biso   1.000  I
  I9621    1.0000 0.37501  0.37501  0.12502  Biso   1.000  I
  I9622    1.0000 0.62499  0.62499  0.12502  Biso   1.000  I
  I9623    1.0000 0.37501  0.62499  0.87498  Biso   1.000  I
  I9624    1.0000 0.87498  0.37501  0.62499  Biso   1.000  I
  I9625    1.0000 0.01402  0.48600  0.48600  Biso   1.000  I
  I9626    1.0000 0.12502  0.62499  0.62499  Biso   1.000  I
  I9627    1.0000 0.87498  0.62499  0.37501  Biso   1.000  I
  I9628    1.0000 0.37501  0.12502  0.37501  Biso   1.000  I
  I9629    1.0000 0.37501  0.62499  0.87498  Biso   1.000  I
  I9630    1.0000 0.62499  0.62499  0.12502  Biso   1.000  I
  I9631    1.0000 0.12502  0.62499  0.62499  Biso   1.000  I
  I9632    1.0000 0.87498  0.62499  0.37501  Biso   1.000  I
  I9633    1.0000 0.98598  0.48600  0.51400  Biso   1.000  I
  I9634    1.0000 0.12502  0.62499  0.62499  Biso   1.000  I
  I9635    1.0000 0.12502  0.37501  0.37501  Biso   1.000  I
  I9636    1.0000 0.87498  0.62499  0.37501  Biso   1.000  I
  I9637    1.0000 0.48600  0.98598  0.51400  Biso   1.000  I
  I9638    1.0000 0.37501  0.12502  0.37501  Biso   1.000  I
  I9639    1.0000 0.62499  0.12502  0.62499  Biso   1.000  I
  I9640    1.0000 0.62499  0.87498  0.37501  Biso   1.000  I
  I9641    1.0000 0.37501  0.62499  0.87498  Biso   1.000  I
  I9642    1.0000 0.48600  0.48600  0.01402  Biso   1.000  I
  I9643    1.0000 0.62499  0.62499  0.12502  Biso   1.000  I
  I9644    1.0000 0.62499  0.37501  0.87498  Biso   1.000  I
  I9645    1.0000 0.80971  0.19029  0.80971  Biso   1.000  I
  I9646    1.0000 0.80971  0.30969  0.69031  Biso   1.000  I
  I9647    1.0000 0.80971  0.80971  0.19029  Biso   1.000  I
  I9648    1.0000 0.69031  0.69031  0.19029  Biso   1.000  I
  I9649    1.0000 0.80971  0.69031  0.30969  Biso   1.000  I
  I9650    1.0000 0.80971  0.80971  0.19029  Biso   1.000  I
  I9651    1.0000 0.80971  0.69031  0.30969  Biso   1.000  I
  I9652    1.0000 0.80971  0.19029  0.80971  Biso   1.000  I
  I9653    1.0000 0.80971  0.30969  0.69031  Biso   1.000  I
  I9654    1.0000 0.69031  0.19029  0.69031  Biso   1.000  I
  I9655    1.0000 0.30969  0.19029  0.30969  Biso   1.000  I
  I9656    1.0000 0.19029  0.19029  0.19029  Biso   1.000  I
  I9657    1.0000 0.30969  0.30969  0.19029  Biso   1.000  I
  I9658    1.0000 0.80971  0.19029  0.80971  Biso   1.000  I
  I9659    1.0000 0.80971  0.30969  0.69031  Biso   1.000  I
  I9660    1.0000 0.80971  0.80971  0.19029  Biso   1.000  I
  I9661    1.0000 0.80971  0.69031  0.30969  Biso   1.000  I
  I9662    1.0000 0.19029  0.19029  0.19029  Biso   1.000  I
  I9663    1.0000 0.30969  0.19029  0.30969  Biso   1.000  I
  I9664    1.0000 0.80971  0.80971  0.19029  Biso   1.000  I
  I9665    1.0000 0.80971  0.69031  0.30969  Biso   1.000  I
  I9666    1.0000 0.80971  0.19029  0.80971  Biso   1.000  I
  I9667    1.0000 0.80971  0.30969  0.69031  Biso   1.000  I
  I9668    1.0000 0.69031  0.19029  0.69031  Biso   1.000  I
  I9669    1.0000 0.80971  0.19029  0.80971  Biso   1.000  I
  I9670    1.0000 0.80971  0.30969  0.69031  Biso   1.000  I
  I9671    1.0000 0.69031  0.30969  0.80971  Biso   1.000  I
  I9672    1.0000 0.30969  0.69031  0.80971  Biso   1.000  I
  I9673    1.0000 0.19029  0.80971  0.80971  Biso   1.000  I
  I9674    1.0000 0.69031  0.30969  0.80971  Biso   1.000  I
  I9675    1.0000 0.80971  0.19029  0.80971  Biso   1.000  I
  I9676    1.0000 0.30969  0.80971  0.69031  Biso   1.000  I
  I9677    1.0000 0.30969  0.69031  0.80971  Biso   1.000  I
  I9678    1.0000 0.19029  0.80971  0.80971  Biso   1.000  I
  I9679    1.0000 0.80971  0.80971  0.19029  Biso   1.000  I
  I9680    1.0000 0.69031  0.80971  0.30969  Biso   1.000  I
  I9681    1.0000 0.80971  0.69031  0.30969  Biso   1.000  I
  I9682    1.0000 0.30969  0.69031  0.80971  Biso   1.000  I
  I9683    1.0000 0.19029  0.80971  0.80971  Biso   1.000  I
  I9684    1.0000 0.69031  0.30969  0.80971  Biso   1.000  I
  I9685    1.0000 0.80971  0.19029  0.80971  Biso   1.000  I
  I9686    1.0000 0.69031  0.19029  0.69031  Biso   1.000  I
  I9687    1.0000 0.80971  0.19029  0.80971  Biso   1.000  I
  I9688    1.0000 0.80971  0.30969  0.69031  Biso   1.000  I
  I9689    1.0000 0.69031  0.30969  0.80971  Biso   1.000  I
  I9690    1.0000 0.30969  0.19029  0.30969  Biso   1.000  I
  I9691    1.0000 0.19029  0.30969  0.30969  Biso   1.000  I
  I9692    1.0000 0.30969  0.30969  0.19029  Biso   1.000  I
  I9693    1.0000 0.69031  0.30969  0.80971  Biso   1.000  I
  I9694    1.0000 0.80971  0.19029  0.80971  Biso   1.000  I
  I9695    1.0000 0.30969  0.69031  0.80971  Biso   1.000  I
  I9696    1.0000 0.19029  0.80971  0.80971  Biso   1.000  I
  I9697    1.0000 0.80971  0.19029  0.80971  Biso   1.000  I
  I9698    1.0000 0.80971  0.30969  0.69031  Biso   1.000  I
  I9699    1.0000 0.69031  0.30969  0.80971  Biso   1.000  I
  I9700    1.0000 0.19029  0.30969  0.30969  Biso   1.000  I
  I9701    1.0000 0.19029  0.19029  0.19029  Biso   1.000  I
  I9702    1.0000 0.30969  0.19029  0.30969  Biso   1.000  I
  I9703    1.0000 0.69031  0.30969  0.80971  Biso   1.000  I
  I9704    1.0000 0.80971  0.19029  0.80971  Biso   1.000  I
  I9705    1.0000 0.69031  0.19029  0.69031  Biso   1.000  I
  I9706    1.0000 0.19029  0.69031  0.69031  Biso   1.000  I
  I9707    1.0000 0.30969  0.69031  0.80971  Biso   1.000  I
  I9708    1.0000 0.19029  0.80971  0.80971  Biso   1.000  I
  I9709    1.0000 0.30969  0.19029  0.30969  Biso   1.000  I
  I9710    1.0000 0.69031  0.19029  0.69031  Biso   1.000  I
  I9711    1.0000 0.30969  0.80971  0.69031  Biso   1.000  I
  I9712    1.0000 0.19029  0.69031  0.69031  Biso   1.000  I
  I9713    1.0000 0.80971  0.69031  0.30969  Biso   1.000  I
  I9714    1.0000 0.30969  0.69031  0.80971  Biso   1.000  I
  I9715    1.0000 0.69031  0.69031  0.19029  Biso   1.000  I
  I9716    1.0000 0.19029  0.69031  0.69031  Biso   1.000  I
  I9717    1.0000 0.80971  0.69031  0.30969  Biso   1.000  I
  I9718    1.0000 0.69031  0.69031  0.19029  Biso   1.000  I
  I9719    1.0000 0.30969  0.69031  0.80971  Biso   1.000  I
  I9720    1.0000 0.30969  0.30969  0.19029  Biso   1.000  I
  I9721    1.0000 0.69031  0.69031  0.19029  Biso   1.000  I
  I9722    1.0000 0.30969  0.69031  0.80971  Biso   1.000  I
  I9723    1.0000 0.80971  0.30969  0.69031  Biso   1.000  I
  I9724    1.0000 0.19029  0.69031  0.69031  Biso   1.000  I
  I9725    1.0000 0.80971  0.69031  0.30969  Biso   1.000  I
  I9726    1.0000 0.30969  0.19029  0.30969  Biso   1.000  I
  I9727    1.0000 0.30969  0.69031  0.80971  Biso   1.000  I
  I9728    1.0000 0.69031  0.69031  0.19029  Biso   1.000  I
  I9729    1.0000 0.19029  0.69031  0.69031  Biso   1.000  I
  I9730    1.0000 0.80971  0.69031  0.30969  Biso   1.000  I
  I9731    1.0000 0.19029  0.69031  0.69031  Biso   1.000  I
  I9732    1.0000 0.19029  0.30969  0.30969  Biso   1.000  I
  I9733    1.0000 0.80971  0.69031  0.30969  Biso   1.000  I
  I9734    1.0000 0.30969  0.19029  0.30969  Biso   1.000  I
  I9735    1.0000 0.69031  0.19029  0.69031  Biso   1.000  I
  I9736    1.0000 0.69031  0.80971  0.30969  Biso   1.000  I
  I9737    1.0000 0.30969  0.69031  0.80971  Biso   1.000  I
  I9738    1.0000 0.69031  0.69031  0.19029  Biso   1.000  I
  I9739    1.0000 0.69031  0.30969  0.80971  Biso   1.000  I
  I9740    1.0000 0.87498  0.12502  0.87498  Biso   1.000  I
  I9741    1.0000 0.87498  0.37501  0.62499  Biso   1.000  I
  I9742    1.0000 0.87498  0.87498  0.12502  Biso   1.000  I
  I9743    1.0000 0.73599  0.76399  0.26401  Biso   1.000  I
  I9744    1.0000 0.62499  0.62499  0.12502  Biso   1.000  I
  I9745    1.0000 0.87498  0.62499  0.37501  Biso   1.000  I
  I9746    1.0000 0.87498  0.87498  0.12502  Biso   1.000  I
  I9747    1.0000 0.87498  0.62499  0.37501  Biso   1.000  I
  I9748    1.0000 0.87498  0.12502  0.87498  Biso   1.000  I
  I9749    1.0000 0.73599  0.26401  0.76399  Biso   1.000  I
  I9750    1.0000 0.87498  0.37501  0.62499  Biso   1.000  I
  I9751    1.0000 0.62499  0.12502  0.62499  Biso   1.000  I
  I9752    1.0000 0.37501  0.12502  0.37501  Biso   1.000  I
  I9753    1.0000 0.23601  0.26401  0.26401  Biso   1.000  I
  I9754    1.0000 0.12502  0.12502  0.12502  Biso   1.000  I
  I9755    1.0000 0.37501  0.37501  0.12502  Biso   1.000  I
  I9756    1.0000 0.87498  0.12502  0.87498  Biso   1.000  I
  I9757    1.0000 0.87498  0.37501  0.62499  Biso   1.000  I
  I9758    1.0000 0.87498  0.87498  0.12502  Biso   1.000  I
  I9759    1.0000 0.87498  0.62499  0.37501  Biso   1.000  I
  I9760    1.0000 0.12502  0.12502  0.12502  Biso   1.000  I
  I9761    1.0000 0.37501  0.12502  0.37501  Biso   1.000  I
  I9762    1.0000 0.87498  0.87498  0.12502  Biso   1.000  I
  I9763    1.0000 0.87498  0.62499  0.37501  Biso   1.000  I
  I9764    1.0000 0.87498  0.12502  0.87498  Biso   1.000  I
  I9765    1.0000 0.73599  0.26401  0.76399  Biso   1.000  I
  I9766    1.0000 0.87498  0.37501  0.62499  Biso   1.000  I
  I9767    1.0000 0.62499  0.12502  0.62499  Biso   1.000  I
  I9768    1.0000 0.87498  0.12502  0.87498  Biso   1.000  I
  I9769    1.0000 0.73599  0.23601  0.73599  Biso   1.000  I
  I9770    1.0000 0.87498  0.37501  0.62499  Biso   1.000  I
  I9771    1.0000 0.62499  0.37501  0.87498  Biso   1.000  I
  I9772    1.0000 0.37501  0.62499  0.87498  Biso   1.000  I
  I9773    1.0000 0.12502  0.87498  0.87498  Biso   1.000  I
  I9774    1.0000 0.62499  0.37501  0.87498  Biso   1.000  I
  I9775    1.0000 0.87498  0.12502  0.87498  Biso   1.000  I
  I9776    1.0000 0.37501  0.87498  0.62499  Biso   1.000  I
  I9777    1.0000 0.23601  0.73599  0.73599  Biso   1.000  I
  I9778    1.0000 0.37501  0.62499  0.87498  Biso   1.000  I
  I9779    1.0000 0.12502  0.87498  0.87498  Biso   1.000  I
  I9780    1.0000 0.87498  0.87498  0.12502  Biso   1.000  I
  I9781    1.0000 0.73599  0.73599  0.23601  Biso   1.000  I
  I9782    1.0000 0.62499  0.87498  0.37501  Biso   1.000  I
  I9783    1.0000 0.87498  0.62499  0.37501  Biso   1.000  I
  I9784    1.0000 0.37501  0.62499  0.87498  Biso   1.000  I
  I9785    1.0000 0.12502  0.87498  0.87498  Biso   1.000  I
  I9786    1.0000 0.62499  0.37501  0.87498  Biso   1.000  I
  I9787    1.0000 0.76399  0.26401  0.73599  Biso   1.000  I
  I9788    1.0000 0.87498  0.12502  0.87498  Biso   1.000  I
  I9789    1.0000 0.62499  0.12502  0.62499  Biso   1.000  I
  I9790    1.0000 0.87498  0.12502  0.87498  Biso   1.000  I
  I9791    1.0000 0.73599  0.23601  0.73599  Biso   1.000  I
  I9792    1.0000 0.87498  0.37501  0.62499  Biso   1.000  I
  I9793    1.0000 0.62499  0.37501  0.87498  Biso   1.000  I
  I9794    1.0000 0.37501  0.12502  0.37501  Biso   1.000  I
  I9795    1.0000 0.23601  0.23601  0.23601  Biso   1.000  I
  I9796    1.0000 0.12502  0.37501  0.37501  Biso   1.000  I
  I9797    1.0000 0.37501  0.37501  0.12502  Biso   1.000  I
  I9798    1.0000 0.62499  0.37501  0.87498  Biso   1.000  I
  I9799    1.0000 0.87498  0.12502  0.87498  Biso   1.000  I
  I9800    1.0000 0.37501  0.62499  0.87498  Biso   1.000  I
  I9801    1.0000 0.12502  0.87498  0.87498  Biso   1.000  I
  I9802    1.0000 0.87498  0.12502  0.87498  Biso   1.000  I
  I9803    1.0000 0.73599  0.23601  0.73599  Biso   1.000  I
  I9804    1.0000 0.87498  0.37501  0.62499  Biso   1.000  I
  I9805    1.0000 0.62499  0.37501  0.87498  Biso   1.000  I
  I9806    1.0000 0.12502  0.37501  0.37501  Biso   1.000  I
  I9807    1.0000 0.26401  0.26401  0.23601  Biso   1.000  I
  I9808    1.0000 0.12502  0.12502  0.12502  Biso   1.000  I
  I9809    1.0000 0.37501  0.12502  0.37501  Biso   1.000  I
  I9810    1.0000 0.62499  0.37501  0.87498  Biso   1.000  I
  I9811    1.0000 0.76399  0.26401  0.73599  Biso   1.000  I
  I9812    1.0000 0.87498  0.12502  0.87498  Biso   1.000  I
  I9813    1.0000 0.62499  0.12502  0.62499  Biso   1.000  I
  I9814    1.0000 0.12502  0.62499  0.62499  Biso   1.000  I
  I9815    1.0000 0.26401  0.76399  0.73599  Biso   1.000  I
  I9816    1.0000 0.37501  0.62499  0.87498  Biso   1.000  I
  I9817    1.0000 0.12502  0.87498  0.87498  Biso   1.000  I
  I9818    1.0000 0.26401  0.26401  0.23601  Biso   1.000  I
  I9819    1.0000 0.23601  0.26401  0.26401  Biso   1.000  I
  I9820    1.0000 0.23601  0.23601  0.23601  Biso   1.000  I
  I9821    1.0000 0.73599  0.26401  0.76399  Biso   1.000  I
  I9822    1.0000 0.76399  0.23601  0.76399  Biso   1.000  I
  I9823    1.0000 0.76399  0.26401  0.73599  Biso   1.000  I
  I9824    1.0000 0.23601  0.76399  0.76399  Biso   1.000  I
  I9825    1.0000 0.23601  0.73599  0.73599  Biso   1.000  I
  I9826    1.0000 0.26401  0.73599  0.76399  Biso   1.000  I
  I9827    1.0000 0.23601  0.76399  0.76399  Biso   1.000  I
  I9828    1.0000 0.26401  0.76399  0.73599  Biso   1.000  I
  I9829    1.0000 0.26401  0.73599  0.76399  Biso   1.000  I
  I9830    1.0000 0.76399  0.76399  0.23601  Biso   1.000  I
  I9831    1.0000 0.73599  0.73599  0.23601  Biso   1.000  I
  I9832    1.0000 0.73599  0.76399  0.26401  Biso   1.000  I
  I9833    1.0000 0.23601  0.76399  0.76399  Biso   1.000  I
  I9834    1.0000 0.23601  0.73599  0.73599  Biso   1.000  I
  I9835    1.0000 0.26401  0.76399  0.73599  Biso   1.000  I
  I9836    1.0000 0.76399  0.73599  0.26401  Biso   1.000  I
  I9837    1.0000 0.76399  0.76399  0.23601  Biso   1.000  I
  I9838    1.0000 0.73599  0.76399  0.26401  Biso   1.000  I
  I9839    1.0000 0.23601  0.76399  0.76399  Biso   1.000  I
  I9840    1.0000 0.26401  0.76399  0.73599  Biso   1.000  I
  I9841    1.0000 0.26401  0.73599  0.76399  Biso   1.000  I
  I9842    1.0000 0.73599  0.73599  0.23601  Biso   1.000  I
  I9843    1.0000 0.76399  0.73599  0.26401  Biso   1.000  I
  I9844    1.0000 0.76399  0.76399  0.23601  Biso   1.000  I
  I9845    1.0000 0.73599  0.76399  0.26401  Biso   1.000  I
  I9846    1.0000 0.23601  0.73599  0.73599  Biso   1.000  I
  I9847    1.0000 0.26401  0.23601  0.26401  Biso   1.000  I
  I9848    1.0000 0.76399  0.73599  0.26401  Biso   1.000  I
  I9849    1.0000 0.76399  0.76399  0.23601  Biso   1.000  I
  I9850    1.0000 0.73599  0.76399  0.26401  Biso   1.000  I
  I9851    1.0000 0.23601  0.76399  0.76399  Biso   1.000  I
  I9852    1.0000 0.23601  0.73599  0.73599  Biso   1.000  I
  I9853    1.0000 0.26401  0.76399  0.73599  Biso   1.000  I
  I9854    1.0000 0.73599  0.23601  0.73599  Biso   1.000  I
  I9855    1.0000 0.23601  0.76399  0.76399  Biso   1.000  I
  I9856    1.0000 0.26401  0.76399  0.73599  Biso   1.000  I
  I9857    1.0000 0.26401  0.73599  0.76399  Biso   1.000  I
  I9858    1.0000 0.73599  0.73599  0.23601  Biso   1.000  I
  I9859    1.0000 0.26401  0.26401  0.23601  Biso   1.000  I
  I9860    1.0000 0.23601  0.26401  0.26401  Biso   1.000  I
  I9861    1.0000 0.23601  0.23601  0.23601  Biso   1.000  I
  I9862    1.0000 0.23601  0.76399  0.76399  Biso   1.000  I
  I9863    1.0000 0.23601  0.73599  0.73599  Biso   1.000  I
  I9864    1.0000 0.26401  0.76399  0.73599  Biso   1.000  I
  I9865    1.0000 0.76399  0.73599  0.26401  Biso   1.000  I
  I9866    1.0000 0.26401  0.73599  0.76399  Biso   1.000  I
  I9867    1.0000 0.76399  0.76399  0.23601  Biso   1.000  I
  I9868    1.0000 0.73599  0.73599  0.23601  Biso   1.000  I
  I9869    1.0000 0.73599  0.76399  0.26401  Biso   1.000  I
  I9870    1.0000 0.23601  0.76399  0.76399  Biso   1.000  I
  I9871    1.0000 0.26401  0.76399  0.73599  Biso   1.000  I
  I9872    1.0000 0.26401  0.73599  0.76399  Biso   1.000  I
  I9873    1.0000 0.26401  0.26401  0.23601  Biso   1.000  I
  I9874    1.0000 0.26401  0.23601  0.26401  Biso   1.000  I
  I9875    1.0000 0.23601  0.23601  0.23601  Biso   1.000  I
  I9876    1.0000 0.76399  0.76399  0.23601  Biso   1.000  I
  I9877    1.0000 0.73599  0.73599  0.23601  Biso   1.000  I
  I9878    1.0000 0.73599  0.76399  0.26401  Biso   1.000  I
  I9879    1.0000 0.23601  0.26401  0.26401  Biso   1.000  I
  I9880    1.0000 0.73599  0.26401  0.76399  Biso   1.000  I
  I9881    1.0000 0.76399  0.23601  0.76399  Biso   1.000  I
  I9882    1.0000 0.76399  0.26401  0.73599  Biso   1.000  I
  I9883    1.0000 0.76399  0.73599  0.26401  Biso   1.000  I
  I9884    1.0000 0.76399  0.76399  0.23601  Biso   1.000  I
  I9885    1.0000 0.73599  0.73599  0.23601  Biso   1.000  I
  I9886    1.0000 0.23601  0.73599  0.73599  Biso   1.000  I
  I9887    1.0000 0.76399  0.73599  0.26401  Biso   1.000  I
  I9888    1.0000 0.76399  0.76399  0.23601  Biso   1.000  I
  I9889    1.0000 0.73599  0.76399  0.26401  Biso   1.000  I
  I9890    1.0000 0.73599  0.23601  0.73599  Biso   1.000  I
  I9891    1.0000 0.94030  0.05970  0.94030  Biso   1.000  I
  I9892    1.0000 0.94030  0.44028  0.55972  Biso   1.000  I
  I9893    1.0000 0.94030  0.94030  0.05970  Biso   1.000  I
  I9894    1.0000 0.55972  0.55972  0.05970  Biso   1.000  I
  I9895    1.0000 0.94030  0.55972  0.44028  Biso   1.000  I
  I9896    1.0000 0.94030  0.94030  0.05970  Biso   1.000  I
  I9897    1.0000 0.94030  0.55972  0.44028  Biso   1.000  I
  I9898    1.0000 0.94030  0.05970  0.94030  Biso   1.000  I
  I9899    1.0000 0.94030  0.44028  0.55972  Biso   1.000  I
  I9900    1.0000 0.55972  0.05970  0.55972  Biso   1.000  I
  I9901    1.0000 0.44028  0.05970  0.44028  Biso   1.000  I
  I9902    1.0000 0.05970  0.05970  0.05970  Biso   1.000  I
  I9903    1.0000 0.44028  0.44028  0.05970  Biso   1.000  I
  I9904    1.0000 0.94030  0.05970  0.94030  Biso   1.000  I
  I9905    1.0000 0.94030  0.44028  0.55972  Biso   1.000  I
  I9906    1.0000 0.94030  0.94030  0.05970  Biso   1.000  I
  I9907    1.0000 0.94030  0.55972  0.44028  Biso   1.000  I
  I9908    1.0000 0.05970  0.05970  0.05970  Biso   1.000  I
  I9909    1.0000 0.44028  0.05970  0.44028  Biso   1.000  I
  I9910    1.0000 0.94030  0.94030  0.05970  Biso   1.000  I
  I9911    1.0000 0.94030  0.55972  0.44028  Biso   1.000  I
  I9912    1.0000 0.94030  0.05970  0.94030  Biso   1.000  I
  I9913    1.0000 0.94030  0.44028  0.55972  Biso   1.000  I
  I9914    1.0000 0.55972  0.05970  0.55972  Biso   1.000  I
  I9915    1.0000 0.94030  0.05970  0.94030  Biso   1.000  I
  I9916    1.0000 0.94030  0.44028  0.55972  Biso   1.000  I
  I9917    1.0000 0.55972  0.44028  0.94030  Biso   1.000  I
  I9918    1.0000 0.44028  0.55972  0.94030  Biso   1.000  I
  I9919    1.0000 0.05970  0.94030  0.94030  Biso   1.000  I
  I9920    1.0000 0.55972  0.44028  0.94030  Biso   1.000  I
  I9921    1.0000 0.94030  0.05970  0.94030  Biso   1.000  I
  I9922    1.0000 0.44028  0.94030  0.55972  Biso   1.000  I
  I9923    1.0000 0.44028  0.55972  0.94030  Biso   1.000  I
  I9924    1.0000 0.05970  0.94030  0.94030  Biso   1.000  I
  I9925    1.0000 0.94030  0.94030  0.05970  Biso   1.000  I
  I9926    1.0000 0.55972  0.94030  0.44028  Biso   1.000  I
  I9927    1.0000 0.94030  0.55972  0.44028  Biso   1.000  I
  I9928    1.0000 0.44028  0.55972  0.94030  Biso   1.000  I
  I9929    1.0000 0.05970  0.94030  0.94030  Biso   1.000  I
  I9930    1.0000 0.55972  0.44028  0.94030  Biso   1.000  I
  I9931    1.0000 0.94030  0.05970  0.94030  Biso   1.000  I
  I9932    1.0000 0.55972  0.05970  0.55972  Biso   1.000  I
  I9933    1.0000 0.94030  0.05970  0.94030  Biso   1.000  I
  I9934    1.0000 0.94030  0.44028  0.55972  Biso   1.000  I
  I9935    1.0000 0.55972  0.44028  0.94030  Biso   1.000  I
  I9936    1.0000 0.44028  0.05970  0.44028  Biso   1.000  I
  I9937    1.0000 0.05970  0.44028  0.44028  Biso   1.000  I
  I9938    1.0000 0.44028  0.44028  0.05970  Biso   1.000  I
  I9939    1.0000 0.55972  0.44028  0.94030  Biso   1.000  I
  I9940    1.0000 0.94030  0.05970  0.94030  Biso   1.000  I
  I9941    1.0000 0.44028  0.55972  0.94030  Biso   1.000  I
  I9942    1.0000 0.05970  0.94030  0.94030  Biso   1.000  I
  I9943    1.0000 0.94030  0.05970  0.94030  Biso   1.000  I
  I9944    1.0000 0.94030  0.44028  0.55972  Biso   1.000  I
  I9945    1.0000 0.55972  0.44028  0.94030  Biso   1.000  I
  I9946    1.0000 0.05970  0.44028  0.44028  Biso   1.000  I
  I9947    1.0000 0.05970  0.05970  0.05970  Biso   1.000  I
  I9948    1.0000 0.44028  0.05970  0.44028  Biso   1.000  I
  I9949    1.0000 0.55972  0.44028  0.94030  Biso   1.000  I
  I9950    1.0000 0.94030  0.05970  0.94030  Biso   1.000  I
  I9951    1.0000 0.55972  0.05970  0.55972  Biso   1.000  I
  I9952    1.0000 0.05970  0.55972  0.55972  Biso   1.000  I
  I9953    1.0000 0.44028  0.55972  0.94030  Biso   1.000  I
  I9954    1.0000 0.05970  0.94030  0.94030  Biso   1.000  I
  I9955    1.0000 0.19029  0.30969  0.30969  Biso   1.000  I
  I9956    1.0000 0.19029  0.19029  0.19029  Biso   1.000  I
  I9957    1.0000 0.80971  0.19029  0.80971  Biso   1.000  I
  I9958    1.0000 0.69031  0.30969  0.80971  Biso   1.000  I
  I9959    1.0000 0.19029  0.69031  0.69031  Biso   1.000  I
  I9960    1.0000 0.30969  0.69031  0.80971  Biso   1.000  I
  I9961    1.0000 0.19029  0.80971  0.80971  Biso   1.000  I
  I9962    1.0000 0.30969  0.80971  0.69031  Biso   1.000  I
  I9963    1.0000 0.19029  0.80971  0.80971  Biso   1.000  I
  I9964    1.0000 0.69031  0.80971  0.30969  Biso   1.000  I
  I9965    1.0000 0.80971  0.80971  0.19029  Biso   1.000  I
  I9966    1.0000 0.30969  0.80971  0.69031  Biso   1.000  I
  I9967    1.0000 0.19029  0.80971  0.80971  Biso   1.000  I
  I9968    1.0000 0.80971  0.80971  0.19029  Biso   1.000  I
  I9969    1.0000 0.69031  0.80971  0.30969  Biso   1.000  I
  I9970    1.0000 0.30969  0.80971  0.69031  Biso   1.000  I
  I9971    1.0000 0.30969  0.69031  0.80971  Biso   1.000  I
  I9972    1.0000 0.19029  0.80971  0.80971  Biso   1.000  I
  I9973    1.0000 0.80971  0.80971  0.19029  Biso   1.000  I
  I9974    1.0000 0.69031  0.80971  0.30969  Biso   1.000  I
  I9975    1.0000 0.80971  0.69031  0.30969  Biso   1.000  I
  I9976    1.0000 0.80971  0.80971  0.19029  Biso   1.000  I
  I9977    1.0000 0.69031  0.80971  0.30969  Biso   1.000  I
  I9978    1.0000 0.19029  0.69031  0.69031  Biso   1.000  I
  I9979    1.0000 0.30969  0.80971  0.69031  Biso   1.000  I
  I9980    1.0000 0.19029  0.80971  0.80971  Biso   1.000  I
  I9981    1.0000 0.30969  0.80971  0.69031  Biso   1.000  I
  I9982    1.0000 0.30969  0.69031  0.80971  Biso   1.000  I
  I9983    1.0000 0.19029  0.80971  0.80971  Biso   1.000  I
  I9984    1.0000 0.19029  0.30969  0.30969  Biso   1.000  I
  I9985    1.0000 0.19029  0.19029  0.19029  Biso   1.000  I
  I9986    1.0000 0.30969  0.30969  0.19029  Biso   1.000  I
  I9987    1.0000 0.19029  0.69031  0.69031  Biso   1.000  I
  I9988    1.0000 0.30969  0.80971  0.69031  Biso   1.000  I
  I9989    1.0000 0.19029  0.80971  0.80971  Biso   1.000  I
  I9990    1.0000 0.69031  0.69031  0.19029  Biso   1.000  I
  I9991    1.0000 0.69031  0.80971  0.30969  Biso   1.000  I
  I9992    1.0000 0.80971  0.80971  0.19029  Biso   1.000  I
  I9993    1.0000 0.30969  0.80971  0.69031  Biso   1.000  I
  I9994    1.0000 0.19029  0.80971  0.80971  Biso   1.000  I
  I9995    1.0000 0.19029  0.19029  0.19029  Biso   1.000  I
  I9996    1.0000 0.30969  0.30969  0.19029  Biso   1.000  I
  I9997    1.0000 0.69031  0.69031  0.19029  Biso   1.000  I
  I9998    1.0000 0.69031  0.80971  0.30969  Biso   1.000  I
  I9999    1.0000 0.80971  0.80971  0.19029  Biso   1.000  I
  I10000   1.0000 0.80971  0.19029  0.80971  Biso   1.000  I
  I10001   1.0000 0.80971  0.30969  0.69031  Biso   1.000  I
  I10002   1.0000 0.80971  0.80971  0.19029  Biso   1.000  I
  I10003   1.0000 0.69031  0.69031  0.19029  Biso   1.000  I
  I10004   1.0000 0.80971  0.69031  0.30969  Biso   1.000  I
  I10005   1.0000 0.80971  0.80971  0.19029  Biso   1.000  I
  I10006   1.0000 0.69031  0.80971  0.30969  Biso   1.000  I
  I10007   1.0000 0.80971  0.69031  0.30969  Biso   1.000  I
  I10008   1.0000 0.98598  0.98598  0.01402  Biso   1.000  I
  I10009   1.0000 0.98598  0.51400  0.48600  Biso   1.000  I
  I10010   1.0000 0.48600  0.48600  0.01402  Biso   1.000  I
  I10011   1.0000 0.98598  0.48600  0.51400  Biso   1.000  I
  I10012   1.0000 0.98598  0.01402  0.98598  Biso   1.000  I
  I10013   1.0000 0.98598  0.48600  0.51400  Biso   1.000  I
  I10014   1.0000 0.98598  0.51400  0.48600  Biso   1.000  I
  I10015   1.0000 0.48600  0.01402  0.48600  Biso   1.000  I
  I10016   1.0000 0.51400  0.01402  0.51400  Biso   1.000  I
  I10017   1.0000 0.51400  0.51400  0.01402  Biso   1.000  I
  I10018   1.0000 0.98598  0.98598  0.01402  Biso   1.000  I
  I10019   1.0000 0.98598  0.51400  0.48600  Biso   1.000  I
  I10020   1.0000 0.98598  0.01402  0.98598  Biso   1.000  I
  I10021   1.0000 0.98598  0.48600  0.51400  Biso   1.000  I
  I10022   1.0000 0.98598  0.01402  0.98598  Biso   1.000  I
  I10023   1.0000 0.51400  0.01402  0.51400  Biso   1.000  I
  I10024   1.0000 0.98598  0.01402  0.98598  Biso   1.000  I
  I10025   1.0000 0.98598  0.48600  0.51400  Biso   1.000  I
  I10026   1.0000 0.98598  0.51400  0.48600  Biso   1.000  I
  I10027   1.0000 0.48600  0.01402  0.48600  Biso   1.000  I
  I10028   1.0000 0.98598  0.51400  0.48600  Biso   1.000  I
  I10029   1.0000 0.48600  0.51400  0.98598  Biso   1.000  I
  I10030   1.0000 0.51400  0.48600  0.98598  Biso   1.000  I
  I10031   1.0000 0.98598  0.01402  0.98598  Biso   1.000  I
  I10032   1.0000 0.48600  0.51400  0.98598  Biso   1.000  I
  I10033   1.0000 0.01402  0.98598  0.98598  Biso   1.000  I
  I10034   1.0000 0.51400  0.98598  0.48600  Biso   1.000  I
  I10035   1.0000 0.48600  0.01402  0.48600  Biso   1.000  I
  I10036   1.0000 0.51400  0.01402  0.51400  Biso   1.000  I
  I10037   1.0000 0.51400  0.48600  0.98598  Biso   1.000  I
  I10038   1.0000 0.98598  0.01402  0.98598  Biso   1.000  I
  I10039   1.0000 0.98598  0.01402  0.98598  Biso   1.000  I
  I10040   1.0000 0.48600  0.98598  0.51400  Biso   1.000  I
  I10041   1.0000 0.98598  0.48600  0.51400  Biso   1.000  I
  I10042   1.0000 0.51400  0.48600  0.98598  Biso   1.000  I
  I10043   1.0000 0.98598  0.01402  0.98598  Biso   1.000  I
  I10044   1.0000 0.48600  0.51400  0.98598  Biso   1.000  I
  I10045   1.0000 0.48600  0.01402  0.48600  Biso   1.000  I
  I10046   1.0000 0.98598  0.98598  0.01402  Biso   1.000  I
  I10047   1.0000 0.98598  0.51400  0.48600  Biso   1.000  I
  I10048   1.0000 0.48600  0.51400  0.98598  Biso   1.000  I
  I10049   1.0000 0.48600  0.48600  0.01402  Biso   1.000  I
  I10050   1.0000 0.51400  0.51400  0.01402  Biso   1.000  I
  I10051   1.0000 0.98598  0.51400  0.48600  Biso   1.000  I
  I10052   1.0000 0.98598  0.48600  0.51400  Biso   1.000  I
  I10053   1.0000 0.01402  0.51400  0.51400  Biso   1.000  I
  I10054   1.0000 0.51400  0.48600  0.98598  Biso   1.000  I
  I10055   1.0000 0.48600  0.51400  0.98598  Biso   1.000  I
  I10056   1.0000 0.01402  0.98598  0.98598  Biso   1.000  I
  I10057   1.0000 0.51400  0.48600  0.98598  Biso   1.000  I
  I10058   1.0000 0.98598  0.01402  0.98598  Biso   1.000  I
  I10059   1.0000 0.01402  0.98598  0.98598  Biso   1.000  I
  I10060   1.0000 0.01402  0.48600  0.48600  Biso   1.000  I
  I10061   1.0000 0.48600  0.51400  0.98598  Biso   1.000  I
  I10062   1.0000 0.01402  0.51400  0.51400  Biso   1.000  I
  I10063   1.0000 0.51400  0.01402  0.51400  Biso   1.000  I
  I10064   1.0000 0.48600  0.51400  0.98598  Biso   1.000  I
  I10065   1.0000 0.48600  0.01402  0.48600  Biso   1.000  I
  I10066   1.0000 0.01402  0.48600  0.48600  Biso   1.000  I
  I10067   1.0000 0.51400  0.48600  0.98598  Biso   1.000  I
  I10068   1.0000 0.12502  0.37501  0.37501  Biso   1.000  I
  I10069   1.0000 0.12502  0.12502  0.12502  Biso   1.000  I
  I10070   1.0000 0.87498  0.12502  0.87498  Biso   1.000  I
  I10071   1.0000 0.62499  0.37501  0.87498  Biso   1.000  I
  I10072   1.0000 0.12502  0.62499  0.62499  Biso   1.000  I
  I10073   1.0000 0.26401  0.76399  0.73599  Biso   1.000  I
  I10074   1.0000 0.37501  0.62499  0.87498  Biso   1.000  I
  I10075   1.0000 0.12502  0.87498  0.87498  Biso   1.000  I
  I10076   1.0000 0.37501  0.87498  0.62499  Biso   1.000  I
  I10077   1.0000 0.12502  0.87498  0.87498  Biso   1.000  I
  I10078   1.0000 0.62499  0.87498  0.37501  Biso   1.000  I
  I10079   1.0000 0.87498  0.87498  0.12502  Biso   1.000  I
  I10080   1.0000 0.37501  0.87498  0.62499  Biso   1.000  I
  I10081   1.0000 0.12502  0.87498  0.87498  Biso   1.000  I
  I10082   1.0000 0.87498  0.87498  0.12502  Biso   1.000  I
  I10083   1.0000 0.62499  0.87498  0.37501  Biso   1.000  I
  I10084   1.0000 0.37501  0.87498  0.62499  Biso   1.000  I
  I10085   1.0000 0.23601  0.73599  0.73599  Biso   1.000  I
  I10086   1.0000 0.37501  0.62499  0.87498  Biso   1.000  I
  I10087   1.0000 0.12502  0.87498  0.87498  Biso   1.000  I
  I10088   1.0000 0.87498  0.87498  0.12502  Biso   1.000  I
  I10089   1.0000 0.73599  0.73599  0.23601  Biso   1.000  I
  I10090   1.0000 0.62499  0.87498  0.37501  Biso   1.000  I
  I10091   1.0000 0.87498  0.62499  0.37501  Biso   1.000  I
  I10092   1.0000 0.87498  0.87498  0.12502  Biso   1.000  I
  I10093   1.0000 0.62499  0.87498  0.37501  Biso   1.000  I
  I10094   1.0000 0.12502  0.62499  0.62499  Biso   1.000  I
  I10095   1.0000 0.26401  0.73599  0.76399  Biso   1.000  I
  I10096   1.0000 0.37501  0.87498  0.62499  Biso   1.000  I
  I10097   1.0000 0.12502  0.87498  0.87498  Biso   1.000  I
  I10098   1.0000 0.37501  0.87498  0.62499  Biso   1.000  I
  I10099   1.0000 0.23601  0.73599  0.73599  Biso   1.000  I
  I10100   1.0000 0.37501  0.62499  0.87498  Biso   1.000  I
  I10101   1.0000 0.12502  0.87498  0.87498  Biso   1.000  I
  I10102   1.0000 0.12502  0.37501  0.37501  Biso   1.000  I
  I10103   1.0000 0.26401  0.23601  0.26401  Biso   1.000  I
  I10104   1.0000 0.12502  0.12502  0.12502  Biso   1.000  I
  I10105   1.0000 0.37501  0.37501  0.12502  Biso   1.000  I
  I10106   1.0000 0.12502  0.62499  0.62499  Biso   1.000  I
  I10107   1.0000 0.26401  0.73599  0.76399  Biso   1.000  I
  I10108   1.0000 0.37501  0.87498  0.62499  Biso   1.000  I
  I10109   1.0000 0.12502  0.87498  0.87498  Biso   1.000  I
  I10110   1.0000 0.62499  0.62499  0.12502  Biso   1.000  I
  I10111   1.0000 0.76399  0.73599  0.26401  Biso   1.000  I
  I10112   1.0000 0.62499  0.87498  0.37501  Biso   1.000  I
  I10113   1.0000 0.87498  0.87498  0.12502  Biso   1.000  I
  I10114   1.0000 0.37501  0.87498  0.62499  Biso   1.000  I
  I10115   1.0000 0.12502  0.87498  0.87498  Biso   1.000  I
  I10116   1.0000 0.12502  0.12502  0.12502  Biso   1.000  I
  I10117   1.0000 0.37501  0.37501  0.12502  Biso   1.000  I
  I10118   1.0000 0.62499  0.62499  0.12502  Biso   1.000  I
  I10119   1.0000 0.76399  0.73599  0.26401  Biso   1.000  I
  I10120   1.0000 0.62499  0.87498  0.37501  Biso   1.000  I
  I10121   1.0000 0.87498  0.87498  0.12502  Biso   1.000  I
  I10122   1.0000 0.87498  0.12502  0.87498  Biso   1.000  I
  I10123   1.0000 0.87498  0.37501  0.62499  Biso   1.000  I
  I10124   1.0000 0.87498  0.87498  0.12502  Biso   1.000  I
  I10125   1.0000 0.73599  0.76399  0.26401  Biso   1.000  I
  I10126   1.0000 0.62499  0.62499  0.12502  Biso   1.000  I
  I10127   1.0000 0.87498  0.62499  0.37501  Biso   1.000  I
  I10128   1.0000 0.87498  0.87498  0.12502  Biso   1.000  I
  I10129   1.0000 0.73599  0.73599  0.23601  Biso   1.000  I
  I10130   1.0000 0.62499  0.87498  0.37501  Biso   1.000  I
  I10131   1.0000 0.87498  0.62499  0.37501  Biso   1.000  I
  I10132   1.0000 0.55972  0.05970  0.55972  Biso   1.000  I
  I10133   1.0000 0.55972  0.55972  0.05970  Biso   1.000  I
  I10134   1.0000 0.44028  0.55972  0.94030  Biso   1.000  I
  I10135   1.0000 0.05970  0.55972  0.55972  Biso   1.000  I
  I10136   1.0000 0.94030  0.55972  0.44028  Biso   1.000  I
  I10137   1.0000 0.05970  0.44028  0.44028  Biso   1.000  I
  I10138   1.0000 0.05970  0.05970  0.05970  Biso   1.000  I
  I10139   1.0000 0.94030  0.05970  0.94030  Biso   1.000  I
  I10140   1.0000 0.55972  0.44028  0.94030  Biso   1.000  I
  I10141   1.0000 0.05970  0.55972  0.55972  Biso   1.000  I
  I10142   1.0000 0.44028  0.55972  0.94030  Biso   1.000  I
  I10143   1.0000 0.05970  0.94030  0.94030  Biso   1.000  I
  I10144   1.0000 0.44028  0.94030  0.55972  Biso   1.000  I
  I10145   1.0000 0.05970  0.94030  0.94030  Biso   1.000  I
  I10146   1.0000 0.55972  0.94030  0.44028  Biso   1.000  I
  I10147   1.0000 0.94030  0.94030  0.05970  Biso   1.000  I
  I10148   1.0000 0.44028  0.94030  0.55972  Biso   1.000  I
  I10149   1.0000 0.05970  0.94030  0.94030  Biso   1.000  I
  I10150   1.0000 0.94030  0.94030  0.05970  Biso   1.000  I
  I10151   1.0000 0.55972  0.94030  0.44028  Biso   1.000  I
  I10152   1.0000 0.44028  0.94030  0.55972  Biso   1.000  I
  I10153   1.0000 0.05970  0.94030  0.94030  Biso   1.000  I
  I10154   1.0000 0.94030  0.94030  0.05970  Biso   1.000  I
  I10155   1.0000 0.55972  0.94030  0.44028  Biso   1.000  I
  I10156   1.0000 0.94030  0.94030  0.05970  Biso   1.000  I
  I10157   1.0000 0.55972  0.94030  0.44028  Biso   1.000  I
  I10158   1.0000 0.05970  0.55972  0.55972  Biso   1.000  I
  I10159   1.0000 0.44028  0.94030  0.55972  Biso   1.000  I
  I10160   1.0000 0.05970  0.94030  0.94030  Biso   1.000  I
  I10161   1.0000 0.44028  0.94030  0.55972  Biso   1.000  I
  I10162   1.0000 0.44028  0.55972  0.94030  Biso   1.000  I
  I10163   1.0000 0.05970  0.94030  0.94030  Biso   1.000  I
  I10164   1.0000 0.05970  0.44028  0.44028  Biso   1.000  I
  I10165   1.0000 0.05970  0.05970  0.05970  Biso   1.000  I
  I10166   1.0000 0.44028  0.44028  0.05970  Biso   1.000  I
  I10167   1.0000 0.05970  0.55972  0.55972  Biso   1.000  I
  I10168   1.0000 0.44028  0.94030  0.55972  Biso   1.000  I
  I10169   1.0000 0.05970  0.94030  0.94030  Biso   1.000  I
  I10170   1.0000 0.55972  0.55972  0.05970  Biso   1.000  I
  I10171   1.0000 0.55972  0.94030  0.44028  Biso   1.000  I
  I10172   1.0000 0.94030  0.94030  0.05970  Biso   1.000  I
  I10173   1.0000 0.44028  0.94030  0.55972  Biso   1.000  I
  I10174   1.0000 0.05970  0.94030  0.94030  Biso   1.000  I
  I10175   1.0000 0.05970  0.05970  0.05970  Biso   1.000  I
  I10176   1.0000 0.44028  0.44028  0.05970  Biso   1.000  I
  I10177   1.0000 0.55972  0.55972  0.05970  Biso   1.000  I
  I10178   1.0000 0.55972  0.94030  0.44028  Biso   1.000  I
  I10179   1.0000 0.94030  0.94030  0.05970  Biso   1.000  I
  I10180   1.0000 0.94030  0.05970  0.94030  Biso   1.000  I
  I10181   1.0000 0.94030  0.44028  0.55972  Biso   1.000  I
  I10182   1.0000 0.94030  0.94030  0.05970  Biso   1.000  I
  I10183   1.0000 0.55972  0.55972  0.05970  Biso   1.000  I
  I10184   1.0000 0.94030  0.55972  0.44028  Biso   1.000  I
  I10185   1.0000 0.94030  0.94030  0.05970  Biso   1.000  I
  I10186   1.0000 0.55972  0.94030  0.44028  Biso   1.000  I
  I10187   1.0000 0.94030  0.55972  0.44028  Biso   1.000  I
  I10188   1.0000 0.62499  0.12502  0.62499  Biso   1.000  I
  I10189   1.0000 0.62499  0.62499  0.12502  Biso   1.000  I
  I10190   1.0000 0.12502  0.62499  0.62499  Biso   1.000  I
  I10191   1.0000 0.01402  0.51400  0.51400  Biso   1.000  I
  I10192   1.0000 0.01402  0.98598  0.98598  Biso   1.000  I
  I10193   1.0000 0.01402  0.98598  0.98598  Biso   1.000  I
  I10194   1.0000 0.48600  0.51400  0.98598  Biso   1.000  I
  I10195   1.0000 0.01402  0.48600  0.48600  Biso   1.000  I
  I10196   1.0000 0.51400  0.48600  0.98598  Biso   1.000  I
  I10197   1.0000 0.51400  0.98598  0.48600  Biso   1.000  I
  I10198   1.0000 0.98598  0.98598  0.01402  Biso   1.000  I
  I10199   1.0000 0.48600  0.98598  0.51400  Biso   1.000  I
  I10200   1.0000 0.01402  0.98598  0.98598  Biso   1.000  I
  I10201   1.0000 0.51400  0.98598  0.48600  Biso   1.000  I
  I10202   1.0000 0.98598  0.98598  0.01402  Biso   1.000  I
  I10203   1.0000 0.01402  0.98598  0.98598  Biso   1.000  I
  I10204   1.0000 0.48600  0.98598  0.51400  Biso   1.000  I
  I10205   1.0000 0.51400  0.98598  0.48600  Biso   1.000  I
  I10206   1.0000 0.98598  0.98598  0.01402  Biso   1.000  I
  I10207   1.0000 0.01402  0.98598  0.98598  Biso   1.000  I
  I10208   1.0000 0.48600  0.98598  0.51400  Biso   1.000  I
  I10209   1.0000 0.01402  0.98598  0.98598  Biso   1.000  I
  I10210   1.0000 0.48600  0.98598  0.51400  Biso   1.000  I
  I10211   1.0000 0.01402  0.48600  0.48600  Biso   1.000  I
  I10212   1.0000 0.51400  0.98598  0.48600  Biso   1.000  I
  I10213   1.0000 0.51400  0.98598  0.48600  Biso   1.000  I
  I10214   1.0000 0.51400  0.48600  0.98598  Biso   1.000  I
  I10215   1.0000 0.01402  0.51400  0.51400  Biso   1.000  I
  I10216   1.0000 0.51400  0.51400  0.01402  Biso   1.000  I
  I10217   1.0000 0.01402  0.48600  0.48600  Biso   1.000  I
  I10218   1.0000 0.51400  0.98598  0.48600  Biso   1.000  I
  I10219   1.0000 0.48600  0.48600  0.01402  Biso   1.000  I
  I10220   1.0000 0.48600  0.98598  0.51400  Biso   1.000  I
  I10221   1.0000 0.51400  0.98598  0.48600  Biso   1.000  I
  I10222   1.0000 0.98598  0.98598  0.01402  Biso   1.000  I
  I10223   1.0000 0.98598  0.98598  0.01402  Biso   1.000  I
  I10224   1.0000 0.51400  0.51400  0.01402  Biso   1.000  I
  I10225   1.0000 0.48600  0.48600  0.01402  Biso   1.000  I
  I10226   1.0000 0.48600  0.98598  0.51400  Biso   1.000  I
  I10227   1.0000 0.98598  0.98598  0.01402  Biso   1.000  I
  I10228   1.0000 0.98598  0.51400  0.48600  Biso   1.000  I
  I10229   1.0000 0.48600  0.48600  0.01402  Biso   1.000  I
  I10230   1.0000 0.98598  0.48600  0.51400  Biso   1.000  I
  I10231   1.0000 0.48600  0.98598  0.51400  Biso   1.000  I
  I10232   1.0000 0.98598  0.48600  0.51400  Biso   1.000  I
  I10233   1.0000 0.69031  0.19029  0.69031  Biso   1.000  I
  I10234   1.0000 0.69031  0.69031  0.19029  Biso   1.000  I
  I10235   1.0000 0.19029  0.69031  0.69031  Biso   1.000  I
  I10236   1.0000 0.73599  0.26401  0.76399  Biso   1.000  I
  I10237   1.0000 0.76399  0.23601  0.76399  Biso   1.000  I
  I10238   1.0000 0.76399  0.26401  0.73599  Biso   1.000  I
  I10239   1.0000 0.76399  0.73599  0.26401  Biso   1.000  I
  I10240   1.0000 0.76399  0.76399  0.23601  Biso   1.000  I
  I10241   1.0000 0.73599  0.76399  0.26401  Biso   1.000  I
  I10242   1.0000 0.23601  0.76399  0.76399  Biso   1.000  I
  I10243   1.0000 0.26401  0.76399  0.73599  Biso   1.000  I
  I10244   1.0000 0.26401  0.73599  0.76399  Biso   1.000  I
  I10245   1.0000 0.80971  0.19029  0.80971  Biso   1.000  I
  I10246   1.0000 0.80971  0.30969  0.69031  Biso   1.000  I
  I10247   1.0000 0.69031  0.30969  0.80971  Biso   1.000  I
  I10248   1.0000 0.80971  0.80971  0.19029  Biso   1.000  I
  I10249   1.0000 0.69031  0.80971  0.30969  Biso   1.000  I
  I10250   1.0000 0.80971  0.69031  0.30969  Biso   1.000  I
  I10251   1.0000 0.30969  0.80971  0.69031  Biso   1.000  I
  I10252   1.0000 0.30969  0.69031  0.80971  Biso   1.000  I
  I10253   1.0000 0.19029  0.80971  0.80971  Biso   1.000  I
  I10254   1.0000 0.87498  0.12502  0.87498  Biso   1.000  I
  I10255   1.0000 0.73599  0.23601  0.73599  Biso   1.000  I
  I10256   1.0000 0.87498  0.37501  0.62499  Biso   1.000  I
  I10257   1.0000 0.62499  0.37501  0.87498  Biso   1.000  I
  I10258   1.0000 0.87498  0.87498  0.12502  Biso   1.000  I
  I10259   1.0000 0.73599  0.73599  0.23601  Biso   1.000  I
  I10260   1.0000 0.62499  0.87498  0.37501  Biso   1.000  I
  I10261   1.0000 0.87498  0.62499  0.37501  Biso   1.000  I
  I10262   1.0000 0.37501  0.87498  0.62499  Biso   1.000  I
  I10263   1.0000 0.23601  0.73599  0.73599  Biso   1.000  I
  I10264   1.0000 0.37501  0.62499  0.87498  Biso   1.000  I
  I10265   1.0000 0.12502  0.87498  0.87498  Biso   1.000  I
  I10266   1.0000 0.94030  0.05970  0.94030  Biso   1.000  I
  I10267   1.0000 0.94030  0.44028  0.55972  Biso   1.000  I
  I10268   1.0000 0.55972  0.44028  0.94030  Biso   1.000  I
  I10269   1.0000 0.94030  0.94030  0.05970  Biso   1.000  I
  I10270   1.0000 0.55972  0.94030  0.44028  Biso   1.000  I
  I10271   1.0000 0.94030  0.55972  0.44028  Biso   1.000  I
  I10272   1.0000 0.44028  0.94030  0.55972  Biso   1.000  I
  I10273   1.0000 0.44028  0.55972  0.94030  Biso   1.000  I
  I10274   1.0000 0.05970  0.94030  0.94030  Biso   1.000  I
  I10275   1.0000 0.98598  0.51400  0.48600  Biso   1.000  I
  I10276   1.0000 0.48600  0.51400  0.98598  Biso   1.000  I
  I10277   1.0000 0.48600  0.98598  0.51400  Biso   1.000  I
  I10278   1.0000 0.98598  0.48600  0.51400  Biso   1.000  I
  I10279   1.0000 0.51400  0.98598  0.48600  Biso   1.000  I
  I10280   1.0000 0.51400  0.48600  0.98598  Biso   1.000  I
  I10281   1.0000 0.30969  0.19029  0.30969  Biso   1.000  I
  I10282   1.0000 0.37501  0.12502  0.37501  Biso   1.000  I
  I10283   1.0000 0.26401  0.26401  0.23601  Biso   1.000  I
  I10284   1.0000 0.23601  0.26401  0.26401  Biso   1.000  I
  I10285   1.0000 0.23601  0.23601  0.23601  Biso   1.000  I
  I10286   1.0000 0.44028  0.05970  0.44028  Biso   1.000  I
  I10287   1.0000 0.19029  0.30969  0.30969  Biso   1.000  I
  I10288   1.0000 0.19029  0.19029  0.19029  Biso   1.000  I
  I10289   1.0000 0.30969  0.30969  0.19029  Biso   1.000  I
  I10290   1.0000 0.48600  0.98598  0.51400  Biso   1.000  I
  I10291   1.0000 0.51400  0.98598  0.48600  Biso   1.000  I
  I10292   1.0000 0.51400  0.01402  0.51400  Biso   1.000  I
  I10293   1.0000 0.12502  0.37501  0.37501  Biso   1.000  I
  I10294   1.0000 0.26401  0.23601  0.26401  Biso   1.000  I
  I10295   1.0000 0.12502  0.12502  0.12502  Biso   1.000  I
  I10296   1.0000 0.37501  0.37501  0.12502  Biso   1.000  I
  I10297   1.0000 0.55972  0.94030  0.44028  Biso   1.000  I
  I10298   1.0000 0.55972  0.05970  0.55972  Biso   1.000  I
  I10299   1.0000 0.44028  0.94030  0.55972  Biso   1.000  I
  I10300   1.0000 0.05970  0.44028  0.44028  Biso   1.000  I
  I10301   1.0000 0.05970  0.05970  0.05970  Biso   1.000  I
  I10302   1.0000 0.44028  0.44028  0.05970  Biso   1.000  I
  I10303   1.0000 0.62499  0.87498  0.37501  Biso   1.000  I
  I10304   1.0000 0.48600  0.01402  0.48600  Biso   1.000  I
  I10305   1.0000 0.62499  0.12502  0.62499  Biso   1.000  I
  I10306   1.0000 0.37501  0.87498  0.62499  Biso   1.000  I
  I10307   1.0000 0.98598  0.51400  0.48600  Biso   1.000  I
  I10308   1.0000 0.98598  0.48600  0.51400  Biso   1.000  I
  I10309   1.0000 0.01402  0.51400  0.51400  Biso   1.000  I
  I10310   1.0000 0.98598  0.98598  0.01402  Biso   1.000  I
  I10311   1.0000 0.98598  0.01402  0.98598  Biso   1.000  I
  I10312   1.0000 0.01402  0.98598  0.98598  Biso   1.000  I
  I10313   1.0000 0.51400  0.48600  0.98598  Biso   1.000  I
  I10314   1.0000 0.48600  0.51400  0.98598  Biso   1.000  I
  I10315   1.0000 0.51400  0.51400  0.01402  Biso   1.000  I
  I10316   1.0000 0.69031  0.80971  0.30969  Biso   1.000  I
  I10317   1.0000 0.69031  0.19029  0.69031  Biso   1.000  I
  I10318   1.0000 0.30969  0.80971  0.69031  Biso   1.000  I
  I10319   1.0000 0.94030  0.44028  0.55972  Biso   1.000  I
  I10320   1.0000 0.05970  0.55972  0.55972  Biso   1.000  I
  I10321   1.0000 0.94030  0.55972  0.44028  Biso   1.000  I
  I10322   1.0000 0.94030  0.05970  0.94030  Biso   1.000  I
  I10323   1.0000 0.05970  0.94030  0.94030  Biso   1.000  I
  I10324   1.0000 0.94030  0.94030  0.05970  Biso   1.000  I
  I10325   1.0000 0.44028  0.55972  0.94030  Biso   1.000  I
  I10326   1.0000 0.55972  0.55972  0.05970  Biso   1.000  I
  I10327   1.0000 0.55972  0.44028  0.94030  Biso   1.000  I
  I10328   1.0000 0.76399  0.73599  0.26401  Biso   1.000  I
  I10329   1.0000 0.76399  0.76399  0.23601  Biso   1.000  I
  I10330   1.0000 0.73599  0.73599  0.23601  Biso   1.000  I
  I10331   1.0000 0.73599  0.26401  0.76399  Biso   1.000  I
  I10332   1.0000 0.76399  0.23601  0.76399  Biso   1.000  I
  I10333   1.0000 0.76399  0.26401  0.73599  Biso   1.000  I
  I10334   1.0000 0.23601  0.76399  0.76399  Biso   1.000  I
  I10335   1.0000 0.23601  0.73599  0.73599  Biso   1.000  I
  I10336   1.0000 0.26401  0.73599  0.76399  Biso   1.000  I
  I10337   1.0000 0.87498  0.37501  0.62499  Biso   1.000  I
  I10338   1.0000 0.01402  0.48600  0.48600  Biso   1.000  I
  I10339   1.0000 0.12502  0.62499  0.62499  Biso   1.000  I
  I10340   1.0000 0.87498  0.62499  0.37501  Biso   1.000  I
  I10341   1.0000 0.87498  0.12502  0.87498  Biso   1.000  I
  I10342   1.0000 0.01402  0.01402  0.01402  Biso   1.000  I
  I10343   1.0000 0.12502  0.87498  0.87498  Biso   1.000  I
  I10344   1.0000 0.87498  0.87498  0.12502  Biso   1.000  I
  I10345   1.0000 0.37501  0.62499  0.87498  Biso   1.000  I
  I10346   1.0000 0.48600  0.48600  0.01402  Biso   1.000  I
  I10347   1.0000 0.62499  0.62499  0.12502  Biso   1.000  I
  I10348   1.0000 0.62499  0.37501  0.87498  Biso   1.000  I
  I10349   1.0000 0.80971  0.80971  0.19029  Biso   1.000  I
  I10350   1.0000 0.69031  0.69031  0.19029  Biso   1.000  I
  I10351   1.0000 0.80971  0.69031  0.30969  Biso   1.000  I
  I10352   1.0000 0.80971  0.19029  0.80971  Biso   1.000  I
  I10353   1.0000 0.80971  0.30969  0.69031  Biso   1.000  I
  I10354   1.0000 0.69031  0.30969  0.80971  Biso   1.000  I
  I10355   1.0000 0.19029  0.69031  0.69031  Biso   1.000  I
  I10356   1.0000 0.30969  0.69031  0.80971  Biso   1.000  I
  I10357   1.0000 0.19029  0.80971  0.80971  Biso   1.000  I
  I10358   1.0000 0.80971  0.30969  0.69031  Biso   1.000  I
  I10359   1.0000 0.19029  0.69031  0.69031  Biso   1.000  I
  I10360   1.0000 0.80971  0.69031  0.30969  Biso   1.000  I
  I10361   1.0000 0.80971  0.19029  0.80971  Biso   1.000  I
  I10362   1.0000 0.19029  0.80971  0.80971  Biso   1.000  I
  I10363   1.0000 0.80971  0.80971  0.19029  Biso   1.000  I
  I10364   1.0000 0.30969  0.69031  0.80971  Biso   1.000  I
  I10365   1.0000 0.69031  0.69031  0.19029  Biso   1.000  I
  I10366   1.0000 0.69031  0.30969  0.80971  Biso   1.000  I
  I10367   1.0000 0.87498  0.87498  0.12502  Biso   1.000  I
  I10368   1.0000 0.73599  0.76399  0.26401  Biso   1.000  I
  I10369   1.0000 0.62499  0.62499  0.12502  Biso   1.000  I
  I10370   1.0000 0.87498  0.62499  0.37501  Biso   1.000  I
  I10371   1.0000 0.87498  0.12502  0.87498  Biso   1.000  I
  I10372   1.0000 0.73599  0.23601  0.73599  Biso   1.000  I
  I10373   1.0000 0.87498  0.37501  0.62499  Biso   1.000  I
  I10374   1.0000 0.62499  0.37501  0.87498  Biso   1.000  I
  I10375   1.0000 0.12502  0.62499  0.62499  Biso   1.000  I
  I10376   1.0000 0.26401  0.76399  0.73599  Biso   1.000  I
  I10377   1.0000 0.37501  0.62499  0.87498  Biso   1.000  I
  I10378   1.0000 0.12502  0.87498  0.87498  Biso   1.000  I
  I10379   1.0000 0.73599  0.23601  0.73599  Biso   1.000  I
  I10380   1.0000 0.73599  0.26401  0.76399  Biso   1.000  I
  I10381   1.0000 0.76399  0.23601  0.76399  Biso   1.000  I
  I10382   1.0000 0.23601  0.76399  0.76399  Biso   1.000  I
  I10383   1.0000 0.26401  0.76399  0.73599  Biso   1.000  I
  I10384   1.0000 0.26401  0.73599  0.76399  Biso   1.000  I
  I10385   1.0000 0.76399  0.76399  0.23601  Biso   1.000  I
  I10386   1.0000 0.73599  0.73599  0.23601  Biso   1.000  I
  I10387   1.0000 0.73599  0.76399  0.26401  Biso   1.000  I
  I10388   1.0000 0.73599  0.23601  0.73599  Biso   1.000  I
  I10389   1.0000 0.73599  0.26401  0.76399  Biso   1.000  I
  I10390   1.0000 0.76399  0.26401  0.73599  Biso   1.000  I
  I10391   1.0000 0.23601  0.73599  0.73599  Biso   1.000  I
  I10392   1.0000 0.26401  0.76399  0.73599  Biso   1.000  I
  I10393   1.0000 0.26401  0.73599  0.76399  Biso   1.000  I
  I10394   1.0000 0.76399  0.73599  0.26401  Biso   1.000  I
  I10395   1.0000 0.73599  0.73599  0.23601  Biso   1.000  I
  I10396   1.0000 0.73599  0.76399  0.26401  Biso   1.000  I
  I10397   1.0000 0.23601  0.76399  0.76399  Biso   1.000  I
  I10398   1.0000 0.23601  0.73599  0.73599  Biso   1.000  I
  I10399   1.0000 0.26401  0.76399  0.73599  Biso   1.000  I
  I10400   1.0000 0.76399  0.73599  0.26401  Biso   1.000  I
  I10401   1.0000 0.76399  0.76399  0.23601  Biso   1.000  I
  I10402   1.0000 0.73599  0.76399  0.26401  Biso   1.000  I
  I10403   1.0000 0.73599  0.23601  0.73599  Biso   1.000  I
  I10404   1.0000 0.76399  0.23601  0.76399  Biso   1.000  I
  I10405   1.0000 0.76399  0.26401  0.73599  Biso   1.000  I
  I10406   1.0000 0.94030  0.94030  0.05970  Biso   1.000  I
  I10407   1.0000 0.55972  0.55972  0.05970  Biso   1.000  I
  I10408   1.0000 0.94030  0.55972  0.44028  Biso   1.000  I
  I10409   1.0000 0.94030  0.05970  0.94030  Biso   1.000  I
  I10410   1.0000 0.94030  0.44028  0.55972  Biso   1.000  I
  I10411   1.0000 0.55972  0.44028  0.94030  Biso   1.000  I
  I10412   1.0000 0.05970  0.55972  0.55972  Biso   1.000  I
  I10413   1.0000 0.44028  0.55972  0.94030  Biso   1.000  I
  I10414   1.0000 0.05970  0.94030  0.94030  Biso   1.000  I
  I10415   1.0000 0.69031  0.30969  0.80971  Biso   1.000  I
  I10416   1.0000 0.80971  0.19029  0.80971  Biso   1.000  I
  I10417   1.0000 0.69031  0.19029  0.69031  Biso   1.000  I
  I10418   1.0000 0.30969  0.80971  0.69031  Biso   1.000  I
  I10419   1.0000 0.30969  0.69031  0.80971  Biso   1.000  I
  I10420   1.0000 0.19029  0.80971  0.80971  Biso   1.000  I
  I10421   1.0000 0.69031  0.69031  0.19029  Biso   1.000  I
  I10422   1.0000 0.69031  0.80971  0.30969  Biso   1.000  I
  I10423   1.0000 0.80971  0.80971  0.19029  Biso   1.000  I
  I10424   1.0000 0.69031  0.30969  0.80971  Biso   1.000  I
  I10425   1.0000 0.80971  0.30969  0.69031  Biso   1.000  I
  I10426   1.0000 0.69031  0.19029  0.69031  Biso   1.000  I
  I10427   1.0000 0.30969  0.80971  0.69031  Biso   1.000  I
  I10428   1.0000 0.30969  0.69031  0.80971  Biso   1.000  I
  I10429   1.0000 0.19029  0.69031  0.69031  Biso   1.000  I
  I10430   1.0000 0.69031  0.69031  0.19029  Biso   1.000  I
  I10431   1.0000 0.69031  0.80971  0.30969  Biso   1.000  I
  I10432   1.0000 0.80971  0.69031  0.30969  Biso   1.000  I
  I10433   1.0000 0.19029  0.69031  0.69031  Biso   1.000  I
  I10434   1.0000 0.30969  0.80971  0.69031  Biso   1.000  I
  I10435   1.0000 0.19029  0.80971  0.80971  Biso   1.000  I
  I10436   1.0000 0.80971  0.80971  0.19029  Biso   1.000  I
  I10437   1.0000 0.69031  0.80971  0.30969  Biso   1.000  I
  I10438   1.0000 0.80971  0.69031  0.30969  Biso   1.000  I
  I10439   1.0000 0.80971  0.19029  0.80971  Biso   1.000  I
  I10440   1.0000 0.80971  0.30969  0.69031  Biso   1.000  I
  I10441   1.0000 0.69031  0.19029  0.69031  Biso   1.000  I
  I10442   1.0000 0.98598  0.01402  0.98598  Biso   1.000  I
  I10443   1.0000 0.01402  0.98598  0.98598  Biso   1.000  I
  I10444   1.0000 0.01402  0.01402  0.01402  Biso   1.000  I
  I10445   1.0000 0.51400  0.48600  0.98598  Biso   1.000  I
  I10446   1.0000 0.48600  0.51400  0.98598  Biso   1.000  I
  I10447   1.0000 0.48600  0.48600  0.01402  Biso   1.000  I
  I10448   1.0000 0.98598  0.48600  0.51400  Biso   1.000  I
  I10449   1.0000 0.01402  0.51400  0.51400  Biso   1.000  I
  I10450   1.0000 0.01402  0.48600  0.48600  Biso   1.000  I
  I10451   1.0000 0.98598  0.98598  0.01402  Biso   1.000  I
  I10452   1.0000 0.01402  0.98598  0.98598  Biso   1.000  I
  I10453   1.0000 0.01402  0.01402  0.01402  Biso   1.000  I
  I10454   1.0000 0.98598  0.51400  0.48600  Biso   1.000  I
  I10455   1.0000 0.01402  0.51400  0.51400  Biso   1.000  I
  I10456   1.0000 0.01402  0.48600  0.48600  Biso   1.000  I
  I10457   1.0000 0.48600  0.51400  0.98598  Biso   1.000  I
  I10458   1.0000 0.48600  0.48600  0.01402  Biso   1.000  I
  I10459   1.0000 0.51400  0.51400  0.01402  Biso   1.000  I
  I10460   1.0000 0.98598  0.51400  0.48600  Biso   1.000  I
  I10461   1.0000 0.98598  0.48600  0.51400  Biso   1.000  I
  I10462   1.0000 0.01402  0.48600  0.48600  Biso   1.000  I
  I10463   1.0000 0.51400  0.48600  0.98598  Biso   1.000  I
  I10464   1.0000 0.48600  0.48600  0.01402  Biso   1.000  I
  I10465   1.0000 0.51400  0.51400  0.01402  Biso   1.000  I
  I10466   1.0000 0.98598  0.98598  0.01402  Biso   1.000  I
  I10467   1.0000 0.98598  0.01402  0.98598  Biso   1.000  I
  I10468   1.0000 0.01402  0.01402  0.01402  Biso   1.000  I
  I10469   1.0000 0.62499  0.37501  0.87498  Biso   1.000  I
  I10470   1.0000 0.76399  0.26401  0.73599  Biso   1.000  I
  I10471   1.0000 0.87498  0.12502  0.87498  Biso   1.000  I
  I10472   1.0000 0.62499  0.12502  0.62499  Biso   1.000  I
  I10473   1.0000 0.37501  0.87498  0.62499  Biso   1.000  I
  I10474   1.0000 0.23601  0.73599  0.73599  Biso   1.000  I
  I10475   1.0000 0.37501  0.62499  0.87498  Biso   1.000  I
  I10476   1.0000 0.12502  0.87498  0.87498  Biso   1.000  I
  I10477   1.0000 0.62499  0.62499  0.12502  Biso   1.000  I
  I10478   1.0000 0.76399  0.73599  0.26401  Biso   1.000  I
  I10479   1.0000 0.62499  0.87498  0.37501  Biso   1.000  I
  I10480   1.0000 0.87498  0.87498  0.12502  Biso   1.000  I
  I10481   1.0000 0.62499  0.37501  0.87498  Biso   1.000  I
  I10482   1.0000 0.76399  0.23601  0.76399  Biso   1.000  I
  I10483   1.0000 0.87498  0.37501  0.62499  Biso   1.000  I
  I10484   1.0000 0.62499  0.12502  0.62499  Biso   1.000  I
  I10485   1.0000 0.37501  0.87498  0.62499  Biso   1.000  I
  I10486   1.0000 0.23601  0.76399  0.76399  Biso   1.000  I
  I10487   1.0000 0.37501  0.62499  0.87498  Biso   1.000  I
  I10488   1.0000 0.12502  0.62499  0.62499  Biso   1.000  I
  I10489   1.0000 0.62499  0.62499  0.12502  Biso   1.000  I
  I10490   1.0000 0.76399  0.76399  0.23601  Biso   1.000  I
  I10491   1.0000 0.62499  0.87498  0.37501  Biso   1.000  I
  I10492   1.0000 0.87498  0.62499  0.37501  Biso   1.000  I
  I10493   1.0000 0.12502  0.62499  0.62499  Biso   1.000  I
  I10494   1.0000 0.26401  0.73599  0.76399  Biso   1.000  I
  I10495   1.0000 0.37501  0.87498  0.62499  Biso   1.000  I
  I10496   1.0000 0.12502  0.87498  0.87498  Biso   1.000  I
  I10497   1.0000 0.87498  0.87498  0.12502  Biso   1.000  I
  I10498   1.0000 0.73599  0.73599  0.23601  Biso   1.000  I
  I10499   1.0000 0.62499  0.87498  0.37501  Biso   1.000  I
  I10500   1.0000 0.87498  0.62499  0.37501  Biso   1.000  I
  I10501   1.0000 0.87498  0.12502  0.87498  Biso   1.000  I
  I10502   1.0000 0.73599  0.26401  0.76399  Biso   1.000  I
  I10503   1.0000 0.87498  0.37501  0.62499  Biso   1.000  I
  I10504   1.0000 0.62499  0.12502  0.62499  Biso   1.000  I
  I10505   1.0000 0.05970  0.94030  0.94030  Biso   1.000  I
  I10506   1.0000 0.05970  0.05970  0.05970  Biso   1.000  I
  I10507   1.0000 0.94030  0.05970  0.94030  Biso   1.000  I
  I10508   1.0000 0.44028  0.55972  0.94030  Biso   1.000  I
  I10509   1.0000 0.44028  0.44028  0.05970  Biso   1.000  I
  I10510   1.0000 0.55972  0.44028  0.94030  Biso   1.000  I
  I10511   1.0000 0.05970  0.55972  0.55972  Biso   1.000  I
  I10512   1.0000 0.05970  0.44028  0.44028  Biso   1.000  I
  I10513   1.0000 0.94030  0.44028  0.55972  Biso   1.000  I
  I10514   1.0000 0.05970  0.94030  0.94030  Biso   1.000  I
  I10515   1.0000 0.05970  0.05970  0.05970  Biso   1.000  I
  I10516   1.0000 0.94030  0.94030  0.05970  Biso   1.000  I
  I10517   1.0000 0.05970  0.55972  0.55972  Biso   1.000  I
  I10518   1.0000 0.05970  0.44028  0.44028  Biso   1.000  I
  I10519   1.0000 0.94030  0.55972  0.44028  Biso   1.000  I
  I10520   1.0000 0.44028  0.44028  0.05970  Biso   1.000  I
  I10521   1.0000 0.55972  0.55972  0.05970  Biso   1.000  I
  I10522   1.0000 0.44028  0.55972  0.94030  Biso   1.000  I
  I10523   1.0000 0.94030  0.44028  0.55972  Biso   1.000  I
  I10524   1.0000 0.05970  0.44028  0.44028  Biso   1.000  I
  I10525   1.0000 0.94030  0.55972  0.44028  Biso   1.000  I
  I10526   1.0000 0.44028  0.44028  0.05970  Biso   1.000  I
  I10527   1.0000 0.55972  0.55972  0.05970  Biso   1.000  I
  I10528   1.0000 0.55972  0.44028  0.94030  Biso   1.000  I
  I10529   1.0000 0.94030  0.05970  0.94030  Biso   1.000  I
  I10530   1.0000 0.05970  0.05970  0.05970  Biso   1.000  I
  I10531   1.0000 0.94030  0.94030  0.05970  Biso   1.000  I
  I10532   1.0000 0.55972  0.44028  0.94030  Biso   1.000  I
  I10533   1.0000 0.55972  0.05970  0.55972  Biso   1.000  I
  I10534   1.0000 0.44028  0.94030  0.55972  Biso   1.000  I
  I10535   1.0000 0.05970  0.94030  0.94030  Biso   1.000  I
  I10536   1.0000 0.55972  0.55972  0.05970  Biso   1.000  I
  I10537   1.0000 0.55972  0.94030  0.44028  Biso   1.000  I
  I10538   1.0000 0.94030  0.94030  0.05970  Biso   1.000  I
  I10539   1.0000 0.55972  0.44028  0.94030  Biso   1.000  I
  I10540   1.0000 0.94030  0.44028  0.55972  Biso   1.000  I
  I10541   1.0000 0.55972  0.05970  0.55972  Biso   1.000  I
  I10542   1.0000 0.44028  0.94030  0.55972  Biso   1.000  I
  I10543   1.0000 0.05970  0.55972  0.55972  Biso   1.000  I
  I10544   1.0000 0.55972  0.55972  0.05970  Biso   1.000  I
  I10545   1.0000 0.55972  0.94030  0.44028  Biso   1.000  I
  I10546   1.0000 0.05970  0.55972  0.55972  Biso   1.000  I
  I10547   1.0000 0.44028  0.94030  0.55972  Biso   1.000  I
  I10548   1.0000 0.05970  0.94030  0.94030  Biso   1.000  I
  I10549   1.0000 0.94030  0.94030  0.05970  Biso   1.000  I
  I10550   1.0000 0.55972  0.94030  0.44028  Biso   1.000  I
  I10551   1.0000 0.94030  0.44028  0.55972  Biso   1.000  I
  I10552   1.0000 0.55972  0.05970  0.55972  Biso   1.000  I
  I10553   1.0000 0.98598  0.98598  0.01402  Biso   1.000  I
  I10554   1.0000 0.12502  0.87498  0.87498  Biso   1.000  I
  I10555   1.0000 0.12502  0.12502  0.12502  Biso   1.000  I
  I10556   1.0000 0.51400  0.51400  0.01402  Biso   1.000  I
  I10557   1.0000 0.37501  0.37501  0.12502  Biso   1.000  I
  I10558   1.0000 0.62499  0.37501  0.87498  Biso   1.000  I
  I10559   1.0000 0.98598  0.51400  0.48600  Biso   1.000  I
  I10560   1.0000 0.12502  0.62499  0.62499  Biso   1.000  I
  I10561   1.0000 0.12502  0.37501  0.37501  Biso   1.000  I
  I10562   1.0000 0.87498  0.37501  0.62499  Biso   1.000  I
  I10563   1.0000 0.98598  0.01402  0.98598  Biso   1.000  I
  I10564   1.0000 0.12502  0.87498  0.87498  Biso   1.000  I
  I10565   1.0000 0.12502  0.12502  0.12502  Biso   1.000  I
  I10566   1.0000 0.87498  0.87498  0.12502  Biso   1.000  I
  I10567   1.0000 0.98598  0.48600  0.51400  Biso   1.000  I
  I10568   1.0000 0.12502  0.62499  0.62499  Biso   1.000  I
  I10569   1.0000 0.12502  0.37501  0.37501  Biso   1.000  I
  I10570   1.0000 0.51400  0.48600  0.98598  Biso   1.000  I
  I10571   1.0000 0.37501  0.37501  0.12502  Biso   1.000  I
  I10572   1.0000 0.62499  0.62499  0.12502  Biso   1.000  I
  I10573   1.0000 0.87498  0.37501  0.62499  Biso   1.000  I
  I10574   1.0000 0.01402  0.51400  0.51400  Biso   1.000  I
  I10575   1.0000 0.12502  0.37501  0.37501  Biso   1.000  I
  I10576   1.0000 0.48600  0.51400  0.98598  Biso   1.000  I
  I10577   1.0000 0.37501  0.37501  0.12502  Biso   1.000  I
  I10578   1.0000 0.62499  0.62499  0.12502  Biso   1.000  I
  I10579   1.0000 0.62499  0.37501  0.87498  Biso   1.000  I
  I10580   1.0000 0.01402  0.98598  0.98598  Biso   1.000  I
  I10581   1.0000 0.12502  0.12502  0.12502  Biso   1.000  I
  I10582   1.0000 0.87498  0.87498  0.12502  Biso   1.000  I
  I10583   1.0000 0.48600  0.51400  0.98598  Biso   1.000  I
  I10584   1.0000 0.48600  0.48600  0.01402  Biso   1.000  I
  I10585   1.0000 0.51400  0.51400  0.01402  Biso   1.000  I
  I10586   1.0000 0.48600  0.98598  0.51400  Biso   1.000  I
  I10587   1.0000 0.51400  0.98598  0.48600  Biso   1.000  I
  I10588   1.0000 0.48600  0.01402  0.48600  Biso   1.000  I
  I10589   1.0000 0.51400  0.98598  0.48600  Biso   1.000  I
  I10590   1.0000 0.48600  0.01402  0.48600  Biso   1.000  I
  I10591   1.0000 0.51400  0.01402  0.51400  Biso   1.000  I
  I10592   1.0000 0.98598  0.98598  0.01402  Biso   1.000  I
  I10593   1.0000 0.98598  0.01402  0.98598  Biso   1.000  I
  I10594   1.0000 0.01402  0.01402  0.01402  Biso   1.000  I
  I10595   1.0000 0.51400  0.48600  0.98598  Biso   1.000  I
  I10596   1.0000 0.48600  0.51400  0.98598  Biso   1.000  I
  I10597   1.0000 0.48600  0.48600  0.01402  Biso   1.000  I
  I10598   1.0000 0.48600  0.98598  0.51400  Biso   1.000  I
  I10599   1.0000 0.48600  0.01402  0.48600  Biso   1.000  I
  I10600   1.0000 0.51400  0.01402  0.51400  Biso   1.000  I
  I10601   1.0000 0.98598  0.01402  0.98598  Biso   1.000  I
  I10602   1.0000 0.01402  0.98598  0.98598  Biso   1.000  I
  I10603   1.0000 0.01402  0.01402  0.01402  Biso   1.000  I
  I10604   1.0000 0.51400  0.51400  0.01402  Biso   1.000  I
  I10605   1.0000 0.98598  0.51400  0.48600  Biso   1.000  I
  I10606   1.0000 0.01402  0.51400  0.51400  Biso   1.000  I
  I10607   1.0000 0.01402  0.48600  0.48600  Biso   1.000  I
  I10608   1.0000 0.48600  0.98598  0.51400  Biso   1.000  I
  I10609   1.0000 0.51400  0.98598  0.48600  Biso   1.000  I
  I10610   1.0000 0.48600  0.01402  0.48600  Biso   1.000  I
  I10611   1.0000 0.51400  0.98598  0.48600  Biso   1.000  I
  I10612   1.0000 0.48600  0.01402  0.48600  Biso   1.000  I
  I10613   1.0000 0.51400  0.01402  0.51400  Biso   1.000  I
  I10614   1.0000 0.98598  0.51400  0.48600  Biso   1.000  I
  I10615   1.0000 0.98598  0.48600  0.51400  Biso   1.000  I
  I10616   1.0000 0.01402  0.48600  0.48600  Biso   1.000  I
  I10617   1.0000 0.51400  0.48600  0.98598  Biso   1.000  I
  I10618   1.0000 0.48600  0.51400  0.98598  Biso   1.000  I
  I10619   1.0000 0.48600  0.48600  0.01402  Biso   1.000  I
  I10620   1.0000 0.51400  0.01402  0.51400  Biso   1.000  I
  I10621   1.0000 0.98598  0.48600  0.51400  Biso   1.000  I
  I10622   1.0000 0.51400  0.98598  0.48600  Biso   1.000  I
  I10623   1.0000 0.48600  0.01402  0.48600  Biso   1.000  I
  I10624   1.0000 0.51400  0.01402  0.51400  Biso   1.000  I
  I10625   1.0000 0.98598  0.98598  0.01402  Biso   1.000  I
  I10626   1.0000 0.98598  0.01402  0.98598  Biso   1.000  I
  I10627   1.0000 0.01402  0.98598  0.98598  Biso   1.000  I
  I10628   1.0000 0.01402  0.01402  0.01402  Biso   1.000  I
  I10629   1.0000 0.48600  0.98598  0.51400  Biso   1.000  I
  I10630   1.0000 0.98598  0.51400  0.48600  Biso   1.000  I
  I10631   1.0000 0.01402  0.51400  0.51400  Biso   1.000  I
  I10632   1.0000 0.01402  0.48600  0.48600  Biso   1.000  I
  I10633   1.0000 0.48600  0.98598  0.51400  Biso   1.000  I
  I10634   1.0000 0.19029  0.80971  0.80971  Biso   1.000  I
  I10635   1.0000 0.19029  0.19029  0.19029  Biso   1.000  I
  I10636   1.0000 0.30969  0.30969  0.19029  Biso   1.000  I
  I10637   1.0000 0.69031  0.30969  0.80971  Biso   1.000  I
  I10638   1.0000 0.19029  0.69031  0.69031  Biso   1.000  I
  I10639   1.0000 0.19029  0.30969  0.30969  Biso   1.000  I
  I10640   1.0000 0.80971  0.30969  0.69031  Biso   1.000  I
  I10641   1.0000 0.19029  0.80971  0.80971  Biso   1.000  I
  I10642   1.0000 0.19029  0.19029  0.19029  Biso   1.000  I
  I10643   1.0000 0.80971  0.80971  0.19029  Biso   1.000  I
  I10644   1.0000 0.19029  0.69031  0.69031  Biso   1.000  I
  I10645   1.0000 0.19029  0.30969  0.30969  Biso   1.000  I
  I10646   1.0000 0.30969  0.30969  0.19029  Biso   1.000  I
  I10647   1.0000 0.69031  0.69031  0.19029  Biso   1.000  I
  I10648   1.0000 0.80971  0.30969  0.69031  Biso   1.000  I
  I10649   1.0000 0.19029  0.30969  0.30969  Biso   1.000  I
  I10650   1.0000 0.30969  0.30969  0.19029  Biso   1.000  I
  I10651   1.0000 0.69031  0.69031  0.19029  Biso   1.000  I
  I10652   1.0000 0.69031  0.30969  0.80971  Biso   1.000  I
  I10653   1.0000 0.19029  0.19029  0.19029  Biso   1.000  I
  I10654   1.0000 0.80971  0.80971  0.19029  Biso   1.000  I
  I10655   1.0000 0.44028  0.44028  0.05970  Biso   1.000  I
  I10656   1.0000 0.55972  0.55972  0.05970  Biso   1.000  I
  I10657   1.0000 0.44028  0.55972  0.94030  Biso   1.000  I
  I10658   1.0000 0.44028  0.05970  0.44028  Biso   1.000  I
  I10659   1.0000 0.44028  0.94030  0.55972  Biso   1.000  I
  I10660   1.0000 0.44028  0.05970  0.44028  Biso   1.000  I
  I10661   1.0000 0.55972  0.05970  0.55972  Biso   1.000  I
  I10662   1.0000 0.94030  0.05970  0.94030  Biso   1.000  I
  I10663   1.0000 0.05970  0.05970  0.05970  Biso   1.000  I
  I10664   1.0000 0.94030  0.94030  0.05970  Biso   1.000  I
  I10665   1.0000 0.44028  0.55972  0.94030  Biso   1.000  I
  I10666   1.0000 0.44028  0.44028  0.05970  Biso   1.000  I
  I10667   1.0000 0.44028  0.05970  0.44028  Biso   1.000  I
  I10668   1.0000 0.55972  0.05970  0.55972  Biso   1.000  I
  I10669   1.0000 0.44028  0.94030  0.55972  Biso   1.000  I
  I10670   1.0000 0.05970  0.05970  0.05970  Biso   1.000  I
  I10671   1.0000 0.94030  0.05970  0.94030  Biso   1.000  I
  I10672   1.0000 0.05970  0.44028  0.44028  Biso   1.000  I
  I10673   1.0000 0.94030  0.55972  0.44028  Biso   1.000  I
  I10674   1.0000 0.55972  0.94030  0.44028  Biso   1.000  I
  I10675   1.0000 0.44028  0.05970  0.44028  Biso   1.000  I
  I10676   1.0000 0.44028  0.94030  0.55972  Biso   1.000  I
  I10677   1.0000 0.44028  0.05970  0.44028  Biso   1.000  I
  I10678   1.0000 0.55972  0.94030  0.44028  Biso   1.000  I
  I10679   1.0000 0.94030  0.44028  0.55972  Biso   1.000  I
  I10680   1.0000 0.05970  0.44028  0.44028  Biso   1.000  I
  I10681   1.0000 0.94030  0.55972  0.44028  Biso   1.000  I
  I10682   1.0000 0.44028  0.55972  0.94030  Biso   1.000  I
  I10683   1.0000 0.44028  0.44028  0.05970  Biso   1.000  I
  I10684   1.0000 0.55972  0.44028  0.94030  Biso   1.000  I
  I10685   1.0000 0.44028  0.05970  0.44028  Biso   1.000  I
  I10686   1.0000 0.55972  0.05970  0.55972  Biso   1.000  I
  I10687   1.0000 0.55972  0.94030  0.44028  Biso   1.000  I
  I10688   1.0000 0.05970  0.94030  0.94030  Biso   1.000  I
  I10689   1.0000 0.05970  0.05970  0.05970  Biso   1.000  I
  I10690   1.0000 0.94030  0.05970  0.94030  Biso   1.000  I
  I10691   1.0000 0.05970  0.55972  0.55972  Biso   1.000  I
  I10692   1.0000 0.05970  0.44028  0.44028  Biso   1.000  I
  I10693   1.0000 0.94030  0.55972  0.44028  Biso   1.000  I
  I10694   1.0000 0.23601  0.73599  0.73599  Biso   1.000  I
  I10695   1.0000 0.26401  0.76399  0.73599  Biso   1.000  I
  I10696   1.0000 0.26401  0.73599  0.76399  Biso   1.000  I
  I10697   1.0000 0.26401  0.26401  0.23601  Biso   1.000  I
  I10698   1.0000 0.26401  0.23601  0.26401  Biso   1.000  I
  I10699   1.0000 0.23601  0.26401  0.26401  Biso   1.000  I
  I10700   1.0000 0.26401  0.23601  0.26401  Biso   1.000  I
  I10701   1.0000 0.23601  0.26401  0.26401  Biso   1.000  I
  I10702   1.0000 0.23601  0.23601  0.23601  Biso   1.000  I
  I10703   1.0000 0.73599  0.23601  0.73599  Biso   1.000  I
  I10704   1.0000 0.76399  0.23601  0.76399  Biso   1.000  I
  I10705   1.0000 0.76399  0.26401  0.73599  Biso   1.000  I
  I10706   1.0000 0.23601  0.76399  0.76399  Biso   1.000  I
  I10707   1.0000 0.26401  0.76399  0.73599  Biso   1.000  I
  I10708   1.0000 0.26401  0.73599  0.76399  Biso   1.000  I
  I10709   1.0000 0.26401  0.26401  0.23601  Biso   1.000  I
  I10710   1.0000 0.26401  0.23601  0.26401  Biso   1.000  I
  I10711   1.0000 0.23601  0.23601  0.23601  Biso   1.000  I
  I10712   1.0000 0.73599  0.23601  0.73599  Biso   1.000  I
  I10713   1.0000 0.73599  0.26401  0.76399  Biso   1.000  I
  I10714   1.0000 0.76399  0.23601  0.76399  Biso   1.000  I
  I10715   1.0000 0.23601  0.73599  0.73599  Biso   1.000  I
  I10716   1.0000 0.26401  0.26401  0.23601  Biso   1.000  I
  I10717   1.0000 0.26401  0.23601  0.26401  Biso   1.000  I
  I10718   1.0000 0.23601  0.26401  0.26401  Biso   1.000  I
  I10719   1.0000 0.76399  0.73599  0.26401  Biso   1.000  I
  I10720   1.0000 0.73599  0.73599  0.23601  Biso   1.000  I
  I10721   1.0000 0.73599  0.76399  0.26401  Biso   1.000  I
  I10722   1.0000 0.23601  0.76399  0.76399  Biso   1.000  I
  I10723   1.0000 0.26401  0.76399  0.73599  Biso   1.000  I
  I10724   1.0000 0.26401  0.73599  0.76399  Biso   1.000  I
  I10725   1.0000 0.23601  0.23601  0.23601  Biso   1.000  I
  I10726   1.0000 0.26401  0.23601  0.26401  Biso   1.000  I
  I10727   1.0000 0.23601  0.26401  0.26401  Biso   1.000  I
  I10728   1.0000 0.23601  0.23601  0.23601  Biso   1.000  I
  I10729   1.0000 0.76399  0.73599  0.26401  Biso   1.000  I
  I10730   1.0000 0.76399  0.76399  0.23601  Biso   1.000  I
  I10731   1.0000 0.73599  0.76399  0.26401  Biso   1.000  I
  I10732   1.0000 0.73599  0.23601  0.73599  Biso   1.000  I
  I10733   1.0000 0.73599  0.26401  0.76399  Biso   1.000  I
  I10734   1.0000 0.76399  0.23601  0.76399  Biso   1.000  I
  I10735   1.0000 0.26401  0.26401  0.23601  Biso   1.000  I
  I10736   1.0000 0.26401  0.23601  0.26401  Biso   1.000  I
  I10737   1.0000 0.23601  0.26401  0.26401  Biso   1.000  I
  I10738   1.0000 0.23601  0.23601  0.23601  Biso   1.000  I
  I10739   1.0000 0.76399  0.76399  0.23601  Biso   1.000  I
  I10740   1.0000 0.76399  0.26401  0.73599  Biso   1.000  I
  I10741   1.0000 0.26401  0.26401  0.23601  Biso   1.000  I
  I10742   1.0000 0.76399  0.73599  0.26401  Biso   1.000  I
  I10743   1.0000 0.73599  0.73599  0.23601  Biso   1.000  I
  I10744   1.0000 0.73599  0.76399  0.26401  Biso   1.000  I
  I10745   1.0000 0.51400  0.48600  0.98598  Biso   1.000  I
  I10746   1.0000 0.37501  0.37501  0.12502  Biso   1.000  I
  I10747   1.0000 0.62499  0.62499  0.12502  Biso   1.000  I
  I10748   1.0000 0.37501  0.62499  0.87498  Biso   1.000  I
  I10749   1.0000 0.37501  0.12502  0.37501  Biso   1.000  I
  I10750   1.0000 0.37501  0.87498  0.62499  Biso   1.000  I
  I10751   1.0000 0.37501  0.12502  0.37501  Biso   1.000  I
  I10752   1.0000 0.62499  0.12502  0.62499  Biso   1.000  I
  I10753   1.0000 0.87498  0.12502  0.87498  Biso   1.000  I
  I10754   1.0000 0.01402  0.98598  0.98598  Biso   1.000  I
  I10755   1.0000 0.12502  0.12502  0.12502  Biso   1.000  I
  I10756   1.0000 0.87498  0.87498  0.12502  Biso   1.000  I
  I10757   1.0000 0.37501  0.62499  0.87498  Biso   1.000  I
  I10758   1.0000 0.37501  0.37501  0.12502  Biso   1.000  I
  I10759   1.0000 0.51400  0.98598  0.48600  Biso   1.000  I
  I10760   1.0000 0.37501  0.12502  0.37501  Biso   1.000  I
  I10761   1.0000 0.62499  0.12502  0.62499  Biso   1.000  I
  I10762   1.0000 0.37501  0.87498  0.62499  Biso   1.000  I
  I10763   1.0000 0.12502  0.12502  0.12502  Biso   1.000  I
  I10764   1.0000 0.87498  0.12502  0.87498  Biso   1.000  I
  I10765   1.0000 0.12502  0.37501  0.37501  Biso   1.000  I
  I10766   1.0000 0.87498  0.62499  0.37501  Biso   1.000  I
  I10767   1.0000 0.62499  0.87498  0.37501  Biso   1.000  I
  I10768   1.0000 0.51400  0.01402  0.51400  Biso   1.000  I
  I10769   1.0000 0.37501  0.12502  0.37501  Biso   1.000  I
  I10770   1.0000 0.37501  0.87498  0.62499  Biso   1.000  I
  I10771   1.0000 0.37501  0.12502  0.37501  Biso   1.000  I
  I10772   1.0000 0.62499  0.87498  0.37501  Biso   1.000  I
  I10773   1.0000 0.87498  0.37501  0.62499  Biso   1.000  I
  I10774   1.0000 0.01402  0.51400  0.51400  Biso   1.000  I
  I10775   1.0000 0.12502  0.37501  0.37501  Biso   1.000  I
  I10776   1.0000 0.87498  0.62499  0.37501  Biso   1.000  I
  I10777   1.0000 0.37501  0.62499  0.87498  Biso   1.000  I
  I10778   1.0000 0.51400  0.51400  0.01402  Biso   1.000  I
  I10779   1.0000 0.37501  0.37501  0.12502  Biso   1.000  I
  I10780   1.0000 0.62499  0.37501  0.87498  Biso   1.000  I
  I10781   1.0000 0.48600  0.98598  0.51400  Biso   1.000  I
  I10782   1.0000 0.37501  0.12502  0.37501  Biso   1.000  I
  I10783   1.0000 0.62499  0.12502  0.62499  Biso   1.000  I
  I10784   1.0000 0.62499  0.87498  0.37501  Biso   1.000  I
  I10785   1.0000 0.98598  0.98598  0.01402  Biso   1.000  I
  I10786   1.0000 0.12502  0.87498  0.87498  Biso   1.000  I
  I10787   1.0000 0.12502  0.12502  0.12502  Biso   1.000  I
  I10788   1.0000 0.87498  0.12502  0.87498  Biso   1.000  I
  I10789   1.0000 0.98598  0.48600  0.51400  Biso   1.000  I
  I10790   1.0000 0.12502  0.62499  0.62499  Biso   1.000  I
  I10791   1.0000 0.12502  0.37501  0.37501  Biso   1.000  I
  I10792   1.0000 0.87498  0.62499  0.37501  Biso   1.000  I
  I10793   1.0000 0.30969  0.80971  0.69031  Biso   1.000  I
  I10794   1.0000 0.30969  0.69031  0.80971  Biso   1.000  I
  I10795   1.0000 0.19029  0.69031  0.69031  Biso   1.000  I
  I10796   1.0000 0.30969  0.19029  0.30969  Biso   1.000  I
  I10797   1.0000 0.30969  0.30969  0.19029  Biso   1.000  I
  I10798   1.0000 0.19029  0.19029  0.19029  Biso   1.000  I
  I10799   1.0000 0.30969  0.19029  0.30969  Biso   1.000  I
  I10800   1.0000 0.80971  0.19029  0.80971  Biso   1.000  I
  I10801   1.0000 0.80971  0.30969  0.69031  Biso   1.000  I
  I10802   1.0000 0.69031  0.19029  0.69031  Biso   1.000  I
  I10803   1.0000 0.30969  0.80971  0.69031  Biso   1.000  I
  I10804   1.0000 0.30969  0.69031  0.80971  Biso   1.000  I
  I10805   1.0000 0.30969  0.19029  0.30969  Biso   1.000  I
  I10806   1.0000 0.19029  0.19029  0.19029  Biso   1.000  I
  I10807   1.0000 0.30969  0.30969  0.19029  Biso   1.000  I
  I10808   1.0000 0.80971  0.19029  0.80971  Biso   1.000  I
  I10809   1.0000 0.69031  0.19029  0.69031  Biso   1.000  I
  I10810   1.0000 0.30969  0.19029  0.30969  Biso   1.000  I
  I10811   1.0000 0.19029  0.30969  0.30969  Biso   1.000  I
  I10812   1.0000 0.30969  0.30969  0.19029  Biso   1.000  I
  I10813   1.0000 0.69031  0.80971  0.30969  Biso   1.000  I
  I10814   1.0000 0.80971  0.69031  0.30969  Biso   1.000  I
  I10815   1.0000 0.30969  0.80971  0.69031  Biso   1.000  I
  I10816   1.0000 0.30969  0.69031  0.80971  Biso   1.000  I
  I10817   1.0000 0.19029  0.80971  0.80971  Biso   1.000  I
  I10818   1.0000 0.19029  0.30969  0.30969  Biso   1.000  I
  I10819   1.0000 0.30969  0.19029  0.30969  Biso   1.000  I
  I10820   1.0000 0.80971  0.80971  0.19029  Biso   1.000  I
  I10821   1.0000 0.69031  0.80971  0.30969  Biso   1.000  I
  I10822   1.0000 0.80971  0.69031  0.30969  Biso   1.000  I
  I10823   1.0000 0.69031  0.30969  0.80971  Biso   1.000  I
  I10824   1.0000 0.80971  0.19029  0.80971  Biso   1.000  I
  I10825   1.0000 0.69031  0.19029  0.69031  Biso   1.000  I
  I10826   1.0000 0.19029  0.30969  0.30969  Biso   1.000  I
  I10827   1.0000 0.19029  0.19029  0.19029  Biso   1.000  I
  I10828   1.0000 0.30969  0.19029  0.30969  Biso   1.000  I
  I10829   1.0000 0.69031  0.69031  0.19029  Biso   1.000  I
  I10830   1.0000 0.69031  0.80971  0.30969  Biso   1.000  I
  I10831   1.0000 0.80971  0.69031  0.30969  Biso   1.000  I
  I10832   1.0000 0.30969  0.30969  0.19029  Biso   1.000  I
  I10833   1.0000 0.69031  0.69031  0.19029  Biso   1.000  I
  I10834   1.0000 0.30969  0.69031  0.80971  Biso   1.000  I
  I10835   1.0000 0.30969  0.19029  0.30969  Biso   1.000  I
  I10836   1.0000 0.30969  0.80971  0.69031  Biso   1.000  I
  I10837   1.0000 0.30969  0.19029  0.30969  Biso   1.000  I
  I10838   1.0000 0.69031  0.19029  0.69031  Biso   1.000  I
  I10839   1.0000 0.80971  0.19029  0.80971  Biso   1.000  I
  I10840   1.0000 0.19029  0.19029  0.19029  Biso   1.000  I
  I10841   1.0000 0.80971  0.80971  0.19029  Biso   1.000  I
  I10842   1.0000 0.30969  0.69031  0.80971  Biso   1.000  I
  I10843   1.0000 0.30969  0.30969  0.19029  Biso   1.000  I
  I10844   1.0000 0.30969  0.19029  0.30969  Biso   1.000  I
  I10845   1.0000 0.69031  0.19029  0.69031  Biso   1.000  I
  I10846   1.0000 0.30969  0.80971  0.69031  Biso   1.000  I
  I10847   1.0000 0.19029  0.19029  0.19029  Biso   1.000  I
  I10848   1.0000 0.80971  0.19029  0.80971  Biso   1.000  I
  I10849   1.0000 0.19029  0.30969  0.30969  Biso   1.000  I
  I10850   1.0000 0.80971  0.69031  0.30969  Biso   1.000  I
  I10851   1.0000 0.69031  0.80971  0.30969  Biso   1.000  I
  I10852   1.0000 0.30969  0.19029  0.30969  Biso   1.000  I
  I10853   1.0000 0.30969  0.80971  0.69031  Biso   1.000  I
  I10854   1.0000 0.30969  0.19029  0.30969  Biso   1.000  I
  I10855   1.0000 0.69031  0.80971  0.30969  Biso   1.000  I
  I10856   1.0000 0.80971  0.30969  0.69031  Biso   1.000  I
  I10857   1.0000 0.19029  0.30969  0.30969  Biso   1.000  I
  I10858   1.0000 0.80971  0.69031  0.30969  Biso   1.000  I
  I10859   1.0000 0.30969  0.69031  0.80971  Biso   1.000  I
  I10860   1.0000 0.30969  0.30969  0.19029  Biso   1.000  I
  I10861   1.0000 0.69031  0.30969  0.80971  Biso   1.000  I
  I10862   1.0000 0.30969  0.19029  0.30969  Biso   1.000  I
  I10863   1.0000 0.69031  0.19029  0.69031  Biso   1.000  I
  I10864   1.0000 0.69031  0.80971  0.30969  Biso   1.000  I
  I10865   1.0000 0.19029  0.80971  0.80971  Biso   1.000  I
  I10866   1.0000 0.19029  0.19029  0.19029  Biso   1.000  I
  I10867   1.0000 0.80971  0.19029  0.80971  Biso   1.000  I
  I10868   1.0000 0.19029  0.69031  0.69031  Biso   1.000  I
  I10869   1.0000 0.19029  0.30969  0.30969  Biso   1.000  I
  I10870   1.0000 0.80971  0.69031  0.30969  Biso   1.000  I
  I10871   1.0000 0.37501  0.87498  0.62499  Biso   1.000  I
  I10872   1.0000 0.23601  0.76399  0.76399  Biso   1.000  I
  I10873   1.0000 0.37501  0.62499  0.87498  Biso   1.000  I
  I10874   1.0000 0.12502  0.62499  0.62499  Biso   1.000  I
  I10875   1.0000 0.37501  0.12502  0.37501  Biso   1.000  I
  I10876   1.0000 0.37501  0.37501  0.12502  Biso   1.000  I
  I10877   1.0000 0.12502  0.12502  0.12502  Biso   1.000  I
  I10878   1.0000 0.37501  0.12502  0.37501  Biso   1.000  I
  I10879   1.0000 0.87498  0.12502  0.87498  Biso   1.000  I
  I10880   1.0000 0.73599  0.26401  0.76399  Biso   1.000  I
  I10881   1.0000 0.87498  0.37501  0.62499  Biso   1.000  I
  I10882   1.0000 0.62499  0.12502  0.62499  Biso   1.000  I
  I10883   1.0000 0.37501  0.87498  0.62499  Biso   1.000  I
  I10884   1.0000 0.37501  0.62499  0.87498  Biso   1.000  I
  I10885   1.0000 0.37501  0.12502  0.37501  Biso   1.000  I
  I10886   1.0000 0.23601  0.26401  0.26401  Biso   1.000  I
  I10887   1.0000 0.12502  0.12502  0.12502  Biso   1.000  I
  I10888   1.0000 0.37501  0.37501  0.12502  Biso   1.000  I
  I10889   1.0000 0.87498  0.12502  0.87498  Biso   1.000  I
  I10890   1.0000 0.62499  0.12502  0.62499  Biso   1.000  I
  I10891   1.0000 0.37501  0.12502  0.37501  Biso   1.000  I
  I10892   1.0000 0.23601  0.23601  0.23601  Biso   1.000  I
  I10893   1.0000 0.12502  0.37501  0.37501  Biso   1.000  I
  I10894   1.0000 0.37501  0.37501  0.12502  Biso   1.000  I
  I10895   1.0000 0.62499  0.87498  0.37501  Biso   1.000  I
  I10896   1.0000 0.87498  0.62499  0.37501  Biso   1.000  I
  I10897   1.0000 0.37501  0.87498  0.62499  Biso   1.000  I
  I10898   1.0000 0.23601  0.73599  0.73599  Biso   1.000  I
  I10899   1.0000 0.37501  0.62499  0.87498  Biso   1.000  I
  I10900   1.0000 0.12502  0.87498  0.87498  Biso   1.000  I
  I10901   1.0000 0.12502  0.37501  0.37501  Biso   1.000  I
  I10902   1.0000 0.37501  0.12502  0.37501  Biso   1.000  I
  I10903   1.0000 0.87498  0.87498  0.12502  Biso   1.000  I
  I10904   1.0000 0.73599  0.73599  0.23601  Biso   1.000  I
  I10905   1.0000 0.62499  0.87498  0.37501  Biso   1.000  I
  I10906   1.0000 0.87498  0.62499  0.37501  Biso   1.000  I
  I10907   1.0000 0.62499  0.37501  0.87498  Biso   1.000  I
  I10908   1.0000 0.76399  0.26401  0.73599  Biso   1.000  I
  I10909   1.0000 0.87498  0.12502  0.87498  Biso   1.000  I
  I10910   1.0000 0.62499  0.12502  0.62499  Biso   1.000  I
  I10911   1.0000 0.12502  0.37501  0.37501  Biso   1.000  I
  I10912   1.0000 0.26401  0.26401  0.23601  Biso   1.000  I
  I10913   1.0000 0.12502  0.12502  0.12502  Biso   1.000  I
  I10914   1.0000 0.37501  0.12502  0.37501  Biso   1.000  I
  I10915   1.0000 0.62499  0.62499  0.12502  Biso   1.000  I
  I10916   1.0000 0.76399  0.76399  0.23601  Biso   1.000  I
  I10917   1.0000 0.62499  0.87498  0.37501  Biso   1.000  I
  I10918   1.0000 0.87498  0.62499  0.37501  Biso   1.000  I
  I10919   1.0000 0.26401  0.23601  0.26401  Biso   1.000  I
  I10920   1.0000 0.23601  0.26401  0.26401  Biso   1.000  I
  I10921   1.0000 0.23601  0.23601  0.23601  Biso   1.000  I
  I10922   1.0000 0.76399  0.73599  0.26401  Biso   1.000  I
  I10923   1.0000 0.76399  0.76399  0.23601  Biso   1.000  I
  I10924   1.0000 0.73599  0.76399  0.26401  Biso   1.000  I
  I10925   1.0000 0.23601  0.76399  0.76399  Biso   1.000  I
  I10926   1.0000 0.23601  0.73599  0.73599  Biso   1.000  I
  I10927   1.0000 0.26401  0.76399  0.73599  Biso   1.000  I
  I10928   1.0000 0.26401  0.26401  0.23601  Biso   1.000  I
  I10929   1.0000 0.23601  0.26401  0.26401  Biso   1.000  I
  I10930   1.0000 0.23601  0.23601  0.23601  Biso   1.000  I
  I10931   1.0000 0.23601  0.76399  0.76399  Biso   1.000  I
  I10932   1.0000 0.23601  0.73599  0.73599  Biso   1.000  I
  I10933   1.0000 0.26401  0.73599  0.76399  Biso   1.000  I
  I10934   1.0000 0.26401  0.26401  0.23601  Biso   1.000  I
  I10935   1.0000 0.23601  0.26401  0.26401  Biso   1.000  I
  I10936   1.0000 0.23601  0.23601  0.23601  Biso   1.000  I
  I10937   1.0000 0.73599  0.26401  0.76399  Biso   1.000  I
  I10938   1.0000 0.76399  0.23601  0.76399  Biso   1.000  I
  I10939   1.0000 0.76399  0.26401  0.73599  Biso   1.000  I
  I10940   1.0000 0.73599  0.23601  0.73599  Biso   1.000  I
  I10941   1.0000 0.73599  0.26401  0.76399  Biso   1.000  I
  I10942   1.0000 0.76399  0.26401  0.73599  Biso   1.000  I
  I10943   1.0000 0.26401  0.26401  0.23601  Biso   1.000  I
  I10944   1.0000 0.26401  0.23601  0.26401  Biso   1.000  I
  I10945   1.0000 0.23601  0.26401  0.26401  Biso   1.000  I
  I10946   1.0000 0.73599  0.73599  0.23601  Biso   1.000  I
  I10947   1.0000 0.23601  0.76399  0.76399  Biso   1.000  I
  I10948   1.0000 0.23601  0.73599  0.73599  Biso   1.000  I
  I10949   1.0000 0.26401  0.76399  0.73599  Biso   1.000  I
  I10950   1.0000 0.26401  0.23601  0.26401  Biso   1.000  I
  I10951   1.0000 0.26401  0.26401  0.23601  Biso   1.000  I
  I10952   1.0000 0.23601  0.26401  0.26401  Biso   1.000  I
  I10953   1.0000 0.23601  0.23601  0.23601  Biso   1.000  I
  I10954   1.0000 0.76399  0.23601  0.76399  Biso   1.000  I
  I10955   1.0000 0.26401  0.73599  0.76399  Biso   1.000  I
  I10956   1.0000 0.26401  0.23601  0.26401  Biso   1.000  I
  I10957   1.0000 0.73599  0.23601  0.73599  Biso   1.000  I
  I10958   1.0000 0.73599  0.26401  0.76399  Biso   1.000  I
  I10959   1.0000 0.76399  0.26401  0.73599  Biso   1.000  I
  I10960   1.0000 0.26401  0.26401  0.23601  Biso   1.000  I
  I10961   1.0000 0.26401  0.23601  0.26401  Biso   1.000  I
  I10962   1.0000 0.23601  0.23601  0.23601  Biso   1.000  I
  I10963   1.0000 0.76399  0.76399  0.23601  Biso   1.000  I
  I10964   1.0000 0.73599  0.73599  0.23601  Biso   1.000  I
  I10965   1.0000 0.73599  0.76399  0.26401  Biso   1.000  I
  I10966   1.0000 0.76399  0.73599  0.26401  Biso   1.000  I
  I10967   1.0000 0.76399  0.76399  0.23601  Biso   1.000  I
  I10968   1.0000 0.73599  0.73599  0.23601  Biso   1.000  I
  I10969   1.0000 0.26401  0.26401  0.23601  Biso   1.000  I
  I10970   1.0000 0.23601  0.26401  0.26401  Biso   1.000  I
  I10971   1.0000 0.23601  0.23601  0.23601  Biso   1.000  I
  I10972   1.0000 0.23601  0.76399  0.76399  Biso   1.000  I
  I10973   1.0000 0.23601  0.73599  0.73599  Biso   1.000  I
  I10974   1.0000 0.26401  0.73599  0.76399  Biso   1.000  I
  I10975   1.0000 0.23601  0.26401  0.26401  Biso   1.000  I
  I10976   1.0000 0.76399  0.73599  0.26401  Biso   1.000  I
  I10977   1.0000 0.76399  0.76399  0.23601  Biso   1.000  I
  I10978   1.0000 0.73599  0.73599  0.23601  Biso   1.000  I
  I10979   1.0000 0.73599  0.23601  0.73599  Biso   1.000  I
  I10980   1.0000 0.73599  0.26401  0.76399  Biso   1.000  I
  I10981   1.0000 0.76399  0.23601  0.76399  Biso   1.000  I
  I10982   1.0000 0.26401  0.26401  0.23601  Biso   1.000  I
  I10983   1.0000 0.26401  0.23601  0.26401  Biso   1.000  I
  I10984   1.0000 0.23601  0.23601  0.23601  Biso   1.000  I
  I10985   1.0000 0.73599  0.76399  0.26401  Biso   1.000  I
  I10986   1.0000 0.26401  0.76399  0.73599  Biso   1.000  I
  I10987   1.0000 0.26401  0.23601  0.26401  Biso   1.000  I
  I10988   1.0000 0.23601  0.26401  0.26401  Biso   1.000  I
  I10989   1.0000 0.23601  0.23601  0.23601  Biso   1.000  I
  I10990   1.0000 0.76399  0.26401  0.73599  Biso   1.000  I
  I10991   1.0000 0.26401  0.26401  0.23601  Biso   1.000  I
  I10992   1.0000 0.23601  0.26401  0.26401  Biso   1.000  I
  I10993   1.0000 0.23601  0.23601  0.23601  Biso   1.000  I
  I10994   1.0000 0.73599  0.26401  0.76399  Biso   1.000  I
  I10995   1.0000 0.76399  0.23601  0.76399  Biso   1.000  I
  I10996   1.0000 0.76399  0.26401  0.73599  Biso   1.000  I
  I10997   1.0000 0.76399  0.73599  0.26401  Biso   1.000  I
  I10998   1.0000 0.76399  0.76399  0.23601  Biso   1.000  I
  I10999   1.0000 0.73599  0.73599  0.23601  Biso   1.000  I
  I11000   1.0000 0.23601  0.73599  0.73599  Biso   1.000  I
  I11001   1.0000 0.26401  0.76399  0.73599  Biso   1.000  I
  I11002   1.0000 0.26401  0.73599  0.76399  Biso   1.000  I
  I11003   1.0000 0.26401  0.26401  0.23601  Biso   1.000  I
  I11004   1.0000 0.26401  0.23601  0.26401  Biso   1.000  I
  I11005   1.0000 0.23601  0.26401  0.26401  Biso   1.000  I
  I11006   1.0000 0.73599  0.23601  0.73599  Biso   1.000  I
  I11007   1.0000 0.23601  0.76399  0.76399  Biso   1.000  I
  I11008   1.0000 0.26401  0.26401  0.23601  Biso   1.000  I
  I11009   1.0000 0.26401  0.23601  0.26401  Biso   1.000  I
  I11010   1.0000 0.23601  0.23601  0.23601  Biso   1.000  I
  I11011   1.0000 0.73599  0.76399  0.26401  Biso   1.000  I
  I11012   1.0000 0.44028  0.94030  0.55972  Biso   1.000  I
  I11013   1.0000 0.44028  0.55972  0.94030  Biso   1.000  I
  I11014   1.0000 0.05970  0.55972  0.55972  Biso   1.000  I
  I11015   1.0000 0.44028  0.05970  0.44028  Biso   1.000  I
  I11016   1.0000 0.44028  0.44028  0.05970  Biso   1.000  I
  I11017   1.0000 0.05970  0.05970  0.05970  Biso   1.000  I
  I11018   1.0000 0.44028  0.05970  0.44028  Biso   1.000  I
  I11019   1.0000 0.94030  0.05970  0.94030  Biso   1.000  I
  I11020   1.0000 0.94030  0.44028  0.55972  Biso   1.000  I
  I11021   1.0000 0.55972  0.05970  0.55972  Biso   1.000  I
  I11022   1.0000 0.44028  0.94030  0.55972  Biso   1.000  I
  I11023   1.0000 0.44028  0.55972  0.94030  Biso   1.000  I
  I11024   1.0000 0.44028  0.05970  0.44028  Biso   1.000  I
  I11025   1.0000 0.05970  0.05970  0.05970  Biso   1.000  I
  I11026   1.0000 0.44028  0.44028  0.05970  Biso   1.000  I
  I11027   1.0000 0.94030  0.05970  0.94030  Biso   1.000  I
  I11028   1.0000 0.55972  0.05970  0.55972  Biso   1.000  I
  I11029   1.0000 0.44028  0.05970  0.44028  Biso   1.000  I
  I11030   1.0000 0.05970  0.44028  0.44028  Biso   1.000  I
  I11031   1.0000 0.44028  0.44028  0.05970  Biso   1.000  I
  I11032   1.0000 0.55972  0.94030  0.44028  Biso   1.000  I
  I11033   1.0000 0.94030  0.55972  0.44028  Biso   1.000  I
  I11034   1.0000 0.44028  0.94030  0.55972  Biso   1.000  I
  I11035   1.0000 0.44028  0.55972  0.94030  Biso   1.000  I
  I11036   1.0000 0.05970  0.94030  0.94030  Biso   1.000  I
  I11037   1.0000 0.05970  0.44028  0.44028  Biso   1.000  I
  I11038   1.0000 0.44028  0.05970  0.44028  Biso   1.000  I
  I11039   1.0000 0.94030  0.94030  0.05970  Biso   1.000  I
  I11040   1.0000 0.55972  0.94030  0.44028  Biso   1.000  I
  I11041   1.0000 0.94030  0.55972  0.44028  Biso   1.000  I
  I11042   1.0000 0.55972  0.44028  0.94030  Biso   1.000  I
  I11043   1.0000 0.94030  0.05970  0.94030  Biso   1.000  I
  I11044   1.0000 0.55972  0.05970  0.55972  Biso   1.000  I
  I11045   1.0000 0.05970  0.44028  0.44028  Biso   1.000  I
  I11046   1.0000 0.05970  0.05970  0.05970  Biso   1.000  I
  I11047   1.0000 0.44028  0.05970  0.44028  Biso   1.000  I
  I11048   1.0000 0.55972  0.55972  0.05970  Biso   1.000  I
  I11049   1.0000 0.55972  0.94030  0.44028  Biso   1.000  I
  I11050   1.0000 0.94030  0.55972  0.44028  Biso   1.000  I
  I11051   1.0000 0.19029  0.30969  0.30969  Biso   1.000  I
  I11052   1.0000 0.19029  0.19029  0.19029  Biso   1.000  I
  I11053   1.0000 0.30969  0.19029  0.30969  Biso   1.000  I
  I11054   1.0000 0.69031  0.80971  0.30969  Biso   1.000  I
  I11055   1.0000 0.80971  0.69031  0.30969  Biso   1.000  I
  I11056   1.0000 0.19029  0.69031  0.69031  Biso   1.000  I
  I11057   1.0000 0.19029  0.80971  0.80971  Biso   1.000  I
  I11058   1.0000 0.19029  0.30969  0.30969  Biso   1.000  I
  I11059   1.0000 0.19029  0.19029  0.19029  Biso   1.000  I
  I11060   1.0000 0.19029  0.69031  0.69031  Biso   1.000  I
  I11061   1.0000 0.30969  0.69031  0.80971  Biso   1.000  I
  I11062   1.0000 0.19029  0.80971  0.80971  Biso   1.000  I
  I11063   1.0000 0.19029  0.30969  0.30969  Biso   1.000  I
  I11064   1.0000 0.30969  0.30969  0.19029  Biso   1.000  I
  I11065   1.0000 0.80971  0.19029  0.80971  Biso   1.000  I
  I11066   1.0000 0.80971  0.30969  0.69031  Biso   1.000  I
  I11067   1.0000 0.69031  0.30969  0.80971  Biso   1.000  I
  I11068   1.0000 0.69031  0.30969  0.80971  Biso   1.000  I
  I11069   1.0000 0.80971  0.30969  0.69031  Biso   1.000  I
  I11070   1.0000 0.30969  0.19029  0.30969  Biso   1.000  I
  I11071   1.0000 0.19029  0.30969  0.30969  Biso   1.000  I
  I11072   1.0000 0.30969  0.30969  0.19029  Biso   1.000  I
  I11073   1.0000 0.19029  0.69031  0.69031  Biso   1.000  I
  I11074   1.0000 0.30969  0.80971  0.69031  Biso   1.000  I
  I11075   1.0000 0.19029  0.80971  0.80971  Biso   1.000  I
  I11076   1.0000 0.19029  0.30969  0.30969  Biso   1.000  I
  I11077   1.0000 0.19029  0.19029  0.19029  Biso   1.000  I
  I11078   1.0000 0.30969  0.30969  0.19029  Biso   1.000  I
  I11079   1.0000 0.69031  0.30969  0.80971  Biso   1.000  I
  I11080   1.0000 0.80971  0.30969  0.69031  Biso   1.000  I
  I11081   1.0000 0.69031  0.19029  0.69031  Biso   1.000  I
  I11082   1.0000 0.19029  0.19029  0.19029  Biso   1.000  I
  I11083   1.0000 0.30969  0.30969  0.19029  Biso   1.000  I
  I11084   1.0000 0.69031  0.69031  0.19029  Biso   1.000  I
  I11085   1.0000 0.69031  0.80971  0.30969  Biso   1.000  I
  I11086   1.0000 0.80971  0.80971  0.19029  Biso   1.000  I
  I11087   1.0000 0.80971  0.80971  0.19029  Biso   1.000  I
  I11088   1.0000 0.69031  0.69031  0.19029  Biso   1.000  I
  I11089   1.0000 0.19029  0.30969  0.30969  Biso   1.000  I
  I11090   1.0000 0.19029  0.19029  0.19029  Biso   1.000  I
  I11091   1.0000 0.30969  0.30969  0.19029  Biso   1.000  I
  I11092   1.0000 0.19029  0.69031  0.69031  Biso   1.000  I
  I11093   1.0000 0.19029  0.80971  0.80971  Biso   1.000  I
  I11094   1.0000 0.80971  0.80971  0.19029  Biso   1.000  I
  I11095   1.0000 0.69031  0.69031  0.19029  Biso   1.000  I
  I11096   1.0000 0.80971  0.69031  0.30969  Biso   1.000  I
  I11097   1.0000 0.80971  0.19029  0.80971  Biso   1.000  I
  I11098   1.0000 0.69031  0.19029  0.69031  Biso   1.000  I
  I11099   1.0000 0.30969  0.19029  0.30969  Biso   1.000  I
  I11100   1.0000 0.19029  0.19029  0.19029  Biso   1.000  I
  I11101   1.0000 0.30969  0.30969  0.19029  Biso   1.000  I
  I11102   1.0000 0.19029  0.30969  0.30969  Biso   1.000  I
  I11103   1.0000 0.19029  0.19029  0.19029  Biso   1.000  I
  I11104   1.0000 0.30969  0.19029  0.30969  Biso   1.000  I
  I11105   1.0000 0.19029  0.30969  0.30969  Biso   1.000  I
  I11106   1.0000 0.19029  0.19029  0.19029  Biso   1.000  I
  I11107   1.0000 0.30969  0.30969  0.19029  Biso   1.000  I
  I11108   1.0000 0.80971  0.30969  0.69031  Biso   1.000  I
  I11109   1.0000 0.69031  0.30969  0.80971  Biso   1.000  I
  I11110   1.0000 0.80971  0.80971  0.19029  Biso   1.000  I
  I11111   1.0000 0.69031  0.69031  0.19029  Biso   1.000  I
  I11112   1.0000 0.30969  0.80971  0.69031  Biso   1.000  I
  I11113   1.0000 0.30969  0.69031  0.80971  Biso   1.000  I
  I11114   1.0000 0.30969  0.19029  0.30969  Biso   1.000  I
  I11115   1.0000 0.19029  0.30969  0.30969  Biso   1.000  I
  I11116   1.0000 0.30969  0.30969  0.19029  Biso   1.000  I
  I11117   1.0000 0.30969  0.19029  0.30969  Biso   1.000  I
  I11118   1.0000 0.19029  0.19029  0.19029  Biso   1.000  I
  I11119   1.0000 0.30969  0.30969  0.19029  Biso   1.000  I
  I11120   1.0000 0.51400  0.98598  0.48600  Biso   1.000  I
  I11121   1.0000 0.48600  0.01402  0.48600  Biso   1.000  I
  I11122   1.0000 0.51400  0.01402  0.51400  Biso   1.000  I
  I11123   1.0000 0.51400  0.48600  0.98598  Biso   1.000  I
  I11124   1.0000 0.48600  0.48600  0.01402  Biso   1.000  I
  I11125   1.0000 0.51400  0.51400  0.01402  Biso   1.000  I
  I11126   1.0000 0.98598  0.51400  0.48600  Biso   1.000  I
  I11127   1.0000 0.98598  0.48600  0.51400  Biso   1.000  I
  I11128   1.0000 0.01402  0.48600  0.48600  Biso   1.000  I
  I11129   1.0000 0.48600  0.98598  0.51400  Biso   1.000  I
  I11130   1.0000 0.51400  0.98598  0.48600  Biso   1.000  I
  I11131   1.0000 0.51400  0.01402  0.51400  Biso   1.000  I
  I11132   1.0000 0.51400  0.48600  0.98598  Biso   1.000  I
  I11133   1.0000 0.48600  0.51400  0.98598  Biso   1.000  I
  I11134   1.0000 0.51400  0.51400  0.01402  Biso   1.000  I
  I11135   1.0000 0.98598  0.01402  0.98598  Biso   1.000  I
  I11136   1.0000 0.51400  0.01402  0.51400  Biso   1.000  I
  I11137   1.0000 0.01402  0.01402  0.01402  Biso   1.000  I
  I11138   1.0000 0.01402  0.51400  0.51400  Biso   1.000  I
  I11139   1.0000 0.48600  0.01402  0.48600  Biso   1.000  I
  I11140   1.0000 0.48600  0.01402  0.48600  Biso   1.000  I
  I11141   1.0000 0.51400  0.48600  0.98598  Biso   1.000  I
  I11142   1.0000 0.48600  0.48600  0.01402  Biso   1.000  I
  I11143   1.0000 0.51400  0.51400  0.01402  Biso   1.000  I
  I11144   1.0000 0.51400  0.01402  0.51400  Biso   1.000  I
  I11145   1.0000 0.98598  0.01402  0.98598  Biso   1.000  I
  I11146   1.0000 0.48600  0.51400  0.98598  Biso   1.000  I
  I11147   1.0000 0.01402  0.01402  0.01402  Biso   1.000  I
  I11148   1.0000 0.48600  0.01402  0.48600  Biso   1.000  I
  I11149   1.0000 0.48600  0.98598  0.51400  Biso   1.000  I
  I11150   1.0000 0.51400  0.98598  0.48600  Biso   1.000  I
  I11151   1.0000 0.51400  0.01402  0.51400  Biso   1.000  I
  I11152   1.0000 0.98598  0.51400  0.48600  Biso   1.000  I
  I11153   1.0000 0.98598  0.48600  0.51400  Biso   1.000  I
  I11154   1.0000 0.01402  0.51400  0.51400  Biso   1.000  I
  I11155   1.0000 0.51400  0.48600  0.98598  Biso   1.000  I
  I11156   1.0000 0.48600  0.51400  0.98598  Biso   1.000  I
  I11157   1.0000 0.51400  0.51400  0.01402  Biso   1.000  I
  I11158   1.0000 0.48600  0.98598  0.51400  Biso   1.000  I
  I11159   1.0000 0.48600  0.01402  0.48600  Biso   1.000  I
  I11160   1.0000 0.51400  0.01402  0.51400  Biso   1.000  I
  I11161   1.0000 0.98598  0.48600  0.51400  Biso   1.000  I
  I11162   1.0000 0.01402  0.51400  0.51400  Biso   1.000  I
  I11163   1.0000 0.01402  0.48600  0.48600  Biso   1.000  I
  I11164   1.0000 0.51400  0.98598  0.48600  Biso   1.000  I
  I11165   1.0000 0.48600  0.01402  0.48600  Biso   1.000  I
  I11166   1.0000 0.51400  0.01402  0.51400  Biso   1.000  I
  I11167   1.0000 0.48600  0.48600  0.01402  Biso   1.000  I
  I11168   1.0000 0.98598  0.98598  0.01402  Biso   1.000  I
  I11169   1.0000 0.98598  0.01402  0.98598  Biso   1.000  I
  I11170   1.0000 0.01402  0.01402  0.01402  Biso   1.000  I
  I11171   1.0000 0.98598  0.51400  0.48600  Biso   1.000  I
  I11172   1.0000 0.98598  0.48600  0.51400  Biso   1.000  I
  I11173   1.0000 0.01402  0.51400  0.51400  Biso   1.000  I
  I11174   1.0000 0.51400  0.98598  0.48600  Biso   1.000  I
  I11175   1.0000 0.01402  0.98598  0.98598  Biso   1.000  I
  I11176   1.0000 0.48600  0.98598  0.51400  Biso   1.000  I
  I11177   1.0000 0.48600  0.01402  0.48600  Biso   1.000  I
  I11178   1.0000 0.51400  0.01402  0.51400  Biso   1.000  I
  I11179   1.0000 0.01402  0.48600  0.48600  Biso   1.000  I
  I11180   1.0000 0.48600  0.51400  0.98598  Biso   1.000  I
  I11181   1.0000 0.48600  0.48600  0.01402  Biso   1.000  I
  I11182   1.0000 0.51400  0.51400  0.01402  Biso   1.000  I
  I11183   1.0000 0.01402  0.01402  0.01402  Biso   1.000  I
  I11184   1.0000 0.48600  0.01402  0.48600  Biso   1.000  I
  I11185   1.0000 0.98598  0.51400  0.48600  Biso   1.000  I
  I11186   1.0000 0.98598  0.48600  0.51400  Biso   1.000  I
  I11187   1.0000 0.01402  0.51400  0.51400  Biso   1.000  I
  I11188   1.0000 0.98598  0.01402  0.98598  Biso   1.000  I
  I11189   1.0000 0.51400  0.01402  0.51400  Biso   1.000  I
  I11190   1.0000 0.51400  0.48600  0.98598  Biso   1.000  I
  I11191   1.0000 0.48600  0.98598  0.51400  Biso   1.000  I
  I11192   1.0000 0.48600  0.01402  0.48600  Biso   1.000  I
  I11193   1.0000 0.51400  0.01402  0.51400  Biso   1.000  I
  I11194   1.0000 0.01402  0.48600  0.48600  Biso   1.000  I
  I11195   1.0000 0.12502  0.37501  0.37501  Biso   1.000  I
  I11196   1.0000 0.26401  0.26401  0.23601  Biso   1.000  I
  I11197   1.0000 0.12502  0.12502  0.12502  Biso   1.000  I
  I11198   1.0000 0.37501  0.12502  0.37501  Biso   1.000  I
  I11199   1.0000 0.62499  0.87498  0.37501  Biso   1.000  I
  I11200   1.0000 0.87498  0.62499  0.37501  Biso   1.000  I
  I11201   1.0000 0.12502  0.62499  0.62499  Biso   1.000  I
  I11202   1.0000 0.12502  0.87498  0.87498  Biso   1.000  I
  I11203   1.0000 0.12502  0.37501  0.37501  Biso   1.000  I
  I11204   1.0000 0.12502  0.12502  0.12502  Biso   1.000  I
  I11205   1.0000 0.12502  0.62499  0.62499  Biso   1.000  I
  I11206   1.0000 0.26401  0.76399  0.73599  Biso   1.000  I
  I11207   1.0000 0.37501  0.62499  0.87498  Biso   1.000  I
  I11208   1.0000 0.12502  0.87498  0.87498  Biso   1.000  I
  I11209   1.0000 0.12502  0.37501  0.37501  Biso   1.000  I
  I11210   1.0000 0.37501  0.37501  0.12502  Biso   1.000  I
  I11211   1.0000 0.87498  0.12502  0.87498  Biso   1.000  I
  I11212   1.0000 0.73599  0.23601  0.73599  Biso   1.000  I
  I11213   1.0000 0.87498  0.37501  0.62499  Biso   1.000  I
  I11214   1.0000 0.62499  0.37501  0.87498  Biso   1.000  I
  I11215   1.0000 0.62499  0.37501  0.87498  Biso   1.000  I
  I11216   1.0000 0.87498  0.37501  0.62499  Biso   1.000  I
  I11217   1.0000 0.37501  0.12502  0.37501  Biso   1.000  I
  I11218   1.0000 0.23601  0.23601  0.23601  Biso   1.000  I
  I11219   1.0000 0.12502  0.37501  0.37501  Biso   1.000  I
  I11220   1.0000 0.37501  0.37501  0.12502  Biso   1.000  I
  I11221   1.0000 0.12502  0.62499  0.62499  Biso   1.000  I
  I11222   1.0000 0.26401  0.73599  0.76399  Biso   1.000  I
  I11223   1.0000 0.37501  0.87498  0.62499  Biso   1.000  I
  I11224   1.0000 0.12502  0.87498  0.87498  Biso   1.000  I
  I11225   1.0000 0.12502  0.37501  0.37501  Biso   1.000  I
  I11226   1.0000 0.26401  0.23601  0.26401  Biso   1.000  I
  I11227   1.0000 0.12502  0.12502  0.12502  Biso   1.000  I
  I11228   1.0000 0.37501  0.37501  0.12502  Biso   1.000  I
  I11229   1.0000 0.62499  0.37501  0.87498  Biso   1.000  I
  I11230   1.0000 0.76399  0.23601  0.76399  Biso   1.000  I
  I11231   1.0000 0.87498  0.37501  0.62499  Biso   1.000  I
  I11232   1.0000 0.62499  0.12502  0.62499  Biso   1.000  I
  I11233   1.0000 0.12502  0.12502  0.12502  Biso   1.000  I
  I11234   1.0000 0.37501  0.37501  0.12502  Biso   1.000  I
  I11235   1.0000 0.62499  0.62499  0.12502  Biso   1.000  I
  I11236   1.0000 0.76399  0.73599  0.26401  Biso   1.000  I
  I11237   1.0000 0.62499  0.87498  0.37501  Biso   1.000  I
  I11238   1.0000 0.87498  0.87498  0.12502  Biso   1.000  I
  I11239   1.0000 0.87498  0.87498  0.12502  Biso   1.000  I
  I11240   1.0000 0.62499  0.62499  0.12502  Biso   1.000  I
  I11241   1.0000 0.12502  0.37501  0.37501  Biso   1.000  I
  I11242   1.0000 0.26401  0.23601  0.26401  Biso   1.000  I
  I11243   1.0000 0.12502  0.12502  0.12502  Biso   1.000  I
  I11244   1.0000 0.37501  0.37501  0.12502  Biso   1.000  I
  I11245   1.0000 0.12502  0.62499  0.62499  Biso   1.000  I
  I11246   1.0000 0.12502  0.87498  0.87498  Biso   1.000  I
  I11247   1.0000 0.87498  0.87498  0.12502  Biso   1.000  I
  I11248   1.0000 0.73599  0.76399  0.26401  Biso   1.000  I
  I11249   1.0000 0.62499  0.62499  0.12502  Biso   1.000  I
  I11250   1.0000 0.87498  0.62499  0.37501  Biso   1.000  I
  I11251   1.0000 0.87498  0.12502  0.87498  Biso   1.000  I
  I11252   1.0000 0.62499  0.12502  0.62499  Biso   1.000  I
  I11253   1.0000 0.37501  0.12502  0.37501  Biso   1.000  I
  I11254   1.0000 0.23601  0.26401  0.26401  Biso   1.000  I
  I11255   1.0000 0.12502  0.12502  0.12502  Biso   1.000  I
  I11256   1.0000 0.37501  0.37501  0.12502  Biso   1.000  I
  I11257   1.0000 0.12502  0.37501  0.37501  Biso   1.000  I
  I11258   1.0000 0.26401  0.26401  0.23601  Biso   1.000  I
  I11259   1.0000 0.12502  0.12502  0.12502  Biso   1.000  I
  I11260   1.0000 0.37501  0.12502  0.37501  Biso   1.000  I
  I11261   1.0000 0.12502  0.37501  0.37501  Biso   1.000  I
  I11262   1.0000 0.26401  0.23601  0.26401  Biso   1.000  I
  I11263   1.0000 0.12502  0.12502  0.12502  Biso   1.000  I
  I11264   1.0000 0.37501  0.37501  0.12502  Biso   1.000  I
  I11265   1.0000 0.87498  0.37501  0.62499  Biso   1.000  I
  I11266   1.0000 0.62499  0.37501  0.87498  Biso   1.000  I
  I11267   1.0000 0.87498  0.87498  0.12502  Biso   1.000  I
  I11268   1.0000 0.62499  0.62499  0.12502  Biso   1.000  I
  I11269   1.0000 0.37501  0.87498  0.62499  Biso   1.000  I
  I11270   1.0000 0.37501  0.62499  0.87498  Biso   1.000  I
  I11271   1.0000 0.37501  0.12502  0.37501  Biso   1.000  I
  I11272   1.0000 0.23601  0.23601  0.23601  Biso   1.000  I
  I11273   1.0000 0.12502  0.37501  0.37501  Biso   1.000  I
  I11274   1.0000 0.37501  0.37501  0.12502  Biso   1.000  I
  I11275   1.0000 0.37501  0.12502  0.37501  Biso   1.000  I
  I11276   1.0000 0.23601  0.26401  0.26401  Biso   1.000  I
  I11277   1.0000 0.12502  0.12502  0.12502  Biso   1.000  I
  I11278   1.0000 0.37501  0.37501  0.12502  Biso   1.000  I
  I11279   1.0000 0.44028  0.05970  0.44028  Biso   1.000  I
  I11280   1.0000 0.55972  0.05970  0.55972  Biso   1.000  I
  I11281   1.0000 0.55972  0.94030  0.44028  Biso   1.000  I
  I11282   1.0000 0.55972  0.55972  0.05970  Biso   1.000  I
  I11283   1.0000 0.55972  0.44028  0.94030  Biso   1.000  I
  I11284   1.0000 0.05970  0.44028  0.44028  Biso   1.000  I
  I11285   1.0000 0.94030  0.55972  0.44028  Biso   1.000  I
  I11286   1.0000 0.55972  0.94030  0.44028  Biso   1.000  I
  I11287   1.0000 0.55972  0.05970  0.55972  Biso   1.000  I
  I11288   1.0000 0.44028  0.55972  0.94030  Biso   1.000  I
  I11289   1.0000 0.55972  0.55972  0.05970  Biso   1.000  I
  I11290   1.0000 0.55972  0.44028  0.94030  Biso   1.000  I
  I11291   1.0000 0.44028  0.44028  0.05970  Biso   1.000  I
  I11292   1.0000 0.55972  0.55972  0.05970  Biso   1.000  I
  I11293   1.0000 0.55972  0.44028  0.94030  Biso   1.000  I
  I11294   1.0000 0.55972  0.94030  0.44028  Biso   1.000  I
  I11295   1.0000 0.55972  0.05970  0.55972  Biso   1.000  I
  I11296   1.0000 0.44028  0.94030  0.55972  Biso   1.000  I
  I11297   1.0000 0.94030  0.44028  0.55972  Biso   1.000  I
  I11298   1.0000 0.05970  0.55972  0.55972  Biso   1.000  I
  I11299   1.0000 0.55972  0.55972  0.05970  Biso   1.000  I
  I11300   1.0000 0.55972  0.44028  0.94030  Biso   1.000  I
  I11301   1.0000 0.55972  0.05970  0.55972  Biso   1.000  I
  I11302   1.0000 0.44028  0.94030  0.55972  Biso   1.000  I
  I11303   1.0000 0.05970  0.55972  0.55972  Biso   1.000  I
  I11304   1.0000 0.05970  0.44028  0.44028  Biso   1.000  I
  I11305   1.0000 0.94030  0.44028  0.55972  Biso   1.000  I
  I11306   1.0000 0.44028  0.05970  0.44028  Biso   1.000  I
  I11307   1.0000 0.55972  0.05970  0.55972  Biso   1.000  I
  I11308   1.0000 0.55972  0.94030  0.44028  Biso   1.000  I
  I11309   1.0000 0.94030  0.05970  0.94030  Biso   1.000  I
  I11310   1.0000 0.05970  0.05970  0.05970  Biso   1.000  I
  I11311   1.0000 0.94030  0.44028  0.55972  Biso   1.000  I
  I11312   1.0000 0.05970  0.55972  0.55972  Biso   1.000  I
  I11313   1.0000 0.94030  0.55972  0.44028  Biso   1.000  I
  I11314   1.0000 0.44028  0.05970  0.44028  Biso   1.000  I
  I11315   1.0000 0.55972  0.05970  0.55972  Biso   1.000  I
  I11316   1.0000 0.44028  0.94030  0.55972  Biso   1.000  I
  I11317   1.0000 0.44028  0.44028  0.05970  Biso   1.000  I
  I11318   1.0000 0.44028  0.55972  0.94030  Biso   1.000  I
  I11319   1.0000 0.94030  0.44028  0.55972  Biso   1.000  I
  I11320   1.0000 0.05970  0.55972  0.55972  Biso   1.000  I
  I11321   1.0000 0.44028  0.05970  0.44028  Biso   1.000  I
  I11322   1.0000 0.55972  0.05970  0.55972  Biso   1.000  I
  I11323   1.0000 0.44028  0.94030  0.55972  Biso   1.000  I
  I11324   1.0000 0.05970  0.44028  0.44028  Biso   1.000  I
  I11325   1.0000 0.05970  0.05970  0.05970  Biso   1.000  I
  I11326   1.0000 0.55972  0.94030  0.44028  Biso   1.000  I
  I11327   1.0000 0.05970  0.55972  0.55972  Biso   1.000  I
  I11328   1.0000 0.05970  0.94030  0.94030  Biso   1.000  I
  I11329   1.0000 0.05970  0.44028  0.44028  Biso   1.000  I
  I11330   1.0000 0.05970  0.05970  0.05970  Biso   1.000  I
  I11331   1.0000 0.05970  0.55972  0.55972  Biso   1.000  I
  I11332   1.0000 0.05970  0.94030  0.94030  Biso   1.000  I
  I11333   1.0000 0.05970  0.44028  0.44028  Biso   1.000  I
  I11334   1.0000 0.44028  0.44028  0.05970  Biso   1.000  I
  I11335   1.0000 0.94030  0.44028  0.55972  Biso   1.000  I
  I11336   1.0000 0.55972  0.44028  0.94030  Biso   1.000  I
  I11337   1.0000 0.55972  0.44028  0.94030  Biso   1.000  I
  I11338   1.0000 0.94030  0.44028  0.55972  Biso   1.000  I
  I11339   1.0000 0.05970  0.44028  0.44028  Biso   1.000  I
  I11340   1.0000 0.44028  0.44028  0.05970  Biso   1.000  I
  I11341   1.0000 0.05970  0.55972  0.55972  Biso   1.000  I
  I11342   1.0000 0.44028  0.94030  0.55972  Biso   1.000  I
  I11343   1.0000 0.05970  0.94030  0.94030  Biso   1.000  I
  I11344   1.0000 0.05970  0.44028  0.44028  Biso   1.000  I
  I11345   1.0000 0.05970  0.05970  0.05970  Biso   1.000  I
  I11346   1.0000 0.44028  0.44028  0.05970  Biso   1.000  I
  I11347   1.0000 0.55972  0.44028  0.94030  Biso   1.000  I
  I11348   1.0000 0.94030  0.44028  0.55972  Biso   1.000  I
  I11349   1.0000 0.55972  0.05970  0.55972  Biso   1.000  I
  I11350   1.0000 0.05970  0.05970  0.05970  Biso   1.000  I
  I11351   1.0000 0.44028  0.44028  0.05970  Biso   1.000  I
  I11352   1.0000 0.55972  0.55972  0.05970  Biso   1.000  I
  I11353   1.0000 0.55972  0.94030  0.44028  Biso   1.000  I
  I11354   1.0000 0.94030  0.94030  0.05970  Biso   1.000  I
  I11355   1.0000 0.94030  0.94030  0.05970  Biso   1.000  I
  I11356   1.0000 0.55972  0.55972  0.05970  Biso   1.000  I
  I11357   1.0000 0.05970  0.44028  0.44028  Biso   1.000  I
  I11358   1.0000 0.05970  0.05970  0.05970  Biso   1.000  I
  I11359   1.0000 0.44028  0.44028  0.05970  Biso   1.000  I
  I11360   1.0000 0.05970  0.55972  0.55972  Biso   1.000  I
  I11361   1.0000 0.05970  0.94030  0.94030  Biso   1.000  I
  I11362   1.0000 0.94030  0.94030  0.05970  Biso   1.000  I
  I11363   1.0000 0.55972  0.55972  0.05970  Biso   1.000  I
  I11364   1.0000 0.94030  0.05970  0.94030  Biso   1.000  I
  I11365   1.0000 0.55972  0.05970  0.55972  Biso   1.000  I
  I11366   1.0000 0.44028  0.05970  0.44028  Biso   1.000  I
  I11367   1.0000 0.05970  0.05970  0.05970  Biso   1.000  I
  I11368   1.0000 0.44028  0.44028  0.05970  Biso   1.000  I
  I11369   1.0000 0.05970  0.44028  0.44028  Biso   1.000  I
  I11370   1.0000 0.05970  0.05970  0.05970  Biso   1.000  I
  I11371   1.0000 0.44028  0.05970  0.44028  Biso   1.000  I
  I11372   1.0000 0.05970  0.44028  0.44028  Biso   1.000  I
  I11373   1.0000 0.05970  0.05970  0.05970  Biso   1.000  I
  I11374   1.0000 0.44028  0.44028  0.05970  Biso   1.000  I
  I11375   1.0000 0.94030  0.44028  0.55972  Biso   1.000  I
  I11376   1.0000 0.55972  0.44028  0.94030  Biso   1.000  I
  I11377   1.0000 0.94030  0.94030  0.05970  Biso   1.000  I
  I11378   1.0000 0.55972  0.55972  0.05970  Biso   1.000  I
  I11379   1.0000 0.44028  0.94030  0.55972  Biso   1.000  I
  I11380   1.0000 0.05970  0.44028  0.44028  Biso   1.000  I
  I11381   1.0000 0.44028  0.44028  0.05970  Biso   1.000  I
  I11382   1.0000 0.05970  0.05970  0.05970  Biso   1.000  I
  I11383   1.0000 0.44028  0.44028  0.05970  Biso   1.000  I
  I11384   1.0000 0.48600  0.98598  0.51400  Biso   1.000  I
  I11385   1.0000 0.62499  0.12502  0.62499  Biso   1.000  I
  I11386   1.0000 0.62499  0.87498  0.37501  Biso   1.000  I
  I11387   1.0000 0.62499  0.62499  0.12502  Biso   1.000  I
  I11388   1.0000 0.62499  0.37501  0.87498  Biso   1.000  I
  I11389   1.0000 0.12502  0.37501  0.37501  Biso   1.000  I
  I11390   1.0000 0.62499  0.87498  0.37501  Biso   1.000  I
  I11391   1.0000 0.62499  0.12502  0.62499  Biso   1.000  I
  I11392   1.0000 0.48600  0.48600  0.01402  Biso   1.000  I
  I11393   1.0000 0.62499  0.62499  0.12502  Biso   1.000  I
  I11394   1.0000 0.62499  0.37501  0.87498  Biso   1.000  I
  I11395   1.0000 0.48600  0.51400  0.98598  Biso   1.000  I
  I11396   1.0000 0.37501  0.37501  0.12502  Biso   1.000  I
  I11397   1.0000 0.62499  0.62499  0.12502  Biso   1.000  I
  I11398   1.0000 0.62499  0.37501  0.87498  Biso   1.000  I
  I11399   1.0000 0.62499  0.87498  0.37501  Biso   1.000  I
  I11400   1.0000 0.48600  0.01402  0.48600  Biso   1.000  I
  I11401   1.0000 0.62499  0.12502  0.62499  Biso   1.000  I
  I11402   1.0000 0.37501  0.87498  0.62499  Biso   1.000  I
  I11403   1.0000 0.87498  0.37501  0.62499  Biso   1.000  I
  I11404   1.0000 0.12502  0.62499  0.62499  Biso   1.000  I
  I11405   1.0000 0.62499  0.62499  0.12502  Biso   1.000  I
  I11406   1.0000 0.62499  0.37501  0.87498  Biso   1.000  I
  I11407   1.0000 0.62499  0.12502  0.62499  Biso   1.000  I
  I11408   1.0000 0.37501  0.87498  0.62499  Biso   1.000  I
  I11409   1.0000 0.98598  0.51400  0.48600  Biso   1.000  I
  I11410   1.0000 0.12502  0.62499  0.62499  Biso   1.000  I
  I11411   1.0000 0.12502  0.37501  0.37501  Biso   1.000  I
  I11412   1.0000 0.87498  0.37501  0.62499  Biso   1.000  I
  I11413   1.0000 0.48600  0.98598  0.51400  Biso   1.000  I
  I11414   1.0000 0.62499  0.12502  0.62499  Biso   1.000  I
  I11415   1.0000 0.62499  0.87498  0.37501  Biso   1.000  I
  I11416   1.0000 0.12502  0.12502  0.12502  Biso   1.000  I
  I11417   1.0000 0.87498  0.37501  0.62499  Biso   1.000  I
  I11418   1.0000 0.01402  0.48600  0.48600  Biso   1.000  I
  I11419   1.0000 0.12502  0.62499  0.62499  Biso   1.000  I
  I11420   1.0000 0.51400  0.98598  0.48600  Biso   1.000  I
  I11421   1.0000 0.62499  0.12502  0.62499  Biso   1.000  I
  I11422   1.0000 0.37501  0.87498  0.62499  Biso   1.000  I
  I11423   1.0000 0.37501  0.37501  0.12502  Biso   1.000  I
  I11424   1.0000 0.87498  0.37501  0.62499  Biso   1.000  I
  I11425   1.0000 0.12502  0.62499  0.62499  Biso   1.000  I
  I11426   1.0000 0.51400  0.98598  0.48600  Biso   1.000  I
  I11427   1.0000 0.62499  0.12502  0.62499  Biso   1.000  I
  I11428   1.0000 0.37501  0.87498  0.62499  Biso   1.000  I
  I11429   1.0000 0.01402  0.51400  0.51400  Biso   1.000  I
  I11430   1.0000 0.01402  0.98598  0.98598  Biso   1.000  I
  I11431   1.0000 0.48600  0.98598  0.51400  Biso   1.000  I
  I11432   1.0000 0.48600  0.01402  0.48600  Biso   1.000  I
  I11433   1.0000 0.51400  0.01402  0.51400  Biso   1.000  I
  I11434   1.0000 0.01402  0.48600  0.48600  Biso   1.000  I
  I11435   1.0000 0.01402  0.01402  0.01402  Biso   1.000  I
  I11436   1.0000 0.01402  0.51400  0.51400  Biso   1.000  I
  I11437   1.0000 0.01402  0.98598  0.98598  Biso   1.000  I
  I11438   1.0000 0.01402  0.48600  0.48600  Biso   1.000  I
  I11439   1.0000 0.01402  0.01402  0.01402  Biso   1.000  I
  I11440   1.0000 0.98598  0.51400  0.48600  Biso   1.000  I
  I11441   1.0000 0.98598  0.48600  0.51400  Biso   1.000  I
  I11442   1.0000 0.01402  0.51400  0.51400  Biso   1.000  I
  I11443   1.0000 0.51400  0.48600  0.98598  Biso   1.000  I
  I11444   1.0000 0.48600  0.51400  0.98598  Biso   1.000  I
  I11445   1.0000 0.51400  0.51400  0.01402  Biso   1.000  I
  I11446   1.0000 0.98598  0.51400  0.48600  Biso   1.000  I
  I11447   1.0000 0.01402  0.51400  0.51400  Biso   1.000  I
  I11448   1.0000 0.01402  0.48600  0.48600  Biso   1.000  I
  I11449   1.0000 0.48600  0.51400  0.98598  Biso   1.000  I
  I11450   1.0000 0.48600  0.48600  0.01402  Biso   1.000  I
  I11451   1.0000 0.51400  0.51400  0.01402  Biso   1.000  I
  I11452   1.0000 0.48600  0.51400  0.98598  Biso   1.000  I
  I11453   1.0000 0.48600  0.48600  0.01402  Biso   1.000  I
  I11454   1.0000 0.51400  0.51400  0.01402  Biso   1.000  I
  I11455   1.0000 0.01402  0.48600  0.48600  Biso   1.000  I
  I11456   1.0000 0.98598  0.51400  0.48600  Biso   1.000  I
  I11457   1.0000 0.98598  0.48600  0.51400  Biso   1.000  I
  I11458   1.0000 0.01402  0.51400  0.51400  Biso   1.000  I
  I11459   1.0000 0.51400  0.48600  0.98598  Biso   1.000  I
  I11460   1.0000 0.01402  0.48600  0.48600  Biso   1.000  I
  I11461   1.0000 0.51400  0.98598  0.48600  Biso   1.000  I
  I11462   1.0000 0.48600  0.01402  0.48600  Biso   1.000  I
  I11463   1.0000 0.51400  0.01402  0.51400  Biso   1.000  I
  I11464   1.0000 0.01402  0.01402  0.01402  Biso   1.000  I
  I11465   1.0000 0.01402  0.51400  0.51400  Biso   1.000  I
  I11466   1.0000 0.01402  0.98598  0.98598  Biso   1.000  I
  I11467   1.0000 0.51400  0.48600  0.98598  Biso   1.000  I
  I11468   1.0000 0.48600  0.51400  0.98598  Biso   1.000  I
  I11469   1.0000 0.51400  0.51400  0.01402  Biso   1.000  I
  I11470   1.0000 0.48600  0.48600  0.01402  Biso   1.000  I
  I11471   1.0000 0.98598  0.51400  0.48600  Biso   1.000  I
  I11472   1.0000 0.01402  0.51400  0.51400  Biso   1.000  I
  I11473   1.0000 0.01402  0.48600  0.48600  Biso   1.000  I
  I11474   1.0000 0.48600  0.98598  0.51400  Biso   1.000  I
  I11475   1.0000 0.98598  0.98598  0.01402  Biso   1.000  I
  I11476   1.0000 0.51400  0.51400  0.01402  Biso   1.000  I
  I11477   1.0000 0.48600  0.48600  0.01402  Biso   1.000  I
  I11478   1.0000 0.01402  0.01402  0.01402  Biso   1.000  I
  I11479   1.0000 0.01402  0.01402  0.01402  Biso   1.000  I
  I11480   1.0000 0.48600  0.48600  0.01402  Biso   1.000  I
  I11481   1.0000 0.01402  0.51400  0.51400  Biso   1.000  I
  I11482   1.0000 0.51400  0.51400  0.01402  Biso   1.000  I
  I11483   1.0000 0.01402  0.48600  0.48600  Biso   1.000  I
  I11484   1.0000 0.01402  0.01402  0.01402  Biso   1.000  I
  I11485   1.0000 0.01402  0.01402  0.01402  Biso   1.000  I
  I11486   1.0000 0.48600  0.48600  0.01402  Biso   1.000  I
  I11487   1.0000 0.01402  0.01402  0.01402  Biso   1.000  I
  I11488   1.0000 0.48600  0.01402  0.48600  Biso   1.000  I
  I11489   1.0000 0.51400  0.01402  0.51400  Biso   1.000  I
  I11490   1.0000 0.51400  0.51400  0.01402  Biso   1.000  I
  I11491   1.0000 0.01402  0.51400  0.51400  Biso   1.000  I
  I11492   1.0000 0.51400  0.01402  0.51400  Biso   1.000  I
  I11493   1.0000 0.98598  0.48600  0.51400  Biso   1.000  I
  I11494   1.0000 0.98598  0.98598  0.01402  Biso   1.000  I
  I11495   1.0000 0.51400  0.51400  0.01402  Biso   1.000  I
  I11496   1.0000 0.98598  0.51400  0.48600  Biso   1.000  I
  I11497   1.0000 0.01402  0.51400  0.51400  Biso   1.000  I
  I11498   1.0000 0.01402  0.48600  0.48600  Biso   1.000  I
  I11499   1.0000 0.48600  0.48600  0.01402  Biso   1.000  I
  I11500   1.0000 0.01402  0.01402  0.01402  Biso   1.000  I
  I11501   1.0000 0.48600  0.48600  0.01402  Biso   1.000  I
  I11502   1.0000 0.51400  0.98598  0.48600  Biso   1.000  I
  I11503   1.0000 0.48600  0.01402  0.48600  Biso   1.000  I
  I11504   1.0000 0.51400  0.01402  0.51400  Biso   1.000  I
  I11505   1.0000 0.98598  0.48600  0.51400  Biso   1.000  I
  I11506   1.0000 0.51400  0.48600  0.98598  Biso   1.000  I
  I11507   1.0000 0.48600  0.51400  0.98598  Biso   1.000  I
  I11508   1.0000 0.51400  0.51400  0.01402  Biso   1.000  I
  I11509   1.0000 0.98598  0.98598  0.01402  Biso   1.000  I
  I11510   1.0000 0.51400  0.51400  0.01402  Biso   1.000  I
  I11511   1.0000 0.69031  0.19029  0.69031  Biso   1.000  I
  I11512   1.0000 0.69031  0.80971  0.30969  Biso   1.000  I
  I11513   1.0000 0.69031  0.69031  0.19029  Biso   1.000  I
  I11514   1.0000 0.69031  0.30969  0.80971  Biso   1.000  I
  I11515   1.0000 0.19029  0.30969  0.30969  Biso   1.000  I
  I11516   1.0000 0.69031  0.80971  0.30969  Biso   1.000  I
  I11517   1.0000 0.69031  0.19029  0.69031  Biso   1.000  I
  I11518   1.0000 0.69031  0.69031  0.19029  Biso   1.000  I
  I11519   1.0000 0.69031  0.30969  0.80971  Biso   1.000  I
  I11520   1.0000 0.30969  0.30969  0.19029  Biso   1.000  I
  I11521   1.0000 0.69031  0.69031  0.19029  Biso   1.000  I
  I11522   1.0000 0.69031  0.30969  0.80971  Biso   1.000  I
  I11523   1.0000 0.69031  0.80971  0.30969  Biso   1.000  I
  I11524   1.0000 0.69031  0.19029  0.69031  Biso   1.000  I
  I11525   1.0000 0.30969  0.80971  0.69031  Biso   1.000  I
  I11526   1.0000 0.80971  0.30969  0.69031  Biso   1.000  I
  I11527   1.0000 0.19029  0.69031  0.69031  Biso   1.000  I
  I11528   1.0000 0.69031  0.69031  0.19029  Biso   1.000  I
  I11529   1.0000 0.69031  0.30969  0.80971  Biso   1.000  I
  I11530   1.0000 0.69031  0.19029  0.69031  Biso   1.000  I
  I11531   1.0000 0.30969  0.80971  0.69031  Biso   1.000  I
  I11532   1.0000 0.19029  0.69031  0.69031  Biso   1.000  I
  I11533   1.0000 0.19029  0.30969  0.30969  Biso   1.000  I
  I11534   1.0000 0.80971  0.30969  0.69031  Biso   1.000  I
  I11535   1.0000 0.69031  0.19029  0.69031  Biso   1.000  I
  I11536   1.0000 0.69031  0.80971  0.30969  Biso   1.000  I
  I11537   1.0000 0.19029  0.19029  0.19029  Biso   1.000  I
  I11538   1.0000 0.80971  0.30969  0.69031  Biso   1.000  I
  I11539   1.0000 0.19029  0.69031  0.69031  Biso   1.000  I
  I11540   1.0000 0.69031  0.19029  0.69031  Biso   1.000  I
  I11541   1.0000 0.30969  0.80971  0.69031  Biso   1.000  I
  I11542   1.0000 0.30969  0.30969  0.19029  Biso   1.000  I
  I11543   1.0000 0.80971  0.30969  0.69031  Biso   1.000  I
  I11544   1.0000 0.19029  0.69031  0.69031  Biso   1.000  I
  I11545   1.0000 0.69031  0.19029  0.69031  Biso   1.000  I
  I11546   1.0000 0.30969  0.80971  0.69031  Biso   1.000  I
  I11547   1.0000 0.44028  0.05970  0.44028  Biso   1.000  I
  I11548   1.0000 0.55972  0.05970  0.55972  Biso   1.000  I
  I11549   1.0000 0.44028  0.94030  0.55972  Biso   1.000  I
  I11550   1.0000 0.05970  0.55972  0.55972  Biso   1.000  I
  I11551   1.0000 0.94030  0.55972  0.44028  Biso   1.000  I
  I11552   1.0000 0.44028  0.55972  0.94030  Biso   1.000  I
  I11553   1.0000 0.55972  0.55972  0.05970  Biso   1.000  I
  I11554   1.0000 0.05970  0.55972  0.55972  Biso   1.000  I
  I11555   1.0000 0.94030  0.55972  0.44028  Biso   1.000  I
  I11556   1.0000 0.55972  0.55972  0.05970  Biso   1.000  I
  I11557   1.0000 0.44028  0.55972  0.94030  Biso   1.000  I
  I11558   1.0000 0.44028  0.44028  0.05970  Biso   1.000  I
  I11559   1.0000 0.55972  0.55972  0.05970  Biso   1.000  I
  I11560   1.0000 0.44028  0.55972  0.94030  Biso   1.000  I
  I11561   1.0000 0.94030  0.44028  0.55972  Biso   1.000  I
  I11562   1.0000 0.05970  0.55972  0.55972  Biso   1.000  I
  I11563   1.0000 0.94030  0.55972  0.44028  Biso   1.000  I
  I11564   1.0000 0.44028  0.05970  0.44028  Biso   1.000  I
  I11565   1.0000 0.44028  0.55972  0.94030  Biso   1.000  I
  I11566   1.0000 0.55972  0.55972  0.05970  Biso   1.000  I
  I11567   1.0000 0.05970  0.55972  0.55972  Biso   1.000  I
  I11568   1.0000 0.94030  0.55972  0.44028  Biso   1.000  I
  I11569   1.0000 0.05970  0.55972  0.55972  Biso   1.000  I
  I11570   1.0000 0.05970  0.44028  0.44028  Biso   1.000  I
  I11571   1.0000 0.94030  0.55972  0.44028  Biso   1.000  I
  I11572   1.0000 0.44028  0.05970  0.44028  Biso   1.000  I
  I11573   1.0000 0.55972  0.05970  0.55972  Biso   1.000  I
  I11574   1.0000 0.55972  0.94030  0.44028  Biso   1.000  I
  I11575   1.0000 0.44028  0.55972  0.94030  Biso   1.000  I
  I11576   1.0000 0.55972  0.55972  0.05970  Biso   1.000  I
  I11577   1.0000 0.55972  0.44028  0.94030  Biso   1.000  I
  I11578   1.0000 0.73599  0.26401  0.76399  Biso   1.000  I
  I11579   1.0000 0.76399  0.23601  0.76399  Biso   1.000  I
  I11580   1.0000 0.76399  0.26401  0.73599  Biso   1.000  I
  I11581   1.0000 0.76399  0.73599  0.26401  Biso   1.000  I
  I11582   1.0000 0.76399  0.76399  0.23601  Biso   1.000  I
  I11583   1.0000 0.73599  0.73599  0.23601  Biso   1.000  I
  I11584   1.0000 0.76399  0.73599  0.26401  Biso   1.000  I
  I11585   1.0000 0.76399  0.76399  0.23601  Biso   1.000  I
  I11586   1.0000 0.73599  0.76399  0.26401  Biso   1.000  I
  I11587   1.0000 0.73599  0.23601  0.73599  Biso   1.000  I
  I11588   1.0000 0.76399  0.23601  0.76399  Biso   1.000  I
  I11589   1.0000 0.76399  0.26401  0.73599  Biso   1.000  I
  I11590   1.0000 0.26401  0.26401  0.23601  Biso   1.000  I
  I11591   1.0000 0.26401  0.23601  0.26401  Biso   1.000  I
  I11592   1.0000 0.23601  0.23601  0.23601  Biso   1.000  I
  I11593   1.0000 0.73599  0.73599  0.23601  Biso   1.000  I
  I11594   1.0000 0.73599  0.26401  0.76399  Biso   1.000  I
  I11595   1.0000 0.76399  0.23601  0.76399  Biso   1.000  I
  I11596   1.0000 0.76399  0.26401  0.73599  Biso   1.000  I
  I11597   1.0000 0.76399  0.73599  0.26401  Biso   1.000  I
  I11598   1.0000 0.76399  0.76399  0.23601  Biso   1.000  I
  I11599   1.0000 0.73599  0.76399  0.26401  Biso   1.000  I
  I11600   1.0000 0.73599  0.23601  0.73599  Biso   1.000  I
  I11601   1.0000 0.26401  0.23601  0.26401  Biso   1.000  I
  I11602   1.0000 0.23601  0.26401  0.26401  Biso   1.000  I
  I11603   1.0000 0.23601  0.23601  0.23601  Biso   1.000  I
  I11604   1.0000 0.76399  0.73599  0.26401  Biso   1.000  I
  I11605   1.0000 0.76399  0.76399  0.23601  Biso   1.000  I
  I11606   1.0000 0.73599  0.76399  0.26401  Biso   1.000  I
  I11607   1.0000 0.73599  0.23601  0.73599  Biso   1.000  I
  I11608   1.0000 0.76399  0.23601  0.76399  Biso   1.000  I
  I11609   1.0000 0.76399  0.26401  0.73599  Biso   1.000  I
  I11610   1.0000 0.73599  0.73599  0.23601  Biso   1.000  I
  I11611   1.0000 0.73599  0.26401  0.76399  Biso   1.000  I
  I11612   1.0000 0.76399  0.23601  0.76399  Biso   1.000  I
  I11613   1.0000 0.76399  0.26401  0.73599  Biso   1.000  I
  I11614   1.0000 0.23601  0.76399  0.76399  Biso   1.000  I
  I11615   1.0000 0.23601  0.73599  0.73599  Biso   1.000  I
  I11616   1.0000 0.26401  0.73599  0.76399  Biso   1.000  I
  I11617   1.0000 0.73599  0.23601  0.73599  Biso   1.000  I
  I11618   1.0000 0.73599  0.26401  0.76399  Biso   1.000  I
  I11619   1.0000 0.76399  0.23601  0.76399  Biso   1.000  I
  I11620   1.0000 0.23601  0.76399  0.76399  Biso   1.000  I
  I11621   1.0000 0.26401  0.76399  0.73599  Biso   1.000  I
  I11622   1.0000 0.26401  0.73599  0.76399  Biso   1.000  I
  I11623   1.0000 0.76399  0.73599  0.26401  Biso   1.000  I
  I11624   1.0000 0.76399  0.76399  0.23601  Biso   1.000  I
  I11625   1.0000 0.73599  0.76399  0.26401  Biso   1.000  I
  I11626   1.0000 0.73599  0.23601  0.73599  Biso   1.000  I
  I11627   1.0000 0.76399  0.26401  0.73599  Biso   1.000  I
  I11628   1.0000 0.23601  0.76399  0.76399  Biso   1.000  I
  I11629   1.0000 0.23601  0.73599  0.73599  Biso   1.000  I
  I11630   1.0000 0.26401  0.73599  0.76399  Biso   1.000  I
  I11631   1.0000 0.26401  0.76399  0.73599  Biso   1.000  I
  I11632   1.0000 0.26401  0.26401  0.23601  Biso   1.000  I
  I11633   1.0000 0.73599  0.23601  0.73599  Biso   1.000  I
  I11634   1.0000 0.73599  0.26401  0.76399  Biso   1.000  I
  I11635   1.0000 0.76399  0.23601  0.76399  Biso   1.000  I
  I11636   1.0000 0.73599  0.26401  0.76399  Biso   1.000  I
  I11637   1.0000 0.76399  0.23601  0.76399  Biso   1.000  I
  I11638   1.0000 0.76399  0.26401  0.73599  Biso   1.000  I
  I11639   1.0000 0.73599  0.73599  0.23601  Biso   1.000  I
  I11640   1.0000 0.26401  0.26401  0.23601  Biso   1.000  I
  I11641   1.0000 0.26401  0.23601  0.26401  Biso   1.000  I
  I11642   1.0000 0.23601  0.26401  0.26401  Biso   1.000  I
  I11643   1.0000 0.73599  0.23601  0.73599  Biso   1.000  I
  I11644   1.0000 0.73599  0.26401  0.76399  Biso   1.000  I
  I11645   1.0000 0.76399  0.23601  0.76399  Biso   1.000  I
  I11646   1.0000 0.23601  0.76399  0.76399  Biso   1.000  I
  I11647   1.0000 0.26401  0.76399  0.73599  Biso   1.000  I
  I11648   1.0000 0.26401  0.73599  0.76399  Biso   1.000  I
  I11649   1.0000 0.73599  0.26401  0.76399  Biso   1.000  I
  I11650   1.0000 0.76399  0.23601  0.76399  Biso   1.000  I
  I11651   1.0000 0.76399  0.26401  0.73599  Biso   1.000  I
  I11652   1.0000 0.23601  0.73599  0.73599  Biso   1.000  I
  I11653   1.0000 0.26401  0.23601  0.26401  Biso   1.000  I
  I11654   1.0000 0.23601  0.26401  0.26401  Biso   1.000  I
  I11655   1.0000 0.23601  0.23601  0.23601  Biso   1.000  I
  I11656   1.0000 0.73599  0.23601  0.73599  Biso   1.000  I
  I11657   1.0000 0.73599  0.26401  0.76399  Biso   1.000  I
  I11658   1.0000 0.76399  0.23601  0.76399  Biso   1.000  I
  I11659   1.0000 0.26401  0.76399  0.73599  Biso   1.000  I
  I11660   1.0000 0.76399  0.26401  0.73599  Biso   1.000  I
  I11661   1.0000 0.23601  0.76399  0.76399  Biso   1.000  I
  I11662   1.0000 0.23601  0.73599  0.73599  Biso   1.000  I
  I11663   1.0000 0.26401  0.73599  0.76399  Biso   1.000  I
  I11664   1.0000 0.51400  0.98598  0.48600  Biso   1.000  I
  I11665   1.0000 0.37501  0.12502  0.37501  Biso   1.000  I
  I11666   1.0000 0.62499  0.12502  0.62499  Biso   1.000  I
  I11667   1.0000 0.37501  0.87498  0.62499  Biso   1.000  I
  I11668   1.0000 0.12502  0.62499  0.62499  Biso   1.000  I
  I11669   1.0000 0.87498  0.62499  0.37501  Biso   1.000  I
  I11670   1.0000 0.37501  0.62499  0.87498  Biso   1.000  I
  I11671   1.0000 0.62499  0.62499  0.12502  Biso   1.000  I
  I11672   1.0000 0.12502  0.62499  0.62499  Biso   1.000  I
  I11673   1.0000 0.87498  0.62499  0.37501  Biso   1.000  I
  I11674   1.0000 0.62499  0.62499  0.12502  Biso   1.000  I
  I11675   1.0000 0.37501  0.62499  0.87498  Biso   1.000  I
  I11676   1.0000 0.51400  0.48600  0.98598  Biso   1.000  I
  I11677   1.0000 0.37501  0.37501  0.12502  Biso   1.000  I
  I11678   1.0000 0.62499  0.62499  0.12502  Biso   1.000  I
  I11679   1.0000 0.37501  0.62499  0.87498  Biso   1.000  I
  I11680   1.0000 0.87498  0.37501  0.62499  Biso   1.000  I
  I11681   1.0000 0.01402  0.48600  0.48600  Biso   1.000  I
  I11682   1.0000 0.12502  0.62499  0.62499  Biso   1.000  I
  I11683   1.0000 0.87498  0.62499  0.37501  Biso   1.000  I
  I11684   1.0000 0.37501  0.12502  0.37501  Biso   1.000  I
  I11685   1.0000 0.37501  0.62499  0.87498  Biso   1.000  I
  I11686   1.0000 0.62499  0.62499  0.12502  Biso   1.000  I
  I11687   1.0000 0.12502  0.62499  0.62499  Biso   1.000  I
  I11688   1.0000 0.87498  0.62499  0.37501  Biso   1.000  I
  I11689   1.0000 0.98598  0.48600  0.51400  Biso   1.000  I
  I11690   1.0000 0.12502  0.62499  0.62499  Biso   1.000  I
  I11691   1.0000 0.12502  0.37501  0.37501  Biso   1.000  I
  I11692   1.0000 0.87498  0.62499  0.37501  Biso   1.000  I
  I11693   1.0000 0.48600  0.98598  0.51400  Biso   1.000  I
  I11694   1.0000 0.37501  0.12502  0.37501  Biso   1.000  I
  I11695   1.0000 0.62499  0.12502  0.62499  Biso   1.000  I
  I11696   1.0000 0.62499  0.87498  0.37501  Biso   1.000  I
  I11697   1.0000 0.37501  0.62499  0.87498  Biso   1.000  I
  I11698   1.0000 0.48600  0.48600  0.01402  Biso   1.000  I
  I11699   1.0000 0.62499  0.62499  0.12502  Biso   1.000  I
  I11700   1.0000 0.62499  0.37501  0.87498  Biso   1.000  I
  I11701   1.0000 0.80971  0.19029  0.80971  Biso   1.000  I
  I11702   1.0000 0.80971  0.30969  0.69031  Biso   1.000  I
  I11703   1.0000 0.80971  0.80971  0.19029  Biso   1.000  I
  I11704   1.0000 0.69031  0.69031  0.19029  Biso   1.000  I
  I11705   1.0000 0.80971  0.69031  0.30969  Biso   1.000  I
  I11706   1.0000 0.80971  0.80971  0.19029  Biso   1.000  I
  I11707   1.0000 0.80971  0.69031  0.30969  Biso   1.000  I
  I11708   1.0000 0.80971  0.19029  0.80971  Biso   1.000  I
  I11709   1.0000 0.80971  0.30969  0.69031  Biso   1.000  I
  I11710   1.0000 0.69031  0.19029  0.69031  Biso   1.000  I
  I11711   1.0000 0.30969  0.19029  0.30969  Biso   1.000  I
  I11712   1.0000 0.19029  0.19029  0.19029  Biso   1.000  I
  I11713   1.0000 0.30969  0.30969  0.19029  Biso   1.000  I
  I11714   1.0000 0.80971  0.19029  0.80971  Biso   1.000  I
  I11715   1.0000 0.80971  0.30969  0.69031  Biso   1.000  I
  I11716   1.0000 0.80971  0.80971  0.19029  Biso   1.000  I
  I11717   1.0000 0.80971  0.69031  0.30969  Biso   1.000  I
  I11718   1.0000 0.19029  0.19029  0.19029  Biso   1.000  I
  I11719   1.0000 0.30969  0.19029  0.30969  Biso   1.000  I
  I11720   1.0000 0.80971  0.80971  0.19029  Biso   1.000  I
  I11721   1.0000 0.80971  0.69031  0.30969  Biso   1.000  I
  I11722   1.0000 0.80971  0.19029  0.80971  Biso   1.000  I
  I11723   1.0000 0.80971  0.30969  0.69031  Biso   1.000  I
  I11724   1.0000 0.69031  0.19029  0.69031  Biso   1.000  I
  I11725   1.0000 0.80971  0.19029  0.80971  Biso   1.000  I
  I11726   1.0000 0.80971  0.30969  0.69031  Biso   1.000  I
  I11727   1.0000 0.69031  0.30969  0.80971  Biso   1.000  I
  I11728   1.0000 0.30969  0.69031  0.80971  Biso   1.000  I
  I11729   1.0000 0.19029  0.80971  0.80971  Biso   1.000  I
  I11730   1.0000 0.69031  0.30969  0.80971  Biso   1.000  I
  I11731   1.0000 0.80971  0.19029  0.80971  Biso   1.000  I
  I11732   1.0000 0.30969  0.80971  0.69031  Biso   1.000  I
  I11733   1.0000 0.30969  0.69031  0.80971  Biso   1.000  I
  I11734   1.0000 0.19029  0.80971  0.80971  Biso   1.000  I
  I11735   1.0000 0.80971  0.80971  0.19029  Biso   1.000  I
  I11736   1.0000 0.69031  0.80971  0.30969  Biso   1.000  I
  I11737   1.0000 0.80971  0.69031  0.30969  Biso   1.000  I
  I11738   1.0000 0.30969  0.69031  0.80971  Biso   1.000  I
  I11739   1.0000 0.19029  0.80971  0.80971  Biso   1.000  I
  I11740   1.0000 0.69031  0.30969  0.80971  Biso   1.000  I
  I11741   1.0000 0.80971  0.19029  0.80971  Biso   1.000  I
  I11742   1.0000 0.69031  0.19029  0.69031  Biso   1.000  I
  I11743   1.0000 0.80971  0.19029  0.80971  Biso   1.000  I
  I11744   1.0000 0.80971  0.30969  0.69031  Biso   1.000  I
  I11745   1.0000 0.69031  0.30969  0.80971  Biso   1.000  I
  I11746   1.0000 0.30969  0.19029  0.30969  Biso   1.000  I
  I11747   1.0000 0.19029  0.30969  0.30969  Biso   1.000  I
  I11748   1.0000 0.30969  0.30969  0.19029  Biso   1.000  I
  I11749   1.0000 0.69031  0.30969  0.80971  Biso   1.000  I
  I11750   1.0000 0.80971  0.19029  0.80971  Biso   1.000  I
  I11751   1.0000 0.30969  0.69031  0.80971  Biso   1.000  I
  I11752   1.0000 0.19029  0.80971  0.80971  Biso   1.000  I
  I11753   1.0000 0.80971  0.19029  0.80971  Biso   1.000  I
  I11754   1.0000 0.80971  0.30969  0.69031  Biso   1.000  I
  I11755   1.0000 0.69031  0.30969  0.80971  Biso   1.000  I
  I11756   1.0000 0.19029  0.30969  0.30969  Biso   1.000  I
  I11757   1.0000 0.19029  0.19029  0.19029  Biso   1.000  I
  I11758   1.0000 0.30969  0.19029  0.30969  Biso   1.000  I
  I11759   1.0000 0.69031  0.30969  0.80971  Biso   1.000  I
  I11760   1.0000 0.80971  0.19029  0.80971  Biso   1.000  I
  I11761   1.0000 0.69031  0.19029  0.69031  Biso   1.000  I
  I11762   1.0000 0.19029  0.69031  0.69031  Biso   1.000  I
  I11763   1.0000 0.30969  0.69031  0.80971  Biso   1.000  I
  I11764   1.0000 0.19029  0.80971  0.80971  Biso   1.000  I
  I11765   1.0000 0.30969  0.19029  0.30969  Biso   1.000  I
  I11766   1.0000 0.69031  0.19029  0.69031  Biso   1.000  I
  I11767   1.0000 0.30969  0.80971  0.69031  Biso   1.000  I
  I11768   1.0000 0.19029  0.69031  0.69031  Biso   1.000  I
  I11769   1.0000 0.80971  0.69031  0.30969  Biso   1.000  I
  I11770   1.0000 0.30969  0.69031  0.80971  Biso   1.000  I
  I11771   1.0000 0.69031  0.69031  0.19029  Biso   1.000  I
  I11772   1.0000 0.19029  0.69031  0.69031  Biso   1.000  I
  I11773   1.0000 0.80971  0.69031  0.30969  Biso   1.000  I
  I11774   1.0000 0.69031  0.69031  0.19029  Biso   1.000  I
  I11775   1.0000 0.30969  0.69031  0.80971  Biso   1.000  I
  I11776   1.0000 0.30969  0.30969  0.19029  Biso   1.000  I
  I11777   1.0000 0.69031  0.69031  0.19029  Biso   1.000  I
  I11778   1.0000 0.30969  0.69031  0.80971  Biso   1.000  I
  I11779   1.0000 0.80971  0.30969  0.69031  Biso   1.000  I
  I11780   1.0000 0.19029  0.69031  0.69031  Biso   1.000  I
  I11781   1.0000 0.80971  0.69031  0.30969  Biso   1.000  I
  I11782   1.0000 0.30969  0.19029  0.30969  Biso   1.000  I
  I11783   1.0000 0.30969  0.69031  0.80971  Biso   1.000  I
  I11784   1.0000 0.69031  0.69031  0.19029  Biso   1.000  I
  I11785   1.0000 0.19029  0.69031  0.69031  Biso   1.000  I
  I11786   1.0000 0.80971  0.69031  0.30969  Biso   1.000  I
  I11787   1.0000 0.19029  0.69031  0.69031  Biso   1.000  I
  I11788   1.0000 0.19029  0.30969  0.30969  Biso   1.000  I
  I11789   1.0000 0.80971  0.69031  0.30969  Biso   1.000  I
  I11790   1.0000 0.30969  0.19029  0.30969  Biso   1.000  I
  I11791   1.0000 0.69031  0.19029  0.69031  Biso   1.000  I
  I11792   1.0000 0.69031  0.80971  0.30969  Biso   1.000  I
  I11793   1.0000 0.30969  0.69031  0.80971  Biso   1.000  I
  I11794   1.0000 0.69031  0.69031  0.19029  Biso   1.000  I
  I11795   1.0000 0.69031  0.30969  0.80971  Biso   1.000  I
  I11796   1.0000 0.87498  0.12502  0.87498  Biso   1.000  I
  I11797   1.0000 0.87498  0.37501  0.62499  Biso   1.000  I
  I11798   1.0000 0.87498  0.87498  0.12502  Biso   1.000  I
  I11799   1.0000 0.73599  0.76399  0.26401  Biso   1.000  I
  I11800   1.0000 0.62499  0.62499  0.12502  Biso   1.000  I
  I11801   1.0000 0.87498  0.62499  0.37501  Biso   1.000  I
  I11802   1.0000 0.87498  0.87498  0.12502  Biso   1.000  I
  I11803   1.0000 0.87498  0.62499  0.37501  Biso   1.000  I
  I11804   1.0000 0.87498  0.12502  0.87498  Biso   1.000  I
  I11805   1.0000 0.73599  0.26401  0.76399  Biso   1.000  I
  I11806   1.0000 0.87498  0.37501  0.62499  Biso   1.000  I
  I11807   1.0000 0.62499  0.12502  0.62499  Biso   1.000  I
  I11808   1.0000 0.37501  0.12502  0.37501  Biso   1.000  I
  I11809   1.0000 0.23601  0.26401  0.26401  Biso   1.000  I
  I11810   1.0000 0.12502  0.12502  0.12502  Biso   1.000  I
  I11811   1.0000 0.37501  0.37501  0.12502  Biso   1.000  I
  I11812   1.0000 0.87498  0.12502  0.87498  Biso   1.000  I
  I11813   1.0000 0.87498  0.37501  0.62499  Biso   1.000  I
  I11814   1.0000 0.87498  0.87498  0.12502  Biso   1.000  I
  I11815   1.0000 0.87498  0.62499  0.37501  Biso   1.000  I
  I11816   1.0000 0.12502  0.12502  0.12502  Biso   1.000  I
  I11817   1.0000 0.37501  0.12502  0.37501  Biso   1.000  I
  I11818   1.0000 0.87498  0.87498  0.12502  Biso   1.000  I
  I11819   1.0000 0.87498  0.62499  0.37501  Biso   1.000  I
  I11820   1.0000 0.87498  0.12502  0.87498  Biso   1.000  I
  I11821   1.0000 0.73599  0.26401  0.76399  Biso   1.000  I
  I11822   1.0000 0.87498  0.37501  0.62499  Biso   1.000  I
  I11823   1.0000 0.62499  0.12502  0.62499  Biso   1.000  I
  I11824   1.0000 0.87498  0.12502  0.87498  Biso   1.000  I
  I11825   1.0000 0.73599  0.23601  0.73599  Biso   1.000  I
  I11826   1.0000 0.87498  0.37501  0.62499  Biso   1.000  I
  I11827   1.0000 0.62499  0.37501  0.87498  Biso   1.000  I
  I11828   1.0000 0.37501  0.62499  0.87498  Biso   1.000  I
  I11829   1.0000 0.12502  0.87498  0.87498  Biso   1.000  I
  I11830   1.0000 0.62499  0.37501  0.87498  Biso   1.000  I
  I11831   1.0000 0.87498  0.12502  0.87498  Biso   1.000  I
  I11832   1.0000 0.37501  0.87498  0.62499  Biso   1.000  I
  I11833   1.0000 0.23601  0.73599  0.73599  Biso   1.000  I
  I11834   1.0000 0.37501  0.62499  0.87498  Biso   1.000  I
  I11835   1.0000 0.12502  0.87498  0.87498  Biso   1.000  I
  I11836   1.0000 0.87498  0.87498  0.12502  Biso   1.000  I
  I11837   1.0000 0.73599  0.73599  0.23601  Biso   1.000  I
  I11838   1.0000 0.62499  0.87498  0.37501  Biso   1.000  I
  I11839   1.0000 0.87498  0.62499  0.37501  Biso   1.000  I
  I11840   1.0000 0.37501  0.62499  0.87498  Biso   1.000  I
  I11841   1.0000 0.12502  0.87498  0.87498  Biso   1.000  I
  I11842   1.0000 0.62499  0.37501  0.87498  Biso   1.000  I
  I11843   1.0000 0.76399  0.26401  0.73599  Biso   1.000  I
  I11844   1.0000 0.87498  0.12502  0.87498  Biso   1.000  I
  I11845   1.0000 0.62499  0.12502  0.62499  Biso   1.000  I
  I11846   1.0000 0.87498  0.12502  0.87498  Biso   1.000  I
  I11847   1.0000 0.73599  0.23601  0.73599  Biso   1.000  I
  I11848   1.0000 0.87498  0.37501  0.62499  Biso   1.000  I
  I11849   1.0000 0.62499  0.37501  0.87498  Biso   1.000  I
  I11850   1.0000 0.37501  0.12502  0.37501  Biso   1.000  I
  I11851   1.0000 0.23601  0.23601  0.23601  Biso   1.000  I
  I11852   1.0000 0.12502  0.37501  0.37501  Biso   1.000  I
  I11853   1.0000 0.37501  0.37501  0.12502  Biso   1.000  I
  I11854   1.0000 0.62499  0.37501  0.87498  Biso   1.000  I
  I11855   1.0000 0.87498  0.12502  0.87498  Biso   1.000  I
  I11856   1.0000 0.37501  0.62499  0.87498  Biso   1.000  I
  I11857   1.0000 0.12502  0.87498  0.87498  Biso   1.000  I
  I11858   1.0000 0.87498  0.12502  0.87498  Biso   1.000  I
  I11859   1.0000 0.73599  0.23601  0.73599  Biso   1.000  I
  I11860   1.0000 0.87498  0.37501  0.62499  Biso   1.000  I
  I11861   1.0000 0.62499  0.37501  0.87498  Biso   1.000  I
  I11862   1.0000 0.12502  0.37501  0.37501  Biso   1.000  I
  I11863   1.0000 0.26401  0.26401  0.23601  Biso   1.000  I
  I11864   1.0000 0.12502  0.12502  0.12502  Biso   1.000  I
  I11865   1.0000 0.37501  0.12502  0.37501  Biso   1.000  I
  I11866   1.0000 0.62499  0.37501  0.87498  Biso   1.000  I
  I11867   1.0000 0.76399  0.26401  0.73599  Biso   1.000  I
  I11868   1.0000 0.87498  0.12502  0.87498  Biso   1.000  I
  I11869   1.0000 0.62499  0.12502  0.62499  Biso   1.000  I
  I11870   1.0000 0.12502  0.62499  0.62499  Biso   1.000  I
  I11871   1.0000 0.26401  0.76399  0.73599  Biso   1.000  I
  I11872   1.0000 0.37501  0.62499  0.87498  Biso   1.000  I
  I11873   1.0000 0.12502  0.87498  0.87498  Biso   1.000  I
  I11874   1.0000 0.26401  0.26401  0.23601  Biso   1.000  I
  I11875   1.0000 0.23601  0.26401  0.26401  Biso   1.000  I
  I11876   1.0000 0.23601  0.23601  0.23601  Biso   1.000  I
  I11877   1.0000 0.73599  0.26401  0.76399  Biso   1.000  I
  I11878   1.0000 0.76399  0.23601  0.76399  Biso   1.000  I
  I11879   1.0000 0.76399  0.26401  0.73599  Biso   1.000  I
  I11880   1.0000 0.23601  0.76399  0.76399  Biso   1.000  I
  I11881   1.0000 0.23601  0.73599  0.73599  Biso   1.000  I
  I11882   1.0000 0.26401  0.73599  0.76399  Biso   1.000  I
  I11883   1.0000 0.23601  0.76399  0.76399  Biso   1.000  I
  I11884   1.0000 0.26401  0.76399  0.73599  Biso   1.000  I
  I11885   1.0000 0.26401  0.73599  0.76399  Biso   1.000  I
  I11886   1.0000 0.76399  0.76399  0.23601  Biso   1.000  I
  I11887   1.0000 0.73599  0.73599  0.23601  Biso   1.000  I
  I11888   1.0000 0.73599  0.76399  0.26401  Biso   1.000  I
  I11889   1.0000 0.23601  0.76399  0.76399  Biso   1.000  I
  I11890   1.0000 0.23601  0.73599  0.73599  Biso   1.000  I
  I11891   1.0000 0.26401  0.76399  0.73599  Biso   1.000  I
  I11892   1.0000 0.76399  0.73599  0.26401  Biso   1.000  I
  I11893   1.0000 0.76399  0.76399  0.23601  Biso   1.000  I
  I11894   1.0000 0.73599  0.76399  0.26401  Biso   1.000  I
  I11895   1.0000 0.23601  0.76399  0.76399  Biso   1.000  I
  I11896   1.0000 0.26401  0.76399  0.73599  Biso   1.000  I
  I11897   1.0000 0.26401  0.73599  0.76399  Biso   1.000  I
  I11898   1.0000 0.73599  0.73599  0.23601  Biso   1.000  I
  I11899   1.0000 0.76399  0.73599  0.26401  Biso   1.000  I
  I11900   1.0000 0.76399  0.76399  0.23601  Biso   1.000  I
  I11901   1.0000 0.73599  0.76399  0.26401  Biso   1.000  I
  I11902   1.0000 0.23601  0.73599  0.73599  Biso   1.000  I
  I11903   1.0000 0.26401  0.23601  0.26401  Biso   1.000  I
  I11904   1.0000 0.76399  0.73599  0.26401  Biso   1.000  I
  I11905   1.0000 0.76399  0.76399  0.23601  Biso   1.000  I
  I11906   1.0000 0.73599  0.76399  0.26401  Biso   1.000  I
  I11907   1.0000 0.23601  0.76399  0.76399  Biso   1.000  I
  I11908   1.0000 0.23601  0.73599  0.73599  Biso   1.000  I
  I11909   1.0000 0.26401  0.76399  0.73599  Biso   1.000  I
  I11910   1.0000 0.73599  0.23601  0.73599  Biso   1.000  I
  I11911   1.0000 0.23601  0.76399  0.76399  Biso   1.000  I
  I11912   1.0000 0.26401  0.76399  0.73599  Biso   1.000  I
  I11913   1.0000 0.26401  0.73599  0.76399  Biso   1.000  I
  I11914   1.0000 0.73599  0.73599  0.23601  Biso   1.000  I
  I11915   1.0000 0.26401  0.26401  0.23601  Biso   1.000  I
  I11916   1.0000 0.23601  0.26401  0.26401  Biso   1.000  I
  I11917   1.0000 0.23601  0.23601  0.23601  Biso   1.000  I
  I11918   1.0000 0.23601  0.76399  0.76399  Biso   1.000  I
  I11919   1.0000 0.23601  0.73599  0.73599  Biso   1.000  I
  I11920   1.0000 0.26401  0.76399  0.73599  Biso   1.000  I
  I11921   1.0000 0.76399  0.73599  0.26401  Biso   1.000  I
  I11922   1.0000 0.26401  0.73599  0.76399  Biso   1.000  I
  I11923   1.0000 0.76399  0.76399  0.23601  Biso   1.000  I
  I11924   1.0000 0.73599  0.73599  0.23601  Biso   1.000  I
  I11925   1.0000 0.73599  0.76399  0.26401  Biso   1.000  I
  I11926   1.0000 0.23601  0.76399  0.76399  Biso   1.000  I
  I11927   1.0000 0.26401  0.76399  0.73599  Biso   1.000  I
  I11928   1.0000 0.26401  0.73599  0.76399  Biso   1.000  I
  I11929   1.0000 0.26401  0.26401  0.23601  Biso   1.000  I
  I11930   1.0000 0.26401  0.23601  0.26401  Biso   1.000  I
  I11931   1.0000 0.23601  0.23601  0.23601  Biso   1.000  I
  I11932   1.0000 0.76399  0.76399  0.23601  Biso   1.000  I
  I11933   1.0000 0.73599  0.73599  0.23601  Biso   1.000  I
  I11934   1.0000 0.73599  0.76399  0.26401  Biso   1.000  I
  I11935   1.0000 0.23601  0.26401  0.26401  Biso   1.000  I
  I11936   1.0000 0.73599  0.26401  0.76399  Biso   1.000  I
  I11937   1.0000 0.76399  0.23601  0.76399  Biso   1.000  I
  I11938   1.0000 0.76399  0.26401  0.73599  Biso   1.000  I
  I11939   1.0000 0.76399  0.73599  0.26401  Biso   1.000  I
  I11940   1.0000 0.76399  0.76399  0.23601  Biso   1.000  I
  I11941   1.0000 0.73599  0.73599  0.23601  Biso   1.000  I
  I11942   1.0000 0.23601  0.73599  0.73599  Biso   1.000  I
  I11943   1.0000 0.76399  0.73599  0.26401  Biso   1.000  I
  I11944   1.0000 0.76399  0.76399  0.23601  Biso   1.000  I
  I11945   1.0000 0.73599  0.76399  0.26401  Biso   1.000  I
  I11946   1.0000 0.73599  0.23601  0.73599  Biso   1.000  I
  I11947   1.0000 0.94030  0.05970  0.94030  Biso   1.000  I
  I11948   1.0000 0.94030  0.44028  0.55972  Biso   1.000  I
  I11949   1.0000 0.94030  0.94030  0.05970  Biso   1.000  I
  I11950   1.0000 0.55972  0.55972  0.05970  Biso   1.000  I
  I11951   1.0000 0.94030  0.55972  0.44028  Biso   1.000  I
  I11952   1.0000 0.94030  0.94030  0.05970  Biso   1.000  I
  I11953   1.0000 0.94030  0.55972  0.44028  Biso   1.000  I
  I11954   1.0000 0.94030  0.05970  0.94030  Biso   1.000  I
  I11955   1.0000 0.94030  0.44028  0.55972  Biso   1.000  I
  I11956   1.0000 0.55972  0.05970  0.55972  Biso   1.000  I
  I11957   1.0000 0.44028  0.05970  0.44028  Biso   1.000  I
  I11958   1.0000 0.05970  0.05970  0.05970  Biso   1.000  I
  I11959   1.0000 0.44028  0.44028  0.05970  Biso   1.000  I
  I11960   1.0000 0.94030  0.05970  0.94030  Biso   1.000  I
  I11961   1.0000 0.94030  0.44028  0.55972  Biso   1.000  I
  I11962   1.0000 0.94030  0.94030  0.05970  Biso   1.000  I
  I11963   1.0000 0.94030  0.55972  0.44028  Biso   1.000  I
  I11964   1.0000 0.05970  0.05970  0.05970  Biso   1.000  I
  I11965   1.0000 0.44028  0.05970  0.44028  Biso   1.000  I
  I11966   1.0000 0.94030  0.94030  0.05970  Biso   1.000  I
  I11967   1.0000 0.94030  0.55972  0.44028  Biso   1.000  I
  I11968   1.0000 0.94030  0.05970  0.94030  Biso   1.000  I
  I11969   1.0000 0.94030  0.44028  0.55972  Biso   1.000  I
  I11970   1.0000 0.55972  0.05970  0.55972  Biso   1.000  I
  I11971   1.0000 0.94030  0.05970  0.94030  Biso   1.000  I
  I11972   1.0000 0.94030  0.44028  0.55972  Biso   1.000  I
  I11973   1.0000 0.55972  0.44028  0.94030  Biso   1.000  I
  I11974   1.0000 0.44028  0.55972  0.94030  Biso   1.000  I
  I11975   1.0000 0.05970  0.94030  0.94030  Biso   1.000  I
  I11976   1.0000 0.55972  0.44028  0.94030  Biso   1.000  I
  I11977   1.0000 0.94030  0.05970  0.94030  Biso   1.000  I
  I11978   1.0000 0.44028  0.94030  0.55972  Biso   1.000  I
  I11979   1.0000 0.44028  0.55972  0.94030  Biso   1.000  I
  I11980   1.0000 0.05970  0.94030  0.94030  Biso   1.000  I
  I11981   1.0000 0.94030  0.94030  0.05970  Biso   1.000  I
  I11982   1.0000 0.55972  0.94030  0.44028  Biso   1.000  I
  I11983   1.0000 0.94030  0.55972  0.44028  Biso   1.000  I
  I11984   1.0000 0.44028  0.55972  0.94030  Biso   1.000  I
  I11985   1.0000 0.05970  0.94030  0.94030  Biso   1.000  I
  I11986   1.0000 0.55972  0.44028  0.94030  Biso   1.000  I
  I11987   1.0000 0.94030  0.05970  0.94030  Biso   1.000  I
  I11988   1.0000 0.55972  0.05970  0.55972  Biso   1.000  I
  I11989   1.0000 0.94030  0.05970  0.94030  Biso   1.000  I
  I11990   1.0000 0.94030  0.44028  0.55972  Biso   1.000  I
  I11991   1.0000 0.55972  0.44028  0.94030  Biso   1.000  I
  I11992   1.0000 0.44028  0.05970  0.44028  Biso   1.000  I
  I11993   1.0000 0.05970  0.44028  0.44028  Biso   1.000  I
  I11994   1.0000 0.44028  0.44028  0.05970  Biso   1.000  I
  I11995   1.0000 0.55972  0.44028  0.94030  Biso   1.000  I
  I11996   1.0000 0.94030  0.05970  0.94030  Biso   1.000  I
  I11997   1.0000 0.44028  0.55972  0.94030  Biso   1.000  I
  I11998   1.0000 0.05970  0.94030  0.94030  Biso   1.000  I
  I11999   1.0000 0.94030  0.05970  0.94030  Biso   1.000  I
  I12000   1.0000 0.94030  0.44028  0.55972  Biso   1.000  I
  I12001   1.0000 0.55972  0.44028  0.94030  Biso   1.000  I
  I12002   1.0000 0.05970  0.44028  0.44028  Biso   1.000  I
  I12003   1.0000 0.05970  0.05970  0.05970  Biso   1.000  I
  I12004   1.0000 0.44028  0.05970  0.44028  Biso   1.000  I
  I12005   1.0000 0.55972  0.44028  0.94030  Biso   1.000  I
  I12006   1.0000 0.94030  0.05970  0.94030  Biso   1.000  I
  I12007   1.0000 0.55972  0.05970  0.55972  Biso   1.000  I
  I12008   1.0000 0.05970  0.55972  0.55972  Biso   1.000  I
  I12009   1.0000 0.44028  0.55972  0.94030  Biso   1.000  I
  I12010   1.0000 0.05970  0.94030  0.94030  Biso   1.000  I
  I12011   1.0000 0.19029  0.30969  0.30969  Biso   1.000  I
  I12012   1.0000 0.19029  0.19029  0.19029  Biso   1.000  I
  I12013   1.0000 0.80971  0.19029  0.80971  Biso   1.000  I
  I12014   1.0000 0.69031  0.30969  0.80971  Biso   1.000  I
  I12015   1.0000 0.19029  0.69031  0.69031  Biso   1.000  I
  I12016   1.0000 0.30969  0.69031  0.80971  Biso   1.000  I
  I12017   1.0000 0.19029  0.80971  0.80971  Biso   1.000  I
  I12018   1.0000 0.30969  0.80971  0.69031  Biso   1.000  I
  I12019   1.0000 0.19029  0.80971  0.80971  Biso   1.000  I
  I12020   1.0000 0.69031  0.80971  0.30969  Biso   1.000  I
  I12021   1.0000 0.80971  0.80971  0.19029  Biso   1.000  I
  I12022   1.0000 0.30969  0.80971  0.69031  Biso   1.000  I
  I12023   1.0000 0.19029  0.80971  0.80971  Biso   1.000  I
  I12024   1.0000 0.80971  0.80971  0.19029  Biso   1.000  I
  I12025   1.0000 0.69031  0.80971  0.30969  Biso   1.000  I
  I12026   1.0000 0.30969  0.80971  0.69031  Biso   1.000  I
  I12027   1.0000 0.30969  0.69031  0.80971  Biso   1.000  I
  I12028   1.0000 0.19029  0.80971  0.80971  Biso   1.000  I
  I12029   1.0000 0.80971  0.80971  0.19029  Biso   1.000  I
  I12030   1.0000 0.69031  0.80971  0.30969  Biso   1.000  I
  I12031   1.0000 0.80971  0.69031  0.30969  Biso   1.000  I
  I12032   1.0000 0.80971  0.80971  0.19029  Biso   1.000  I
  I12033   1.0000 0.69031  0.80971  0.30969  Biso   1.000  I
  I12034   1.0000 0.19029  0.69031  0.69031  Biso   1.000  I
  I12035   1.0000 0.30969  0.80971  0.69031  Biso   1.000  I
  I12036   1.0000 0.19029  0.80971  0.80971  Biso   1.000  I
  I12037   1.0000 0.30969  0.80971  0.69031  Biso   1.000  I
  I12038   1.0000 0.30969  0.69031  0.80971  Biso   1.000  I
  I12039   1.0000 0.19029  0.80971  0.80971  Biso   1.000  I
  I12040   1.0000 0.19029  0.30969  0.30969  Biso   1.000  I
  I12041   1.0000 0.19029  0.19029  0.19029  Biso   1.000  I
  I12042   1.0000 0.30969  0.30969  0.19029  Biso   1.000  I
  I12043   1.0000 0.19029  0.69031  0.69031  Biso   1.000  I
  I12044   1.0000 0.30969  0.80971  0.69031  Biso   1.000  I
  I12045   1.0000 0.19029  0.80971  0.80971  Biso   1.000  I
  I12046   1.0000 0.69031  0.69031  0.19029  Biso   1.000  I
  I12047   1.0000 0.69031  0.80971  0.30969  Biso   1.000  I
  I12048   1.0000 0.80971  0.80971  0.19029  Biso   1.000  I
  I12049   1.0000 0.30969  0.80971  0.69031  Biso   1.000  I
  I12050   1.0000 0.19029  0.80971  0.80971  Biso   1.000  I
  I12051   1.0000 0.19029  0.19029  0.19029  Biso   1.000  I
  I12052   1.0000 0.30969  0.30969  0.19029  Biso   1.000  I
  I12053   1.0000 0.69031  0.69031  0.19029  Biso   1.000  I
  I12054   1.0000 0.69031  0.80971  0.30969  Biso   1.000  I
  I12055   1.0000 0.80971  0.80971  0.19029  Biso   1.000  I
  I12056   1.0000 0.80971  0.19029  0.80971  Biso   1.000  I
  I12057   1.0000 0.80971  0.30969  0.69031  Biso   1.000  I
  I12058   1.0000 0.80971  0.80971  0.19029  Biso   1.000  I
  I12059   1.0000 0.69031  0.69031  0.19029  Biso   1.000  I
  I12060   1.0000 0.80971  0.69031  0.30969  Biso   1.000  I
  I12061   1.0000 0.80971  0.80971  0.19029  Biso   1.000  I
  I12062   1.0000 0.69031  0.80971  0.30969  Biso   1.000  I
  I12063   1.0000 0.80971  0.69031  0.30969  Biso   1.000  I
  I12064   1.0000 0.98598  0.98598  0.01402  Biso   1.000  I
  I12065   1.0000 0.98598  0.51400  0.48600  Biso   1.000  I
  I12066   1.0000 0.48600  0.48600  0.01402  Biso   1.000  I
  I12067   1.0000 0.98598  0.48600  0.51400  Biso   1.000  I
  I12068   1.0000 0.98598  0.01402  0.98598  Biso   1.000  I
  I12069   1.0000 0.98598  0.48600  0.51400  Biso   1.000  I
  I12070   1.0000 0.98598  0.51400  0.48600  Biso   1.000  I
  I12071   1.0000 0.48600  0.01402  0.48600  Biso   1.000  I
  I12072   1.0000 0.51400  0.01402  0.51400  Biso   1.000  I
  I12073   1.0000 0.51400  0.51400  0.01402  Biso   1.000  I
  I12074   1.0000 0.98598  0.98598  0.01402  Biso   1.000  I
  I12075   1.0000 0.98598  0.51400  0.48600  Biso   1.000  I
  I12076   1.0000 0.98598  0.01402  0.98598  Biso   1.000  I
  I12077   1.0000 0.98598  0.48600  0.51400  Biso   1.000  I
  I12078   1.0000 0.98598  0.01402  0.98598  Biso   1.000  I
  I12079   1.0000 0.51400  0.01402  0.51400  Biso   1.000  I
  I12080   1.0000 0.98598  0.01402  0.98598  Biso   1.000  I
  I12081   1.0000 0.98598  0.48600  0.51400  Biso   1.000  I
  I12082   1.0000 0.98598  0.51400  0.48600  Biso   1.000  I
  I12083   1.0000 0.48600  0.01402  0.48600  Biso   1.000  I
  I12084   1.0000 0.98598  0.51400  0.48600  Biso   1.000  I
  I12085   1.0000 0.48600  0.51400  0.98598  Biso   1.000  I
  I12086   1.0000 0.51400  0.48600  0.98598  Biso   1.000  I
  I12087   1.0000 0.98598  0.01402  0.98598  Biso   1.000  I
  I12088   1.0000 0.48600  0.51400  0.98598  Biso   1.000  I
  I12089   1.0000 0.01402  0.98598  0.98598  Biso   1.000  I
  I12090   1.0000 0.51400  0.98598  0.48600  Biso   1.000  I
  I12091   1.0000 0.48600  0.01402  0.48600  Biso   1.000  I
  I12092   1.0000 0.51400  0.01402  0.51400  Biso   1.000  I
  I12093   1.0000 0.51400  0.48600  0.98598  Biso   1.000  I
  I12094   1.0000 0.98598  0.01402  0.98598  Biso   1.000  I
  I12095   1.0000 0.98598  0.01402  0.98598  Biso   1.000  I
  I12096   1.0000 0.48600  0.98598  0.51400  Biso   1.000  I
  I12097   1.0000 0.98598  0.48600  0.51400  Biso   1.000  I
  I12098   1.0000 0.51400  0.48600  0.98598  Biso   1.000  I
  I12099   1.0000 0.98598  0.01402  0.98598  Biso   1.000  I
  I12100   1.0000 0.48600  0.51400  0.98598  Biso   1.000  I
  I12101   1.0000 0.48600  0.01402  0.48600  Biso   1.000  I
  I12102   1.0000 0.98598  0.98598  0.01402  Biso   1.000  I
  I12103   1.0000 0.98598  0.51400  0.48600  Biso   1.000  I
  I12104   1.0000 0.48600  0.51400  0.98598  Biso   1.000  I
  I12105   1.0000 0.48600  0.48600  0.01402  Biso   1.000  I
  I12106   1.0000 0.51400  0.51400  0.01402  Biso   1.000  I
  I12107   1.0000 0.98598  0.51400  0.48600  Biso   1.000  I
  I12108   1.0000 0.98598  0.48600  0.51400  Biso   1.000  I
  I12109   1.0000 0.01402  0.51400  0.51400  Biso   1.000  I
  I12110   1.0000 0.51400  0.48600  0.98598  Biso   1.000  I
  I12111   1.0000 0.48600  0.51400  0.98598  Biso   1.000  I
  I12112   1.0000 0.01402  0.98598  0.98598  Biso   1.000  I
  I12113   1.0000 0.51400  0.48600  0.98598  Biso   1.000  I
  I12114   1.0000 0.98598  0.01402  0.98598  Biso   1.000  I
  I12115   1.0000 0.01402  0.98598  0.98598  Biso   1.000  I
  I12116   1.0000 0.01402  0.48600  0.48600  Biso   1.000  I
  I12117   1.0000 0.48600  0.51400  0.98598  Biso   1.000  I
  I12118   1.0000 0.01402  0.51400  0.51400  Biso   1.000  I
  I12119   1.0000 0.51400  0.01402  0.51400  Biso   1.000  I
  I12120   1.0000 0.48600  0.51400  0.98598  Biso   1.000  I
  I12121   1.0000 0.48600  0.01402  0.48600  Biso   1.000  I
  I12122   1.0000 0.01402  0.48600  0.48600  Biso   1.000  I
  I12123   1.0000 0.51400  0.48600  0.98598  Biso   1.000  I
  I12124   1.0000 0.12502  0.37501  0.37501  Biso   1.000  I
  I12125   1.0000 0.12502  0.12502  0.12502  Biso   1.000  I
  I12126   1.0000 0.87498  0.12502  0.87498  Biso   1.000  I
  I12127   1.0000 0.62499  0.37501  0.87498  Biso   1.000  I
  I12128   1.0000 0.12502  0.62499  0.62499  Biso   1.000  I
  I12129   1.0000 0.26401  0.76399  0.73599  Biso   1.000  I
  I12130   1.0000 0.37501  0.62499  0.87498  Biso   1.000  I
  I12131   1.0000 0.12502  0.87498  0.87498  Biso   1.000  I
  I12132   1.0000 0.37501  0.87498  0.62499  Biso   1.000  I
  I12133   1.0000 0.12502  0.87498  0.87498  Biso   1.000  I
  I12134   1.0000 0.62499  0.87498  0.37501  Biso   1.000  I
  I12135   1.0000 0.87498  0.87498  0.12502  Biso   1.000  I
  I12136   1.0000 0.37501  0.87498  0.62499  Biso   1.000  I
  I12137   1.0000 0.12502  0.87498  0.87498  Biso   1.000  I
  I12138   1.0000 0.87498  0.87498  0.12502  Biso   1.000  I
  I12139   1.0000 0.62499  0.87498  0.37501  Biso   1.000  I
  I12140   1.0000 0.37501  0.87498  0.62499  Biso   1.000  I
  I12141   1.0000 0.23601  0.73599  0.73599  Biso   1.000  I
  I12142   1.0000 0.37501  0.62499  0.87498  Biso   1.000  I
  I12143   1.0000 0.12502  0.87498  0.87498  Biso   1.000  I
  I12144   1.0000 0.87498  0.87498  0.12502  Biso   1.000  I
  I12145   1.0000 0.73599  0.73599  0.23601  Biso   1.000  I
  I12146   1.0000 0.62499  0.87498  0.37501  Biso   1.000  I
  I12147   1.0000 0.87498  0.62499  0.37501  Biso   1.000  I
  I12148   1.0000 0.87498  0.87498  0.12502  Biso   1.000  I
  I12149   1.0000 0.62499  0.87498  0.37501  Biso   1.000  I
  I12150   1.0000 0.12502  0.62499  0.62499  Biso   1.000  I
  I12151   1.0000 0.26401  0.73599  0.76399  Biso   1.000  I
  I12152   1.0000 0.37501  0.87498  0.62499  Biso   1.000  I
  I12153   1.0000 0.12502  0.87498  0.87498  Biso   1.000  I
  I12154   1.0000 0.37501  0.87498  0.62499  Biso   1.000  I
  I12155   1.0000 0.23601  0.73599  0.73599  Biso   1.000  I
  I12156   1.0000 0.37501  0.62499  0.87498  Biso   1.000  I
  I12157   1.0000 0.12502  0.87498  0.87498  Biso   1.000  I
  I12158   1.0000 0.12502  0.37501  0.37501  Biso   1.000  I
  I12159   1.0000 0.26401  0.23601  0.26401  Biso   1.000  I
  I12160   1.0000 0.12502  0.12502  0.12502  Biso   1.000  I
  I12161   1.0000 0.37501  0.37501  0.12502  Biso   1.000  I
  I12162   1.0000 0.12502  0.62499  0.62499  Biso   1.000  I
  I12163   1.0000 0.26401  0.73599  0.76399  Biso   1.000  I
  I12164   1.0000 0.37501  0.87498  0.62499  Biso   1.000  I
  I12165   1.0000 0.12502  0.87498  0.87498  Biso   1.000  I
  I12166   1.0000 0.62499  0.62499  0.12502  Biso   1.000  I
  I12167   1.0000 0.76399  0.73599  0.26401  Biso   1.000  I
  I12168   1.0000 0.62499  0.87498  0.37501  Biso   1.000  I
  I12169   1.0000 0.87498  0.87498  0.12502  Biso   1.000  I
  I12170   1.0000 0.37501  0.87498  0.62499  Biso   1.000  I
  I12171   1.0000 0.12502  0.87498  0.87498  Biso   1.000  I
  I12172   1.0000 0.12502  0.12502  0.12502  Biso   1.000  I
  I12173   1.0000 0.37501  0.37501  0.12502  Biso   1.000  I
  I12174   1.0000 0.62499  0.62499  0.12502  Biso   1.000  I
  I12175   1.0000 0.76399  0.73599  0.26401  Biso   1.000  I
  I12176   1.0000 0.62499  0.87498  0.37501  Biso   1.000  I
  I12177   1.0000 0.87498  0.87498  0.12502  Biso   1.000  I
  I12178   1.0000 0.87498  0.12502  0.87498  Biso   1.000  I
  I12179   1.0000 0.87498  0.37501  0.62499  Biso   1.000  I
  I12180   1.0000 0.87498  0.87498  0.12502  Biso   1.000  I
  I12181   1.0000 0.73599  0.76399  0.26401  Biso   1.000  I
  I12182   1.0000 0.62499  0.62499  0.12502  Biso   1.000  I
  I12183   1.0000 0.87498  0.62499  0.37501  Biso   1.000  I
  I12184   1.0000 0.87498  0.87498  0.12502  Biso   1.000  I
  I12185   1.0000 0.73599  0.73599  0.23601  Biso   1.000  I
  I12186   1.0000 0.62499  0.87498  0.37501  Biso   1.000  I
  I12187   1.0000 0.87498  0.62499  0.37501  Biso   1.000  I
  I12188   1.0000 0.55972  0.05970  0.55972  Biso   1.000  I
  I12189   1.0000 0.55972  0.55972  0.05970  Biso   1.000  I
  I12190   1.0000 0.44028  0.55972  0.94030  Biso   1.000  I
  I12191   1.0000 0.05970  0.55972  0.55972  Biso   1.000  I
  I12192   1.0000 0.94030  0.55972  0.44028  Biso   1.000  I
  I12193   1.0000 0.05970  0.44028  0.44028  Biso   1.000  I
  I12194   1.0000 0.05970  0.05970  0.05970  Biso   1.000  I
  I12195   1.0000 0.94030  0.05970  0.94030  Biso   1.000  I
  I12196   1.0000 0.55972  0.44028  0.94030  Biso   1.000  I
  I12197   1.0000 0.05970  0.55972  0.55972  Biso   1.000  I
  I12198   1.0000 0.44028  0.55972  0.94030  Biso   1.000  I
  I12199   1.0000 0.05970  0.94030  0.94030  Biso   1.000  I
  I12200   1.0000 0.44028  0.94030  0.55972  Biso   1.000  I
  I12201   1.0000 0.05970  0.94030  0.94030  Biso   1.000  I
  I12202   1.0000 0.55972  0.94030  0.44028  Biso   1.000  I
  I12203   1.0000 0.94030  0.94030  0.05970  Biso   1.000  I
  I12204   1.0000 0.44028  0.94030  0.55972  Biso   1.000  I
  I12205   1.0000 0.05970  0.94030  0.94030  Biso   1.000  I
  I12206   1.0000 0.94030  0.94030  0.05970  Biso   1.000  I
  I12207   1.0000 0.55972  0.94030  0.44028  Biso   1.000  I
  I12208   1.0000 0.44028  0.94030  0.55972  Biso   1.000  I
  I12209   1.0000 0.05970  0.94030  0.94030  Biso   1.000  I
  I12210   1.0000 0.94030  0.94030  0.05970  Biso   1.000  I
  I12211   1.0000 0.55972  0.94030  0.44028  Biso   1.000  I
  I12212   1.0000 0.94030  0.94030  0.05970  Biso   1.000  I
  I12213   1.0000 0.55972  0.94030  0.44028  Biso   1.000  I
  I12214   1.0000 0.05970  0.55972  0.55972  Biso   1.000  I
  I12215   1.0000 0.44028  0.94030  0.55972  Biso   1.000  I
  I12216   1.0000 0.05970  0.94030  0.94030  Biso   1.000  I
  I12217   1.0000 0.44028  0.94030  0.55972  Biso   1.000  I
  I12218   1.0000 0.44028  0.55972  0.94030  Biso   1.000  I
  I12219   1.0000 0.05970  0.94030  0.94030  Biso   1.000  I
  I12220   1.0000 0.05970  0.44028  0.44028  Biso   1.000  I
  I12221   1.0000 0.05970  0.05970  0.05970  Biso   1.000  I
  I12222   1.0000 0.44028  0.44028  0.05970  Biso   1.000  I
  I12223   1.0000 0.05970  0.55972  0.55972  Biso   1.000  I
  I12224   1.0000 0.44028  0.94030  0.55972  Biso   1.000  I
  I12225   1.0000 0.05970  0.94030  0.94030  Biso   1.000  I
  I12226   1.0000 0.55972  0.55972  0.05970  Biso   1.000  I
  I12227   1.0000 0.55972  0.94030  0.44028  Biso   1.000  I
  I12228   1.0000 0.94030  0.94030  0.05970  Biso   1.000  I
  I12229   1.0000 0.44028  0.94030  0.55972  Biso   1.000  I
  I12230   1.0000 0.05970  0.94030  0.94030  Biso   1.000  I
  I12231   1.0000 0.05970  0.05970  0.05970  Biso   1.000  I
  I12232   1.0000 0.44028  0.44028  0.05970  Biso   1.000  I
  I12233   1.0000 0.55972  0.55972  0.05970  Biso   1.000  I
  I12234   1.0000 0.55972  0.94030  0.44028  Biso   1.000  I
  I12235   1.0000 0.94030  0.94030  0.05970  Biso   1.000  I
  I12236   1.0000 0.94030  0.05970  0.94030  Biso   1.000  I
  I12237   1.0000 0.94030  0.44028  0.55972  Biso   1.000  I
  I12238   1.0000 0.94030  0.94030  0.05970  Biso   1.000  I
  I12239   1.0000 0.55972  0.55972  0.05970  Biso   1.000  I
  I12240   1.0000 0.94030  0.55972  0.44028  Biso   1.000  I
  I12241   1.0000 0.94030  0.94030  0.05970  Biso   1.000  I
  I12242   1.0000 0.55972  0.94030  0.44028  Biso   1.000  I
  I12243   1.0000 0.94030  0.55972  0.44028  Biso   1.000  I
  I12244   1.0000 0.62499  0.12502  0.62499  Biso   1.000  I
  I12245   1.0000 0.62499  0.62499  0.12502  Biso   1.000  I
  I12246   1.0000 0.12502  0.62499  0.62499  Biso   1.000  I
  I12247   1.0000 0.01402  0.51400  0.51400  Biso   1.000  I
  I12248   1.0000 0.01402  0.98598  0.98598  Biso   1.000  I
  I12249   1.0000 0.01402  0.98598  0.98598  Biso   1.000  I
  I12250   1.0000 0.48600  0.51400  0.98598  Biso   1.000  I
  I12251   1.0000 0.01402  0.48600  0.48600  Biso   1.000  I
  I12252   1.0000 0.51400  0.48600  0.98598  Biso   1.000  I
  I12253   1.0000 0.51400  0.98598  0.48600  Biso   1.000  I
  I12254   1.0000 0.98598  0.98598  0.01402  Biso   1.000  I
  I12255   1.0000 0.48600  0.98598  0.51400  Biso   1.000  I
  I12256   1.0000 0.01402  0.98598  0.98598  Biso   1.000  I
  I12257   1.0000 0.51400  0.98598  0.48600  Biso   1.000  I
  I12258   1.0000 0.98598  0.98598  0.01402  Biso   1.000  I
  I12259   1.0000 0.01402  0.98598  0.98598  Biso   1.000  I
  I12260   1.0000 0.48600  0.98598  0.51400  Biso   1.000  I
  I12261   1.0000 0.51400  0.98598  0.48600  Biso   1.000  I
  I12262   1.0000 0.98598  0.98598  0.01402  Biso   1.000  I
  I12263   1.0000 0.01402  0.98598  0.98598  Biso   1.000  I
  I12264   1.0000 0.48600  0.98598  0.51400  Biso   1.000  I
  I12265   1.0000 0.01402  0.98598  0.98598  Biso   1.000  I
  I12266   1.0000 0.48600  0.98598  0.51400  Biso   1.000  I
  I12267   1.0000 0.01402  0.48600  0.48600  Biso   1.000  I
  I12268   1.0000 0.51400  0.98598  0.48600  Biso   1.000  I
  I12269   1.0000 0.51400  0.98598  0.48600  Biso   1.000  I
  I12270   1.0000 0.51400  0.48600  0.98598  Biso   1.000  I
  I12271   1.0000 0.01402  0.51400  0.51400  Biso   1.000  I
  I12272   1.0000 0.51400  0.51400  0.01402  Biso   1.000  I
  I12273   1.0000 0.01402  0.48600  0.48600  Biso   1.000  I
  I12274   1.0000 0.51400  0.98598  0.48600  Biso   1.000  I
  I12275   1.0000 0.48600  0.48600  0.01402  Biso   1.000  I
  I12276   1.0000 0.48600  0.98598  0.51400  Biso   1.000  I
  I12277   1.0000 0.51400  0.98598  0.48600  Biso   1.000  I
  I12278   1.0000 0.98598  0.98598  0.01402  Biso   1.000  I
  I12279   1.0000 0.98598  0.98598  0.01402  Biso   1.000  I
  I12280   1.0000 0.51400  0.51400  0.01402  Biso   1.000  I
  I12281   1.0000 0.48600  0.48600  0.01402  Biso   1.000  I
  I12282   1.0000 0.48600  0.98598  0.51400  Biso   1.000  I
  I12283   1.0000 0.98598  0.98598  0.01402  Biso   1.000  I
  I12284   1.0000 0.98598  0.51400  0.48600  Biso   1.000  I
  I12285   1.0000 0.48600  0.48600  0.01402  Biso   1.000  I
  I12286   1.0000 0.98598  0.48600  0.51400  Biso   1.000  I
  I12287   1.0000 0.48600  0.98598  0.51400  Biso   1.000  I
  I12288   1.0000 0.98598  0.48600  0.51400  Biso   1.000  I
  I12289   1.0000 0.69031  0.19029  0.69031  Biso   1.000  I
  I12290   1.0000 0.69031  0.69031  0.19029  Biso   1.000  I
  I12291   1.0000 0.19029  0.69031  0.69031  Biso   1.000  I
  I12292   1.0000 0.73599  0.26401  0.76399  Biso   1.000  I
  I12293   1.0000 0.76399  0.23601  0.76399  Biso   1.000  I
  I12294   1.0000 0.76399  0.26401  0.73599  Biso   1.000  I
  I12295   1.0000 0.76399  0.73599  0.26401  Biso   1.000  I
  I12296   1.0000 0.76399  0.76399  0.23601  Biso   1.000  I
  I12297   1.0000 0.73599  0.76399  0.26401  Biso   1.000  I
  I12298   1.0000 0.23601  0.76399  0.76399  Biso   1.000  I
  I12299   1.0000 0.26401  0.76399  0.73599  Biso   1.000  I
  I12300   1.0000 0.26401  0.73599  0.76399  Biso   1.000  I
  I12301   1.0000 0.80971  0.19029  0.80971  Biso   1.000  I
  I12302   1.0000 0.80971  0.30969  0.69031  Biso   1.000  I
  I12303   1.0000 0.69031  0.30969  0.80971  Biso   1.000  I
  I12304   1.0000 0.80971  0.80971  0.19029  Biso   1.000  I
  I12305   1.0000 0.69031  0.80971  0.30969  Biso   1.000  I
  I12306   1.0000 0.80971  0.69031  0.30969  Biso   1.000  I
  I12307   1.0000 0.30969  0.80971  0.69031  Biso   1.000  I
  I12308   1.0000 0.30969  0.69031  0.80971  Biso   1.000  I
  I12309   1.0000 0.19029  0.80971  0.80971  Biso   1.000  I
  I12310   1.0000 0.87498  0.12502  0.87498  Biso   1.000  I
  I12311   1.0000 0.73599  0.23601  0.73599  Biso   1.000  I
  I12312   1.0000 0.87498  0.37501  0.62499  Biso   1.000  I
  I12313   1.0000 0.62499  0.37501  0.87498  Biso   1.000  I
  I12314   1.0000 0.87498  0.87498  0.12502  Biso   1.000  I
  I12315   1.0000 0.73599  0.73599  0.23601  Biso   1.000  I
  I12316   1.0000 0.62499  0.87498  0.37501  Biso   1.000  I
  I12317   1.0000 0.87498  0.62499  0.37501  Biso   1.000  I
  I12318   1.0000 0.37501  0.87498  0.62499  Biso   1.000  I
  I12319   1.0000 0.23601  0.73599  0.73599  Biso   1.000  I
  I12320   1.0000 0.37501  0.62499  0.87498  Biso   1.000  I
  I12321   1.0000 0.12502  0.87498  0.87498  Biso   1.000  I
  I12322   1.0000 0.94030  0.05970  0.94030  Biso   1.000  I
  I12323   1.0000 0.94030  0.44028  0.55972  Biso   1.000  I
  I12324   1.0000 0.55972  0.44028  0.94030  Biso   1.000  I
  I12325   1.0000 0.94030  0.94030  0.05970  Biso   1.000  I
  I12326   1.0000 0.55972  0.94030  0.44028  Biso   1.000  I
  I12327   1.0000 0.94030  0.55972  0.44028  Biso   1.000  I
  I12328   1.0000 0.44028  0.94030  0.55972  Biso   1.000  I
  I12329   1.0000 0.44028  0.55972  0.94030  Biso   1.000  I
  I12330   1.0000 0.05970  0.94030  0.94030  Biso   1.000  I
  I12331   1.0000 0.98598  0.51400  0.48600  Biso   1.000  I
  I12332   1.0000 0.48600  0.51400  0.98598  Biso   1.000  I
  I12333   1.0000 0.48600  0.98598  0.51400  Biso   1.000  I
  I12334   1.0000 0.98598  0.48600  0.51400  Biso   1.000  I
  I12335   1.0000 0.51400  0.98598  0.48600  Biso   1.000  I
  I12336   1.0000 0.51400  0.48600  0.98598  Biso   1.000  I
  I12337   1.0000 0.30969  0.19029  0.30969  Biso   1.000  I
  I12338   1.0000 0.37501  0.12502  0.37501  Biso   1.000  I
  I12339   1.0000 0.26401  0.26401  0.23601  Biso   1.000  I
  I12340   1.0000 0.23601  0.26401  0.26401  Biso   1.000  I
  I12341   1.0000 0.23601  0.23601  0.23601  Biso   1.000  I
  I12342   1.0000 0.44028  0.05970  0.44028  Biso   1.000  I
  I12343   1.0000 0.19029  0.30969  0.30969  Biso   1.000  I
  I12344   1.0000 0.19029  0.19029  0.19029  Biso   1.000  I
  I12345   1.0000 0.30969  0.30969  0.19029  Biso   1.000  I
  I12346   1.0000 0.48600  0.98598  0.51400  Biso   1.000  I
  I12347   1.0000 0.51400  0.98598  0.48600  Biso   1.000  I
  I12348   1.0000 0.51400  0.01402  0.51400  Biso   1.000  I
  I12349   1.0000 0.12502  0.37501  0.37501  Biso   1.000  I
  I12350   1.0000 0.26401  0.23601  0.26401  Biso   1.000  I
  I12351   1.0000 0.12502  0.12502  0.12502  Biso   1.000  I
  I12352   1.0000 0.37501  0.37501  0.12502  Biso   1.000  I
  I12353   1.0000 0.55972  0.94030  0.44028  Biso   1.000  I
  I12354   1.0000 0.55972  0.05970  0.55972  Biso   1.000  I
  I12355   1.0000 0.44028  0.94030  0.55972  Biso   1.000  I
  I12356   1.0000 0.05970  0.44028  0.44028  Biso   1.000  I
  I12357   1.0000 0.05970  0.05970  0.05970  Biso   1.000  I
  I12358   1.0000 0.44028  0.44028  0.05970  Biso   1.000  I
  I12359   1.0000 0.62499  0.87498  0.37501  Biso   1.000  I
  I12360   1.0000 0.48600  0.01402  0.48600  Biso   1.000  I
  I12361   1.0000 0.62499  0.12502  0.62499  Biso   1.000  I
  I12362   1.0000 0.37501  0.87498  0.62499  Biso   1.000  I
  I12363   1.0000 0.98598  0.51400  0.48600  Biso   1.000  I
  I12364   1.0000 0.98598  0.48600  0.51400  Biso   1.000  I
  I12365   1.0000 0.01402  0.51400  0.51400  Biso   1.000  I
  I12366   1.0000 0.98598  0.98598  0.01402  Biso   1.000  I
  I12367   1.0000 0.98598  0.01402  0.98598  Biso   1.000  I
  I12368   1.0000 0.01402  0.98598  0.98598  Biso   1.000  I
  I12369   1.0000 0.51400  0.48600  0.98598  Biso   1.000  I
  I12370   1.0000 0.48600  0.51400  0.98598  Biso   1.000  I
  I12371   1.0000 0.51400  0.51400  0.01402  Biso   1.000  I
  I12372   1.0000 0.69031  0.80971  0.30969  Biso   1.000  I
  I12373   1.0000 0.69031  0.19029  0.69031  Biso   1.000  I
  I12374   1.0000 0.30969  0.80971  0.69031  Biso   1.000  I
  I12375   1.0000 0.94030  0.44028  0.55972  Biso   1.000  I
  I12376   1.0000 0.05970  0.55972  0.55972  Biso   1.000  I
  I12377   1.0000 0.94030  0.55972  0.44028  Biso   1.000  I
  I12378   1.0000 0.94030  0.05970  0.94030  Biso   1.000  I
  I12379   1.0000 0.05970  0.94030  0.94030  Biso   1.000  I
  I12380   1.0000 0.94030  0.94030  0.05970  Biso   1.000  I
  I12381   1.0000 0.44028  0.55972  0.94030  Biso   1.000  I
  I12382   1.0000 0.55972  0.55972  0.05970  Biso   1.000  I
  I12383   1.0000 0.55972  0.44028  0.94030  Biso   1.000  I
  I12384   1.0000 0.76399  0.73599  0.26401  Biso   1.000  I
  I12385   1.0000 0.76399  0.76399  0.23601  Biso   1.000  I
  I12386   1.0000 0.73599  0.73599  0.23601  Biso   1.000  I
  I12387   1.0000 0.73599  0.26401  0.76399  Biso   1.000  I
  I12388   1.0000 0.76399  0.23601  0.76399  Biso   1.000  I
  I12389   1.0000 0.76399  0.26401  0.73599  Biso   1.000  I
  I12390   1.0000 0.23601  0.76399  0.76399  Biso   1.000  I
  I12391   1.0000 0.23601  0.73599  0.73599  Biso   1.000  I
  I12392   1.0000 0.26401  0.73599  0.76399  Biso   1.000  I
  I12393   1.0000 0.87498  0.37501  0.62499  Biso   1.000  I
  I12394   1.0000 0.01402  0.48600  0.48600  Biso   1.000  I
  I12395   1.0000 0.12502  0.62499  0.62499  Biso   1.000  I
  I12396   1.0000 0.87498  0.62499  0.37501  Biso   1.000  I
  I12397   1.0000 0.87498  0.12502  0.87498  Biso   1.000  I
  I12398   1.0000 0.01402  0.01402  0.01402  Biso   1.000  I
  I12399   1.0000 0.12502  0.87498  0.87498  Biso   1.000  I
  I12400   1.0000 0.87498  0.87498  0.12502  Biso   1.000  I
  I12401   1.0000 0.37501  0.62499  0.87498  Biso   1.000  I
  I12402   1.0000 0.48600  0.48600  0.01402  Biso   1.000  I
  I12403   1.0000 0.62499  0.62499  0.12502  Biso   1.000  I
  I12404   1.0000 0.62499  0.37501  0.87498  Biso   1.000  I
  I12405   1.0000 0.80971  0.80971  0.19029  Biso   1.000  I
  I12406   1.0000 0.69031  0.69031  0.19029  Biso   1.000  I
  I12407   1.0000 0.80971  0.69031  0.30969  Biso   1.000  I
  I12408   1.0000 0.80971  0.19029  0.80971  Biso   1.000  I
  I12409   1.0000 0.80971  0.30969  0.69031  Biso   1.000  I
  I12410   1.0000 0.69031  0.30969  0.80971  Biso   1.000  I
  I12411   1.0000 0.19029  0.69031  0.69031  Biso   1.000  I
  I12412   1.0000 0.30969  0.69031  0.80971  Biso   1.000  I
  I12413   1.0000 0.19029  0.80971  0.80971  Biso   1.000  I
  I12414   1.0000 0.80971  0.30969  0.69031  Biso   1.000  I
  I12415   1.0000 0.19029  0.69031  0.69031  Biso   1.000  I
  I12416   1.0000 0.80971  0.69031  0.30969  Biso   1.000  I
  I12417   1.0000 0.80971  0.19029  0.80971  Biso   1.000  I
  I12418   1.0000 0.19029  0.80971  0.80971  Biso   1.000  I
  I12419   1.0000 0.80971  0.80971  0.19029  Biso   1.000  I
  I12420   1.0000 0.30969  0.69031  0.80971  Biso   1.000  I
  I12421   1.0000 0.69031  0.69031  0.19029  Biso   1.000  I
  I12422   1.0000 0.69031  0.30969  0.80971  Biso   1.000  I
  I12423   1.0000 0.87498  0.87498  0.12502  Biso   1.000  I
  I12424   1.0000 0.73599  0.76399  0.26401  Biso   1.000  I
  I12425   1.0000 0.62499  0.62499  0.12502  Biso   1.000  I
  I12426   1.0000 0.87498  0.62499  0.37501  Biso   1.000  I
  I12427   1.0000 0.87498  0.12502  0.87498  Biso   1.000  I
  I12428   1.0000 0.73599  0.23601  0.73599  Biso   1.000  I
  I12429   1.0000 0.87498  0.37501  0.62499  Biso   1.000  I
  I12430   1.0000 0.62499  0.37501  0.87498  Biso   1.000  I
  I12431   1.0000 0.12502  0.62499  0.62499  Biso   1.000  I
  I12432   1.0000 0.26401  0.76399  0.73599  Biso   1.000  I
  I12433   1.0000 0.37501  0.62499  0.87498  Biso   1.000  I
  I12434   1.0000 0.12502  0.87498  0.87498  Biso   1.000  I
  I12435   1.0000 0.73599  0.23601  0.73599  Biso   1.000  I
  I12436   1.0000 0.73599  0.26401  0.76399  Biso   1.000  I
  I12437   1.0000 0.76399  0.23601  0.76399  Biso   1.000  I
  I12438   1.0000 0.23601  0.76399  0.76399  Biso   1.000  I
  I12439   1.0000 0.26401  0.76399  0.73599  Biso   1.000  I
  I12440   1.0000 0.26401  0.73599  0.76399  Biso   1.000  I
  I12441   1.0000 0.76399  0.76399  0.23601  Biso   1.000  I
  I12442   1.0000 0.73599  0.73599  0.23601  Biso   1.000  I
  I12443   1.0000 0.73599  0.76399  0.26401  Biso   1.000  I
  I12444   1.0000 0.73599  0.23601  0.73599  Biso   1.000  I
  I12445   1.0000 0.73599  0.26401  0.76399  Biso   1.000  I
  I12446   1.0000 0.76399  0.26401  0.73599  Biso   1.000  I
  I12447   1.0000 0.23601  0.73599  0.73599  Biso   1.000  I
  I12448   1.0000 0.26401  0.76399  0.73599  Biso   1.000  I
  I12449   1.0000 0.26401  0.73599  0.76399  Biso   1.000  I
  I12450   1.0000 0.76399  0.73599  0.26401  Biso   1.000  I
  I12451   1.0000 0.73599  0.73599  0.23601  Biso   1.000  I
  I12452   1.0000 0.73599  0.76399  0.26401  Biso   1.000  I
  I12453   1.0000 0.23601  0.76399  0.76399  Biso   1.000  I
  I12454   1.0000 0.23601  0.73599  0.73599  Biso   1.000  I
  I12455   1.0000 0.26401  0.76399  0.73599  Biso   1.000  I
  I12456   1.0000 0.76399  0.73599  0.26401  Biso   1.000  I
  I12457   1.0000 0.76399  0.76399  0.23601  Biso   1.000  I
  I12458   1.0000 0.73599  0.76399  0.26401  Biso   1.000  I
  I12459   1.0000 0.73599  0.23601  0.73599  Biso   1.000  I
  I12460   1.0000 0.76399  0.23601  0.76399  Biso   1.000  I
  I12461   1.0000 0.76399  0.26401  0.73599  Biso   1.000  I
  I12462   1.0000 0.94030  0.94030  0.05970  Biso   1.000  I
  I12463   1.0000 0.55972  0.55972  0.05970  Biso   1.000  I
  I12464   1.0000 0.94030  0.55972  0.44028  Biso   1.000  I
  I12465   1.0000 0.94030  0.05970  0.94030  Biso   1.000  I
  I12466   1.0000 0.94030  0.44028  0.55972  Biso   1.000  I
  I12467   1.0000 0.55972  0.44028  0.94030  Biso   1.000  I
  I12468   1.0000 0.05970  0.55972  0.55972  Biso   1.000  I
  I12469   1.0000 0.44028  0.55972  0.94030  Biso   1.000  I
  I12470   1.0000 0.05970  0.94030  0.94030  Biso   1.000  I
  I12471   1.0000 0.69031  0.30969  0.80971  Biso   1.000  I
  I12472   1.0000 0.80971  0.19029  0.80971  Biso   1.000  I
  I12473   1.0000 0.69031  0.19029  0.69031  Biso   1.000  I
  I12474   1.0000 0.30969  0.80971  0.69031  Biso   1.000  I
  I12475   1.0000 0.30969  0.69031  0.80971  Biso   1.000  I
  I12476   1.0000 0.19029  0.80971  0.80971  Biso   1.000  I
  I12477   1.0000 0.69031  0.69031  0.19029  Biso   1.000  I
  I12478   1.0000 0.69031  0.80971  0.30969  Biso   1.000  I
  I12479   1.0000 0.80971  0.80971  0.19029  Biso   1.000  I
  I12480   1.0000 0.69031  0.30969  0.80971  Biso   1.000  I
  I12481   1.0000 0.80971  0.30969  0.69031  Biso   1.000  I
  I12482   1.0000 0.69031  0.19029  0.69031  Biso   1.000  I
  I12483   1.0000 0.30969  0.80971  0.69031  Biso   1.000  I
  I12484   1.0000 0.30969  0.69031  0.80971  Biso   1.000  I
  I12485   1.0000 0.19029  0.69031  0.69031  Biso   1.000  I
  I12486   1.0000 0.69031  0.69031  0.19029  Biso   1.000  I
  I12487   1.0000 0.69031  0.80971  0.30969  Biso   1.000  I
  I12488   1.0000 0.80971  0.69031  0.30969  Biso   1.000  I
  I12489   1.0000 0.19029  0.69031  0.69031  Biso   1.000  I
  I12490   1.0000 0.30969  0.80971  0.69031  Biso   1.000  I
  I12491   1.0000 0.19029  0.80971  0.80971  Biso   1.000  I
  I12492   1.0000 0.80971  0.80971  0.19029  Biso   1.000  I
  I12493   1.0000 0.69031  0.80971  0.30969  Biso   1.000  I
  I12494   1.0000 0.80971  0.69031  0.30969  Biso   1.000  I
  I12495   1.0000 0.80971  0.19029  0.80971  Biso   1.000  I
  I12496   1.0000 0.80971  0.30969  0.69031  Biso   1.000  I
  I12497   1.0000 0.69031  0.19029  0.69031  Biso   1.000  I
  I12498   1.0000 0.98598  0.01402  0.98598  Biso   1.000  I
  I12499   1.0000 0.01402  0.98598  0.98598  Biso   1.000  I
  I12500   1.0000 0.01402  0.01402  0.01402  Biso   1.000  I
  I12501   1.0000 0.51400  0.48600  0.98598  Biso   1.000  I
  I12502   1.0000 0.48600  0.51400  0.98598  Biso   1.000  I
  I12503   1.0000 0.48600  0.48600  0.01402  Biso   1.000  I
  I12504   1.0000 0.98598  0.48600  0.51400  Biso   1.000  I
  I12505   1.0000 0.01402  0.51400  0.51400  Biso   1.000  I
  I12506   1.0000 0.01402  0.48600  0.48600  Biso   1.000  I
  I12507   1.0000 0.98598  0.98598  0.01402  Biso   1.000  I
  I12508   1.0000 0.01402  0.98598  0.98598  Biso   1.000  I
  I12509   1.0000 0.01402  0.01402  0.01402  Biso   1.000  I
  I12510   1.0000 0.98598  0.51400  0.48600  Biso   1.000  I
  I12511   1.0000 0.01402  0.51400  0.51400  Biso   1.000  I
  I12512   1.0000 0.01402  0.48600  0.48600  Biso   1.000  I
  I12513   1.0000 0.48600  0.51400  0.98598  Biso   1.000  I
  I12514   1.0000 0.48600  0.48600  0.01402  Biso   1.000  I
  I12515   1.0000 0.51400  0.51400  0.01402  Biso   1.000  I
  I12516   1.0000 0.98598  0.51400  0.48600  Biso   1.000  I
  I12517   1.0000 0.98598  0.48600  0.51400  Biso   1.000  I
  I12518   1.0000 0.01402  0.48600  0.48600  Biso   1.000  I
  I12519   1.0000 0.51400  0.48600  0.98598  Biso   1.000  I
  I12520   1.0000 0.48600  0.48600  0.01402  Biso   1.000  I
  I12521   1.0000 0.51400  0.51400  0.01402  Biso   1.000  I
  I12522   1.0000 0.98598  0.98598  0.01402  Biso   1.000  I
  I12523   1.0000 0.98598  0.01402  0.98598  Biso   1.000  I
  I12524   1.0000 0.01402  0.01402  0.01402  Biso   1.000  I
  I12525   1.0000 0.62499  0.37501  0.87498  Biso   1.000  I
  I12526   1.0000 0.76399  0.26401  0.73599  Biso   1.000  I
  I12527   1.0000 0.87498  0.12502  0.87498  Biso   1.000  I
  I12528   1.0000 0.62499  0.12502  0.62499  Biso   1.000  I
  I12529   1.0000 0.37501  0.87498  0.62499  Biso   1.000  I
  I12530   1.0000 0.23601  0.73599  0.73599  Biso   1.000  I
  I12531   1.0000 0.37501  0.62499  0.87498  Biso   1.000  I
  I12532   1.0000 0.12502  0.87498  0.87498  Biso   1.000  I
  I12533   1.0000 0.62499  0.62499  0.12502  Biso   1.000  I
  I12534   1.0000 0.76399  0.73599  0.26401  Biso   1.000  I
  I12535   1.0000 0.62499  0.87498  0.37501  Biso   1.000  I
  I12536   1.0000 0.87498  0.87498  0.12502  Biso   1.000  I
  I12537   1.0000 0.62499  0.37501  0.87498  Biso   1.000  I
  I12538   1.0000 0.76399  0.23601  0.76399  Biso   1.000  I
  I12539   1.0000 0.87498  0.37501  0.62499  Biso   1.000  I
  I12540   1.0000 0.62499  0.12502  0.62499  Biso   1.000  I
  I12541   1.0000 0.37501  0.87498  0.62499  Biso   1.000  I
  I12542   1.0000 0.23601  0.76399  0.76399  Biso   1.000  I
  I12543   1.0000 0.37501  0.62499  0.87498  Biso   1.000  I
  I12544   1.0000 0.12502  0.62499  0.62499  Biso   1.000  I
  I12545   1.0000 0.62499  0.62499  0.12502  Biso   1.000  I
  I12546   1.0000 0.76399  0.76399  0.23601  Biso   1.000  I
  I12547   1.0000 0.62499  0.87498  0.37501  Biso   1.000  I
  I12548   1.0000 0.87498  0.62499  0.37501  Biso   1.000  I
  I12549   1.0000 0.12502  0.62499  0.62499  Biso   1.000  I
  I12550   1.0000 0.26401  0.73599  0.76399  Biso   1.000  I
  I12551   1.0000 0.37501  0.87498  0.62499  Biso   1.000  I
  I12552   1.0000 0.12502  0.87498  0.87498  Biso   1.000  I
  I12553   1.0000 0.87498  0.87498  0.12502  Biso   1.000  I
  I12554   1.0000 0.73599  0.73599  0.23601  Biso   1.000  I
  I12555   1.0000 0.62499  0.87498  0.37501  Biso   1.000  I
  I12556   1.0000 0.87498  0.62499  0.37501  Biso   1.000  I
  I12557   1.0000 0.87498  0.12502  0.87498  Biso   1.000  I
  I12558   1.0000 0.73599  0.26401  0.76399  Biso   1.000  I
  I12559   1.0000 0.87498  0.37501  0.62499  Biso   1.000  I
  I12560   1.0000 0.62499  0.12502  0.62499  Biso   1.000  I
  I12561   1.0000 0.05970  0.94030  0.94030  Biso   1.000  I
  I12562   1.0000 0.05970  0.05970  0.05970  Biso   1.000  I
  I12563   1.0000 0.94030  0.05970  0.94030  Biso   1.000  I
  I12564   1.0000 0.44028  0.55972  0.94030  Biso   1.000  I
  I12565   1.0000 0.44028  0.44028  0.05970  Biso   1.000  I
  I12566   1.0000 0.55972  0.44028  0.94030  Biso   1.000  I
  I12567   1.0000 0.05970  0.55972  0.55972  Biso   1.000  I
  I12568   1.0000 0.05970  0.44028  0.44028  Biso   1.000  I
  I12569   1.0000 0.94030  0.44028  0.55972  Biso   1.000  I
  I12570   1.0000 0.05970  0.94030  0.94030  Biso   1.000  I
  I12571   1.0000 0.05970  0.05970  0.05970  Biso   1.000  I
  I12572   1.0000 0.94030  0.94030  0.05970  Biso   1.000  I
  I12573   1.0000 0.05970  0.55972  0.55972  Biso   1.000  I
  I12574   1.0000 0.05970  0.44028  0.44028  Biso   1.000  I
  I12575   1.0000 0.94030  0.55972  0.44028  Biso   1.000  I
  I12576   1.0000 0.44028  0.44028  0.05970  Biso   1.000  I
  I12577   1.0000 0.55972  0.55972  0.05970  Biso   1.000  I
  I12578   1.0000 0.44028  0.55972  0.94030  Biso   1.000  I
  I12579   1.0000 0.94030  0.44028  0.55972  Biso   1.000  I
  I12580   1.0000 0.05970  0.44028  0.44028  Biso   1.000  I
  I12581   1.0000 0.94030  0.55972  0.44028  Biso   1.000  I
  I12582   1.0000 0.44028  0.44028  0.05970  Biso   1.000  I
  I12583   1.0000 0.55972  0.55972  0.05970  Biso   1.000  I
  I12584   1.0000 0.55972  0.44028  0.94030  Biso   1.000  I
  I12585   1.0000 0.94030  0.05970  0.94030  Biso   1.000  I
  I12586   1.0000 0.05970  0.05970  0.05970  Biso   1.000  I
  I12587   1.0000 0.94030  0.94030  0.05970  Biso   1.000  I
  I12588   1.0000 0.55972  0.44028  0.94030  Biso   1.000  I
  I12589   1.0000 0.55972  0.05970  0.55972  Biso   1.000  I
  I12590   1.0000 0.44028  0.94030  0.55972  Biso   1.000  I
  I12591   1.0000 0.05970  0.94030  0.94030  Biso   1.000  I
  I12592   1.0000 0.55972  0.55972  0.05970  Biso   1.000  I
  I12593   1.0000 0.55972  0.94030  0.44028  Biso   1.000  I
  I12594   1.0000 0.94030  0.94030  0.05970  Biso   1.000  I
  I12595   1.0000 0.55972  0.44028  0.94030  Biso   1.000  I
  I12596   1.0000 0.94030  0.44028  0.55972  Biso   1.000  I
  I12597   1.0000 0.55972  0.05970  0.55972  Biso   1.000  I
  I12598   1.0000 0.44028  0.94030  0.55972  Biso   1.000  I
  I12599   1.0000 0.05970  0.55972  0.55972  Biso   1.000  I
  I12600   1.0000 0.55972  0.55972  0.05970  Biso   1.000  I
  I12601   1.0000 0.55972  0.94030  0.44028  Biso   1.000  I
  I12602   1.0000 0.05970  0.55972  0.55972  Biso   1.000  I
  I12603   1.0000 0.44028  0.94030  0.55972  Biso   1.000  I
  I12604   1.0000 0.05970  0.94030  0.94030  Biso   1.000  I
  I12605   1.0000 0.94030  0.94030  0.05970  Biso   1.000  I
  I12606   1.0000 0.55972  0.94030  0.44028  Biso   1.000  I
  I12607   1.0000 0.94030  0.44028  0.55972  Biso   1.000  I
  I12608   1.0000 0.55972  0.05970  0.55972  Biso   1.000  I
  I12609   1.0000 0.98598  0.98598  0.01402  Biso   1.000  I
  I12610   1.0000 0.12502  0.87498  0.87498  Biso   1.000  I
  I12611   1.0000 0.12502  0.12502  0.12502  Biso   1.000  I
  I12612   1.0000 0.51400  0.51400  0.01402  Biso   1.000  I
  I12613   1.0000 0.37501  0.37501  0.12502  Biso   1.000  I
  I12614   1.0000 0.62499  0.37501  0.87498  Biso   1.000  I
  I12615   1.0000 0.98598  0.51400  0.48600  Biso   1.000  I
  I12616   1.0000 0.12502  0.62499  0.62499  Biso   1.000  I
  I12617   1.0000 0.12502  0.37501  0.37501  Biso   1.000  I
  I12618   1.0000 0.87498  0.37501  0.62499  Biso   1.000  I
  I12619   1.0000 0.98598  0.01402  0.98598  Biso   1.000  I
  I12620   1.0000 0.12502  0.87498  0.87498  Biso   1.000  I
  I12621   1.0000 0.12502  0.12502  0.12502  Biso   1.000  I
  I12622   1.0000 0.87498  0.87498  0.12502  Biso   1.000  I
  I12623   1.0000 0.98598  0.48600  0.51400  Biso   1.000  I
  I12624   1.0000 0.12502  0.62499  0.62499  Biso   1.000  I
  I12625   1.0000 0.12502  0.37501  0.37501  Biso   1.000  I
  I12626   1.0000 0.51400  0.48600  0.98598  Biso   1.000  I
  I12627   1.0000 0.37501  0.37501  0.12502  Biso   1.000  I
  I12628   1.0000 0.62499  0.62499  0.12502  Biso   1.000  I
  I12629   1.0000 0.87498  0.37501  0.62499  Biso   1.000  I
  I12630   1.0000 0.01402  0.51400  0.51400  Biso   1.000  I
  I12631   1.0000 0.12502  0.37501  0.37501  Biso   1.000  I
  I12632   1.0000 0.48600  0.51400  0.98598  Biso   1.000  I
  I12633   1.0000 0.37501  0.37501  0.12502  Biso   1.000  I
  I12634   1.0000 0.62499  0.62499  0.12502  Biso   1.000  I
  I12635   1.0000 0.62499  0.37501  0.87498  Biso   1.000  I
  I12636   1.0000 0.01402  0.98598  0.98598  Biso   1.000  I
  I12637   1.0000 0.12502  0.12502  0.12502  Biso   1.000  I
  I12638   1.0000 0.87498  0.87498  0.12502  Biso   1.000  I
  I12639   1.0000 0.48600  0.51400  0.98598  Biso   1.000  I
  I12640   1.0000 0.48600  0.48600  0.01402  Biso   1.000  I
  I12641   1.0000 0.51400  0.51400  0.01402  Biso   1.000  I
  I12642   1.0000 0.48600  0.98598  0.51400  Biso   1.000  I
  I12643   1.0000 0.51400  0.98598  0.48600  Biso   1.000  I
  I12644   1.0000 0.48600  0.01402  0.48600  Biso   1.000  I
  I12645   1.0000 0.51400  0.98598  0.48600  Biso   1.000  I
  I12646   1.0000 0.48600  0.01402  0.48600  Biso   1.000  I
  I12647   1.0000 0.51400  0.01402  0.51400  Biso   1.000  I
  I12648   1.0000 0.98598  0.98598  0.01402  Biso   1.000  I
  I12649   1.0000 0.98598  0.01402  0.98598  Biso   1.000  I
  I12650   1.0000 0.01402  0.01402  0.01402  Biso   1.000  I
  I12651   1.0000 0.51400  0.48600  0.98598  Biso   1.000  I
  I12652   1.0000 0.48600  0.51400  0.98598  Biso   1.000  I
  I12653   1.0000 0.48600  0.48600  0.01402  Biso   1.000  I
  I12654   1.0000 0.48600  0.98598  0.51400  Biso   1.000  I
  I12655   1.0000 0.48600  0.01402  0.48600  Biso   1.000  I
  I12656   1.0000 0.51400  0.01402  0.51400  Biso   1.000  I
  I12657   1.0000 0.98598  0.01402  0.98598  Biso   1.000  I
  I12658   1.0000 0.01402  0.98598  0.98598  Biso   1.000  I
  I12659   1.0000 0.01402  0.01402  0.01402  Biso   1.000  I
  I12660   1.0000 0.51400  0.51400  0.01402  Biso   1.000  I
  I12661   1.0000 0.98598  0.51400  0.48600  Biso   1.000  I
  I12662   1.0000 0.01402  0.51400  0.51400  Biso   1.000  I
  I12663   1.0000 0.01402  0.48600  0.48600  Biso   1.000  I
  I12664   1.0000 0.48600  0.98598  0.51400  Biso   1.000  I
  I12665   1.0000 0.51400  0.98598  0.48600  Biso   1.000  I
  I12666   1.0000 0.48600  0.01402  0.48600  Biso   1.000  I
  I12667   1.0000 0.51400  0.98598  0.48600  Biso   1.000  I
  I12668   1.0000 0.48600  0.01402  0.48600  Biso   1.000  I
  I12669   1.0000 0.51400  0.01402  0.51400  Biso   1.000  I
  I12670   1.0000 0.98598  0.51400  0.48600  Biso   1.000  I
  I12671   1.0000 0.98598  0.48600  0.51400  Biso   1.000  I
  I12672   1.0000 0.01402  0.48600  0.48600  Biso   1.000  I
  I12673   1.0000 0.51400  0.48600  0.98598  Biso   1.000  I
  I12674   1.0000 0.48600  0.51400  0.98598  Biso   1.000  I
  I12675   1.0000 0.48600  0.48600  0.01402  Biso   1.000  I
  I12676   1.0000 0.51400  0.01402  0.51400  Biso   1.000  I
  I12677   1.0000 0.98598  0.48600  0.51400  Biso   1.000  I
  I12678   1.0000 0.51400  0.98598  0.48600  Biso   1.000  I
  I12679   1.0000 0.48600  0.01402  0.48600  Biso   1.000  I
  I12680   1.0000 0.51400  0.01402  0.51400  Biso   1.000  I
  I12681   1.0000 0.98598  0.98598  0.01402  Biso   1.000  I
  I12682   1.0000 0.98598  0.01402  0.98598  Biso   1.000  I
  I12683   1.0000 0.01402  0.98598  0.98598  Biso   1.000  I
  I12684   1.0000 0.01402  0.01402  0.01402  Biso   1.000  I
  I12685   1.0000 0.48600  0.98598  0.51400  Biso   1.000  I
  I12686   1.0000 0.98598  0.51400  0.48600  Biso   1.000  I
  I12687   1.0000 0.01402  0.51400  0.51400  Biso   1.000  I
  I12688   1.0000 0.01402  0.48600  0.48600  Biso   1.000  I
  I12689   1.0000 0.48600  0.98598  0.51400  Biso   1.000  I
  I12690   1.0000 0.19029  0.80971  0.80971  Biso   1.000  I
  I12691   1.0000 0.19029  0.19029  0.19029  Biso   1.000  I
  I12692   1.0000 0.30969  0.30969  0.19029  Biso   1.000  I
  I12693   1.0000 0.69031  0.30969  0.80971  Biso   1.000  I
  I12694   1.0000 0.19029  0.69031  0.69031  Biso   1.000  I
  I12695   1.0000 0.19029  0.30969  0.30969  Biso   1.000  I
  I12696   1.0000 0.80971  0.30969  0.69031  Biso   1.000  I
  I12697   1.0000 0.19029  0.80971  0.80971  Biso   1.000  I
  I12698   1.0000 0.19029  0.19029  0.19029  Biso   1.000  I
  I12699   1.0000 0.80971  0.80971  0.19029  Biso   1.000  I
  I12700   1.0000 0.19029  0.69031  0.69031  Biso   1.000  I
  I12701   1.0000 0.19029  0.30969  0.30969  Biso   1.000  I
  I12702   1.0000 0.30969  0.30969  0.19029  Biso   1.000  I
  I12703   1.0000 0.69031  0.69031  0.19029  Biso   1.000  I
  I12704   1.0000 0.80971  0.30969  0.69031  Biso   1.000  I
  I12705   1.0000 0.19029  0.30969  0.30969  Biso   1.000  I
  I12706   1.0000 0.30969  0.30969  0.19029  Biso   1.000  I
  I12707   1.0000 0.69031  0.69031  0.19029  Biso   1.000  I
  I12708   1.0000 0.69031  0.30969  0.80971  Biso   1.000  I
  I12709   1.0000 0.19029  0.19029  0.19029  Biso   1.000  I
  I12710   1.0000 0.80971  0.80971  0.19029  Biso   1.000  I
  I12711   1.0000 0.44028  0.44028  0.05970  Biso   1.000  I
  I12712   1.0000 0.55972  0.55972  0.05970  Biso   1.000  I
  I12713   1.0000 0.44028  0.55972  0.94030  Biso   1.000  I
  I12714   1.0000 0.44028  0.05970  0.44028  Biso   1.000  I
  I12715   1.0000 0.44028  0.94030  0.55972  Biso   1.000  I
  I12716   1.0000 0.44028  0.05970  0.44028  Biso   1.000  I
  I12717   1.0000 0.55972  0.05970  0.55972  Biso   1.000  I
  I12718   1.0000 0.94030  0.05970  0.94030  Biso   1.000  I
  I12719   1.0000 0.05970  0.05970  0.05970  Biso   1.000  I
  I12720   1.0000 0.94030  0.94030  0.05970  Biso   1.000  I
  I12721   1.0000 0.44028  0.55972  0.94030  Biso   1.000  I
  I12722   1.0000 0.44028  0.44028  0.05970  Biso   1.000  I
  I12723   1.0000 0.44028  0.05970  0.44028  Biso   1.000  I
  I12724   1.0000 0.55972  0.05970  0.55972  Biso   1.000  I
  I12725   1.0000 0.44028  0.94030  0.55972  Biso   1.000  I
  I12726   1.0000 0.05970  0.05970  0.05970  Biso   1.000  I
  I12727   1.0000 0.94030  0.05970  0.94030  Biso   1.000  I
  I12728   1.0000 0.05970  0.44028  0.44028  Biso   1.000  I
  I12729   1.0000 0.94030  0.55972  0.44028  Biso   1.000  I
  I12730   1.0000 0.55972  0.94030  0.44028  Biso   1.000  I
  I12731   1.0000 0.44028  0.05970  0.44028  Biso   1.000  I
  I12732   1.0000 0.44028  0.94030  0.55972  Biso   1.000  I
  I12733   1.0000 0.44028  0.05970  0.44028  Biso   1.000  I
  I12734   1.0000 0.55972  0.94030  0.44028  Biso   1.000  I
  I12735   1.0000 0.94030  0.44028  0.55972  Biso   1.000  I
  I12736   1.0000 0.05970  0.44028  0.44028  Biso   1.000  I
  I12737   1.0000 0.94030  0.55972  0.44028  Biso   1.000  I
  I12738   1.0000 0.44028  0.55972  0.94030  Biso   1.000  I
  I12739   1.0000 0.44028  0.44028  0.05970  Biso   1.000  I
  I12740   1.0000 0.55972  0.44028  0.94030  Biso   1.000  I
  I12741   1.0000 0.44028  0.05970  0.44028  Biso   1.000  I
  I12742   1.0000 0.55972  0.05970  0.55972  Biso   1.000  I
  I12743   1.0000 0.55972  0.94030  0.44028  Biso   1.000  I
  I12744   1.0000 0.05970  0.94030  0.94030  Biso   1.000  I
  I12745   1.0000 0.05970  0.05970  0.05970  Biso   1.000  I
  I12746   1.0000 0.94030  0.05970  0.94030  Biso   1.000  I
  I12747   1.0000 0.05970  0.55972  0.55972  Biso   1.000  I
  I12748   1.0000 0.05970  0.44028  0.44028  Biso   1.000  I
  I12749   1.0000 0.94030  0.55972  0.44028  Biso   1.000  I
  I12750   1.0000 0.23601  0.73599  0.73599  Biso   1.000  I
  I12751   1.0000 0.26401  0.76399  0.73599  Biso   1.000  I
  I12752   1.0000 0.26401  0.73599  0.76399  Biso   1.000  I
  I12753   1.0000 0.26401  0.26401  0.23601  Biso   1.000  I
  I12754   1.0000 0.26401  0.23601  0.26401  Biso   1.000  I
  I12755   1.0000 0.23601  0.26401  0.26401  Biso   1.000  I
  I12756   1.0000 0.26401  0.23601  0.26401  Biso   1.000  I
  I12757   1.0000 0.23601  0.26401  0.26401  Biso   1.000  I
  I12758   1.0000 0.23601  0.23601  0.23601  Biso   1.000  I
  I12759   1.0000 0.73599  0.23601  0.73599  Biso   1.000  I
  I12760   1.0000 0.76399  0.23601  0.76399  Biso   1.000  I
  I12761   1.0000 0.76399  0.26401  0.73599  Biso   1.000  I
  I12762   1.0000 0.23601  0.76399  0.76399  Biso   1.000  I
  I12763   1.0000 0.26401  0.76399  0.73599  Biso   1.000  I
  I12764   1.0000 0.26401  0.73599  0.76399  Biso   1.000  I
  I12765   1.0000 0.26401  0.26401  0.23601  Biso   1.000  I
  I12766   1.0000 0.26401  0.23601  0.26401  Biso   1.000  I
  I12767   1.0000 0.23601  0.23601  0.23601  Biso   1.000  I
  I12768   1.0000 0.73599  0.23601  0.73599  Biso   1.000  I
  I12769   1.0000 0.73599  0.26401  0.76399  Biso   1.000  I
  I12770   1.0000 0.76399  0.23601  0.76399  Biso   1.000  I
  I12771   1.0000 0.23601  0.73599  0.73599  Biso   1.000  I
  I12772   1.0000 0.26401  0.26401  0.23601  Biso   1.000  I
  I12773   1.0000 0.26401  0.23601  0.26401  Biso   1.000  I
  I12774   1.0000 0.23601  0.26401  0.26401  Biso   1.000  I
  I12775   1.0000 0.76399  0.73599  0.26401  Biso   1.000  I
  I12776   1.0000 0.73599  0.73599  0.23601  Biso   1.000  I
  I12777   1.0000 0.73599  0.76399  0.26401  Biso   1.000  I
  I12778   1.0000 0.23601  0.76399  0.76399  Biso   1.000  I
  I12779   1.0000 0.26401  0.76399  0.73599  Biso   1.000  I
  I12780   1.0000 0.26401  0.73599  0.76399  Biso   1.000  I
  I12781   1.0000 0.23601  0.23601  0.23601  Biso   1.000  I
  I12782   1.0000 0.26401  0.23601  0.26401  Biso   1.000  I
  I12783   1.0000 0.23601  0.26401  0.26401  Biso   1.000  I
  I12784   1.0000 0.23601  0.23601  0.23601  Biso   1.000  I
  I12785   1.0000 0.76399  0.73599  0.26401  Biso   1.000  I
  I12786   1.0000 0.76399  0.76399  0.23601  Biso   1.000  I
  I12787   1.0000 0.73599  0.76399  0.26401  Biso   1.000  I
  I12788   1.0000 0.73599  0.23601  0.73599  Biso   1.000  I
  I12789   1.0000 0.73599  0.26401  0.76399  Biso   1.000  I
  I12790   1.0000 0.76399  0.23601  0.76399  Biso   1.000  I
  I12791   1.0000 0.26401  0.26401  0.23601  Biso   1.000  I
  I12792   1.0000 0.26401  0.23601  0.26401  Biso   1.000  I
  I12793   1.0000 0.23601  0.26401  0.26401  Biso   1.000  I
  I12794   1.0000 0.23601  0.23601  0.23601  Biso   1.000  I
  I12795   1.0000 0.76399  0.76399  0.23601  Biso   1.000  I
  I12796   1.0000 0.76399  0.26401  0.73599  Biso   1.000  I
  I12797   1.0000 0.26401  0.26401  0.23601  Biso   1.000  I
  I12798   1.0000 0.76399  0.73599  0.26401  Biso   1.000  I
  I12799   1.0000 0.73599  0.73599  0.23601  Biso   1.000  I
  I12800   1.0000 0.73599  0.76399  0.26401  Biso   1.000  I
  I12801   1.0000 0.51400  0.48600  0.98598  Biso   1.000  I
  I12802   1.0000 0.37501  0.37501  0.12502  Biso   1.000  I
  I12803   1.0000 0.62499  0.62499  0.12502  Biso   1.000  I
  I12804   1.0000 0.37501  0.62499  0.87498  Biso   1.000  I
  I12805   1.0000 0.37501  0.12502  0.37501  Biso   1.000  I
  I12806   1.0000 0.37501  0.87498  0.62499  Biso   1.000  I
  I12807   1.0000 0.37501  0.12502  0.37501  Biso   1.000  I
  I12808   1.0000 0.62499  0.12502  0.62499  Biso   1.000  I
  I12809   1.0000 0.87498  0.12502  0.87498  Biso   1.000  I
  I12810   1.0000 0.01402  0.98598  0.98598  Biso   1.000  I
  I12811   1.0000 0.12502  0.12502  0.12502  Biso   1.000  I
  I12812   1.0000 0.87498  0.87498  0.12502  Biso   1.000  I
  I12813   1.0000 0.37501  0.62499  0.87498  Biso   1.000  I
  I12814   1.0000 0.37501  0.37501  0.12502  Biso   1.000  I
  I12815   1.0000 0.51400  0.98598  0.48600  Biso   1.000  I
  I12816   1.0000 0.37501  0.12502  0.37501  Biso   1.000  I
  I12817   1.0000 0.62499  0.12502  0.62499  Biso   1.000  I
  I12818   1.0000 0.37501  0.87498  0.62499  Biso   1.000  I
  I12819   1.0000 0.12502  0.12502  0.12502  Biso   1.000  I
  I12820   1.0000 0.87498  0.12502  0.87498  Biso   1.000  I
  I12821   1.0000 0.12502  0.37501  0.37501  Biso   1.000  I
  I12822   1.0000 0.87498  0.62499  0.37501  Biso   1.000  I
  I12823   1.0000 0.62499  0.87498  0.37501  Biso   1.000  I
  I12824   1.0000 0.51400  0.01402  0.51400  Biso   1.000  I
  I12825   1.0000 0.37501  0.12502  0.37501  Biso   1.000  I
  I12826   1.0000 0.37501  0.87498  0.62499  Biso   1.000  I
  I12827   1.0000 0.37501  0.12502  0.37501  Biso   1.000  I
  I12828   1.0000 0.62499  0.87498  0.37501  Biso   1.000  I
  I12829   1.0000 0.87498  0.37501  0.62499  Biso   1.000  I
  I12830   1.0000 0.01402  0.51400  0.51400  Biso   1.000  I
  I12831   1.0000 0.12502  0.37501  0.37501  Biso   1.000  I
  I12832   1.0000 0.87498  0.62499  0.37501  Biso   1.000  I
  I12833   1.0000 0.37501  0.62499  0.87498  Biso   1.000  I
  I12834   1.0000 0.51400  0.51400  0.01402  Biso   1.000  I
  I12835   1.0000 0.37501  0.37501  0.12502  Biso   1.000  I
  I12836   1.0000 0.62499  0.37501  0.87498  Biso   1.000  I
  I12837   1.0000 0.48600  0.98598  0.51400  Biso   1.000  I
  I12838   1.0000 0.37501  0.12502  0.37501  Biso   1.000  I
  I12839   1.0000 0.62499  0.12502  0.62499  Biso   1.000  I
  I12840   1.0000 0.62499  0.87498  0.37501  Biso   1.000  I
  I12841   1.0000 0.98598  0.98598  0.01402  Biso   1.000  I
  I12842   1.0000 0.12502  0.87498  0.87498  Biso   1.000  I
  I12843   1.0000 0.12502  0.12502  0.12502  Biso   1.000  I
  I12844   1.0000 0.87498  0.12502  0.87498  Biso   1.000  I
  I12845   1.0000 0.98598  0.48600  0.51400  Biso   1.000  I
  I12846   1.0000 0.12502  0.62499  0.62499  Biso   1.000  I
  I12847   1.0000 0.12502  0.37501  0.37501  Biso   1.000  I
  I12848   1.0000 0.87498  0.62499  0.37501  Biso   1.000  I
  I12849   1.0000 0.30969  0.80971  0.69031  Biso   1.000  I
  I12850   1.0000 0.30969  0.69031  0.80971  Biso   1.000  I
  I12851   1.0000 0.19029  0.69031  0.69031  Biso   1.000  I
  I12852   1.0000 0.30969  0.19029  0.30969  Biso   1.000  I
  I12853   1.0000 0.30969  0.30969  0.19029  Biso   1.000  I
  I12854   1.0000 0.19029  0.19029  0.19029  Biso   1.000  I
  I12855   1.0000 0.30969  0.19029  0.30969  Biso   1.000  I
  I12856   1.0000 0.80971  0.19029  0.80971  Biso   1.000  I
  I12857   1.0000 0.80971  0.30969  0.69031  Biso   1.000  I
  I12858   1.0000 0.69031  0.19029  0.69031  Biso   1.000  I
  I12859   1.0000 0.30969  0.80971  0.69031  Biso   1.000  I
  I12860   1.0000 0.30969  0.69031  0.80971  Biso   1.000  I
  I12861   1.0000 0.30969  0.19029  0.30969  Biso   1.000  I
  I12862   1.0000 0.19029  0.19029  0.19029  Biso   1.000  I
  I12863   1.0000 0.30969  0.30969  0.19029  Biso   1.000  I
  I12864   1.0000 0.80971  0.19029  0.80971  Biso   1.000  I
  I12865   1.0000 0.69031  0.19029  0.69031  Biso   1.000  I
  I12866   1.0000 0.30969  0.19029  0.30969  Biso   1.000  I
  I12867   1.0000 0.19029  0.30969  0.30969  Biso   1.000  I
  I12868   1.0000 0.30969  0.30969  0.19029  Biso   1.000  I
  I12869   1.0000 0.69031  0.80971  0.30969  Biso   1.000  I
  I12870   1.0000 0.80971  0.69031  0.30969  Biso   1.000  I
  I12871   1.0000 0.30969  0.80971  0.69031  Biso   1.000  I
  I12872   1.0000 0.30969  0.69031  0.80971  Biso   1.000  I
  I12873   1.0000 0.19029  0.80971  0.80971  Biso   1.000  I
  I12874   1.0000 0.19029  0.30969  0.30969  Biso   1.000  I
  I12875   1.0000 0.30969  0.19029  0.30969  Biso   1.000  I
  I12876   1.0000 0.80971  0.80971  0.19029  Biso   1.000  I
  I12877   1.0000 0.69031  0.80971  0.30969  Biso   1.000  I
  I12878   1.0000 0.80971  0.69031  0.30969  Biso   1.000  I
  I12879   1.0000 0.69031  0.30969  0.80971  Biso   1.000  I
  I12880   1.0000 0.80971  0.19029  0.80971  Biso   1.000  I
  I12881   1.0000 0.69031  0.19029  0.69031  Biso   1.000  I
  I12882   1.0000 0.19029  0.30969  0.30969  Biso   1.000  I
  I12883   1.0000 0.19029  0.19029  0.19029  Biso   1.000  I
  I12884   1.0000 0.30969  0.19029  0.30969  Biso   1.000  I
  I12885   1.0000 0.69031  0.69031  0.19029  Biso   1.000  I
  I12886   1.0000 0.69031  0.80971  0.30969  Biso   1.000  I
  I12887   1.0000 0.80971  0.69031  0.30969  Biso   1.000  I
  I12888   1.0000 0.30969  0.30969  0.19029  Biso   1.000  I
  I12889   1.0000 0.69031  0.69031  0.19029  Biso   1.000  I
  I12890   1.0000 0.30969  0.69031  0.80971  Biso   1.000  I
  I12891   1.0000 0.30969  0.19029  0.30969  Biso   1.000  I
  I12892   1.0000 0.30969  0.80971  0.69031  Biso   1.000  I
  I12893   1.0000 0.30969  0.19029  0.30969  Biso   1.000  I
  I12894   1.0000 0.69031  0.19029  0.69031  Biso   1.000  I
  I12895   1.0000 0.80971  0.19029  0.80971  Biso   1.000  I
  I12896   1.0000 0.19029  0.19029  0.19029  Biso   1.000  I
  I12897   1.0000 0.80971  0.80971  0.19029  Biso   1.000  I
  I12898   1.0000 0.30969  0.69031  0.80971  Biso   1.000  I
  I12899   1.0000 0.30969  0.30969  0.19029  Biso   1.000  I
  I12900   1.0000 0.30969  0.19029  0.30969  Biso   1.000  I
  I12901   1.0000 0.69031  0.19029  0.69031  Biso   1.000  I
  I12902   1.0000 0.30969  0.80971  0.69031  Biso   1.000  I
  I12903   1.0000 0.19029  0.19029  0.19029  Biso   1.000  I
  I12904   1.0000 0.80971  0.19029  0.80971  Biso   1.000  I
  I12905   1.0000 0.19029  0.30969  0.30969  Biso   1.000  I
  I12906   1.0000 0.80971  0.69031  0.30969  Biso   1.000  I
  I12907   1.0000 0.69031  0.80971  0.30969  Biso   1.000  I
  I12908   1.0000 0.30969  0.19029  0.30969  Biso   1.000  I
  I12909   1.0000 0.30969  0.80971  0.69031  Biso   1.000  I
  I12910   1.0000 0.30969  0.19029  0.30969  Biso   1.000  I
  I12911   1.0000 0.69031  0.80971  0.30969  Biso   1.000  I
  I12912   1.0000 0.80971  0.30969  0.69031  Biso   1.000  I
  I12913   1.0000 0.19029  0.30969  0.30969  Biso   1.000  I
  I12914   1.0000 0.80971  0.69031  0.30969  Biso   1.000  I
  I12915   1.0000 0.30969  0.69031  0.80971  Biso   1.000  I
  I12916   1.0000 0.30969  0.30969  0.19029  Biso   1.000  I
  I12917   1.0000 0.69031  0.30969  0.80971  Biso   1.000  I
  I12918   1.0000 0.30969  0.19029  0.30969  Biso   1.000  I
  I12919   1.0000 0.69031  0.19029  0.69031  Biso   1.000  I
  I12920   1.0000 0.69031  0.80971  0.30969  Biso   1.000  I
  I12921   1.0000 0.19029  0.80971  0.80971  Biso   1.000  I
  I12922   1.0000 0.19029  0.19029  0.19029  Biso   1.000  I
  I12923   1.0000 0.80971  0.19029  0.80971  Biso   1.000  I
  I12924   1.0000 0.19029  0.69031  0.69031  Biso   1.000  I
  I12925   1.0000 0.19029  0.30969  0.30969  Biso   1.000  I
  I12926   1.0000 0.80971  0.69031  0.30969  Biso   1.000  I
  I12927   1.0000 0.37501  0.87498  0.62499  Biso   1.000  I
  I12928   1.0000 0.23601  0.76399  0.76399  Biso   1.000  I
  I12929   1.0000 0.37501  0.62499  0.87498  Biso   1.000  I
  I12930   1.0000 0.12502  0.62499  0.62499  Biso   1.000  I
  I12931   1.0000 0.37501  0.12502  0.37501  Biso   1.000  I
  I12932   1.0000 0.37501  0.37501  0.12502  Biso   1.000  I
  I12933   1.0000 0.12502  0.12502  0.12502  Biso   1.000  I
  I12934   1.0000 0.37501  0.12502  0.37501  Biso   1.000  I
  I12935   1.0000 0.87498  0.12502  0.87498  Biso   1.000  I
  I12936   1.0000 0.73599  0.26401  0.76399  Biso   1.000  I
  I12937   1.0000 0.87498  0.37501  0.62499  Biso   1.000  I
  I12938   1.0000 0.62499  0.12502  0.62499  Biso   1.000  I
  I12939   1.0000 0.37501  0.87498  0.62499  Biso   1.000  I
  I12940   1.0000 0.37501  0.62499  0.87498  Biso   1.000  I
  I12941   1.0000 0.37501  0.12502  0.37501  Biso   1.000  I
  I12942   1.0000 0.23601  0.26401  0.26401  Biso   1.000  I
  I12943   1.0000 0.12502  0.12502  0.12502  Biso   1.000  I
  I12944   1.0000 0.37501  0.37501  0.12502  Biso   1.000  I
  I12945   1.0000 0.87498  0.12502  0.87498  Biso   1.000  I
  I12946   1.0000 0.62499  0.12502  0.62499  Biso   1.000  I
  I12947   1.0000 0.37501  0.12502  0.37501  Biso   1.000  I
  I12948   1.0000 0.23601  0.23601  0.23601  Biso   1.000  I
  I12949   1.0000 0.12502  0.37501  0.37501  Biso   1.000  I
  I12950   1.0000 0.37501  0.37501  0.12502  Biso   1.000  I
  I12951   1.0000 0.62499  0.87498  0.37501  Biso   1.000  I
  I12952   1.0000 0.87498  0.62499  0.37501  Biso   1.000  I
  I12953   1.0000 0.37501  0.87498  0.62499  Biso   1.000  I
  I12954   1.0000 0.23601  0.73599  0.73599  Biso   1.000  I
  I12955   1.0000 0.37501  0.62499  0.87498  Biso   1.000  I
  I12956   1.0000 0.12502  0.87498  0.87498  Biso   1.000  I
  I12957   1.0000 0.12502  0.37501  0.37501  Biso   1.000  I
  I12958   1.0000 0.37501  0.12502  0.37501  Biso   1.000  I
  I12959   1.0000 0.87498  0.87498  0.12502  Biso   1.000  I
  I12960   1.0000 0.73599  0.73599  0.23601  Biso   1.000  I
  I12961   1.0000 0.62499  0.87498  0.37501  Biso   1.000  I
  I12962   1.0000 0.87498  0.62499  0.37501  Biso   1.000  I
  I12963   1.0000 0.62499  0.37501  0.87498  Biso   1.000  I
  I12964   1.0000 0.76399  0.26401  0.73599  Biso   1.000  I
  I12965   1.0000 0.87498  0.12502  0.87498  Biso   1.000  I
  I12966   1.0000 0.62499  0.12502  0.62499  Biso   1.000  I
  I12967   1.0000 0.12502  0.37501  0.37501  Biso   1.000  I
  I12968   1.0000 0.26401  0.26401  0.23601  Biso   1.000  I
  I12969   1.0000 0.12502  0.12502  0.12502  Biso   1.000  I
  I12970   1.0000 0.37501  0.12502  0.37501  Biso   1.000  I
  I12971   1.0000 0.62499  0.62499  0.12502  Biso   1.000  I
  I12972   1.0000 0.76399  0.76399  0.23601  Biso   1.000  I
  I12973   1.0000 0.62499  0.87498  0.37501  Biso   1.000  I
  I12974   1.0000 0.87498  0.62499  0.37501  Biso   1.000  I
  I12975   1.0000 0.26401  0.23601  0.26401  Biso   1.000  I
  I12976   1.0000 0.23601  0.26401  0.26401  Biso   1.000  I
  I12977   1.0000 0.23601  0.23601  0.23601  Biso   1.000  I
  I12978   1.0000 0.76399  0.73599  0.26401  Biso   1.000  I
  I12979   1.0000 0.76399  0.76399  0.23601  Biso   1.000  I
  I12980   1.0000 0.73599  0.76399  0.26401  Biso   1.000  I
  I12981   1.0000 0.23601  0.76399  0.76399  Biso   1.000  I
  I12982   1.0000 0.23601  0.73599  0.73599  Biso   1.000  I
  I12983   1.0000 0.26401  0.76399  0.73599  Biso   1.000  I
  I12984   1.0000 0.26401  0.26401  0.23601  Biso   1.000  I
  I12985   1.0000 0.23601  0.26401  0.26401  Biso   1.000  I
  I12986   1.0000 0.23601  0.23601  0.23601  Biso   1.000  I
  I12987   1.0000 0.23601  0.76399  0.76399  Biso   1.000  I
  I12988   1.0000 0.23601  0.73599  0.73599  Biso   1.000  I
  I12989   1.0000 0.26401  0.73599  0.76399  Biso   1.000  I
  I12990   1.0000 0.26401  0.26401  0.23601  Biso   1.000  I
  I12991   1.0000 0.23601  0.26401  0.26401  Biso   1.000  I
  I12992   1.0000 0.23601  0.23601  0.23601  Biso   1.000  I
  I12993   1.0000 0.73599  0.26401  0.76399  Biso   1.000  I
  I12994   1.0000 0.76399  0.23601  0.76399  Biso   1.000  I
  I12995   1.0000 0.76399  0.26401  0.73599  Biso   1.000  I
  I12996   1.0000 0.73599  0.23601  0.73599  Biso   1.000  I
  I12997   1.0000 0.73599  0.26401  0.76399  Biso   1.000  I
  I12998   1.0000 0.76399  0.26401  0.73599  Biso   1.000  I
  I12999   1.0000 0.26401  0.26401  0.23601  Biso   1.000  I
  I13000   1.0000 0.26401  0.23601  0.26401  Biso   1.000  I
  I13001   1.0000 0.23601  0.26401  0.26401  Biso   1.000  I
  I13002   1.0000 0.73599  0.73599  0.23601  Biso   1.000  I
  I13003   1.0000 0.23601  0.76399  0.76399  Biso   1.000  I
  I13004   1.0000 0.23601  0.73599  0.73599  Biso   1.000  I
  I13005   1.0000 0.26401  0.76399  0.73599  Biso   1.000  I
  I13006   1.0000 0.26401  0.23601  0.26401  Biso   1.000  I
  I13007   1.0000 0.26401  0.26401  0.23601  Biso   1.000  I
  I13008   1.0000 0.23601  0.26401  0.26401  Biso   1.000  I
  I13009   1.0000 0.23601  0.23601  0.23601  Biso   1.000  I
  I13010   1.0000 0.76399  0.23601  0.76399  Biso   1.000  I
  I13011   1.0000 0.26401  0.73599  0.76399  Biso   1.000  I
  I13012   1.0000 0.26401  0.23601  0.26401  Biso   1.000  I
  I13013   1.0000 0.73599  0.23601  0.73599  Biso   1.000  I
  I13014   1.0000 0.73599  0.26401  0.76399  Biso   1.000  I
  I13015   1.0000 0.76399  0.26401  0.73599  Biso   1.000  I
  I13016   1.0000 0.26401  0.26401  0.23601  Biso   1.000  I
  I13017   1.0000 0.26401  0.23601  0.26401  Biso   1.000  I
  I13018   1.0000 0.23601  0.23601  0.23601  Biso   1.000  I
  I13019   1.0000 0.76399  0.76399  0.23601  Biso   1.000  I
  I13020   1.0000 0.73599  0.73599  0.23601  Biso   1.000  I
  I13021   1.0000 0.73599  0.76399  0.26401  Biso   1.000  I
  I13022   1.0000 0.76399  0.73599  0.26401  Biso   1.000  I
  I13023   1.0000 0.76399  0.76399  0.23601  Biso   1.000  I
  I13024   1.0000 0.73599  0.73599  0.23601  Biso   1.000  I
  I13025   1.0000 0.26401  0.26401  0.23601  Biso   1.000  I
  I13026   1.0000 0.23601  0.26401  0.26401  Biso   1.000  I
  I13027   1.0000 0.23601  0.23601  0.23601  Biso   1.000  I
  I13028   1.0000 0.23601  0.76399  0.76399  Biso   1.000  I
  I13029   1.0000 0.23601  0.73599  0.73599  Biso   1.000  I
  I13030   1.0000 0.26401  0.73599  0.76399  Biso   1.000  I
  I13031   1.0000 0.23601  0.26401  0.26401  Biso   1.000  I
  I13032   1.0000 0.76399  0.73599  0.26401  Biso   1.000  I
  I13033   1.0000 0.76399  0.76399  0.23601  Biso   1.000  I
  I13034   1.0000 0.73599  0.73599  0.23601  Biso   1.000  I
  I13035   1.0000 0.73599  0.23601  0.73599  Biso   1.000  I
  I13036   1.0000 0.73599  0.26401  0.76399  Biso   1.000  I
  I13037   1.0000 0.76399  0.23601  0.76399  Biso   1.000  I
  I13038   1.0000 0.26401  0.26401  0.23601  Biso   1.000  I
  I13039   1.0000 0.26401  0.23601  0.26401  Biso   1.000  I
  I13040   1.0000 0.23601  0.23601  0.23601  Biso   1.000  I
  I13041   1.0000 0.73599  0.76399  0.26401  Biso   1.000  I
  I13042   1.0000 0.26401  0.76399  0.73599  Biso   1.000  I
  I13043   1.0000 0.26401  0.23601  0.26401  Biso   1.000  I
  I13044   1.0000 0.23601  0.26401  0.26401  Biso   1.000  I
  I13045   1.0000 0.23601  0.23601  0.23601  Biso   1.000  I
  I13046   1.0000 0.76399  0.26401  0.73599  Biso   1.000  I
  I13047   1.0000 0.26401  0.26401  0.23601  Biso   1.000  I
  I13048   1.0000 0.23601  0.26401  0.26401  Biso   1.000  I
  I13049   1.0000 0.23601  0.23601  0.23601  Biso   1.000  I
  I13050   1.0000 0.73599  0.26401  0.76399  Biso   1.000  I
  I13051   1.0000 0.76399  0.23601  0.76399  Biso   1.000  I
  I13052   1.0000 0.76399  0.26401  0.73599  Biso   1.000  I
  I13053   1.0000 0.76399  0.73599  0.26401  Biso   1.000  I
  I13054   1.0000 0.76399  0.76399  0.23601  Biso   1.000  I
  I13055   1.0000 0.73599  0.73599  0.23601  Biso   1.000  I
  I13056   1.0000 0.23601  0.73599  0.73599  Biso   1.000  I
  I13057   1.0000 0.26401  0.76399  0.73599  Biso   1.000  I
  I13058   1.0000 0.26401  0.73599  0.76399  Biso   1.000  I
  I13059   1.0000 0.26401  0.26401  0.23601  Biso   1.000  I
  I13060   1.0000 0.26401  0.23601  0.26401  Biso   1.000  I
  I13061   1.0000 0.23601  0.26401  0.26401  Biso   1.000  I
  I13062   1.0000 0.73599  0.23601  0.73599  Biso   1.000  I
  I13063   1.0000 0.23601  0.76399  0.76399  Biso   1.000  I
  I13064   1.0000 0.26401  0.26401  0.23601  Biso   1.000  I
  I13065   1.0000 0.26401  0.23601  0.26401  Biso   1.000  I
  I13066   1.0000 0.23601  0.23601  0.23601  Biso   1.000  I
  I13067   1.0000 0.73599  0.76399  0.26401  Biso   1.000  I
  I13068   1.0000 0.44028  0.94030  0.55972  Biso   1.000  I
  I13069   1.0000 0.44028  0.55972  0.94030  Biso   1.000  I
  I13070   1.0000 0.05970  0.55972  0.55972  Biso   1.000  I
  I13071   1.0000 0.44028  0.05970  0.44028  Biso   1.000  I
  I13072   1.0000 0.44028  0.44028  0.05970  Biso   1.000  I
  I13073   1.0000 0.05970  0.05970  0.05970  Biso   1.000  I
  I13074   1.0000 0.44028  0.05970  0.44028  Biso   1.000  I
  I13075   1.0000 0.94030  0.05970  0.94030  Biso   1.000  I
  I13076   1.0000 0.94030  0.44028  0.55972  Biso   1.000  I
  I13077   1.0000 0.55972  0.05970  0.55972  Biso   1.000  I
  I13078   1.0000 0.44028  0.94030  0.55972  Biso   1.000  I
  I13079   1.0000 0.44028  0.55972  0.94030  Biso   1.000  I
  I13080   1.0000 0.44028  0.05970  0.44028  Biso   1.000  I
  I13081   1.0000 0.05970  0.05970  0.05970  Biso   1.000  I
  I13082   1.0000 0.44028  0.44028  0.05970  Biso   1.000  I
  I13083   1.0000 0.94030  0.05970  0.94030  Biso   1.000  I
  I13084   1.0000 0.55972  0.05970  0.55972  Biso   1.000  I
  I13085   1.0000 0.44028  0.05970  0.44028  Biso   1.000  I
  I13086   1.0000 0.05970  0.44028  0.44028  Biso   1.000  I
  I13087   1.0000 0.44028  0.44028  0.05970  Biso   1.000  I
  I13088   1.0000 0.55972  0.94030  0.44028  Biso   1.000  I
  I13089   1.0000 0.94030  0.55972  0.44028  Biso   1.000  I
  I13090   1.0000 0.44028  0.94030  0.55972  Biso   1.000  I
  I13091   1.0000 0.44028  0.55972  0.94030  Biso   1.000  I
  I13092   1.0000 0.05970  0.94030  0.94030  Biso   1.000  I
  I13093   1.0000 0.05970  0.44028  0.44028  Biso   1.000  I
  I13094   1.0000 0.44028  0.05970  0.44028  Biso   1.000  I
  I13095   1.0000 0.94030  0.94030  0.05970  Biso   1.000  I
  I13096   1.0000 0.55972  0.94030  0.44028  Biso   1.000  I
  I13097   1.0000 0.94030  0.55972  0.44028  Biso   1.000  I
  I13098   1.0000 0.55972  0.44028  0.94030  Biso   1.000  I
  I13099   1.0000 0.94030  0.05970  0.94030  Biso   1.000  I
  I13100   1.0000 0.55972  0.05970  0.55972  Biso   1.000  I
  I13101   1.0000 0.05970  0.44028  0.44028  Biso   1.000  I
  I13102   1.0000 0.05970  0.05970  0.05970  Biso   1.000  I
  I13103   1.0000 0.44028  0.05970  0.44028  Biso   1.000  I
  I13104   1.0000 0.55972  0.55972  0.05970  Biso   1.000  I
  I13105   1.0000 0.55972  0.94030  0.44028  Biso   1.000  I
  I13106   1.0000 0.94030  0.55972  0.44028  Biso   1.000  I
  I13107   1.0000 0.19029  0.30969  0.30969  Biso   1.000  I
  I13108   1.0000 0.19029  0.19029  0.19029  Biso   1.000  I
  I13109   1.0000 0.30969  0.19029  0.30969  Biso   1.000  I
  I13110   1.0000 0.69031  0.80971  0.30969  Biso   1.000  I
  I13111   1.0000 0.80971  0.69031  0.30969  Biso   1.000  I
  I13112   1.0000 0.19029  0.69031  0.69031  Biso   1.000  I
  I13113   1.0000 0.19029  0.80971  0.80971  Biso   1.000  I
  I13114   1.0000 0.19029  0.30969  0.30969  Biso   1.000  I
  I13115   1.0000 0.19029  0.19029  0.19029  Biso   1.000  I
  I13116   1.0000 0.19029  0.69031  0.69031  Biso   1.000  I
  I13117   1.0000 0.30969  0.69031  0.80971  Biso   1.000  I
  I13118   1.0000 0.19029  0.80971  0.80971  Biso   1.000  I
  I13119   1.0000 0.19029  0.30969  0.30969  Biso   1.000  I
  I13120   1.0000 0.30969  0.30969  0.19029  Biso   1.000  I
  I13121   1.0000 0.80971  0.19029  0.80971  Biso   1.000  I
  I13122   1.0000 0.80971  0.30969  0.69031  Biso   1.000  I
  I13123   1.0000 0.69031  0.30969  0.80971  Biso   1.000  I
  I13124   1.0000 0.69031  0.30969  0.80971  Biso   1.000  I
  I13125   1.0000 0.80971  0.30969  0.69031  Biso   1.000  I
  I13126   1.0000 0.30969  0.19029  0.30969  Biso   1.000  I
  I13127   1.0000 0.19029  0.30969  0.30969  Biso   1.000  I
  I13128   1.0000 0.30969  0.30969  0.19029  Biso   1.000  I
  I13129   1.0000 0.19029  0.69031  0.69031  Biso   1.000  I
  I13130   1.0000 0.30969  0.80971  0.69031  Biso   1.000  I
  I13131   1.0000 0.19029  0.80971  0.80971  Biso   1.000  I
  I13132   1.0000 0.19029  0.30969  0.30969  Biso   1.000  I
  I13133   1.0000 0.19029  0.19029  0.19029  Biso   1.000  I
  I13134   1.0000 0.30969  0.30969  0.19029  Biso   1.000  I
  I13135   1.0000 0.69031  0.30969  0.80971  Biso   1.000  I
  I13136   1.0000 0.80971  0.30969  0.69031  Biso   1.000  I
  I13137   1.0000 0.69031  0.19029  0.69031  Biso   1.000  I
  I13138   1.0000 0.19029  0.19029  0.19029  Biso   1.000  I
  I13139   1.0000 0.30969  0.30969  0.19029  Biso   1.000  I
  I13140   1.0000 0.69031  0.69031  0.19029  Biso   1.000  I
  I13141   1.0000 0.69031  0.80971  0.30969  Biso   1.000  I
  I13142   1.0000 0.80971  0.80971  0.19029  Biso   1.000  I
  I13143   1.0000 0.80971  0.80971  0.19029  Biso   1.000  I
  I13144   1.0000 0.69031  0.69031  0.19029  Biso   1.000  I
  I13145   1.0000 0.19029  0.30969  0.30969  Biso   1.000  I
  I13146   1.0000 0.19029  0.19029  0.19029  Biso   1.000  I
  I13147   1.0000 0.30969  0.30969  0.19029  Biso   1.000  I
  I13148   1.0000 0.19029  0.69031  0.69031  Biso   1.000  I
  I13149   1.0000 0.19029  0.80971  0.80971  Biso   1.000  I
  I13150   1.0000 0.80971  0.80971  0.19029  Biso   1.000  I
  I13151   1.0000 0.69031  0.69031  0.19029  Biso   1.000  I
  I13152   1.0000 0.80971  0.69031  0.30969  Biso   1.000  I
  I13153   1.0000 0.80971  0.19029  0.80971  Biso   1.000  I
  I13154   1.0000 0.69031  0.19029  0.69031  Biso   1.000  I
  I13155   1.0000 0.30969  0.19029  0.30969  Biso   1.000  I
  I13156   1.0000 0.19029  0.19029  0.19029  Biso   1.000  I
  I13157   1.0000 0.30969  0.30969  0.19029  Biso   1.000  I
  I13158   1.0000 0.19029  0.30969  0.30969  Biso   1.000  I
  I13159   1.0000 0.19029  0.19029  0.19029  Biso   1.000  I
  I13160   1.0000 0.30969  0.19029  0.30969  Biso   1.000  I
  I13161   1.0000 0.19029  0.30969  0.30969  Biso   1.000  I
  I13162   1.0000 0.19029  0.19029  0.19029  Biso   1.000  I
  I13163   1.0000 0.30969  0.30969  0.19029  Biso   1.000  I
  I13164   1.0000 0.80971  0.30969  0.69031  Biso   1.000  I
  I13165   1.0000 0.69031  0.30969  0.80971  Biso   1.000  I
  I13166   1.0000 0.80971  0.80971  0.19029  Biso   1.000  I
  I13167   1.0000 0.69031  0.69031  0.19029  Biso   1.000  I
  I13168   1.0000 0.30969  0.80971  0.69031  Biso   1.000  I
  I13169   1.0000 0.30969  0.69031  0.80971  Biso   1.000  I
  I13170   1.0000 0.30969  0.19029  0.30969  Biso   1.000  I
  I13171   1.0000 0.19029  0.30969  0.30969  Biso   1.000  I
  I13172   1.0000 0.30969  0.30969  0.19029  Biso   1.000  I
  I13173   1.0000 0.30969  0.19029  0.30969  Biso   1.000  I
  I13174   1.0000 0.19029  0.19029  0.19029  Biso   1.000  I
  I13175   1.0000 0.30969  0.30969  0.19029  Biso   1.000  I
  I13176   1.0000 0.51400  0.98598  0.48600  Biso   1.000  I
  I13177   1.0000 0.48600  0.01402  0.48600  Biso   1.000  I
  I13178   1.0000 0.51400  0.01402  0.51400  Biso   1.000  I
  I13179   1.0000 0.51400  0.48600  0.98598  Biso   1.000  I
  I13180   1.0000 0.48600  0.48600  0.01402  Biso   1.000  I
  I13181   1.0000 0.51400  0.51400  0.01402  Biso   1.000  I
  I13182   1.0000 0.98598  0.51400  0.48600  Biso   1.000  I
  I13183   1.0000 0.98598  0.48600  0.51400  Biso   1.000  I
  I13184   1.0000 0.01402  0.48600  0.48600  Biso   1.000  I
  I13185   1.0000 0.48600  0.98598  0.51400  Biso   1.000  I
  I13186   1.0000 0.51400  0.98598  0.48600  Biso   1.000  I
  I13187   1.0000 0.51400  0.01402  0.51400  Biso   1.000  I
  I13188   1.0000 0.51400  0.48600  0.98598  Biso   1.000  I
  I13189   1.0000 0.48600  0.51400  0.98598  Biso   1.000  I
  I13190   1.0000 0.51400  0.51400  0.01402  Biso   1.000  I
  I13191   1.0000 0.98598  0.01402  0.98598  Biso   1.000  I
  I13192   1.0000 0.51400  0.01402  0.51400  Biso   1.000  I
  I13193   1.0000 0.01402  0.01402  0.01402  Biso   1.000  I
  I13194   1.0000 0.01402  0.51400  0.51400  Biso   1.000  I
  I13195   1.0000 0.48600  0.01402  0.48600  Biso   1.000  I
  I13196   1.0000 0.48600  0.01402  0.48600  Biso   1.000  I
  I13197   1.0000 0.51400  0.48600  0.98598  Biso   1.000  I
  I13198   1.0000 0.48600  0.48600  0.01402  Biso   1.000  I
  I13199   1.0000 0.51400  0.51400  0.01402  Biso   1.000  I
  I13200   1.0000 0.51400  0.01402  0.51400  Biso   1.000  I
  I13201   1.0000 0.98598  0.01402  0.98598  Biso   1.000  I
  I13202   1.0000 0.48600  0.51400  0.98598  Biso   1.000  I
  I13203   1.0000 0.01402  0.01402  0.01402  Biso   1.000  I
  I13204   1.0000 0.48600  0.01402  0.48600  Biso   1.000  I
  I13205   1.0000 0.48600  0.98598  0.51400  Biso   1.000  I
  I13206   1.0000 0.51400  0.98598  0.48600  Biso   1.000  I
  I13207   1.0000 0.51400  0.01402  0.51400  Biso   1.000  I
  I13208   1.0000 0.98598  0.51400  0.48600  Biso   1.000  I
  I13209   1.0000 0.98598  0.48600  0.51400  Biso   1.000  I
  I13210   1.0000 0.01402  0.51400  0.51400  Biso   1.000  I
  I13211   1.0000 0.51400  0.48600  0.98598  Biso   1.000  I
  I13212   1.0000 0.48600  0.51400  0.98598  Biso   1.000  I
  I13213   1.0000 0.51400  0.51400  0.01402  Biso   1.000  I
  I13214   1.0000 0.48600  0.98598  0.51400  Biso   1.000  I
  I13215   1.0000 0.48600  0.01402  0.48600  Biso   1.000  I
  I13216   1.0000 0.51400  0.01402  0.51400  Biso   1.000  I
  I13217   1.0000 0.98598  0.48600  0.51400  Biso   1.000  I
  I13218   1.0000 0.01402  0.51400  0.51400  Biso   1.000  I
  I13219   1.0000 0.01402  0.48600  0.48600  Biso   1.000  I
  I13220   1.0000 0.51400  0.98598  0.48600  Biso   1.000  I
  I13221   1.0000 0.48600  0.01402  0.48600  Biso   1.000  I
  I13222   1.0000 0.51400  0.01402  0.51400  Biso   1.000  I
  I13223   1.0000 0.48600  0.48600  0.01402  Biso   1.000  I
  I13224   1.0000 0.98598  0.98598  0.01402  Biso   1.000  I
  I13225   1.0000 0.98598  0.01402  0.98598  Biso   1.000  I
  I13226   1.0000 0.01402  0.01402  0.01402  Biso   1.000  I
  I13227   1.0000 0.98598  0.51400  0.48600  Biso   1.000  I
  I13228   1.0000 0.98598  0.48600  0.51400  Biso   1.000  I
  I13229   1.0000 0.01402  0.51400  0.51400  Biso   1.000  I
  I13230   1.0000 0.51400  0.98598  0.48600  Biso   1.000  I
  I13231   1.0000 0.01402  0.98598  0.98598  Biso   1.000  I
  I13232   1.0000 0.48600  0.98598  0.51400  Biso   1.000  I
  I13233   1.0000 0.48600  0.01402  0.48600  Biso   1.000  I
  I13234   1.0000 0.51400  0.01402  0.51400  Biso   1.000  I
  I13235   1.0000 0.01402  0.48600  0.48600  Biso   1.000  I
  I13236   1.0000 0.48600  0.51400  0.98598  Biso   1.000  I
  I13237   1.0000 0.48600  0.48600  0.01402  Biso   1.000  I
  I13238   1.0000 0.51400  0.51400  0.01402  Biso   1.000  I
  I13239   1.0000 0.01402  0.01402  0.01402  Biso   1.000  I
  I13240   1.0000 0.48600  0.01402  0.48600  Biso   1.000  I
  I13241   1.0000 0.98598  0.51400  0.48600  Biso   1.000  I
  I13242   1.0000 0.98598  0.48600  0.51400  Biso   1.000  I
  I13243   1.0000 0.01402  0.51400  0.51400  Biso   1.000  I
  I13244   1.0000 0.98598  0.01402  0.98598  Biso   1.000  I
  I13245   1.0000 0.51400  0.01402  0.51400  Biso   1.000  I
  I13246   1.0000 0.51400  0.48600  0.98598  Biso   1.000  I
  I13247   1.0000 0.48600  0.98598  0.51400  Biso   1.000  I
  I13248   1.0000 0.48600  0.01402  0.48600  Biso   1.000  I
  I13249   1.0000 0.51400  0.01402  0.51400  Biso   1.000  I
  I13250   1.0000 0.01402  0.48600  0.48600  Biso   1.000  I
  I13251   1.0000 0.12502  0.37501  0.37501  Biso   1.000  I
  I13252   1.0000 0.26401  0.26401  0.23601  Biso   1.000  I
  I13253   1.0000 0.12502  0.12502  0.12502  Biso   1.000  I
  I13254   1.0000 0.37501  0.12502  0.37501  Biso   1.000  I
  I13255   1.0000 0.62499  0.87498  0.37501  Biso   1.000  I
  I13256   1.0000 0.87498  0.62499  0.37501  Biso   1.000  I
  I13257   1.0000 0.12502  0.62499  0.62499  Biso   1.000  I
  I13258   1.0000 0.12502  0.87498  0.87498  Biso   1.000  I
  I13259   1.0000 0.12502  0.37501  0.37501  Biso   1.000  I
  I13260   1.0000 0.12502  0.12502  0.12502  Biso   1.000  I
  I13261   1.0000 0.12502  0.62499  0.62499  Biso   1.000  I
  I13262   1.0000 0.26401  0.76399  0.73599  Biso   1.000  I
  I13263   1.0000 0.37501  0.62499  0.87498  Biso   1.000  I
  I13264   1.0000 0.12502  0.87498  0.87498  Biso   1.000  I
  I13265   1.0000 0.12502  0.37501  0.37501  Biso   1.000  I
  I13266   1.0000 0.37501  0.37501  0.12502  Biso   1.000  I
  I13267   1.0000 0.87498  0.12502  0.87498  Biso   1.000  I
  I13268   1.0000 0.73599  0.23601  0.73599  Biso   1.000  I
  I13269   1.0000 0.87498  0.37501  0.62499  Biso   1.000  I
  I13270   1.0000 0.62499  0.37501  0.87498  Biso   1.000  I
  I13271   1.0000 0.62499  0.37501  0.87498  Biso   1.000  I
  I13272   1.0000 0.87498  0.37501  0.62499  Biso   1.000  I
  I13273   1.0000 0.37501  0.12502  0.37501  Biso   1.000  I
  I13274   1.0000 0.23601  0.23601  0.23601  Biso   1.000  I
  I13275   1.0000 0.12502  0.37501  0.37501  Biso   1.000  I
  I13276   1.0000 0.37501  0.37501  0.12502  Biso   1.000  I
  I13277   1.0000 0.12502  0.62499  0.62499  Biso   1.000  I
  I13278   1.0000 0.26401  0.73599  0.76399  Biso   1.000  I
  I13279   1.0000 0.37501  0.87498  0.62499  Biso   1.000  I
  I13280   1.0000 0.12502  0.87498  0.87498  Biso   1.000  I
  I13281   1.0000 0.12502  0.37501  0.37501  Biso   1.000  I
  I13282   1.0000 0.26401  0.23601  0.26401  Biso   1.000  I
  I13283   1.0000 0.12502  0.12502  0.12502  Biso   1.000  I
  I13284   1.0000 0.37501  0.37501  0.12502  Biso   1.000  I
  I13285   1.0000 0.62499  0.37501  0.87498  Biso   1.000  I
  I13286   1.0000 0.76399  0.23601  0.76399  Biso   1.000  I
  I13287   1.0000 0.87498  0.37501  0.62499  Biso   1.000  I
  I13288   1.0000 0.62499  0.12502  0.62499  Biso   1.000  I
  I13289   1.0000 0.12502  0.12502  0.12502  Biso   1.000  I
  I13290   1.0000 0.37501  0.37501  0.12502  Biso   1.000  I
  I13291   1.0000 0.62499  0.62499  0.12502  Biso   1.000  I
  I13292   1.0000 0.76399  0.73599  0.26401  Biso   1.000  I
  I13293   1.0000 0.62499  0.87498  0.37501  Biso   1.000  I
  I13294   1.0000 0.87498  0.87498  0.12502  Biso   1.000  I
  I13295   1.0000 0.87498  0.87498  0.12502  Biso   1.000  I
  I13296   1.0000 0.62499  0.62499  0.12502  Biso   1.000  I
  I13297   1.0000 0.12502  0.37501  0.37501  Biso   1.000  I
  I13298   1.0000 0.26401  0.23601  0.26401  Biso   1.000  I
  I13299   1.0000 0.12502  0.12502  0.12502  Biso   1.000  I
  I13300   1.0000 0.37501  0.37501  0.12502  Biso   1.000  I
  I13301   1.0000 0.12502  0.62499  0.62499  Biso   1.000  I
  I13302   1.0000 0.12502  0.87498  0.87498  Biso   1.000  I
  I13303   1.0000 0.87498  0.87498  0.12502  Biso   1.000  I
  I13304   1.0000 0.73599  0.76399  0.26401  Biso   1.000  I
  I13305   1.0000 0.62499  0.62499  0.12502  Biso   1.000  I
  I13306   1.0000 0.87498  0.62499  0.37501  Biso   1.000  I
  I13307   1.0000 0.87498  0.12502  0.87498  Biso   1.000  I
  I13308   1.0000 0.62499  0.12502  0.62499  Biso   1.000  I
  I13309   1.0000 0.37501  0.12502  0.37501  Biso   1.000  I
  I13310   1.0000 0.23601  0.26401  0.26401  Biso   1.000  I
  I13311   1.0000 0.12502  0.12502  0.12502  Biso   1.000  I
  I13312   1.0000 0.37501  0.37501  0.12502  Biso   1.000  I
  I13313   1.0000 0.12502  0.37501  0.37501  Biso   1.000  I
  I13314   1.0000 0.26401  0.26401  0.23601  Biso   1.000  I
  I13315   1.0000 0.12502  0.12502  0.12502  Biso   1.000  I
  I13316   1.0000 0.37501  0.12502  0.37501  Biso   1.000  I
  I13317   1.0000 0.12502  0.37501  0.37501  Biso   1.000  I
  I13318   1.0000 0.26401  0.23601  0.26401  Biso   1.000  I
  I13319   1.0000 0.12502  0.12502  0.12502  Biso   1.000  I
  I13320   1.0000 0.37501  0.37501  0.12502  Biso   1.000  I
  I13321   1.0000 0.87498  0.37501  0.62499  Biso   1.000  I
  I13322   1.0000 0.62499  0.37501  0.87498  Biso   1.000  I
  I13323   1.0000 0.87498  0.87498  0.12502  Biso   1.000  I
  I13324   1.0000 0.62499  0.62499  0.12502  Biso   1.000  I
  I13325   1.0000 0.37501  0.87498  0.62499  Biso   1.000  I
  I13326   1.0000 0.37501  0.62499  0.87498  Biso   1.000  I
  I13327   1.0000 0.37501  0.12502  0.37501  Biso   1.000  I
  I13328   1.0000 0.23601  0.23601  0.23601  Biso   1.000  I
  I13329   1.0000 0.12502  0.37501  0.37501  Biso   1.000  I
  I13330   1.0000 0.37501  0.37501  0.12502  Biso   1.000  I
  I13331   1.0000 0.37501  0.12502  0.37501  Biso   1.000  I
  I13332   1.0000 0.23601  0.26401  0.26401  Biso   1.000  I
  I13333   1.0000 0.12502  0.12502  0.12502  Biso   1.000  I
  I13334   1.0000 0.37501  0.37501  0.12502  Biso   1.000  I
  I13335   1.0000 0.44028  0.05970  0.44028  Biso   1.000  I
  I13336   1.0000 0.55972  0.05970  0.55972  Biso   1.000  I
  I13337   1.0000 0.55972  0.94030  0.44028  Biso   1.000  I
  I13338   1.0000 0.55972  0.55972  0.05970  Biso   1.000  I
  I13339   1.0000 0.55972  0.44028  0.94030  Biso   1.000  I
  I13340   1.0000 0.05970  0.44028  0.44028  Biso   1.000  I
  I13341   1.0000 0.94030  0.55972  0.44028  Biso   1.000  I
  I13342   1.0000 0.55972  0.94030  0.44028  Biso   1.000  I
  I13343   1.0000 0.55972  0.05970  0.55972  Biso   1.000  I
  I13344   1.0000 0.44028  0.55972  0.94030  Biso   1.000  I
  I13345   1.0000 0.55972  0.55972  0.05970  Biso   1.000  I
  I13346   1.0000 0.55972  0.44028  0.94030  Biso   1.000  I
  I13347   1.0000 0.44028  0.44028  0.05970  Biso   1.000  I
  I13348   1.0000 0.55972  0.55972  0.05970  Biso   1.000  I
  I13349   1.0000 0.55972  0.44028  0.94030  Biso   1.000  I
  I13350   1.0000 0.55972  0.94030  0.44028  Biso   1.000  I
  I13351   1.0000 0.55972  0.05970  0.55972  Biso   1.000  I
  I13352   1.0000 0.44028  0.94030  0.55972  Biso   1.000  I
  I13353   1.0000 0.94030  0.44028  0.55972  Biso   1.000  I
  I13354   1.0000 0.05970  0.55972  0.55972  Biso   1.000  I
  I13355   1.0000 0.55972  0.55972  0.05970  Biso   1.000  I
  I13356   1.0000 0.55972  0.44028  0.94030  Biso   1.000  I
  I13357   1.0000 0.55972  0.05970  0.55972  Biso   1.000  I
  I13358   1.0000 0.44028  0.94030  0.55972  Biso   1.000  I
  I13359   1.0000 0.05970  0.55972  0.55972  Biso   1.000  I
  I13360   1.0000 0.05970  0.44028  0.44028  Biso   1.000  I
  I13361   1.0000 0.94030  0.44028  0.55972  Biso   1.000  I
  I13362   1.0000 0.44028  0.05970  0.44028  Biso   1.000  I
  I13363   1.0000 0.55972  0.05970  0.55972  Biso   1.000  I
  I13364   1.0000 0.55972  0.94030  0.44028  Biso   1.000  I
  I13365   1.0000 0.94030  0.05970  0.94030  Biso   1.000  I
  I13366   1.0000 0.05970  0.05970  0.05970  Biso   1.000  I
  I13367   1.0000 0.94030  0.44028  0.55972  Biso   1.000  I
  I13368   1.0000 0.05970  0.55972  0.55972  Biso   1.000  I
  I13369   1.0000 0.94030  0.55972  0.44028  Biso   1.000  I
  I13370   1.0000 0.44028  0.05970  0.44028  Biso   1.000  I
  I13371   1.0000 0.55972  0.05970  0.55972  Biso   1.000  I
  I13372   1.0000 0.44028  0.94030  0.55972  Biso   1.000  I
  I13373   1.0000 0.44028  0.44028  0.05970  Biso   1.000  I
  I13374   1.0000 0.44028  0.55972  0.94030  Biso   1.000  I
  I13375   1.0000 0.94030  0.44028  0.55972  Biso   1.000  I
  I13376   1.0000 0.05970  0.55972  0.55972  Biso   1.000  I
  I13377   1.0000 0.44028  0.05970  0.44028  Biso   1.000  I
  I13378   1.0000 0.55972  0.05970  0.55972  Biso   1.000  I
  I13379   1.0000 0.44028  0.94030  0.55972  Biso   1.000  I
  I13380   1.0000 0.05970  0.44028  0.44028  Biso   1.000  I
  I13381   1.0000 0.05970  0.05970  0.05970  Biso   1.000  I
  I13382   1.0000 0.55972  0.94030  0.44028  Biso   1.000  I
  I13383   1.0000 0.05970  0.55972  0.55972  Biso   1.000  I
  I13384   1.0000 0.05970  0.94030  0.94030  Biso   1.000  I
  I13385   1.0000 0.05970  0.44028  0.44028  Biso   1.000  I
  I13386   1.0000 0.05970  0.05970  0.05970  Biso   1.000  I
  I13387   1.0000 0.05970  0.55972  0.55972  Biso   1.000  I
  I13388   1.0000 0.05970  0.94030  0.94030  Biso   1.000  I
  I13389   1.0000 0.05970  0.44028  0.44028  Biso   1.000  I
  I13390   1.0000 0.44028  0.44028  0.05970  Biso   1.000  I
  I13391   1.0000 0.94030  0.44028  0.55972  Biso   1.000  I
  I13392   1.0000 0.55972  0.44028  0.94030  Biso   1.000  I
  I13393   1.0000 0.55972  0.44028  0.94030  Biso   1.000  I
  I13394   1.0000 0.94030  0.44028  0.55972  Biso   1.000  I
  I13395   1.0000 0.05970  0.44028  0.44028  Biso   1.000  I
  I13396   1.0000 0.44028  0.44028  0.05970  Biso   1.000  I
  I13397   1.0000 0.05970  0.55972  0.55972  Biso   1.000  I
  I13398   1.0000 0.44028  0.94030  0.55972  Biso   1.000  I
  I13399   1.0000 0.05970  0.94030  0.94030  Biso   1.000  I
  I13400   1.0000 0.05970  0.44028  0.44028  Biso   1.000  I
  I13401   1.0000 0.05970  0.05970  0.05970  Biso   1.000  I
  I13402   1.0000 0.44028  0.44028  0.05970  Biso   1.000  I
  I13403   1.0000 0.55972  0.44028  0.94030  Biso   1.000  I
  I13404   1.0000 0.94030  0.44028  0.55972  Biso   1.000  I
  I13405   1.0000 0.55972  0.05970  0.55972  Biso   1.000  I
  I13406   1.0000 0.05970  0.05970  0.05970  Biso   1.000  I
  I13407   1.0000 0.44028  0.44028  0.05970  Biso   1.000  I
  I13408   1.0000 0.55972  0.55972  0.05970  Biso   1.000  I
  I13409   1.0000 0.55972  0.94030  0.44028  Biso   1.000  I
  I13410   1.0000 0.94030  0.94030  0.05970  Biso   1.000  I
  I13411   1.0000 0.94030  0.94030  0.05970  Biso   1.000  I
  I13412   1.0000 0.55972  0.55972  0.05970  Biso   1.000  I
  I13413   1.0000 0.05970  0.44028  0.44028  Biso   1.000  I
  I13414   1.0000 0.05970  0.05970  0.05970  Biso   1.000  I
  I13415   1.0000 0.44028  0.44028  0.05970  Biso   1.000  I
  I13416   1.0000 0.05970  0.55972  0.55972  Biso   1.000  I
  I13417   1.0000 0.05970  0.94030  0.94030  Biso   1.000  I
  I13418   1.0000 0.94030  0.94030  0.05970  Biso   1.000  I
  I13419   1.0000 0.55972  0.55972  0.05970  Biso   1.000  I
  I13420   1.0000 0.94030  0.05970  0.94030  Biso   1.000  I
  I13421   1.0000 0.55972  0.05970  0.55972  Biso   1.000  I
  I13422   1.0000 0.44028  0.05970  0.44028  Biso   1.000  I
  I13423   1.0000 0.05970  0.05970  0.05970  Biso   1.000  I
  I13424   1.0000 0.44028  0.44028  0.05970  Biso   1.000  I
  I13425   1.0000 0.05970  0.44028  0.44028  Biso   1.000  I
  I13426   1.0000 0.05970  0.05970  0.05970  Biso   1.000  I
  I13427   1.0000 0.44028  0.05970  0.44028  Biso   1.000  I
  I13428   1.0000 0.05970  0.44028  0.44028  Biso   1.000  I
  I13429   1.0000 0.05970  0.05970  0.05970  Biso   1.000  I
  I13430   1.0000 0.44028  0.44028  0.05970  Biso   1.000  I
  I13431   1.0000 0.94030  0.44028  0.55972  Biso   1.000  I
  I13432   1.0000 0.55972  0.44028  0.94030  Biso   1.000  I
  I13433   1.0000 0.94030  0.94030  0.05970  Biso   1.000  I
  I13434   1.0000 0.55972  0.55972  0.05970  Biso   1.000  I
  I13435   1.0000 0.44028  0.94030  0.55972  Biso   1.000  I
  I13436   1.0000 0.05970  0.44028  0.44028  Biso   1.000  I
  I13437   1.0000 0.44028  0.44028  0.05970  Biso   1.000  I
  I13438   1.0000 0.05970  0.05970  0.05970  Biso   1.000  I
  I13439   1.0000 0.44028  0.44028  0.05970  Biso   1.000  I
  I13440   1.0000 0.48600  0.98598  0.51400  Biso   1.000  I
  I13441   1.0000 0.62499  0.12502  0.62499  Biso   1.000  I
  I13442   1.0000 0.62499  0.87498  0.37501  Biso   1.000  I
  I13443   1.0000 0.62499  0.62499  0.12502  Biso   1.000  I
  I13444   1.0000 0.62499  0.37501  0.87498  Biso   1.000  I
  I13445   1.0000 0.12502  0.37501  0.37501  Biso   1.000  I
  I13446   1.0000 0.62499  0.87498  0.37501  Biso   1.000  I
  I13447   1.0000 0.62499  0.12502  0.62499  Biso   1.000  I
  I13448   1.0000 0.48600  0.48600  0.01402  Biso   1.000  I
  I13449   1.0000 0.62499  0.62499  0.12502  Biso   1.000  I
  I13450   1.0000 0.62499  0.37501  0.87498  Biso   1.000  I
  I13451   1.0000 0.48600  0.51400  0.98598  Biso   1.000  I
  I13452   1.0000 0.37501  0.37501  0.12502  Biso   1.000  I
  I13453   1.0000 0.62499  0.62499  0.12502  Biso   1.000  I
  I13454   1.0000 0.62499  0.37501  0.87498  Biso   1.000  I
  I13455   1.0000 0.62499  0.87498  0.37501  Biso   1.000  I
  I13456   1.0000 0.48600  0.01402  0.48600  Biso   1.000  I
  I13457   1.0000 0.62499  0.12502  0.62499  Biso   1.000  I
  I13458   1.0000 0.37501  0.87498  0.62499  Biso   1.000  I
  I13459   1.0000 0.87498  0.37501  0.62499  Biso   1.000  I
  I13460   1.0000 0.12502  0.62499  0.62499  Biso   1.000  I
  I13461   1.0000 0.62499  0.62499  0.12502  Biso   1.000  I
  I13462   1.0000 0.62499  0.37501  0.87498  Biso   1.000  I
  I13463   1.0000 0.62499  0.12502  0.62499  Biso   1.000  I
  I13464   1.0000 0.37501  0.87498  0.62499  Biso   1.000  I
  I13465   1.0000 0.98598  0.51400  0.48600  Biso   1.000  I
  I13466   1.0000 0.12502  0.62499  0.62499  Biso   1.000  I
  I13467   1.0000 0.12502  0.37501  0.37501  Biso   1.000  I
  I13468   1.0000 0.87498  0.37501  0.62499  Biso   1.000  I
  I13469   1.0000 0.48600  0.98598  0.51400  Biso   1.000  I
  I13470   1.0000 0.62499  0.12502  0.62499  Biso   1.000  I
  I13471   1.0000 0.62499  0.87498  0.37501  Biso   1.000  I
  I13472   1.0000 0.12502  0.12502  0.12502  Biso   1.000  I
  I13473   1.0000 0.87498  0.37501  0.62499  Biso   1.000  I
  I13474   1.0000 0.01402  0.48600  0.48600  Biso   1.000  I
  I13475   1.0000 0.12502  0.62499  0.62499  Biso   1.000  I
  I13476   1.0000 0.51400  0.98598  0.48600  Biso   1.000  I
  I13477   1.0000 0.62499  0.12502  0.62499  Biso   1.000  I
  I13478   1.0000 0.37501  0.87498  0.62499  Biso   1.000  I
  I13479   1.0000 0.37501  0.37501  0.12502  Biso   1.000  I
  I13480   1.0000 0.87498  0.37501  0.62499  Biso   1.000  I
  I13481   1.0000 0.12502  0.62499  0.62499  Biso   1.000  I
  I13482   1.0000 0.51400  0.98598  0.48600  Biso   1.000  I
  I13483   1.0000 0.62499  0.12502  0.62499  Biso   1.000  I
  I13484   1.0000 0.37501  0.87498  0.62499  Biso   1.000  I
  I13485   1.0000 0.01402  0.51400  0.51400  Biso   1.000  I
  I13486   1.0000 0.01402  0.98598  0.98598  Biso   1.000  I
  I13487   1.0000 0.48600  0.98598  0.51400  Biso   1.000  I
  I13488   1.0000 0.48600  0.01402  0.48600  Biso   1.000  I
  I13489   1.0000 0.51400  0.01402  0.51400  Biso   1.000  I
  I13490   1.0000 0.01402  0.48600  0.48600  Biso   1.000  I
  I13491   1.0000 0.01402  0.01402  0.01402  Biso   1.000  I
  I13492   1.0000 0.01402  0.51400  0.51400  Biso   1.000  I
  I13493   1.0000 0.01402  0.98598  0.98598  Biso   1.000  I
  I13494   1.0000 0.01402  0.48600  0.48600  Biso   1.000  I
  I13495   1.0000 0.01402  0.01402  0.01402  Biso   1.000  I
  I13496   1.0000 0.98598  0.51400  0.48600  Biso   1.000  I
  I13497   1.0000 0.98598  0.48600  0.51400  Biso   1.000  I
  I13498   1.0000 0.01402  0.51400  0.51400  Biso   1.000  I
  I13499   1.0000 0.51400  0.48600  0.98598  Biso   1.000  I
  I13500   1.0000 0.48600  0.51400  0.98598  Biso   1.000  I
  I13501   1.0000 0.51400  0.51400  0.01402  Biso   1.000  I
  I13502   1.0000 0.98598  0.51400  0.48600  Biso   1.000  I
  I13503   1.0000 0.01402  0.51400  0.51400  Biso   1.000  I
  I13504   1.0000 0.01402  0.48600  0.48600  Biso   1.000  I
  I13505   1.0000 0.48600  0.51400  0.98598  Biso   1.000  I
  I13506   1.0000 0.48600  0.48600  0.01402  Biso   1.000  I
  I13507   1.0000 0.51400  0.51400  0.01402  Biso   1.000  I
  I13508   1.0000 0.48600  0.51400  0.98598  Biso   1.000  I
  I13509   1.0000 0.48600  0.48600  0.01402  Biso   1.000  I
  I13510   1.0000 0.51400  0.51400  0.01402  Biso   1.000  I
  I13511   1.0000 0.01402  0.48600  0.48600  Biso   1.000  I
  I13512   1.0000 0.98598  0.51400  0.48600  Biso   1.000  I
  I13513   1.0000 0.98598  0.48600  0.51400  Biso   1.000  I
  I13514   1.0000 0.01402  0.51400  0.51400  Biso   1.000  I
  I13515   1.0000 0.51400  0.48600  0.98598  Biso   1.000  I
  I13516   1.0000 0.01402  0.48600  0.48600  Biso   1.000  I
  I13517   1.0000 0.51400  0.98598  0.48600  Biso   1.000  I
  I13518   1.0000 0.48600  0.01402  0.48600  Biso   1.000  I
  I13519   1.0000 0.51400  0.01402  0.51400  Biso   1.000  I
  I13520   1.0000 0.01402  0.01402  0.01402  Biso   1.000  I
  I13521   1.0000 0.01402  0.51400  0.51400  Biso   1.000  I
  I13522   1.0000 0.01402  0.98598  0.98598  Biso   1.000  I
  I13523   1.0000 0.51400  0.48600  0.98598  Biso   1.000  I
  I13524   1.0000 0.48600  0.51400  0.98598  Biso   1.000  I
  I13525   1.0000 0.51400  0.51400  0.01402  Biso   1.000  I
  I13526   1.0000 0.48600  0.48600  0.01402  Biso   1.000  I
  I13527   1.0000 0.98598  0.51400  0.48600  Biso   1.000  I
  I13528   1.0000 0.01402  0.51400  0.51400  Biso   1.000  I
  I13529   1.0000 0.01402  0.48600  0.48600  Biso   1.000  I
  I13530   1.0000 0.48600  0.98598  0.51400  Biso   1.000  I
  I13531   1.0000 0.98598  0.98598  0.01402  Biso   1.000  I
  I13532   1.0000 0.51400  0.51400  0.01402  Biso   1.000  I
  I13533   1.0000 0.48600  0.48600  0.01402  Biso   1.000  I
  I13534   1.0000 0.01402  0.01402  0.01402  Biso   1.000  I
  I13535   1.0000 0.01402  0.01402  0.01402  Biso   1.000  I
  I13536   1.0000 0.48600  0.48600  0.01402  Biso   1.000  I
  I13537   1.0000 0.01402  0.51400  0.51400  Biso   1.000  I
  I13538   1.0000 0.51400  0.51400  0.01402  Biso   1.000  I
  I13539   1.0000 0.01402  0.48600  0.48600  Biso   1.000  I
  I13540   1.0000 0.01402  0.01402  0.01402  Biso   1.000  I
  I13541   1.0000 0.01402  0.01402  0.01402  Biso   1.000  I
  I13542   1.0000 0.48600  0.48600  0.01402  Biso   1.000  I
  I13543   1.0000 0.01402  0.01402  0.01402  Biso   1.000  I
  I13544   1.0000 0.48600  0.01402  0.48600  Biso   1.000  I
  I13545   1.0000 0.51400  0.01402  0.51400  Biso   1.000  I
  I13546   1.0000 0.51400  0.51400  0.01402  Biso   1.000  I
  I13547   1.0000 0.01402  0.51400  0.51400  Biso   1.000  I
  I13548   1.0000 0.51400  0.01402  0.51400  Biso   1.000  I
  I13549   1.0000 0.98598  0.48600  0.51400  Biso   1.000  I
  I13550   1.0000 0.98598  0.98598  0.01402  Biso   1.000  I
  I13551   1.0000 0.51400  0.51400  0.01402  Biso   1.000  I
  I13552   1.0000 0.98598  0.51400  0.48600  Biso   1.000  I
  I13553   1.0000 0.01402  0.51400  0.51400  Biso   1.000  I
  I13554   1.0000 0.01402  0.48600  0.48600  Biso   1.000  I
  I13555   1.0000 0.48600  0.48600  0.01402  Biso   1.000  I
  I13556   1.0000 0.01402  0.01402  0.01402  Biso   1.000  I
  I13557   1.0000 0.48600  0.48600  0.01402  Biso   1.000  I
  I13558   1.0000 0.51400  0.98598  0.48600  Biso   1.000  I
  I13559   1.0000 0.48600  0.01402  0.48600  Biso   1.000  I
  I13560   1.0000 0.51400  0.01402  0.51400  Biso   1.000  I
  I13561   1.0000 0.98598  0.48600  0.51400  Biso   1.000  I
  I13562   1.0000 0.51400  0.48600  0.98598  Biso   1.000  I
  I13563   1.0000 0.48600  0.51400  0.98598  Biso   1.000  I
  I13564   1.0000 0.51400  0.51400  0.01402  Biso   1.000  I
  I13565   1.0000 0.98598  0.98598  0.01402  Biso   1.000  I
  I13566   1.0000 0.51400  0.51400  0.01402  Biso   1.000  I
  I13567   1.0000 0.69031  0.19029  0.69031  Biso   1.000  I
  I13568   1.0000 0.69031  0.80971  0.30969  Biso   1.000  I
  I13569   1.0000 0.69031  0.69031  0.19029  Biso   1.000  I
  I13570   1.0000 0.69031  0.30969  0.80971  Biso   1.000  I
  I13571   1.0000 0.19029  0.30969  0.30969  Biso   1.000  I
  I13572   1.0000 0.69031  0.80971  0.30969  Biso   1.000  I
  I13573   1.0000 0.69031  0.19029  0.69031  Biso   1.000  I
  I13574   1.0000 0.69031  0.69031  0.19029  Biso   1.000  I
  I13575   1.0000 0.69031  0.30969  0.80971  Biso   1.000  I
  I13576   1.0000 0.30969  0.30969  0.19029  Biso   1.000  I
  I13577   1.0000 0.69031  0.69031  0.19029  Biso   1.000  I
  I13578   1.0000 0.69031  0.30969  0.80971  Biso   1.000  I
  I13579   1.0000 0.69031  0.80971  0.30969  Biso   1.000  I
  I13580   1.0000 0.69031  0.19029  0.69031  Biso   1.000  I
  I13581   1.0000 0.30969  0.80971  0.69031  Biso   1.000  I
  I13582   1.0000 0.80971  0.30969  0.69031  Biso   1.000  I
  I13583   1.0000 0.19029  0.69031  0.69031  Biso   1.000  I
  I13584   1.0000 0.69031  0.69031  0.19029  Biso   1.000  I
  I13585   1.0000 0.69031  0.30969  0.80971  Biso   1.000  I
  I13586   1.0000 0.69031  0.19029  0.69031  Biso   1.000  I
  I13587   1.0000 0.30969  0.80971  0.69031  Biso   1.000  I
  I13588   1.0000 0.19029  0.69031  0.69031  Biso   1.000  I
  I13589   1.0000 0.19029  0.30969  0.30969  Biso   1.000  I
  I13590   1.0000 0.80971  0.30969  0.69031  Biso   1.000  I
  I13591   1.0000 0.69031  0.19029  0.69031  Biso   1.000  I
  I13592   1.0000 0.69031  0.80971  0.30969  Biso   1.000  I
  I13593   1.0000 0.19029  0.19029  0.19029  Biso   1.000  I
  I13594   1.0000 0.80971  0.30969  0.69031  Biso   1.000  I
  I13595   1.0000 0.19029  0.69031  0.69031  Biso   1.000  I
  I13596   1.0000 0.69031  0.19029  0.69031  Biso   1.000  I
  I13597   1.0000 0.30969  0.80971  0.69031  Biso   1.000  I
  I13598   1.0000 0.30969  0.30969  0.19029  Biso   1.000  I
  I13599   1.0000 0.80971  0.30969  0.69031  Biso   1.000  I
  I13600   1.0000 0.19029  0.69031  0.69031  Biso   1.000  I
  I13601   1.0000 0.69031  0.19029  0.69031  Biso   1.000  I
  I13602   1.0000 0.30969  0.80971  0.69031  Biso   1.000  I
  I13603   1.0000 0.44028  0.05970  0.44028  Biso   1.000  I
  I13604   1.0000 0.55972  0.05970  0.55972  Biso   1.000  I
  I13605   1.0000 0.44028  0.94030  0.55972  Biso   1.000  I
  I13606   1.0000 0.05970  0.55972  0.55972  Biso   1.000  I
  I13607   1.0000 0.94030  0.55972  0.44028  Biso   1.000  I
  I13608   1.0000 0.44028  0.55972  0.94030  Biso   1.000  I
  I13609   1.0000 0.55972  0.55972  0.05970  Biso   1.000  I
  I13610   1.0000 0.05970  0.55972  0.55972  Biso   1.000  I
  I13611   1.0000 0.94030  0.55972  0.44028  Biso   1.000  I
  I13612   1.0000 0.55972  0.55972  0.05970  Biso   1.000  I
  I13613   1.0000 0.44028  0.55972  0.94030  Biso   1.000  I
  I13614   1.0000 0.44028  0.44028  0.05970  Biso   1.000  I
  I13615   1.0000 0.55972  0.55972  0.05970  Biso   1.000  I
  I13616   1.0000 0.44028  0.55972  0.94030  Biso   1.000  I
  I13617   1.0000 0.94030  0.44028  0.55972  Biso   1.000  I
  I13618   1.0000 0.05970  0.55972  0.55972  Biso   1.000  I
  I13619   1.0000 0.94030  0.55972  0.44028  Biso   1.000  I
  I13620   1.0000 0.44028  0.05970  0.44028  Biso   1.000  I
  I13621   1.0000 0.44028  0.55972  0.94030  Biso   1.000  I
  I13622   1.0000 0.55972  0.55972  0.05970  Biso   1.000  I
  I13623   1.0000 0.05970  0.55972  0.55972  Biso   1.000  I
  I13624   1.0000 0.94030  0.55972  0.44028  Biso   1.000  I
  I13625   1.0000 0.05970  0.55972  0.55972  Biso   1.000  I
  I13626   1.0000 0.05970  0.44028  0.44028  Biso   1.000  I
  I13627   1.0000 0.94030  0.55972  0.44028  Biso   1.000  I
  I13628   1.0000 0.44028  0.05970  0.44028  Biso   1.000  I
  I13629   1.0000 0.55972  0.05970  0.55972  Biso   1.000  I
  I13630   1.0000 0.55972  0.94030  0.44028  Biso   1.000  I
  I13631   1.0000 0.44028  0.55972  0.94030  Biso   1.000  I
  I13632   1.0000 0.55972  0.55972  0.05970  Biso   1.000  I
  I13633   1.0000 0.55972  0.44028  0.94030  Biso   1.000  I
  I13634   1.0000 0.73599  0.26401  0.76399  Biso   1.000  I
  I13635   1.0000 0.76399  0.23601  0.76399  Biso   1.000  I
  I13636   1.0000 0.76399  0.26401  0.73599  Biso   1.000  I
  I13637   1.0000 0.76399  0.73599  0.26401  Biso   1.000  I
  I13638   1.0000 0.76399  0.76399  0.23601  Biso   1.000  I
  I13639   1.0000 0.73599  0.73599  0.23601  Biso   1.000  I
  I13640   1.0000 0.76399  0.73599  0.26401  Biso   1.000  I
  I13641   1.0000 0.76399  0.76399  0.23601  Biso   1.000  I
  I13642   1.0000 0.73599  0.76399  0.26401  Biso   1.000  I
  I13643   1.0000 0.73599  0.23601  0.73599  Biso   1.000  I
  I13644   1.0000 0.76399  0.23601  0.76399  Biso   1.000  I
  I13645   1.0000 0.76399  0.26401  0.73599  Biso   1.000  I
  I13646   1.0000 0.26401  0.26401  0.23601  Biso   1.000  I
  I13647   1.0000 0.26401  0.23601  0.26401  Biso   1.000  I
  I13648   1.0000 0.23601  0.23601  0.23601  Biso   1.000  I
  I13649   1.0000 0.73599  0.73599  0.23601  Biso   1.000  I
  I13650   1.0000 0.73599  0.26401  0.76399  Biso   1.000  I
  I13651   1.0000 0.76399  0.23601  0.76399  Biso   1.000  I
  I13652   1.0000 0.76399  0.26401  0.73599  Biso   1.000  I
  I13653   1.0000 0.76399  0.73599  0.26401  Biso   1.000  I
  I13654   1.0000 0.76399  0.76399  0.23601  Biso   1.000  I
  I13655   1.0000 0.73599  0.76399  0.26401  Biso   1.000  I
  I13656   1.0000 0.73599  0.23601  0.73599  Biso   1.000  I
  I13657   1.0000 0.26401  0.23601  0.26401  Biso   1.000  I
  I13658   1.0000 0.23601  0.26401  0.26401  Biso   1.000  I
  I13659   1.0000 0.23601  0.23601  0.23601  Biso   1.000  I
  I13660   1.0000 0.76399  0.73599  0.26401  Biso   1.000  I
  I13661   1.0000 0.76399  0.76399  0.23601  Biso   1.000  I
  I13662   1.0000 0.73599  0.76399  0.26401  Biso   1.000  I
  I13663   1.0000 0.73599  0.23601  0.73599  Biso   1.000  I
  I13664   1.0000 0.76399  0.23601  0.76399  Biso   1.000  I
  I13665   1.0000 0.76399  0.26401  0.73599  Biso   1.000  I
  I13666   1.0000 0.73599  0.73599  0.23601  Biso   1.000  I
  I13667   1.0000 0.73599  0.26401  0.76399  Biso   1.000  I
  I13668   1.0000 0.76399  0.23601  0.76399  Biso   1.000  I
  I13669   1.0000 0.76399  0.26401  0.73599  Biso   1.000  I
  I13670   1.0000 0.23601  0.76399  0.76399  Biso   1.000  I
  I13671   1.0000 0.23601  0.73599  0.73599  Biso   1.000  I
  I13672   1.0000 0.26401  0.73599  0.76399  Biso   1.000  I
  I13673   1.0000 0.73599  0.23601  0.73599  Biso   1.000  I
  I13674   1.0000 0.73599  0.26401  0.76399  Biso   1.000  I
  I13675   1.0000 0.76399  0.23601  0.76399  Biso   1.000  I
  I13676   1.0000 0.23601  0.76399  0.76399  Biso   1.000  I
  I13677   1.0000 0.26401  0.76399  0.73599  Biso   1.000  I
  I13678   1.0000 0.26401  0.73599  0.76399  Biso   1.000  I
  I13679   1.0000 0.76399  0.73599  0.26401  Biso   1.000  I
  I13680   1.0000 0.76399  0.76399  0.23601  Biso   1.000  I
  I13681   1.0000 0.73599  0.76399  0.26401  Biso   1.000  I
  I13682   1.0000 0.73599  0.23601  0.73599  Biso   1.000  I
  I13683   1.0000 0.76399  0.26401  0.73599  Biso   1.000  I
  I13684   1.0000 0.23601  0.76399  0.76399  Biso   1.000  I
  I13685   1.0000 0.23601  0.73599  0.73599  Biso   1.000  I
  I13686   1.0000 0.26401  0.73599  0.76399  Biso   1.000  I
  I13687   1.0000 0.26401  0.76399  0.73599  Biso   1.000  I
  I13688   1.0000 0.26401  0.26401  0.23601  Biso   1.000  I
  I13689   1.0000 0.73599  0.23601  0.73599  Biso   1.000  I
  I13690   1.0000 0.73599  0.26401  0.76399  Biso   1.000  I
  I13691   1.0000 0.76399  0.23601  0.76399  Biso   1.000  I
  I13692   1.0000 0.73599  0.26401  0.76399  Biso   1.000  I
  I13693   1.0000 0.76399  0.23601  0.76399  Biso   1.000  I
  I13694   1.0000 0.76399  0.26401  0.73599  Biso   1.000  I
  I13695   1.0000 0.73599  0.73599  0.23601  Biso   1.000  I
  I13696   1.0000 0.26401  0.26401  0.23601  Biso   1.000  I
  I13697   1.0000 0.26401  0.23601  0.26401  Biso   1.000  I
  I13698   1.0000 0.23601  0.26401  0.26401  Biso   1.000  I
  I13699   1.0000 0.73599  0.23601  0.73599  Biso   1.000  I
  I13700   1.0000 0.73599  0.26401  0.76399  Biso   1.000  I
  I13701   1.0000 0.76399  0.23601  0.76399  Biso   1.000  I
  I13702   1.0000 0.23601  0.76399  0.76399  Biso   1.000  I
  I13703   1.0000 0.26401  0.76399  0.73599  Biso   1.000  I
  I13704   1.0000 0.26401  0.73599  0.76399  Biso   1.000  I
  I13705   1.0000 0.73599  0.26401  0.76399  Biso   1.000  I
  I13706   1.0000 0.76399  0.23601  0.76399  Biso   1.000  I
  I13707   1.0000 0.76399  0.26401  0.73599  Biso   1.000  I
  I13708   1.0000 0.23601  0.73599  0.73599  Biso   1.000  I
  I13709   1.0000 0.26401  0.23601  0.26401  Biso   1.000  I
  I13710   1.0000 0.23601  0.26401  0.26401  Biso   1.000  I
  I13711   1.0000 0.23601  0.23601  0.23601  Biso   1.000  I
  I13712   1.0000 0.73599  0.23601  0.73599  Biso   1.000  I
  I13713   1.0000 0.73599  0.26401  0.76399  Biso   1.000  I
  I13714   1.0000 0.76399  0.23601  0.76399  Biso   1.000  I
  I13715   1.0000 0.26401  0.76399  0.73599  Biso   1.000  I
  I13716   1.0000 0.76399  0.26401  0.73599  Biso   1.000  I
  I13717   1.0000 0.23601  0.76399  0.76399  Biso   1.000  I
  I13718   1.0000 0.23601  0.73599  0.73599  Biso   1.000  I
  I13719   1.0000 0.26401  0.73599  0.76399  Biso   1.000  I
  I13720   1.0000 0.51400  0.98598  0.48600  Biso   1.000  I
  I13721   1.0000 0.37501  0.12502  0.37501  Biso   1.000  I
  I13722   1.0000 0.62499  0.12502  0.62499  Biso   1.000  I
  I13723   1.0000 0.37501  0.87498  0.62499  Biso   1.000  I
  I13724   1.0000 0.12502  0.62499  0.62499  Biso   1.000  I
  I13725   1.0000 0.87498  0.62499  0.37501  Biso   1.000  I
  I13726   1.0000 0.37501  0.62499  0.87498  Biso   1.000  I
  I13727   1.0000 0.62499  0.62499  0.12502  Biso   1.000  I
  I13728   1.0000 0.12502  0.62499  0.62499  Biso   1.000  I
  I13729   1.0000 0.87498  0.62499  0.37501  Biso   1.000  I
  I13730   1.0000 0.62499  0.62499  0.12502  Biso   1.000  I
  I13731   1.0000 0.37501  0.62499  0.87498  Biso   1.000  I
  I13732   1.0000 0.51400  0.48600  0.98598  Biso   1.000  I
  I13733   1.0000 0.37501  0.37501  0.12502  Biso   1.000  I
  I13734   1.0000 0.62499  0.62499  0.12502  Biso   1.000  I
  I13735   1.0000 0.37501  0.62499  0.87498  Biso   1.000  I
  I13736   1.0000 0.87498  0.37501  0.62499  Biso   1.000  I
  I13737   1.0000 0.01402  0.48600  0.48600  Biso   1.000  I
  I13738   1.0000 0.12502  0.62499  0.62499  Biso   1.000  I
  I13739   1.0000 0.87498  0.62499  0.37501  Biso   1.000  I
  I13740   1.0000 0.37501  0.12502  0.37501  Biso   1.000  I
  I13741   1.0000 0.37501  0.62499  0.87498  Biso   1.000  I
  I13742   1.0000 0.62499  0.62499  0.12502  Biso   1.000  I
  I13743   1.0000 0.12502  0.62499  0.62499  Biso   1.000  I
  I13744   1.0000 0.87498  0.62499  0.37501  Biso   1.000  I
  I13745   1.0000 0.98598  0.48600  0.51400  Biso   1.000  I
  I13746   1.0000 0.12502  0.62499  0.62499  Biso   1.000  I
  I13747   1.0000 0.12502  0.37501  0.37501  Biso   1.000  I
  I13748   1.0000 0.87498  0.62499  0.37501  Biso   1.000  I
  I13749   1.0000 0.48600  0.98598  0.51400  Biso   1.000  I
  I13750   1.0000 0.37501  0.12502  0.37501  Biso   1.000  I
  I13751   1.0000 0.62499  0.12502  0.62499  Biso   1.000  I
  I13752   1.0000 0.62499  0.87498  0.37501  Biso   1.000  I
  I13753   1.0000 0.37501  0.62499  0.87498  Biso   1.000  I
  I13754   1.0000 0.48600  0.48600  0.01402  Biso   1.000  I
  I13755   1.0000 0.62499  0.62499  0.12502  Biso   1.000  I
  I13756   1.0000 0.62499  0.37501  0.87498  Biso   1.000  I
  I13757   1.0000 0.80971  0.19029  0.80971  Biso   1.000  I
  I13758   1.0000 0.80971  0.30969  0.69031  Biso   1.000  I
  I13759   1.0000 0.80971  0.80971  0.19029  Biso   1.000  I
  I13760   1.0000 0.69031  0.69031  0.19029  Biso   1.000  I
  I13761   1.0000 0.80971  0.69031  0.30969  Biso   1.000  I
  I13762   1.0000 0.80971  0.80971  0.19029  Biso   1.000  I
  I13763   1.0000 0.80971  0.69031  0.30969  Biso   1.000  I
  I13764   1.0000 0.80971  0.19029  0.80971  Biso   1.000  I
  I13765   1.0000 0.80971  0.30969  0.69031  Biso   1.000  I
  I13766   1.0000 0.69031  0.19029  0.69031  Biso   1.000  I
  I13767   1.0000 0.30969  0.19029  0.30969  Biso   1.000  I
  I13768   1.0000 0.19029  0.19029  0.19029  Biso   1.000  I
  I13769   1.0000 0.30969  0.30969  0.19029  Biso   1.000  I
  I13770   1.0000 0.80971  0.19029  0.80971  Biso   1.000  I
  I13771   1.0000 0.80971  0.30969  0.69031  Biso   1.000  I
  I13772   1.0000 0.80971  0.80971  0.19029  Biso   1.000  I
  I13773   1.0000 0.80971  0.69031  0.30969  Biso   1.000  I
  I13774   1.0000 0.19029  0.19029  0.19029  Biso   1.000  I
  I13775   1.0000 0.30969  0.19029  0.30969  Biso   1.000  I
  I13776   1.0000 0.80971  0.80971  0.19029  Biso   1.000  I
  I13777   1.0000 0.80971  0.69031  0.30969  Biso   1.000  I
  I13778   1.0000 0.80971  0.19029  0.80971  Biso   1.000  I
  I13779   1.0000 0.80971  0.30969  0.69031  Biso   1.000  I
  I13780   1.0000 0.69031  0.19029  0.69031  Biso   1.000  I
  I13781   1.0000 0.80971  0.19029  0.80971  Biso   1.000  I
  I13782   1.0000 0.80971  0.30969  0.69031  Biso   1.000  I
  I13783   1.0000 0.69031  0.30969  0.80971  Biso   1.000  I
  I13784   1.0000 0.30969  0.69031  0.80971  Biso   1.000  I
  I13785   1.0000 0.19029  0.80971  0.80971  Biso   1.000  I
  I13786   1.0000 0.69031  0.30969  0.80971  Biso   1.000  I
  I13787   1.0000 0.80971  0.19029  0.80971  Biso   1.000  I
  I13788   1.0000 0.30969  0.80971  0.69031  Biso   1.000  I
  I13789   1.0000 0.30969  0.69031  0.80971  Biso   1.000  I
  I13790   1.0000 0.19029  0.80971  0.80971  Biso   1.000  I
  I13791   1.0000 0.80971  0.80971  0.19029  Biso   1.000  I
  I13792   1.0000 0.69031  0.80971  0.30969  Biso   1.000  I
  I13793   1.0000 0.80971  0.69031  0.30969  Biso   1.000  I
  I13794   1.0000 0.30969  0.69031  0.80971  Biso   1.000  I
  I13795   1.0000 0.19029  0.80971  0.80971  Biso   1.000  I
  I13796   1.0000 0.69031  0.30969  0.80971  Biso   1.000  I
  I13797   1.0000 0.80971  0.19029  0.80971  Biso   1.000  I
  I13798   1.0000 0.69031  0.19029  0.69031  Biso   1.000  I
  I13799   1.0000 0.80971  0.19029  0.80971  Biso   1.000  I
  I13800   1.0000 0.80971  0.30969  0.69031  Biso   1.000  I
  I13801   1.0000 0.69031  0.30969  0.80971  Biso   1.000  I
  I13802   1.0000 0.30969  0.19029  0.30969  Biso   1.000  I
  I13803   1.0000 0.19029  0.30969  0.30969  Biso   1.000  I
  I13804   1.0000 0.30969  0.30969  0.19029  Biso   1.000  I
  I13805   1.0000 0.69031  0.30969  0.80971  Biso   1.000  I
  I13806   1.0000 0.80971  0.19029  0.80971  Biso   1.000  I
  I13807   1.0000 0.30969  0.69031  0.80971  Biso   1.000  I
  I13808   1.0000 0.19029  0.80971  0.80971  Biso   1.000  I
  I13809   1.0000 0.80971  0.19029  0.80971  Biso   1.000  I
  I13810   1.0000 0.80971  0.30969  0.69031  Biso   1.000  I
  I13811   1.0000 0.69031  0.30969  0.80971  Biso   1.000  I
  I13812   1.0000 0.19029  0.30969  0.30969  Biso   1.000  I
  I13813   1.0000 0.19029  0.19029  0.19029  Biso   1.000  I
  I13814   1.0000 0.30969  0.19029  0.30969  Biso   1.000  I
  I13815   1.0000 0.69031  0.30969  0.80971  Biso   1.000  I
  I13816   1.0000 0.80971  0.19029  0.80971  Biso   1.000  I
  I13817   1.0000 0.69031  0.19029  0.69031  Biso   1.000  I
  I13818   1.0000 0.19029  0.69031  0.69031  Biso   1.000  I
  I13819   1.0000 0.30969  0.69031  0.80971  Biso   1.000  I
  I13820   1.0000 0.19029  0.80971  0.80971  Biso   1.000  I
  I13821   1.0000 0.30969  0.19029  0.30969  Biso   1.000  I
  I13822   1.0000 0.69031  0.19029  0.69031  Biso   1.000  I
  I13823   1.0000 0.30969  0.80971  0.69031  Biso   1.000  I
  I13824   1.0000 0.19029  0.69031  0.69031  Biso   1.000  I
  I13825   1.0000 0.80971  0.69031  0.30969  Biso   1.000  I
  I13826   1.0000 0.30969  0.69031  0.80971  Biso   1.000  I
  I13827   1.0000 0.69031  0.69031  0.19029  Biso   1.000  I
  I13828   1.0000 0.19029  0.69031  0.69031  Biso   1.000  I
  I13829   1.0000 0.80971  0.69031  0.30969  Biso   1.000  I
  I13830   1.0000 0.69031  0.69031  0.19029  Biso   1.000  I
  I13831   1.0000 0.30969  0.69031  0.80971  Biso   1.000  I
  I13832   1.0000 0.30969  0.30969  0.19029  Biso   1.000  I
  I13833   1.0000 0.69031  0.69031  0.19029  Biso   1.000  I
  I13834   1.0000 0.30969  0.69031  0.80971  Biso   1.000  I
  I13835   1.0000 0.80971  0.30969  0.69031  Biso   1.000  I
  I13836   1.0000 0.19029  0.69031  0.69031  Biso   1.000  I
  I13837   1.0000 0.80971  0.69031  0.30969  Biso   1.000  I
  I13838   1.0000 0.30969  0.19029  0.30969  Biso   1.000  I
  I13839   1.0000 0.30969  0.69031  0.80971  Biso   1.000  I
  I13840   1.0000 0.69031  0.69031  0.19029  Biso   1.000  I
  I13841   1.0000 0.19029  0.69031  0.69031  Biso   1.000  I
  I13842   1.0000 0.80971  0.69031  0.30969  Biso   1.000  I
  I13843   1.0000 0.19029  0.69031  0.69031  Biso   1.000  I
  I13844   1.0000 0.19029  0.30969  0.30969  Biso   1.000  I
  I13845   1.0000 0.80971  0.69031  0.30969  Biso   1.000  I
  I13846   1.0000 0.30969  0.19029  0.30969  Biso   1.000  I
  I13847   1.0000 0.69031  0.19029  0.69031  Biso   1.000  I
  I13848   1.0000 0.69031  0.80971  0.30969  Biso   1.000  I
  I13849   1.0000 0.30969  0.69031  0.80971  Biso   1.000  I
  I13850   1.0000 0.69031  0.69031  0.19029  Biso   1.000  I
  I13851   1.0000 0.69031  0.30969  0.80971  Biso   1.000  I
  I13852   1.0000 0.87498  0.12502  0.87498  Biso   1.000  I
  I13853   1.0000 0.87498  0.37501  0.62499  Biso   1.000  I
  I13854   1.0000 0.87498  0.87498  0.12502  Biso   1.000  I
  I13855   1.0000 0.73599  0.76399  0.26401  Biso   1.000  I
  I13856   1.0000 0.62499  0.62499  0.12502  Biso   1.000  I
  I13857   1.0000 0.87498  0.62499  0.37501  Biso   1.000  I
  I13858   1.0000 0.87498  0.87498  0.12502  Biso   1.000  I
  I13859   1.0000 0.87498  0.62499  0.37501  Biso   1.000  I
  I13860   1.0000 0.87498  0.12502  0.87498  Biso   1.000  I
  I13861   1.0000 0.73599  0.26401  0.76399  Biso   1.000  I
  I13862   1.0000 0.87498  0.37501  0.62499  Biso   1.000  I
  I13863   1.0000 0.62499  0.12502  0.62499  Biso   1.000  I
  I13864   1.0000 0.37501  0.12502  0.37501  Biso   1.000  I
  I13865   1.0000 0.23601  0.26401  0.26401  Biso   1.000  I
  I13866   1.0000 0.12502  0.12502  0.12502  Biso   1.000  I
  I13867   1.0000 0.37501  0.37501  0.12502  Biso   1.000  I
  I13868   1.0000 0.87498  0.12502  0.87498  Biso   1.000  I
  I13869   1.0000 0.87498  0.37501  0.62499  Biso   1.000  I
  I13870   1.0000 0.87498  0.87498  0.12502  Biso   1.000  I
  I13871   1.0000 0.87498  0.62499  0.37501  Biso   1.000  I
  I13872   1.0000 0.12502  0.12502  0.12502  Biso   1.000  I
  I13873   1.0000 0.37501  0.12502  0.37501  Biso   1.000  I
  I13874   1.0000 0.87498  0.87498  0.12502  Biso   1.000  I
  I13875   1.0000 0.87498  0.62499  0.37501  Biso   1.000  I
  I13876   1.0000 0.87498  0.12502  0.87498  Biso   1.000  I
  I13877   1.0000 0.73599  0.26401  0.76399  Biso   1.000  I
  I13878   1.0000 0.87498  0.37501  0.62499  Biso   1.000  I
  I13879   1.0000 0.62499  0.12502  0.62499  Biso   1.000  I
  I13880   1.0000 0.87498  0.12502  0.87498  Biso   1.000  I
  I13881   1.0000 0.73599  0.23601  0.73599  Biso   1.000  I
  I13882   1.0000 0.87498  0.37501  0.62499  Biso   1.000  I
  I13883   1.0000 0.62499  0.37501  0.87498  Biso   1.000  I
  I13884   1.0000 0.37501  0.62499  0.87498  Biso   1.000  I
  I13885   1.0000 0.12502  0.87498  0.87498  Biso   1.000  I
  I13886   1.0000 0.62499  0.37501  0.87498  Biso   1.000  I
  I13887   1.0000 0.87498  0.12502  0.87498  Biso   1.000  I
  I13888   1.0000 0.37501  0.87498  0.62499  Biso   1.000  I
  I13889   1.0000 0.23601  0.73599  0.73599  Biso   1.000  I
  I13890   1.0000 0.37501  0.62499  0.87498  Biso   1.000  I
  I13891   1.0000 0.12502  0.87498  0.87498  Biso   1.000  I
  I13892   1.0000 0.87498  0.87498  0.12502  Biso   1.000  I
  I13893   1.0000 0.73599  0.73599  0.23601  Biso   1.000  I
  I13894   1.0000 0.62499  0.87498  0.37501  Biso   1.000  I
  I13895   1.0000 0.87498  0.62499  0.37501  Biso   1.000  I
  I13896   1.0000 0.37501  0.62499  0.87498  Biso   1.000  I
  I13897   1.0000 0.12502  0.87498  0.87498  Biso   1.000  I
  I13898   1.0000 0.62499  0.37501  0.87498  Biso   1.000  I
  I13899   1.0000 0.76399  0.26401  0.73599  Biso   1.000  I
  I13900   1.0000 0.87498  0.12502  0.87498  Biso   1.000  I
  I13901   1.0000 0.62499  0.12502  0.62499  Biso   1.000  I
  I13902   1.0000 0.87498  0.12502  0.87498  Biso   1.000  I
  I13903   1.0000 0.73599  0.23601  0.73599  Biso   1.000  I
  I13904   1.0000 0.87498  0.37501  0.62499  Biso   1.000  I
  I13905   1.0000 0.62499  0.37501  0.87498  Biso   1.000  I
  I13906   1.0000 0.37501  0.12502  0.37501  Biso   1.000  I
  I13907   1.0000 0.23601  0.23601  0.23601  Biso   1.000  I
  I13908   1.0000 0.12502  0.37501  0.37501  Biso   1.000  I
  I13909   1.0000 0.37501  0.37501  0.12502  Biso   1.000  I
  I13910   1.0000 0.62499  0.37501  0.87498  Biso   1.000  I
  I13911   1.0000 0.87498  0.12502  0.87498  Biso   1.000  I
  I13912   1.0000 0.37501  0.62499  0.87498  Biso   1.000  I
  I13913   1.0000 0.12502  0.87498  0.87498  Biso   1.000  I
  I13914   1.0000 0.87498  0.12502  0.87498  Biso   1.000  I
  I13915   1.0000 0.73599  0.23601  0.73599  Biso   1.000  I
  I13916   1.0000 0.87498  0.37501  0.62499  Biso   1.000  I
  I13917   1.0000 0.62499  0.37501  0.87498  Biso   1.000  I
  I13918   1.0000 0.12502  0.37501  0.37501  Biso   1.000  I
  I13919   1.0000 0.26401  0.26401  0.23601  Biso   1.000  I
  I13920   1.0000 0.12502  0.12502  0.12502  Biso   1.000  I
  I13921   1.0000 0.37501  0.12502  0.37501  Biso   1.000  I
  I13922   1.0000 0.62499  0.37501  0.87498  Biso   1.000  I
  I13923   1.0000 0.76399  0.26401  0.73599  Biso   1.000  I
  I13924   1.0000 0.87498  0.12502  0.87498  Biso   1.000  I
  I13925   1.0000 0.62499  0.12502  0.62499  Biso   1.000  I
  I13926   1.0000 0.12502  0.62499  0.62499  Biso   1.000  I
  I13927   1.0000 0.26401  0.76399  0.73599  Biso   1.000  I
  I13928   1.0000 0.37501  0.62499  0.87498  Biso   1.000  I
  I13929   1.0000 0.12502  0.87498  0.87498  Biso   1.000  I
  I13930   1.0000 0.26401  0.26401  0.23601  Biso   1.000  I
  I13931   1.0000 0.23601  0.26401  0.26401  Biso   1.000  I
  I13932   1.0000 0.23601  0.23601  0.23601  Biso   1.000  I
  I13933   1.0000 0.73599  0.26401  0.76399  Biso   1.000  I
  I13934   1.0000 0.76399  0.23601  0.76399  Biso   1.000  I
  I13935   1.0000 0.76399  0.26401  0.73599  Biso   1.000  I
  I13936   1.0000 0.23601  0.76399  0.76399  Biso   1.000  I
  I13937   1.0000 0.23601  0.73599  0.73599  Biso   1.000  I
  I13938   1.0000 0.26401  0.73599  0.76399  Biso   1.000  I
  I13939   1.0000 0.23601  0.76399  0.76399  Biso   1.000  I
  I13940   1.0000 0.26401  0.76399  0.73599  Biso   1.000  I
  I13941   1.0000 0.26401  0.73599  0.76399  Biso   1.000  I
  I13942   1.0000 0.76399  0.76399  0.23601  Biso   1.000  I
  I13943   1.0000 0.73599  0.73599  0.23601  Biso   1.000  I
  I13944   1.0000 0.73599  0.76399  0.26401  Biso   1.000  I
  I13945   1.0000 0.23601  0.76399  0.76399  Biso   1.000  I
  I13946   1.0000 0.23601  0.73599  0.73599  Biso   1.000  I
  I13947   1.0000 0.26401  0.76399  0.73599  Biso   1.000  I
  I13948   1.0000 0.76399  0.73599  0.26401  Biso   1.000  I
  I13949   1.0000 0.76399  0.76399  0.23601  Biso   1.000  I
  I13950   1.0000 0.73599  0.76399  0.26401  Biso   1.000  I
  I13951   1.0000 0.23601  0.76399  0.76399  Biso   1.000  I
  I13952   1.0000 0.26401  0.76399  0.73599  Biso   1.000  I
  I13953   1.0000 0.26401  0.73599  0.76399  Biso   1.000  I
  I13954   1.0000 0.73599  0.73599  0.23601  Biso   1.000  I
  I13955   1.0000 0.76399  0.73599  0.26401  Biso   1.000  I
  I13956   1.0000 0.76399  0.76399  0.23601  Biso   1.000  I
  I13957   1.0000 0.73599  0.76399  0.26401  Biso   1.000  I
  I13958   1.0000 0.23601  0.73599  0.73599  Biso   1.000  I
  I13959   1.0000 0.26401  0.23601  0.26401  Biso   1.000  I
  I13960   1.0000 0.76399  0.73599  0.26401  Biso   1.000  I
  I13961   1.0000 0.76399  0.76399  0.23601  Biso   1.000  I
  I13962   1.0000 0.73599  0.76399  0.26401  Biso   1.000  I
  I13963   1.0000 0.23601  0.76399  0.76399  Biso   1.000  I
  I13964   1.0000 0.23601  0.73599  0.73599  Biso   1.000  I
  I13965   1.0000 0.26401  0.76399  0.73599  Biso   1.000  I
  I13966   1.0000 0.73599  0.23601  0.73599  Biso   1.000  I
  I13967   1.0000 0.23601  0.76399  0.76399  Biso   1.000  I
  I13968   1.0000 0.26401  0.76399  0.73599  Biso   1.000  I
  I13969   1.0000 0.26401  0.73599  0.76399  Biso   1.000  I
  I13970   1.0000 0.73599  0.73599  0.23601  Biso   1.000  I
  I13971   1.0000 0.26401  0.26401  0.23601  Biso   1.000  I
  I13972   1.0000 0.23601  0.26401  0.26401  Biso   1.000  I
  I13973   1.0000 0.23601  0.23601  0.23601  Biso   1.000  I
  I13974   1.0000 0.23601  0.76399  0.76399  Biso   1.000  I
  I13975   1.0000 0.23601  0.73599  0.73599  Biso   1.000  I
  I13976   1.0000 0.26401  0.76399  0.73599  Biso   1.000  I
  I13977   1.0000 0.76399  0.73599  0.26401  Biso   1.000  I
  I13978   1.0000 0.26401  0.73599  0.76399  Biso   1.000  I
  I13979   1.0000 0.76399  0.76399  0.23601  Biso   1.000  I
  I13980   1.0000 0.73599  0.73599  0.23601  Biso   1.000  I
  I13981   1.0000 0.73599  0.76399  0.26401  Biso   1.000  I
  I13982   1.0000 0.23601  0.76399  0.76399  Biso   1.000  I
  I13983   1.0000 0.26401  0.76399  0.73599  Biso   1.000  I
  I13984   1.0000 0.26401  0.73599  0.76399  Biso   1.000  I
  I13985   1.0000 0.26401  0.26401  0.23601  Biso   1.000  I
  I13986   1.0000 0.26401  0.23601  0.26401  Biso   1.000  I
  I13987   1.0000 0.23601  0.23601  0.23601  Biso   1.000  I
  I13988   1.0000 0.76399  0.76399  0.23601  Biso   1.000  I
  I13989   1.0000 0.73599  0.73599  0.23601  Biso   1.000  I
  I13990   1.0000 0.73599  0.76399  0.26401  Biso   1.000  I
  I13991   1.0000 0.23601  0.26401  0.26401  Biso   1.000  I
  I13992   1.0000 0.73599  0.26401  0.76399  Biso   1.000  I
  I13993   1.0000 0.76399  0.23601  0.76399  Biso   1.000  I
  I13994   1.0000 0.76399  0.26401  0.73599  Biso   1.000  I
  I13995   1.0000 0.76399  0.73599  0.26401  Biso   1.000  I
  I13996   1.0000 0.76399  0.76399  0.23601  Biso   1.000  I
  I13997   1.0000 0.73599  0.73599  0.23601  Biso   1.000  I
  I13998   1.0000 0.23601  0.73599  0.73599  Biso   1.000  I
  I13999   1.0000 0.76399  0.73599  0.26401  Biso   1.000  I
  I14000   1.0000 0.76399  0.76399  0.23601  Biso   1.000  I
  I14001   1.0000 0.73599  0.76399  0.26401  Biso   1.000  I
  I14002   1.0000 0.73599  0.23601  0.73599  Biso   1.000  I
  I14003   1.0000 0.94030  0.05970  0.94030  Biso   1.000  I
  I14004   1.0000 0.94030  0.44028  0.55972  Biso   1.000  I
  I14005   1.0000 0.94030  0.94030  0.05970  Biso   1.000  I
  I14006   1.0000 0.55972  0.55972  0.05970  Biso   1.000  I
  I14007   1.0000 0.94030  0.55972  0.44028  Biso   1.000  I
  I14008   1.0000 0.94030  0.94030  0.05970  Biso   1.000  I
  I14009   1.0000 0.94030  0.55972  0.44028  Biso   1.000  I
  I14010   1.0000 0.94030  0.05970  0.94030  Biso   1.000  I
  I14011   1.0000 0.94030  0.44028  0.55972  Biso   1.000  I
  I14012   1.0000 0.55972  0.05970  0.55972  Biso   1.000  I
  I14013   1.0000 0.44028  0.05970  0.44028  Biso   1.000  I
  I14014   1.0000 0.05970  0.05970  0.05970  Biso   1.000  I
  I14015   1.0000 0.44028  0.44028  0.05970  Biso   1.000  I
  I14016   1.0000 0.94030  0.05970  0.94030  Biso   1.000  I
  I14017   1.0000 0.94030  0.44028  0.55972  Biso   1.000  I
  I14018   1.0000 0.94030  0.94030  0.05970  Biso   1.000  I
  I14019   1.0000 0.94030  0.55972  0.44028  Biso   1.000  I
  I14020   1.0000 0.05970  0.05970  0.05970  Biso   1.000  I
  I14021   1.0000 0.44028  0.05970  0.44028  Biso   1.000  I
  I14022   1.0000 0.94030  0.94030  0.05970  Biso   1.000  I
  I14023   1.0000 0.94030  0.55972  0.44028  Biso   1.000  I
  I14024   1.0000 0.94030  0.05970  0.94030  Biso   1.000  I
  I14025   1.0000 0.94030  0.44028  0.55972  Biso   1.000  I
  I14026   1.0000 0.55972  0.05970  0.55972  Biso   1.000  I
  I14027   1.0000 0.94030  0.05970  0.94030  Biso   1.000  I
  I14028   1.0000 0.94030  0.44028  0.55972  Biso   1.000  I
  I14029   1.0000 0.55972  0.44028  0.94030  Biso   1.000  I
  I14030   1.0000 0.44028  0.55972  0.94030  Biso   1.000  I
  I14031   1.0000 0.05970  0.94030  0.94030  Biso   1.000  I
  I14032   1.0000 0.55972  0.44028  0.94030  Biso   1.000  I
  I14033   1.0000 0.94030  0.05970  0.94030  Biso   1.000  I
  I14034   1.0000 0.44028  0.94030  0.55972  Biso   1.000  I
  I14035   1.0000 0.44028  0.55972  0.94030  Biso   1.000  I
  I14036   1.0000 0.05970  0.94030  0.94030  Biso   1.000  I
  I14037   1.0000 0.94030  0.94030  0.05970  Biso   1.000  I
  I14038   1.0000 0.55972  0.94030  0.44028  Biso   1.000  I
  I14039   1.0000 0.94030  0.55972  0.44028  Biso   1.000  I
  I14040   1.0000 0.44028  0.55972  0.94030  Biso   1.000  I
  I14041   1.0000 0.05970  0.94030  0.94030  Biso   1.000  I
  I14042   1.0000 0.55972  0.44028  0.94030  Biso   1.000  I
  I14043   1.0000 0.94030  0.05970  0.94030  Biso   1.000  I
  I14044   1.0000 0.55972  0.05970  0.55972  Biso   1.000  I
  I14045   1.0000 0.94030  0.05970  0.94030  Biso   1.000  I
  I14046   1.0000 0.94030  0.44028  0.55972  Biso   1.000  I
  I14047   1.0000 0.55972  0.44028  0.94030  Biso   1.000  I
  I14048   1.0000 0.44028  0.05970  0.44028  Biso   1.000  I
  I14049   1.0000 0.05970  0.44028  0.44028  Biso   1.000  I
  I14050   1.0000 0.44028  0.44028  0.05970  Biso   1.000  I
  I14051   1.0000 0.55972  0.44028  0.94030  Biso   1.000  I
  I14052   1.0000 0.94030  0.05970  0.94030  Biso   1.000  I
  I14053   1.0000 0.44028  0.55972  0.94030  Biso   1.000  I
  I14054   1.0000 0.05970  0.94030  0.94030  Biso   1.000  I
  I14055   1.0000 0.94030  0.05970  0.94030  Biso   1.000  I
  I14056   1.0000 0.94030  0.44028  0.55972  Biso   1.000  I
  I14057   1.0000 0.55972  0.44028  0.94030  Biso   1.000  I
  I14058   1.0000 0.05970  0.44028  0.44028  Biso   1.000  I
  I14059   1.0000 0.05970  0.05970  0.05970  Biso   1.000  I
  I14060   1.0000 0.44028  0.05970  0.44028  Biso   1.000  I
  I14061   1.0000 0.55972  0.44028  0.94030  Biso   1.000  I
  I14062   1.0000 0.94030  0.05970  0.94030  Biso   1.000  I
  I14063   1.0000 0.55972  0.05970  0.55972  Biso   1.000  I
  I14064   1.0000 0.05970  0.55972  0.55972  Biso   1.000  I
  I14065   1.0000 0.44028  0.55972  0.94030  Biso   1.000  I
  I14066   1.0000 0.05970  0.94030  0.94030  Biso   1.000  I
  I14067   1.0000 0.19029  0.30969  0.30969  Biso   1.000  I
  I14068   1.0000 0.19029  0.19029  0.19029  Biso   1.000  I
  I14069   1.0000 0.80971  0.19029  0.80971  Biso   1.000  I
  I14070   1.0000 0.69031  0.30969  0.80971  Biso   1.000  I
  I14071   1.0000 0.19029  0.69031  0.69031  Biso   1.000  I
  I14072   1.0000 0.30969  0.69031  0.80971  Biso   1.000  I
  I14073   1.0000 0.19029  0.80971  0.80971  Biso   1.000  I
  I14074   1.0000 0.30969  0.80971  0.69031  Biso   1.000  I
  I14075   1.0000 0.19029  0.80971  0.80971  Biso   1.000  I
  I14076   1.0000 0.69031  0.80971  0.30969  Biso   1.000  I
  I14077   1.0000 0.80971  0.80971  0.19029  Biso   1.000  I
  I14078   1.0000 0.30969  0.80971  0.69031  Biso   1.000  I
  I14079   1.0000 0.19029  0.80971  0.80971  Biso   1.000  I
  I14080   1.0000 0.80971  0.80971  0.19029  Biso   1.000  I
  I14081   1.0000 0.69031  0.80971  0.30969  Biso   1.000  I
  I14082   1.0000 0.30969  0.80971  0.69031  Biso   1.000  I
  I14083   1.0000 0.30969  0.69031  0.80971  Biso   1.000  I
  I14084   1.0000 0.19029  0.80971  0.80971  Biso   1.000  I
  I14085   1.0000 0.80971  0.80971  0.19029  Biso   1.000  I
  I14086   1.0000 0.69031  0.80971  0.30969  Biso   1.000  I
  I14087   1.0000 0.80971  0.69031  0.30969  Biso   1.000  I
  I14088   1.0000 0.80971  0.80971  0.19029  Biso   1.000  I
  I14089   1.0000 0.69031  0.80971  0.30969  Biso   1.000  I
  I14090   1.0000 0.19029  0.69031  0.69031  Biso   1.000  I
  I14091   1.0000 0.30969  0.80971  0.69031  Biso   1.000  I
  I14092   1.0000 0.19029  0.80971  0.80971  Biso   1.000  I
  I14093   1.0000 0.30969  0.80971  0.69031  Biso   1.000  I
  I14094   1.0000 0.30969  0.69031  0.80971  Biso   1.000  I
  I14095   1.0000 0.19029  0.80971  0.80971  Biso   1.000  I
  I14096   1.0000 0.19029  0.30969  0.30969  Biso   1.000  I
  I14097   1.0000 0.19029  0.19029  0.19029  Biso   1.000  I
  I14098   1.0000 0.30969  0.30969  0.19029  Biso   1.000  I
  I14099   1.0000 0.19029  0.69031  0.69031  Biso   1.000  I
  I14100   1.0000 0.30969  0.80971  0.69031  Biso   1.000  I
  I14101   1.0000 0.19029  0.80971  0.80971  Biso   1.000  I
  I14102   1.0000 0.69031  0.69031  0.19029  Biso   1.000  I
  I14103   1.0000 0.69031  0.80971  0.30969  Biso   1.000  I
  I14104   1.0000 0.80971  0.80971  0.19029  Biso   1.000  I
  I14105   1.0000 0.30969  0.80971  0.69031  Biso   1.000  I
  I14106   1.0000 0.19029  0.80971  0.80971  Biso   1.000  I
  I14107   1.0000 0.19029  0.19029  0.19029  Biso   1.000  I
  I14108   1.0000 0.30969  0.30969  0.19029  Biso   1.000  I
  I14109   1.0000 0.69031  0.69031  0.19029  Biso   1.000  I
  I14110   1.0000 0.69031  0.80971  0.30969  Biso   1.000  I
  I14111   1.0000 0.80971  0.80971  0.19029  Biso   1.000  I
  I14112   1.0000 0.80971  0.19029  0.80971  Biso   1.000  I
  I14113   1.0000 0.80971  0.30969  0.69031  Biso   1.000  I
  I14114   1.0000 0.80971  0.80971  0.19029  Biso   1.000  I
  I14115   1.0000 0.69031  0.69031  0.19029  Biso   1.000  I
  I14116   1.0000 0.80971  0.69031  0.30969  Biso   1.000  I
  I14117   1.0000 0.80971  0.80971  0.19029  Biso   1.000  I
  I14118   1.0000 0.69031  0.80971  0.30969  Biso   1.000  I
  I14119   1.0000 0.80971  0.69031  0.30969  Biso   1.000  I
  I14120   1.0000 0.98598  0.98598  0.01402  Biso   1.000  I
  I14121   1.0000 0.98598  0.51400  0.48600  Biso   1.000  I
  I14122   1.0000 0.48600  0.48600  0.01402  Biso   1.000  I
  I14123   1.0000 0.98598  0.48600  0.51400  Biso   1.000  I
  I14124   1.0000 0.98598  0.01402  0.98598  Biso   1.000  I
  I14125   1.0000 0.98598  0.48600  0.51400  Biso   1.000  I
  I14126   1.0000 0.98598  0.51400  0.48600  Biso   1.000  I
  I14127   1.0000 0.48600  0.01402  0.48600  Biso   1.000  I
  I14128   1.0000 0.51400  0.01402  0.51400  Biso   1.000  I
  I14129   1.0000 0.51400  0.51400  0.01402  Biso   1.000  I
  I14130   1.0000 0.98598  0.98598  0.01402  Biso   1.000  I
  I14131   1.0000 0.98598  0.51400  0.48600  Biso   1.000  I
  I14132   1.0000 0.98598  0.01402  0.98598  Biso   1.000  I
  I14133   1.0000 0.98598  0.48600  0.51400  Biso   1.000  I
  I14134   1.0000 0.98598  0.01402  0.98598  Biso   1.000  I
  I14135   1.0000 0.51400  0.01402  0.51400  Biso   1.000  I
  I14136   1.0000 0.98598  0.01402  0.98598  Biso   1.000  I
  I14137   1.0000 0.98598  0.48600  0.51400  Biso   1.000  I
  I14138   1.0000 0.98598  0.51400  0.48600  Biso   1.000  I
  I14139   1.0000 0.48600  0.01402  0.48600  Biso   1.000  I
  I14140   1.0000 0.98598  0.51400  0.48600  Biso   1.000  I
  I14141   1.0000 0.48600  0.51400  0.98598  Biso   1.000  I
  I14142   1.0000 0.51400  0.48600  0.98598  Biso   1.000  I
  I14143   1.0000 0.98598  0.01402  0.98598  Biso   1.000  I
  I14144   1.0000 0.48600  0.51400  0.98598  Biso   1.000  I
  I14145   1.0000 0.01402  0.98598  0.98598  Biso   1.000  I
  I14146   1.0000 0.51400  0.98598  0.48600  Biso   1.000  I
  I14147   1.0000 0.48600  0.01402  0.48600  Biso   1.000  I
  I14148   1.0000 0.51400  0.01402  0.51400  Biso   1.000  I
  I14149   1.0000 0.51400  0.48600  0.98598  Biso   1.000  I
  I14150   1.0000 0.98598  0.01402  0.98598  Biso   1.000  I
  I14151   1.0000 0.98598  0.01402  0.98598  Biso   1.000  I
  I14152   1.0000 0.48600  0.98598  0.51400  Biso   1.000  I
  I14153   1.0000 0.98598  0.48600  0.51400  Biso   1.000  I
  I14154   1.0000 0.51400  0.48600  0.98598  Biso   1.000  I
  I14155   1.0000 0.98598  0.01402  0.98598  Biso   1.000  I
  I14156   1.0000 0.48600  0.51400  0.98598  Biso   1.000  I
  I14157   1.0000 0.48600  0.01402  0.48600  Biso   1.000  I
  I14158   1.0000 0.98598  0.98598  0.01402  Biso   1.000  I
  I14159   1.0000 0.98598  0.51400  0.48600  Biso   1.000  I
  I14160   1.0000 0.48600  0.51400  0.98598  Biso   1.000  I
  I14161   1.0000 0.48600  0.48600  0.01402  Biso   1.000  I
  I14162   1.0000 0.51400  0.51400  0.01402  Biso   1.000  I
  I14163   1.0000 0.98598  0.51400  0.48600  Biso   1.000  I
  I14164   1.0000 0.98598  0.48600  0.51400  Biso   1.000  I
  I14165   1.0000 0.01402  0.51400  0.51400  Biso   1.000  I
  I14166   1.0000 0.51400  0.48600  0.98598  Biso   1.000  I
  I14167   1.0000 0.48600  0.51400  0.98598  Biso   1.000  I
  I14168   1.0000 0.01402  0.98598  0.98598  Biso   1.000  I
  I14169   1.0000 0.51400  0.48600  0.98598  Biso   1.000  I
  I14170   1.0000 0.98598  0.01402  0.98598  Biso   1.000  I
  I14171   1.0000 0.01402  0.98598  0.98598  Biso   1.000  I
  I14172   1.0000 0.01402  0.48600  0.48600  Biso   1.000  I
  I14173   1.0000 0.48600  0.51400  0.98598  Biso   1.000  I
  I14174   1.0000 0.01402  0.51400  0.51400  Biso   1.000  I
  I14175   1.0000 0.51400  0.01402  0.51400  Biso   1.000  I
  I14176   1.0000 0.48600  0.51400  0.98598  Biso   1.000  I
  I14177   1.0000 0.48600  0.01402  0.48600  Biso   1.000  I
  I14178   1.0000 0.01402  0.48600  0.48600  Biso   1.000  I
  I14179   1.0000 0.51400  0.48600  0.98598  Biso   1.000  I
  I14180   1.0000 0.12502  0.37501  0.37501  Biso   1.000  I
  I14181   1.0000 0.12502  0.12502  0.12502  Biso   1.000  I
  I14182   1.0000 0.87498  0.12502  0.87498  Biso   1.000  I
  I14183   1.0000 0.62499  0.37501  0.87498  Biso   1.000  I
  I14184   1.0000 0.12502  0.62499  0.62499  Biso   1.000  I
  I14185   1.0000 0.26401  0.76399  0.73599  Biso   1.000  I
  I14186   1.0000 0.37501  0.62499  0.87498  Biso   1.000  I
  I14187   1.0000 0.12502  0.87498  0.87498  Biso   1.000  I
  I14188   1.0000 0.37501  0.87498  0.62499  Biso   1.000  I
  I14189   1.0000 0.12502  0.87498  0.87498  Biso   1.000  I
  I14190   1.0000 0.62499  0.87498  0.37501  Biso   1.000  I
  I14191   1.0000 0.87498  0.87498  0.12502  Biso   1.000  I
  I14192   1.0000 0.37501  0.87498  0.62499  Biso   1.000  I
  I14193   1.0000 0.12502  0.87498  0.87498  Biso   1.000  I
  I14194   1.0000 0.87498  0.87498  0.12502  Biso   1.000  I
  I14195   1.0000 0.62499  0.87498  0.37501  Biso   1.000  I
  I14196   1.0000 0.37501  0.87498  0.62499  Biso   1.000  I
  I14197   1.0000 0.23601  0.73599  0.73599  Biso   1.000  I
  I14198   1.0000 0.37501  0.62499  0.87498  Biso   1.000  I
  I14199   1.0000 0.12502  0.87498  0.87498  Biso   1.000  I
  I14200   1.0000 0.87498  0.87498  0.12502  Biso   1.000  I
  I14201   1.0000 0.73599  0.73599  0.23601  Biso   1.000  I
  I14202   1.0000 0.62499  0.87498  0.37501  Biso   1.000  I
  I14203   1.0000 0.87498  0.62499  0.37501  Biso   1.000  I
  I14204   1.0000 0.87498  0.87498  0.12502  Biso   1.000  I
  I14205   1.0000 0.62499  0.87498  0.37501  Biso   1.000  I
  I14206   1.0000 0.12502  0.62499  0.62499  Biso   1.000  I
  I14207   1.0000 0.26401  0.73599  0.76399  Biso   1.000  I
  I14208   1.0000 0.37501  0.87498  0.62499  Biso   1.000  I
  I14209   1.0000 0.12502  0.87498  0.87498  Biso   1.000  I
  I14210   1.0000 0.37501  0.87498  0.62499  Biso   1.000  I
  I14211   1.0000 0.23601  0.73599  0.73599  Biso   1.000  I
  I14212   1.0000 0.37501  0.62499  0.87498  Biso   1.000  I
  I14213   1.0000 0.12502  0.87498  0.87498  Biso   1.000  I
  I14214   1.0000 0.12502  0.37501  0.37501  Biso   1.000  I
  I14215   1.0000 0.26401  0.23601  0.26401  Biso   1.000  I
  I14216   1.0000 0.12502  0.12502  0.12502  Biso   1.000  I
  I14217   1.0000 0.37501  0.37501  0.12502  Biso   1.000  I
  I14218   1.0000 0.12502  0.62499  0.62499  Biso   1.000  I
  I14219   1.0000 0.26401  0.73599  0.76399  Biso   1.000  I
  I14220   1.0000 0.37501  0.87498  0.62499  Biso   1.000  I
  I14221   1.0000 0.12502  0.87498  0.87498  Biso   1.000  I
  I14222   1.0000 0.62499  0.62499  0.12502  Biso   1.000  I
  I14223   1.0000 0.76399  0.73599  0.26401  Biso   1.000  I
  I14224   1.0000 0.62499  0.87498  0.37501  Biso   1.000  I
  I14225   1.0000 0.87498  0.87498  0.12502  Biso   1.000  I
  I14226   1.0000 0.37501  0.87498  0.62499  Biso   1.000  I
  I14227   1.0000 0.12502  0.87498  0.87498  Biso   1.000  I
  I14228   1.0000 0.12502  0.12502  0.12502  Biso   1.000  I
  I14229   1.0000 0.37501  0.37501  0.12502  Biso   1.000  I
  I14230   1.0000 0.62499  0.62499  0.12502  Biso   1.000  I
  I14231   1.0000 0.76399  0.73599  0.26401  Biso   1.000  I
  I14232   1.0000 0.62499  0.87498  0.37501  Biso   1.000  I
  I14233   1.0000 0.87498  0.87498  0.12502  Biso   1.000  I
  I14234   1.0000 0.87498  0.12502  0.87498  Biso   1.000  I
  I14235   1.0000 0.87498  0.37501  0.62499  Biso   1.000  I
  I14236   1.0000 0.87498  0.87498  0.12502  Biso   1.000  I
  I14237   1.0000 0.73599  0.76399  0.26401  Biso   1.000  I
  I14238   1.0000 0.62499  0.62499  0.12502  Biso   1.000  I
  I14239   1.0000 0.87498  0.62499  0.37501  Biso   1.000  I
  I14240   1.0000 0.87498  0.87498  0.12502  Biso   1.000  I
  I14241   1.0000 0.73599  0.73599  0.23601  Biso   1.000  I
  I14242   1.0000 0.62499  0.87498  0.37501  Biso   1.000  I
  I14243   1.0000 0.87498  0.62499  0.37501  Biso   1.000  I
  I14244   1.0000 0.55972  0.05970  0.55972  Biso   1.000  I
  I14245   1.0000 0.55972  0.55972  0.05970  Biso   1.000  I
  I14246   1.0000 0.44028  0.55972  0.94030  Biso   1.000  I
  I14247   1.0000 0.05970  0.55972  0.55972  Biso   1.000  I
  I14248   1.0000 0.94030  0.55972  0.44028  Biso   1.000  I
  I14249   1.0000 0.05970  0.44028  0.44028  Biso   1.000  I
  I14250   1.0000 0.05970  0.05970  0.05970  Biso   1.000  I
  I14251   1.0000 0.94030  0.05970  0.94030  Biso   1.000  I
  I14252   1.0000 0.55972  0.44028  0.94030  Biso   1.000  I
  I14253   1.0000 0.05970  0.55972  0.55972  Biso   1.000  I
  I14254   1.0000 0.44028  0.55972  0.94030  Biso   1.000  I
  I14255   1.0000 0.05970  0.94030  0.94030  Biso   1.000  I
  I14256   1.0000 0.44028  0.94030  0.55972  Biso   1.000  I
  I14257   1.0000 0.05970  0.94030  0.94030  Biso   1.000  I
  I14258   1.0000 0.55972  0.94030  0.44028  Biso   1.000  I
  I14259   1.0000 0.94030  0.94030  0.05970  Biso   1.000  I
  I14260   1.0000 0.44028  0.94030  0.55972  Biso   1.000  I
  I14261   1.0000 0.05970  0.94030  0.94030  Biso   1.000  I
  I14262   1.0000 0.94030  0.94030  0.05970  Biso   1.000  I
  I14263   1.0000 0.55972  0.94030  0.44028  Biso   1.000  I
  I14264   1.0000 0.44028  0.94030  0.55972  Biso   1.000  I
  I14265   1.0000 0.05970  0.94030  0.94030  Biso   1.000  I
  I14266   1.0000 0.94030  0.94030  0.05970  Biso   1.000  I
  I14267   1.0000 0.55972  0.94030  0.44028  Biso   1.000  I
  I14268   1.0000 0.94030  0.94030  0.05970  Biso   1.000  I
  I14269   1.0000 0.55972  0.94030  0.44028  Biso   1.000  I
  I14270   1.0000 0.05970  0.55972  0.55972  Biso   1.000  I
  I14271   1.0000 0.44028  0.94030  0.55972  Biso   1.000  I
  I14272   1.0000 0.05970  0.94030  0.94030  Biso   1.000  I
  I14273   1.0000 0.44028  0.94030  0.55972  Biso   1.000  I
  I14274   1.0000 0.44028  0.55972  0.94030  Biso   1.000  I
  I14275   1.0000 0.05970  0.94030  0.94030  Biso   1.000  I
  I14276   1.0000 0.05970  0.44028  0.44028  Biso   1.000  I
  I14277   1.0000 0.05970  0.05970  0.05970  Biso   1.000  I
  I14278   1.0000 0.44028  0.44028  0.05970  Biso   1.000  I
  I14279   1.0000 0.05970  0.55972  0.55972  Biso   1.000  I
  I14280   1.0000 0.44028  0.94030  0.55972  Biso   1.000  I
  I14281   1.0000 0.05970  0.94030  0.94030  Biso   1.000  I
  I14282   1.0000 0.55972  0.55972  0.05970  Biso   1.000  I
  I14283   1.0000 0.55972  0.94030  0.44028  Biso   1.000  I
  I14284   1.0000 0.94030  0.94030  0.05970  Biso   1.000  I
  I14285   1.0000 0.44028  0.94030  0.55972  Biso   1.000  I
  I14286   1.0000 0.05970  0.94030  0.94030  Biso   1.000  I
  I14287   1.0000 0.05970  0.05970  0.05970  Biso   1.000  I
  I14288   1.0000 0.44028  0.44028  0.05970  Biso   1.000  I
  I14289   1.0000 0.55972  0.55972  0.05970  Biso   1.000  I
  I14290   1.0000 0.55972  0.94030  0.44028  Biso   1.000  I
  I14291   1.0000 0.94030  0.94030  0.05970  Biso   1.000  I
  I14292   1.0000 0.94030  0.05970  0.94030  Biso   1.000  I
  I14293   1.0000 0.94030  0.44028  0.55972  Biso   1.000  I
  I14294   1.0000 0.94030  0.94030  0.05970  Biso   1.000  I
  I14295   1.0000 0.55972  0.55972  0.05970  Biso   1.000  I
  I14296   1.0000 0.94030  0.55972  0.44028  Biso   1.000  I
  I14297   1.0000 0.94030  0.94030  0.05970  Biso   1.000  I
  I14298   1.0000 0.55972  0.94030  0.44028  Biso   1.000  I
  I14299   1.0000 0.94030  0.55972  0.44028  Biso   1.000  I
  I14300   1.0000 0.62499  0.12502  0.62499  Biso   1.000  I
  I14301   1.0000 0.62499  0.62499  0.12502  Biso   1.000  I
  I14302   1.0000 0.12502  0.62499  0.62499  Biso   1.000  I
  I14303   1.0000 0.01402  0.51400  0.51400  Biso   1.000  I
  I14304   1.0000 0.01402  0.98598  0.98598  Biso   1.000  I
  I14305   1.0000 0.01402  0.98598  0.98598  Biso   1.000  I
  I14306   1.0000 0.48600  0.51400  0.98598  Biso   1.000  I
  I14307   1.0000 0.01402  0.48600  0.48600  Biso   1.000  I
  I14308   1.0000 0.51400  0.48600  0.98598  Biso   1.000  I
  I14309   1.0000 0.51400  0.98598  0.48600  Biso   1.000  I
  I14310   1.0000 0.98598  0.98598  0.01402  Biso   1.000  I
  I14311   1.0000 0.48600  0.98598  0.51400  Biso   1.000  I
  I14312   1.0000 0.01402  0.98598  0.98598  Biso   1.000  I
  I14313   1.0000 0.51400  0.98598  0.48600  Biso   1.000  I
  I14314   1.0000 0.98598  0.98598  0.01402  Biso   1.000  I
  I14315   1.0000 0.01402  0.98598  0.98598  Biso   1.000  I
  I14316   1.0000 0.48600  0.98598  0.51400  Biso   1.000  I
  I14317   1.0000 0.51400  0.98598  0.48600  Biso   1.000  I
  I14318   1.0000 0.98598  0.98598  0.01402  Biso   1.000  I
  I14319   1.0000 0.01402  0.98598  0.98598  Biso   1.000  I
  I14320   1.0000 0.48600  0.98598  0.51400  Biso   1.000  I
  I14321   1.0000 0.01402  0.98598  0.98598  Biso   1.000  I
  I14322   1.0000 0.48600  0.98598  0.51400  Biso   1.000  I
  I14323   1.0000 0.01402  0.48600  0.48600  Biso   1.000  I
  I14324   1.0000 0.51400  0.98598  0.48600  Biso   1.000  I
  I14325   1.0000 0.51400  0.98598  0.48600  Biso   1.000  I
  I14326   1.0000 0.51400  0.48600  0.98598  Biso   1.000  I
  I14327   1.0000 0.01402  0.51400  0.51400  Biso   1.000  I
  I14328   1.0000 0.51400  0.51400  0.01402  Biso   1.000  I
  I14329   1.0000 0.01402  0.48600  0.48600  Biso   1.000  I
  I14330   1.0000 0.51400  0.98598  0.48600  Biso   1.000  I
  I14331   1.0000 0.48600  0.48600  0.01402  Biso   1.000  I
  I14332   1.0000 0.48600  0.98598  0.51400  Biso   1.000  I
  I14333   1.0000 0.51400  0.98598  0.48600  Biso   1.000  I
  I14334   1.0000 0.98598  0.98598  0.01402  Biso   1.000  I
  I14335   1.0000 0.98598  0.98598  0.01402  Biso   1.000  I
  I14336   1.0000 0.51400  0.51400  0.01402  Biso   1.000  I
  I14337   1.0000 0.48600  0.48600  0.01402  Biso   1.000  I
  I14338   1.0000 0.48600  0.98598  0.51400  Biso   1.000  I
  I14339   1.0000 0.98598  0.98598  0.01402  Biso   1.000  I
  I14340   1.0000 0.98598  0.51400  0.48600  Biso   1.000  I
  I14341   1.0000 0.48600  0.48600  0.01402  Biso   1.000  I
  I14342   1.0000 0.98598  0.48600  0.51400  Biso   1.000  I
  I14343   1.0000 0.48600  0.98598  0.51400  Biso   1.000  I
  I14344   1.0000 0.98598  0.48600  0.51400  Biso   1.000  I
  I14345   1.0000 0.69031  0.19029  0.69031  Biso   1.000  I
  I14346   1.0000 0.69031  0.69031  0.19029  Biso   1.000  I
  I14347   1.0000 0.19029  0.69031  0.69031  Biso   1.000  I
  I14348   1.0000 0.73599  0.26401  0.76399  Biso   1.000  I
  I14349   1.0000 0.76399  0.23601  0.76399  Biso   1.000  I
  I14350   1.0000 0.76399  0.26401  0.73599  Biso   1.000  I
  I14351   1.0000 0.76399  0.73599  0.26401  Biso   1.000  I
  I14352   1.0000 0.76399  0.76399  0.23601  Biso   1.000  I
  I14353   1.0000 0.73599  0.76399  0.26401  Biso   1.000  I
  I14354   1.0000 0.23601  0.76399  0.76399  Biso   1.000  I
  I14355   1.0000 0.26401  0.76399  0.73599  Biso   1.000  I
  I14356   1.0000 0.26401  0.73599  0.76399  Biso   1.000  I
  I14357   1.0000 0.80971  0.19029  0.80971  Biso   1.000  I
  I14358   1.0000 0.80971  0.30969  0.69031  Biso   1.000  I
  I14359   1.0000 0.69031  0.30969  0.80971  Biso   1.000  I
  I14360   1.0000 0.80971  0.80971  0.19029  Biso   1.000  I
  I14361   1.0000 0.69031  0.80971  0.30969  Biso   1.000  I
  I14362   1.0000 0.80971  0.69031  0.30969  Biso   1.000  I
  I14363   1.0000 0.30969  0.80971  0.69031  Biso   1.000  I
  I14364   1.0000 0.30969  0.69031  0.80971  Biso   1.000  I
  I14365   1.0000 0.19029  0.80971  0.80971  Biso   1.000  I
  I14366   1.0000 0.87498  0.12502  0.87498  Biso   1.000  I
  I14367   1.0000 0.73599  0.23601  0.73599  Biso   1.000  I
  I14368   1.0000 0.87498  0.37501  0.62499  Biso   1.000  I
  I14369   1.0000 0.62499  0.37501  0.87498  Biso   1.000  I
  I14370   1.0000 0.87498  0.87498  0.12502  Biso   1.000  I
  I14371   1.0000 0.73599  0.73599  0.23601  Biso   1.000  I
  I14372   1.0000 0.62499  0.87498  0.37501  Biso   1.000  I
  I14373   1.0000 0.87498  0.62499  0.37501  Biso   1.000  I
  I14374   1.0000 0.37501  0.87498  0.62499  Biso   1.000  I
  I14375   1.0000 0.23601  0.73599  0.73599  Biso   1.000  I
  I14376   1.0000 0.37501  0.62499  0.87498  Biso   1.000  I
  I14377   1.0000 0.12502  0.87498  0.87498  Biso   1.000  I
  I14378   1.0000 0.94030  0.05970  0.94030  Biso   1.000  I
  I14379   1.0000 0.94030  0.44028  0.55972  Biso   1.000  I
  I14380   1.0000 0.55972  0.44028  0.94030  Biso   1.000  I
  I14381   1.0000 0.94030  0.94030  0.05970  Biso   1.000  I
  I14382   1.0000 0.55972  0.94030  0.44028  Biso   1.000  I
  I14383   1.0000 0.94030  0.55972  0.44028  Biso   1.000  I
  I14384   1.0000 0.44028  0.94030  0.55972  Biso   1.000  I
  I14385   1.0000 0.44028  0.55972  0.94030  Biso   1.000  I
  I14386   1.0000 0.05970  0.94030  0.94030  Biso   1.000  I
  I14387   1.0000 0.98598  0.51400  0.48600  Biso   1.000  I
  I14388   1.0000 0.48600  0.51400  0.98598  Biso   1.000  I
  I14389   1.0000 0.48600  0.98598  0.51400  Biso   1.000  I
  I14390   1.0000 0.98598  0.48600  0.51400  Biso   1.000  I
  I14391   1.0000 0.51400  0.98598  0.48600  Biso   1.000  I
  I14392   1.0000 0.51400  0.48600  0.98598  Biso   1.000  I
