data_image0
_cell_length_a       24.89
_cell_length_b       24.89
_cell_length_c       24.89
_cell_angle_alpha    90
_cell_angle_beta     90
_cell_angle_gamma    90

_symmetry_space_group_name_H-M    "P 1"
_symmetry_int_tables_number       1

loop_
  _symmetry_equiv_pos_as_xyz
  'x, y, z'

loop_
  _atom_site_label
  _atom_site_occupancy
  _atom_site_fract_x
  _atom_site_fract_y
  _atom_site_fract_z
  _atom_site_thermal_displace_type
  _atom_site_B_iso_or_equiv
  _atom_site_type_symbol
  C1       1.0000 0.50631  0.36951  0.47252  Biso   1.000  C
  C2       1.0000 0.54251  0.32021  0.46091  Biso   1.000  C
  C3       1.0000 0.49369  0.36951  0.52748  Biso   1.000  C
  H1       1.0000 0.52511  0.40229  0.46312  Biso   1.000  H
  H2       1.0000 0.47368  0.36750  0.45131  Biso   1.000  H
  C4       1.0000 0.50960  0.26870  0.47172  Biso   1.000  C
  H3       1.0000 0.55432  0.32089  0.42378  Biso   1.000  H
  H4       1.0000 0.57389  0.32101  0.48381  Biso   1.000  H
  C5       1.0000 0.45749  0.32021  0.53909  Biso   1.000  C
  H5       1.0000 0.47489  0.40229  0.53688  Biso   1.000  H
  H6       1.0000 0.52632  0.36750  0.54869  Biso   1.000  H
  N1       1.0000 0.54520  0.22250  0.46332  Biso   1.000  N
  C6       1.0000 0.49040  0.26870  0.52828  Biso   1.000  C
  H7       1.0000 0.47891  0.26681  0.44709  Biso   1.000  H
  H8       1.0000 0.44568  0.32089  0.57622  Biso   1.000  H
  H9       1.0000 0.42611  0.32101  0.51619  Biso   1.000  H
  C7       1.0000 0.53290  0.18859  0.42889  Biso   1.000  C
  N2       1.0000 0.45480  0.22250  0.53668  Biso   1.000  N
  H10      1.0000 0.52109  0.26681  0.55291  Biso   1.000  H
  C8       1.0000 0.56609  0.14178  0.41539  Biso   1.000  C
  H11      1.0000 0.50060  0.19321  0.41061  Biso   1.000  H
  C9       1.0000 0.46710  0.18859  0.57111  Biso   1.000  C
  C10      1.0000 0.61008  0.12808  0.44628  Biso   1.000  C
  C11      1.0000 0.55372  0.11008  0.37192  Biso   1.000  C
  C12      1.0000 0.43391  0.14178  0.58461  Biso   1.000  C
  H12      1.0000 0.49940  0.19321  0.58939  Biso   1.000  H
  H13      1.0000 0.61848  0.14890  0.47622  Biso   1.000  H
  C13      1.0000 0.64178  0.08461  0.43391  Biso   1.000  C
  H14      1.0000 0.52378  0.11848  0.35110  Biso   1.000  H
  C14      1.0000 0.58461  0.06609  0.35822  Biso   1.000  C
  C15      1.0000 0.44628  0.11008  0.62808  Biso   1.000  C
  C16      1.0000 0.38992  0.12808  0.55372  Biso   1.000  C
  C17      1.0000 0.62808  0.05372  0.38992  Biso   1.000  C
  C18      1.0000 0.68859  0.07111  0.46710  Biso   1.000  C
  C19      1.0000 0.57111  0.03290  0.31141  Biso   1.000  C
  H15      1.0000 0.47622  0.11848  0.64890  Biso   1.000  H
  C20      1.0000 0.41539  0.06609  0.64178  Biso   1.000  C
  H16      1.0000 0.38152  0.14890  0.52378  Biso   1.000  H
  C21      1.0000 0.35822  0.08461  0.56609  Biso   1.000  C
  H17      1.0000 0.64890  0.02378  0.38152  Biso   1.000  H
  N3       1.0000 0.72250  0.03668  0.45480  Biso   1.000  N
  H18      1.0000 0.69321  0.08939  0.49940  Biso   1.000  H
  N4       1.0000 0.53668  0.04520  0.27750  Biso   1.000  N
  H19      1.0000 0.58939  0.00060  0.30679  Biso   1.000  H
  C22      1.0000 0.37192  0.05372  0.61008  Biso   1.000  C
  C23      1.0000 0.42889  0.03290  0.68859  Biso   1.000  C
  C24      1.0000 0.31141  0.07111  0.53290  Biso   1.000  C
  C25      1.0000 0.76870  0.02828  0.49040  Biso   1.000  C
  C26      1.0000 0.52828  0.00960  0.23130  Biso   1.000  C
  H20      1.0000 0.35110  0.02378  0.61848  Biso   1.000  H
  N5       1.0000 0.46332  0.04520  0.72250  Biso   1.000  N
  H21      1.0000 0.41061  0.00060  0.69321  Biso   1.000  H
  N6       1.0000 0.27750  0.03668  0.54520  Biso   1.000  N
  H22      1.0000 0.30679  0.08939  0.50060  Biso   1.000  H
  H23      1.0000 0.76681  0.05291  0.52109  Biso   1.000  H
  C27      1.0000 0.82021  0.03909  0.45749  Biso   1.000  C
  C28      1.0000 0.76870  0.97172  0.50960  Biso   1.000  C
  C29      1.0000 0.53909  0.04251  0.17979  Biso   1.000  C
  C30      1.0000 0.47172  0.99040  0.23130  Biso   1.000  C
  H24      1.0000 0.55291  0.97891  0.23319  Biso   1.000  H
  C31      1.0000 0.47172  0.00960  0.76870  Biso   1.000  C
  C32      1.0000 0.23130  0.02828  0.50960  Biso   1.000  C
  H25      1.0000 0.82089  0.07622  0.44568  Biso   1.000  H
  H26      1.0000 0.82101  0.01619  0.42611  Biso   1.000  H
  C33      1.0000 0.86951  0.02748  0.49369  Biso   1.000  C
  N7       1.0000 0.72250  0.96332  0.54520  Biso   1.000  N
  H27      1.0000 0.76681  0.94709  0.47891  Biso   1.000  H
  C34      1.0000 0.82021  0.96091  0.54251  Biso   1.000  C
  H28      1.0000 0.57622  0.05432  0.17911  Biso   1.000  H
  H29      1.0000 0.51619  0.07389  0.17899  Biso   1.000  H
  C35      1.0000 0.52748  0.00631  0.13049  Biso   1.000  C
  H30      1.0000 0.44709  0.02109  0.23319  Biso   1.000  H
  N8       1.0000 0.46332  0.95480  0.27750  Biso   1.000  N
  C36      1.0000 0.46091  0.95749  0.17979  Biso   1.000  C
  C37      1.0000 0.46091  0.04251  0.82021  Biso   1.000  C
  C38      1.0000 0.52828  0.99040  0.76870  Biso   1.000  C
  H31      1.0000 0.44709  0.97891  0.76681  Biso   1.000  H
  H32      1.0000 0.23319  0.05291  0.47891  Biso   1.000  H
  C39      1.0000 0.17979  0.03909  0.54251  Biso   1.000  C
  C40      1.0000 0.23130  0.97172  0.49040  Biso   1.000  C
  H33      1.0000 0.90229  0.03688  0.47489  Biso   1.000  H
  H34      1.0000 0.86750  0.04869  0.52632  Biso   1.000  H
  C41      1.0000 0.86951  0.97252  0.50631  Biso   1.000  C
  C42      1.0000 0.68859  0.92889  0.53290  Biso   1.000  C
  H35      1.0000 0.82089  0.92378  0.55432  Biso   1.000  H
  H36      1.0000 0.82101  0.98381  0.57389  Biso   1.000  H
  H37      1.0000 0.53688  0.02511  0.09771  Biso   1.000  H
  C43      1.0000 0.47252  0.99369  0.13049  Biso   1.000  C
  H38      1.0000 0.54869  0.97368  0.13250  Biso   1.000  H
  C44      1.0000 0.42889  0.96710  0.31141  Biso   1.000  C
  H39      1.0000 0.42378  0.94568  0.17911  Biso   1.000  H
  H40      1.0000 0.48381  0.92611  0.17899  Biso   1.000  H
  H41      1.0000 0.42378  0.05432  0.82089  Biso   1.000  H
  H42      1.0000 0.48381  0.07389  0.82101  Biso   1.000  H
  C45      1.0000 0.47252  0.00631  0.86951  Biso   1.000  C
  H43      1.0000 0.55291  0.02109  0.76681  Biso   1.000  H
  N9       1.0000 0.53668  0.95480  0.72250  Biso   1.000  N
  C46      1.0000 0.53909  0.95749  0.82021  Biso   1.000  C
  H44      1.0000 0.17911  0.07622  0.55432  Biso   1.000  H
  H45      1.0000 0.17899  0.01619  0.57389  Biso   1.000  H
  C47      1.0000 0.13049  0.02748  0.50631  Biso   1.000  C
  N10      1.0000 0.27750  0.96332  0.45480  Biso   1.000  N
  H46      1.0000 0.23319  0.94709  0.52109  Biso   1.000  H
  C48      1.0000 0.17979  0.96091  0.45749  Biso   1.000  C
  H47      1.0000 0.90229  0.96312  0.52511  Biso   1.000  H
  H48      1.0000 0.86750  0.95131  0.47368  Biso   1.000  H
  C49      1.0000 0.64178  0.91539  0.56609  Biso   1.000  C
  H49      1.0000 0.69321  0.91061  0.50060  Biso   1.000  H
  H50      1.0000 0.45131  0.02632  0.13250  Biso   1.000  H
  H51      1.0000 0.46312  0.97489  0.09771  Biso   1.000  H
  C50      1.0000 0.41539  0.93391  0.35822  Biso   1.000  C
  H52      1.0000 0.41061  0.99940  0.30679  Biso   1.000  H
  H53      1.0000 0.46312  0.02511  0.90229  Biso   1.000  H
  C51      1.0000 0.52748  0.99369  0.86951  Biso   1.000  C
  H54      1.0000 0.45131  0.97368  0.86750  Biso   1.000  H
  C52      1.0000 0.57111  0.96710  0.68859  Biso   1.000  C
  H55      1.0000 0.57622  0.94568  0.82089  Biso   1.000  H
  H56      1.0000 0.51619  0.92611  0.82101  Biso   1.000  H
  H57      1.0000 0.09771  0.03688  0.52511  Biso   1.000  H
  H58      1.0000 0.13250  0.04869  0.47368  Biso   1.000  H
  C53      1.0000 0.13049  0.97252  0.49369  Biso   1.000  C
  C54      1.0000 0.31141  0.92889  0.46710  Biso   1.000  C
  H59      1.0000 0.17911  0.92378  0.44568  Biso   1.000  H
  H60      1.0000 0.17899  0.98381  0.42611  Biso   1.000  H
  C55      1.0000 0.61008  0.87192  0.55372  Biso   1.000  C
  C56      1.0000 0.62808  0.94628  0.61008  Biso   1.000  C
  C57      1.0000 0.37192  0.94628  0.38992  Biso   1.000  C
  C58      1.0000 0.44628  0.88992  0.37192  Biso   1.000  C
  H61      1.0000 0.54869  0.02632  0.86750  Biso   1.000  H
  H62      1.0000 0.53688  0.97489  0.90229  Biso   1.000  H
  C59      1.0000 0.58461  0.93391  0.64178  Biso   1.000  C
  H63      1.0000 0.58939  0.99940  0.69321  Biso   1.000  H
  H64      1.0000 0.09771  0.96312  0.47489  Biso   1.000  H
  H65      1.0000 0.13250  0.95131  0.52632  Biso   1.000  H
  C60      1.0000 0.35822  0.91539  0.43391  Biso   1.000  C
  H66      1.0000 0.30679  0.91061  0.49940  Biso   1.000  H
  H67      1.0000 0.61848  0.85110  0.52378  Biso   1.000  H
  C61      1.0000 0.56609  0.85822  0.58461  Biso   1.000  C
  H68      1.0000 0.64890  0.97622  0.61848  Biso   1.000  H
  H69      1.0000 0.35110  0.97622  0.38152  Biso   1.000  H
  H70      1.0000 0.47622  0.88152  0.35110  Biso   1.000  H
  C62      1.0000 0.43391  0.85822  0.41539  Biso   1.000  C
  C63      1.0000 0.55372  0.88992  0.62808  Biso   1.000  C
  C64      1.0000 0.38992  0.87192  0.44628  Biso   1.000  C
  C65      1.0000 0.53290  0.81141  0.57111  Biso   1.000  C
  C66      1.0000 0.46710  0.81141  0.42889  Biso   1.000  C
  H71      1.0000 0.52378  0.88152  0.64890  Biso   1.000  H
  H72      1.0000 0.38152  0.85110  0.47622  Biso   1.000  H
  N11      1.0000 0.54520  0.77750  0.53668  Biso   1.000  N
  H73      1.0000 0.50060  0.80679  0.58939  Biso   1.000  H
  N12      1.0000 0.45480  0.77750  0.46332  Biso   1.000  N
  H74      1.0000 0.49940  0.80679  0.41061  Biso   1.000  H
  C67      1.0000 0.50960  0.73130  0.52828  Biso   1.000  C
  C68      1.0000 0.49040  0.73130  0.47172  Biso   1.000  C
  H75      1.0000 0.47891  0.73319  0.55291  Biso   1.000  H
  C69      1.0000 0.54251  0.67979  0.53909  Biso   1.000  C
  H76      1.0000 0.52109  0.73319  0.44709  Biso   1.000  H
  C70      1.0000 0.45749  0.67979  0.46091  Biso   1.000  C
  H77      1.0000 0.55432  0.67911  0.57622  Biso   1.000  H
  H78      1.0000 0.57389  0.67899  0.51619  Biso   1.000  H
  C71      1.0000 0.50631  0.63049  0.52748  Biso   1.000  C
  H79      1.0000 0.44568  0.67911  0.42378  Biso   1.000  H
  H80      1.0000 0.42611  0.67899  0.48381  Biso   1.000  H
  C72      1.0000 0.49369  0.63049  0.47252  Biso   1.000  C
  H81      1.0000 0.52511  0.59771  0.53688  Biso   1.000  H
  H82      1.0000 0.47368  0.63250  0.54869  Biso   1.000  H
  H83      1.0000 0.47489  0.59771  0.46312  Biso   1.000  H
  H84      1.0000 0.52632  0.63250  0.45131  Biso   1.000  H
  C73      1.0000 0.47252  0.50631  0.36951  Biso   1.000  C
  C74      1.0000 0.46091  0.54251  0.32021  Biso   1.000  C
  C75      1.0000 0.52748  0.49369  0.36951  Biso   1.000  C
  H85      1.0000 0.46312  0.52511  0.40229  Biso   1.000  H
  H86      1.0000 0.45131  0.47368  0.36750  Biso   1.000  H
  C76      1.0000 0.47172  0.50960  0.26870  Biso   1.000  C
  H87      1.0000 0.42378  0.55432  0.32089  Biso   1.000  H
  H88      1.0000 0.48381  0.57389  0.32101  Biso   1.000  H
  C77      1.0000 0.53909  0.45749  0.32021  Biso   1.000  C
  H89      1.0000 0.53688  0.47489  0.40229  Biso   1.000  H
  H90      1.0000 0.54869  0.52632  0.36750  Biso   1.000  H
  C78      1.0000 0.52828  0.49040  0.26870  Biso   1.000  C
  N13      1.0000 0.46332  0.54520  0.22250  Biso   1.000  N
  H91      1.0000 0.44709  0.47891  0.26681  Biso   1.000  H
  H92      1.0000 0.57622  0.44568  0.32089  Biso   1.000  H
  H93      1.0000 0.51619  0.42611  0.32101  Biso   1.000  H
  N14      1.0000 0.53668  0.45480  0.22250  Biso   1.000  N
  H94      1.0000 0.55291  0.52109  0.26681  Biso   1.000  H
  C79      1.0000 0.42889  0.53290  0.18859  Biso   1.000  C
  C80      1.0000 0.57111  0.46710  0.18859  Biso   1.000  C
  C81      1.0000 0.41539  0.56609  0.14178  Biso   1.000  C
  H95      1.0000 0.41061  0.50060  0.19321  Biso   1.000  H
  C82      1.0000 0.58461  0.43391  0.14178  Biso   1.000  C
  H96      1.0000 0.58939  0.49940  0.19321  Biso   1.000  H
  C83      1.0000 0.44628  0.61008  0.12808  Biso   1.000  C
  C84      1.0000 0.37192  0.55372  0.11008  Biso   1.000  C
  C85      1.0000 0.55372  0.38992  0.12808  Biso   1.000  C
  C86      1.0000 0.62808  0.44628  0.11008  Biso   1.000  C
  H97      1.0000 0.47622  0.61848  0.14890  Biso   1.000  H
  C87      1.0000 0.43391  0.64178  0.08461  Biso   1.000  C
  H98      1.0000 0.35110  0.52378  0.11848  Biso   1.000  H
  C88      1.0000 0.35822  0.58461  0.06609  Biso   1.000  C
  C89      1.0000 0.56609  0.35822  0.08461  Biso   1.000  C
  H99      1.0000 0.52378  0.38152  0.14890  Biso   1.000  H
  C90      1.0000 0.64178  0.41539  0.06609  Biso   1.000  C
  H100     1.0000 0.64890  0.47622  0.11848  Biso   1.000  H
  C91      1.0000 0.38992  0.62808  0.05372  Biso   1.000  C
  C92      1.0000 0.46710  0.68859  0.07111  Biso   1.000  C
  C93      1.0000 0.31141  0.57111  0.03290  Biso   1.000  C
  C94      1.0000 0.53290  0.31141  0.07111  Biso   1.000  C
  C95      1.0000 0.61008  0.37192  0.05372  Biso   1.000  C
  C96      1.0000 0.68859  0.42889  0.03290  Biso   1.000  C
  H101     1.0000 0.38152  0.64890  0.02378  Biso   1.000  H
  N15      1.0000 0.45480  0.72250  0.03668  Biso   1.000  N
  H102     1.0000 0.49940  0.69321  0.08939  Biso   1.000  H
  N16      1.0000 0.27750  0.53668  0.04520  Biso   1.000  N
  H103     1.0000 0.30679  0.58939  0.00060  Biso   1.000  H
  N17      1.0000 0.54520  0.27750  0.03668  Biso   1.000  N
  H104     1.0000 0.50060  0.30679  0.08939  Biso   1.000  H
  H105     1.0000 0.61848  0.35110  0.02378  Biso   1.000  H
  N18      1.0000 0.72250  0.46332  0.04520  Biso   1.000  N
  H106     1.0000 0.69321  0.41061  0.00060  Biso   1.000  H
  C97      1.0000 0.49040  0.76870  0.02828  Biso   1.000  C
  C98      1.0000 0.23130  0.52828  0.00960  Biso   1.000  C
  C99      1.0000 0.50960  0.23130  0.02828  Biso   1.000  C
  C100     1.0000 0.76870  0.47172  0.00960  Biso   1.000  C
  C101     1.0000 0.50960  0.76870  0.97172  Biso   1.000  C
  H107     1.0000 0.52109  0.76681  0.05291  Biso   1.000  H
  C102     1.0000 0.45749  0.82021  0.03909  Biso   1.000  C
  C103     1.0000 0.23130  0.47172  0.99040  Biso   1.000  C
  C104     1.0000 0.17979  0.53909  0.04251  Biso   1.000  C
  H108     1.0000 0.23319  0.55291  0.97891  Biso   1.000  H
  H109     1.0000 0.47891  0.23319  0.05291  Biso   1.000  H
  C105     1.0000 0.54251  0.17979  0.03909  Biso   1.000  C
  C106     1.0000 0.49040  0.23130  0.97172  Biso   1.000  C
  C107     1.0000 0.82021  0.46091  0.04251  Biso   1.000  C
  C108     1.0000 0.76870  0.52828  0.99040  Biso   1.000  C
  H110     1.0000 0.76681  0.44709  0.97891  Biso   1.000  H
  N19      1.0000 0.54520  0.72250  0.96332  Biso   1.000  N
  H111     1.0000 0.47891  0.76681  0.94709  Biso   1.000  H
  C109     1.0000 0.54251  0.82021  0.96091  Biso   1.000  C
  H112     1.0000 0.44568  0.82089  0.07622  Biso   1.000  H
  H113     1.0000 0.42611  0.82101  0.01619  Biso   1.000  H
  C110     1.0000 0.49369  0.86951  0.02748  Biso   1.000  C
  N20      1.0000 0.27750  0.46332  0.95480  Biso   1.000  N
  H114     1.0000 0.23319  0.44709  0.02109  Biso   1.000  H
  C111     1.0000 0.17979  0.46091  0.95749  Biso   1.000  C
  H115     1.0000 0.17911  0.57622  0.05432  Biso   1.000  H
  H116     1.0000 0.17899  0.51619  0.07389  Biso   1.000  H
  C112     1.0000 0.13049  0.52748  0.00631  Biso   1.000  C
  H117     1.0000 0.55432  0.17911  0.07622  Biso   1.000  H
  H118     1.0000 0.57389  0.17899  0.01619  Biso   1.000  H
  C113     1.0000 0.50631  0.13049  0.02748  Biso   1.000  C
  N21      1.0000 0.45480  0.27750  0.96332  Biso   1.000  N
  H119     1.0000 0.52109  0.23319  0.94709  Biso   1.000  H
  C114     1.0000 0.45749  0.17979  0.96091  Biso   1.000  C
  H120     1.0000 0.82089  0.42378  0.05432  Biso   1.000  H
  H121     1.0000 0.82101  0.48381  0.07389  Biso   1.000  H
  C115     1.0000 0.86951  0.47252  0.00631  Biso   1.000  C
  H122     1.0000 0.76681  0.55291  0.02109  Biso   1.000  H
  N22      1.0000 0.72250  0.53668  0.95480  Biso   1.000  N
  C116     1.0000 0.82021  0.53909  0.95749  Biso   1.000  C
  C117     1.0000 0.53290  0.68859  0.92889  Biso   1.000  C
  H123     1.0000 0.55432  0.82089  0.92378  Biso   1.000  H
  H124     1.0000 0.57389  0.82101  0.98381  Biso   1.000  H
  C118     1.0000 0.50631  0.86951  0.97252  Biso   1.000  C
  H125     1.0000 0.47489  0.90229  0.03688  Biso   1.000  H
  H126     1.0000 0.52632  0.86750  0.04869  Biso   1.000  H
  C119     1.0000 0.31141  0.42889  0.96710  Biso   1.000  C
  H127     1.0000 0.17911  0.42378  0.94568  Biso   1.000  H
  H128     1.0000 0.17899  0.48381  0.92611  Biso   1.000  H
  C120     1.0000 0.13049  0.47252  0.99369  Biso   1.000  C
  H129     1.0000 0.09771  0.53688  0.02511  Biso   1.000  H
  H130     1.0000 0.13250  0.54869  0.97368  Biso   1.000  H
  H131     1.0000 0.52511  0.09771  0.03688  Biso   1.000  H
  H132     1.0000 0.47368  0.13250  0.04869  Biso   1.000  H
  C121     1.0000 0.49369  0.13049  0.97252  Biso   1.000  C
  C122     1.0000 0.46710  0.31141  0.92889  Biso   1.000  C
  H133     1.0000 0.44568  0.17911  0.92378  Biso   1.000  H
  H134     1.0000 0.42611  0.17899  0.98381  Biso   1.000  H
  H135     1.0000 0.90229  0.46312  0.02511  Biso   1.000  H
  C123     1.0000 0.86951  0.52748  0.99369  Biso   1.000  C
  H136     1.0000 0.86750  0.45131  0.97368  Biso   1.000  H
  C124     1.0000 0.68859  0.57111  0.96710  Biso   1.000  C
  H137     1.0000 0.82089  0.57622  0.94568  Biso   1.000  H
  H138     1.0000 0.82101  0.51619  0.92611  Biso   1.000  H
  C125     1.0000 0.56609  0.64178  0.91539  Biso   1.000  C
  H139     1.0000 0.50060  0.69321  0.91061  Biso   1.000  H
  H140     1.0000 0.52511  0.90229  0.96312  Biso   1.000  H
  H141     1.0000 0.47368  0.86750  0.95131  Biso   1.000  H
  C126     1.0000 0.35822  0.41539  0.93391  Biso   1.000  C
  H142     1.0000 0.30679  0.41061  0.99940  Biso   1.000  H
  H143     1.0000 0.13250  0.45131  0.02632  Biso   1.000  H
  H144     1.0000 0.09771  0.46312  0.97489  Biso   1.000  H
  H145     1.0000 0.47489  0.09771  0.96312  Biso   1.000  H
  H146     1.0000 0.52632  0.13250  0.95131  Biso   1.000  H
  C127     1.0000 0.43391  0.35822  0.91539  Biso   1.000  C
  H147     1.0000 0.49940  0.30679  0.91061  Biso   1.000  H
  H148     1.0000 0.86750  0.54869  0.02632  Biso   1.000  H
  H149     1.0000 0.90229  0.53688  0.97489  Biso   1.000  H
  C128     1.0000 0.64178  0.58461  0.93391  Biso   1.000  C
  H150     1.0000 0.69321  0.58939  0.99940  Biso   1.000  H
  C129     1.0000 0.61008  0.62808  0.94628  Biso   1.000  C
  C130     1.0000 0.55372  0.61008  0.87192  Biso   1.000  C
  C131     1.0000 0.38992  0.37192  0.94628  Biso   1.000  C
  C132     1.0000 0.37192  0.44628  0.88992  Biso   1.000  C
  C133     1.0000 0.44628  0.38992  0.87192  Biso   1.000  C
  C134     1.0000 0.62808  0.55372  0.88992  Biso   1.000  C
  H151     1.0000 0.61848  0.64890  0.97622  Biso   1.000  H
  C135     1.0000 0.58461  0.56609  0.85822  Biso   1.000  C
  H152     1.0000 0.52378  0.61848  0.85110  Biso   1.000  H
  H153     1.0000 0.38152  0.35110  0.97622  Biso   1.000  H
  C136     1.0000 0.41539  0.43391  0.85822  Biso   1.000  C
  H154     1.0000 0.35110  0.47622  0.88152  Biso   1.000  H
  H155     1.0000 0.47622  0.38152  0.85110  Biso   1.000  H
  H156     1.0000 0.64890  0.52378  0.88152  Biso   1.000  H
  C137     1.0000 0.57111  0.53290  0.81141  Biso   1.000  C
  C138     1.0000 0.42889  0.46710  0.81141  Biso   1.000  C
  N23      1.0000 0.53668  0.54520  0.77750  Biso   1.000  N
  H157     1.0000 0.58939  0.50060  0.80679  Biso   1.000  H
  N24      1.0000 0.46332  0.45480  0.77750  Biso   1.000  N
  H158     1.0000 0.41061  0.49940  0.80679  Biso   1.000  H
  C139     1.0000 0.52828  0.50960  0.73130  Biso   1.000  C
  C140     1.0000 0.47172  0.49040  0.73130  Biso   1.000  C
  H159     1.0000 0.55291  0.47891  0.73319  Biso   1.000  H
  C141     1.0000 0.53909  0.54251  0.67979  Biso   1.000  C
  H160     1.0000 0.44709  0.52109  0.73319  Biso   1.000  H
  C142     1.0000 0.46091  0.45749  0.67979  Biso   1.000  C
  H161     1.0000 0.57622  0.55432  0.67911  Biso   1.000  H
  H162     1.0000 0.51619  0.57389  0.67899  Biso   1.000  H
  C143     1.0000 0.52748  0.50631  0.63049  Biso   1.000  C
  H163     1.0000 0.42378  0.44568  0.67911  Biso   1.000  H
  H164     1.0000 0.48381  0.42611  0.67899  Biso   1.000  H
  C144     1.0000 0.47252  0.49369  0.63049  Biso   1.000  C
  H165     1.0000 0.53688  0.52511  0.59771  Biso   1.000  H
  H166     1.0000 0.54869  0.47368  0.63250  Biso   1.000  H
  H167     1.0000 0.46312  0.47489  0.59771  Biso   1.000  H
  H168     1.0000 0.45131  0.52632  0.63250  Biso   1.000  H
  C145     1.0000 0.36951  0.47252  0.50631  Biso   1.000  C
  C146     1.0000 0.32021  0.46091  0.54251  Biso   1.000  C
  C147     1.0000 0.36951  0.52748  0.49369  Biso   1.000  C
  H169     1.0000 0.40229  0.46312  0.52511  Biso   1.000  H
  H170     1.0000 0.36750  0.45131  0.47368  Biso   1.000  H
  C148     1.0000 0.26870  0.47172  0.50960  Biso   1.000  C
  H171     1.0000 0.32089  0.42378  0.55432  Biso   1.000  H
  H172     1.0000 0.32101  0.48381  0.57389  Biso   1.000  H
  C149     1.0000 0.32021  0.53909  0.45749  Biso   1.000  C
  H173     1.0000 0.40229  0.53688  0.47489  Biso   1.000  H
  H174     1.0000 0.36750  0.54869  0.52632  Biso   1.000  H
  N25      1.0000 0.22250  0.46332  0.54520  Biso   1.000  N
  C150     1.0000 0.26870  0.52828  0.49040  Biso   1.000  C
  H175     1.0000 0.26681  0.44709  0.47891  Biso   1.000  H
  H176     1.0000 0.32089  0.57622  0.44568  Biso   1.000  H
  H177     1.0000 0.32101  0.51619  0.42611  Biso   1.000  H
  C151     1.0000 0.18859  0.42889  0.53290  Biso   1.000  C
  N26      1.0000 0.22250  0.53668  0.45480  Biso   1.000  N
  H178     1.0000 0.26681  0.55291  0.52109  Biso   1.000  H
  C152     1.0000 0.14178  0.41539  0.56609  Biso   1.000  C
  H179     1.0000 0.19321  0.41061  0.50060  Biso   1.000  H
  C153     1.0000 0.18859  0.57111  0.46710  Biso   1.000  C
  C154     1.0000 0.12808  0.44628  0.61008  Biso   1.000  C
  C155     1.0000 0.11008  0.37192  0.55372  Biso   1.000  C
  C156     1.0000 0.14178  0.58461  0.43391  Biso   1.000  C
  H180     1.0000 0.19321  0.58939  0.49940  Biso   1.000  H
  H181     1.0000 0.14890  0.47622  0.61848  Biso   1.000  H
  C157     1.0000 0.08461  0.43391  0.64178  Biso   1.000  C
  H182     1.0000 0.11848  0.35110  0.52378  Biso   1.000  H
  C158     1.0000 0.06609  0.35822  0.58461  Biso   1.000  C
  C159     1.0000 0.12808  0.55372  0.38992  Biso   1.000  C
  C160     1.0000 0.11008  0.62808  0.44628  Biso   1.000  C
  C161     1.0000 0.05372  0.38992  0.62808  Biso   1.000  C
  C162     1.0000 0.07111  0.46710  0.68859  Biso   1.000  C
  C163     1.0000 0.03290  0.31141  0.57111  Biso   1.000  C
  H183     1.0000 0.14890  0.52378  0.38152  Biso   1.000  H
  C164     1.0000 0.08461  0.56609  0.35822  Biso   1.000  C
  H184     1.0000 0.11848  0.64890  0.47622  Biso   1.000  H
  C165     1.0000 0.06609  0.64178  0.41539  Biso   1.000  C
  H185     1.0000 0.02378  0.38152  0.64890  Biso   1.000  H
  N27      1.0000 0.03668  0.45480  0.72250  Biso   1.000  N
  H186     1.0000 0.08939  0.49940  0.69321  Biso   1.000  H
  N28      1.0000 0.04520  0.27750  0.53668  Biso   1.000  N
  H187     1.0000 0.00060  0.30679  0.58939  Biso   1.000  H
  C166     1.0000 0.05372  0.61008  0.37192  Biso   1.000  C
  C167     1.0000 0.07111  0.53290  0.31141  Biso   1.000  C
  C168     1.0000 0.03290  0.68859  0.42889  Biso   1.000  C
  C169     1.0000 0.02828  0.49040  0.76870  Biso   1.000  C
  C170     1.0000 0.00960  0.23130  0.52828  Biso   1.000  C
  H188     1.0000 0.02378  0.61848  0.35110  Biso   1.000  H
  N29      1.0000 0.03668  0.54520  0.27750  Biso   1.000  N
  H189     1.0000 0.08939  0.50060  0.30679  Biso   1.000  H
  N30      1.0000 0.04520  0.72250  0.46332  Biso   1.000  N
  H190     1.0000 0.00060  0.69321  0.41061  Biso   1.000  H
  H191     1.0000 0.05291  0.52109  0.76681  Biso   1.000  H
  C171     1.0000 0.03909  0.45749  0.82021  Biso   1.000  C
  C172     1.0000 0.97172  0.50960  0.76870  Biso   1.000  C
  C173     1.0000 0.04251  0.17979  0.53909  Biso   1.000  C
  C174     1.0000 0.99040  0.23130  0.47172  Biso   1.000  C
  H192     1.0000 0.97891  0.23319  0.55291  Biso   1.000  H
  C175     1.0000 0.02828  0.50960  0.23130  Biso   1.000  C
  C176     1.0000 0.00960  0.76870  0.47172  Biso   1.000  C
  H193     1.0000 0.07622  0.44568  0.82089  Biso   1.000  H
  H194     1.0000 0.01619  0.42611  0.82101  Biso   1.000  H
  C177     1.0000 0.02748  0.49369  0.86951  Biso   1.000  C
  N31      1.0000 0.96332  0.54520  0.72250  Biso   1.000  N
  H195     1.0000 0.94709  0.47891  0.76681  Biso   1.000  H
  C178     1.0000 0.96091  0.54251  0.82021  Biso   1.000  C
  H196     1.0000 0.05432  0.17911  0.57622  Biso   1.000  H
  H197     1.0000 0.07389  0.17899  0.51619  Biso   1.000  H
  C179     1.0000 0.00631  0.13049  0.52748  Biso   1.000  C
  H198     1.0000 0.02109  0.23319  0.44709  Biso   1.000  H
  N32      1.0000 0.95480  0.27750  0.46332  Biso   1.000  N
  C180     1.0000 0.95749  0.17979  0.46091  Biso   1.000  C
  H199     1.0000 0.05291  0.47891  0.23319  Biso   1.000  H
  C181     1.0000 0.03909  0.54251  0.17979  Biso   1.000  C
  C182     1.0000 0.97172  0.49040  0.23130  Biso   1.000  C
  C183     1.0000 0.04251  0.82021  0.46091  Biso   1.000  C
  C184     1.0000 0.99040  0.76870  0.52828  Biso   1.000  C
  H200     1.0000 0.97891  0.76681  0.44709  Biso   1.000  H
  H201     1.0000 0.03688  0.47489  0.90229  Biso   1.000  H
  H202     1.0000 0.04869  0.52632  0.86750  Biso   1.000  H
  C185     1.0000 0.97252  0.50631  0.86951  Biso   1.000  C
  C186     1.0000 0.92889  0.53290  0.68859  Biso   1.000  C
  H203     1.0000 0.92378  0.55432  0.82089  Biso   1.000  H
  H204     1.0000 0.98381  0.57389  0.82101  Biso   1.000  H
  H205     1.0000 0.02511  0.09771  0.53688  Biso   1.000  H
  C187     1.0000 0.99369  0.13049  0.47252  Biso   1.000  C
  H206     1.0000 0.97368  0.13250  0.54869  Biso   1.000  H
  C188     1.0000 0.96710  0.31141  0.42889  Biso   1.000  C
  H207     1.0000 0.94568  0.17911  0.42378  Biso   1.000  H
  H208     1.0000 0.92611  0.17899  0.48381  Biso   1.000  H
  H209     1.0000 0.07622  0.55432  0.17911  Biso   1.000  H
  H210     1.0000 0.01619  0.57389  0.17899  Biso   1.000  H
  C189     1.0000 0.02748  0.50631  0.13049  Biso   1.000  C
  N33      1.0000 0.96332  0.45480  0.27750  Biso   1.000  N
  H211     1.0000 0.94709  0.52109  0.23319  Biso   1.000  H
  C190     1.0000 0.96091  0.45749  0.17979  Biso   1.000  C
  H212     1.0000 0.05432  0.82089  0.42378  Biso   1.000  H
  H213     1.0000 0.07389  0.82101  0.48381  Biso   1.000  H
  C191     1.0000 0.00631  0.86951  0.47252  Biso   1.000  C
  H214     1.0000 0.02109  0.76681  0.55291  Biso   1.000  H
  N34      1.0000 0.95480  0.72250  0.53668  Biso   1.000  N
  C192     1.0000 0.95749  0.82021  0.53909  Biso   1.000  C
  H215     1.0000 0.96312  0.52511  0.90229  Biso   1.000  H
  H216     1.0000 0.95131  0.47368  0.86750  Biso   1.000  H
  C193     1.0000 0.91539  0.56609  0.64178  Biso   1.000  C
  H217     1.0000 0.91061  0.50060  0.69321  Biso   1.000  H
  H218     1.0000 0.02632  0.13250  0.45131  Biso   1.000  H
  H219     1.0000 0.97489  0.09771  0.46312  Biso   1.000  H
  C194     1.0000 0.93391  0.35822  0.41539  Biso   1.000  C
  H220     1.0000 0.99940  0.30679  0.41061  Biso   1.000  H
  H221     1.0000 0.03688  0.52511  0.09771  Biso   1.000  H
  H222     1.0000 0.04869  0.47368  0.13250  Biso   1.000  H
  C195     1.0000 0.97252  0.49369  0.13049  Biso   1.000  C
  C196     1.0000 0.92889  0.46710  0.31141  Biso   1.000  C
  H223     1.0000 0.92378  0.44568  0.17911  Biso   1.000  H
  H224     1.0000 0.98381  0.42611  0.17899  Biso   1.000  H
  H225     1.0000 0.02511  0.90229  0.46312  Biso   1.000  H
  C197     1.0000 0.99369  0.86951  0.52748  Biso   1.000  C
  H226     1.0000 0.97368  0.86750  0.45131  Biso   1.000  H
  C198     1.0000 0.96710  0.68859  0.57111  Biso   1.000  C
  H227     1.0000 0.94568  0.82089  0.57622  Biso   1.000  H
  H228     1.0000 0.92611  0.82101  0.51619  Biso   1.000  H
  C199     1.0000 0.87192  0.55372  0.61008  Biso   1.000  C
  C200     1.0000 0.94628  0.61008  0.62808  Biso   1.000  C
  C201     1.0000 0.94628  0.38992  0.37192  Biso   1.000  C
  C202     1.0000 0.88992  0.37192  0.44628  Biso   1.000  C
  H229     1.0000 0.96312  0.47489  0.09771  Biso   1.000  H
  H230     1.0000 0.95131  0.52632  0.13250  Biso   1.000  H
  C203     1.0000 0.91539  0.43391  0.35822  Biso   1.000  C
  H231     1.0000 0.91061  0.49940  0.30679  Biso   1.000  H
  H232     1.0000 0.02632  0.86750  0.54869  Biso   1.000  H
  H233     1.0000 0.97489  0.90229  0.53688  Biso   1.000  H
  C204     1.0000 0.93391  0.64178  0.58461  Biso   1.000  C
  H234     1.0000 0.99940  0.69321  0.58939  Biso   1.000  H
  H235     1.0000 0.85110  0.52378  0.61848  Biso   1.000  H
  C205     1.0000 0.85822  0.58461  0.56609  Biso   1.000  C
  H236     1.0000 0.97622  0.61848  0.64890  Biso   1.000  H
  H237     1.0000 0.97622  0.38152  0.35110  Biso   1.000  H
  H238     1.0000 0.88152  0.35110  0.47622  Biso   1.000  H
  C206     1.0000 0.85822  0.41539  0.43391  Biso   1.000  C
  C207     1.0000 0.87192  0.44628  0.38992  Biso   1.000  C
  C208     1.0000 0.88992  0.62808  0.55372  Biso   1.000  C
  C209     1.0000 0.81141  0.57111  0.53290  Biso   1.000  C
  C210     1.0000 0.81141  0.42889  0.46710  Biso   1.000  C
  H239     1.0000 0.85110  0.47622  0.38152  Biso   1.000  H
  H240     1.0000 0.88152  0.64890  0.52378  Biso   1.000  H
  N35      1.0000 0.77750  0.53668  0.54520  Biso   1.000  N
  H241     1.0000 0.80679  0.58939  0.50060  Biso   1.000  H
  N36      1.0000 0.77750  0.46332  0.45480  Biso   1.000  N
  H242     1.0000 0.80679  0.41061  0.49940  Biso   1.000  H
  C211     1.0000 0.73130  0.52828  0.50960  Biso   1.000  C
  C212     1.0000 0.73130  0.47172  0.49040  Biso   1.000  C
  H243     1.0000 0.73319  0.55291  0.47891  Biso   1.000  H
  C213     1.0000 0.67979  0.53909  0.54251  Biso   1.000  C
  H244     1.0000 0.73319  0.44709  0.52109  Biso   1.000  H
  C214     1.0000 0.67979  0.46091  0.45749  Biso   1.000  C
  H245     1.0000 0.67911  0.57622  0.55432  Biso   1.000  H
  H246     1.0000 0.67899  0.51619  0.57389  Biso   1.000  H
  C215     1.0000 0.63049  0.52748  0.50631  Biso   1.000  C
  H247     1.0000 0.67911  0.42378  0.44568  Biso   1.000  H
  H248     1.0000 0.67899  0.48381  0.42611  Biso   1.000  H
  C216     1.0000 0.63049  0.47252  0.49369  Biso   1.000  C
  H249     1.0000 0.59771  0.53688  0.52511  Biso   1.000  H
  H250     1.0000 0.63250  0.54869  0.47368  Biso   1.000  H
  H251     1.0000 0.59771  0.46312  0.47489  Biso   1.000  H
  H252     1.0000 0.63250  0.45131  0.52632  Biso   1.000  H
  C217     1.0000 0.39180  0.31611  0.33459  Biso   1.000  C
  C218     1.0000 0.43861  0.28288  0.32109  Biso   1.000  C
  C219     1.0000 0.36010  0.30370  0.37810  Biso   1.000  C
  C220     1.0000 0.37810  0.36010  0.30370  Biso   1.000  C
  N37      1.0000 0.47252  0.29522  0.28670  Biso   1.000  N
  H253     1.0000 0.44319  0.25058  0.33941  Biso   1.000  H
  H254     1.0000 0.36850  0.27380  0.39892  Biso   1.000  H
  C221     1.0000 0.31611  0.33459  0.39180  Biso   1.000  C
  H255     1.0000 0.39892  0.36850  0.27380  Biso   1.000  H
  C222     1.0000 0.33459  0.39180  0.31611  Biso   1.000  C
  C223     1.0000 0.51868  0.25958  0.27826  Biso   1.000  C
  C224     1.0000 0.30370  0.37810  0.36010  Biso   1.000  C
  C225     1.0000 0.28288  0.32109  0.43861  Biso   1.000  C
  C226     1.0000 0.32109  0.43861  0.28288  Biso   1.000  C
  C227     1.0000 0.51868  0.24042  0.22174  Biso   1.000  C
  H256     1.0000 0.51679  0.22889  0.30289  Biso   1.000  H
  C228     1.0000 0.57019  0.29249  0.28911  Biso   1.000  C
  H257     1.0000 0.27380  0.39892  0.36850  Biso   1.000  H
  N38      1.0000 0.29522  0.28670  0.47252  Biso   1.000  N
  H258     1.0000 0.25058  0.33941  0.44319  Biso   1.000  H
  N39      1.0000 0.28670  0.47252  0.29522  Biso   1.000  N
  H259     1.0000 0.33941  0.44319  0.25058  Biso   1.000  H
  N40      1.0000 0.47252  0.20478  0.21330  Biso   1.000  N
  H260     1.0000 0.51679  0.27111  0.19711  Biso   1.000  H
  C229     1.0000 0.57019  0.20751  0.21089  Biso   1.000  C
  H261     1.0000 0.57091  0.30430  0.32620  Biso   1.000  H
  H262     1.0000 0.57099  0.32391  0.26621  Biso   1.000  H
  C230     1.0000 0.61949  0.25629  0.27750  Biso   1.000  C
  C231     1.0000 0.25958  0.27826  0.51868  Biso   1.000  C
  C232     1.0000 0.27826  0.51868  0.25958  Biso   1.000  C
  C233     1.0000 0.43861  0.21712  0.17891  Biso   1.000  C
  H263     1.0000 0.57091  0.19570  0.17380  Biso   1.000  H
  H264     1.0000 0.57099  0.17609  0.23379  Biso   1.000  H
  C234     1.0000 0.61949  0.24371  0.22250  Biso   1.000  C
  H265     1.0000 0.65231  0.27509  0.28690  Biso   1.000  H
  H266     1.0000 0.61752  0.22370  0.29871  Biso   1.000  H
  C235     1.0000 0.24042  0.22174  0.51868  Biso   1.000  C
  H267     1.0000 0.22889  0.30289  0.51679  Biso   1.000  H
  C236     1.0000 0.29249  0.28911  0.57019  Biso   1.000  C
  C237     1.0000 0.22174  0.51868  0.24042  Biso   1.000  C
  H268     1.0000 0.30289  0.51679  0.22889  Biso   1.000  H
  C238     1.0000 0.28911  0.57019  0.29249  Biso   1.000  C
  C239     1.0000 0.39180  0.18389  0.16541  Biso   1.000  C
  H269     1.0000 0.44319  0.24942  0.16059  Biso   1.000  H
  H270     1.0000 0.65231  0.22491  0.21310  Biso   1.000  H
  H271     1.0000 0.61752  0.27630  0.20129  Biso   1.000  H
  N41      1.0000 0.20478  0.21330  0.47252  Biso   1.000  N
  H272     1.0000 0.27111  0.19711  0.51679  Biso   1.000  H
  C240     1.0000 0.20751  0.21089  0.57019  Biso   1.000  C
  H273     1.0000 0.30430  0.32620  0.57091  Biso   1.000  H
  H274     1.0000 0.32391  0.26621  0.57099  Biso   1.000  H
  C241     1.0000 0.25629  0.27750  0.61949  Biso   1.000  C
  N42      1.0000 0.21330  0.47252  0.20478  Biso   1.000  N
  H275     1.0000 0.19711  0.51679  0.27111  Biso   1.000  H
  C242     1.0000 0.21089  0.57019  0.20751  Biso   1.000  C
  H276     1.0000 0.32620  0.57091  0.30430  Biso   1.000  H
  H277     1.0000 0.26621  0.57099  0.32391  Biso   1.000  H
  C243     1.0000 0.27750  0.61949  0.25629  Biso   1.000  C
  C244     1.0000 0.37810  0.13990  0.19630  Biso   1.000  C
  C245     1.0000 0.36010  0.19630  0.12190  Biso   1.000  C
  C246     1.0000 0.21712  0.17891  0.43861  Biso   1.000  C
  H278     1.0000 0.19570  0.17380  0.57091  Biso   1.000  H
  H279     1.0000 0.17609  0.23379  0.57099  Biso   1.000  H
  C247     1.0000 0.24371  0.22250  0.61949  Biso   1.000  C
  H280     1.0000 0.27509  0.28690  0.65231  Biso   1.000  H
  H281     1.0000 0.22370  0.29871  0.61752  Biso   1.000  H
  C248     1.0000 0.17891  0.43861  0.21712  Biso   1.000  C
  H282     1.0000 0.17380  0.57091  0.19570  Biso   1.000  H
  H283     1.0000 0.23379  0.57099  0.17609  Biso   1.000  H
  C249     1.0000 0.22250  0.61949  0.24371  Biso   1.000  C
  H284     1.0000 0.28690  0.65231  0.27509  Biso   1.000  H
  H285     1.0000 0.29871  0.61752  0.22370  Biso   1.000  H
  H286     1.0000 0.39892  0.13150  0.22620  Biso   1.000  H
  C250     1.0000 0.33459  0.10820  0.18389  Biso   1.000  C
  H287     1.0000 0.36850  0.22620  0.10108  Biso   1.000  H
  C251     1.0000 0.31611  0.16541  0.10820  Biso   1.000  C
  C252     1.0000 0.18389  0.16541  0.39180  Biso   1.000  C
  H288     1.0000 0.24942  0.16059  0.44319  Biso   1.000  H
  H289     1.0000 0.22491  0.21310  0.65231  Biso   1.000  H
  H290     1.0000 0.27630  0.20129  0.61752  Biso   1.000  H
  C253     1.0000 0.16541  0.39180  0.18389  Biso   1.000  C
  H291     1.0000 0.16059  0.44319  0.24942  Biso   1.000  H
  H292     1.0000 0.21310  0.65231  0.22491  Biso   1.000  H
  H293     1.0000 0.20129  0.61752  0.27630  Biso   1.000  H
  C254     1.0000 0.30370  0.12190  0.13990  Biso   1.000  C
  C255     1.0000 0.32109  0.06139  0.21712  Biso   1.000  C
  C256     1.0000 0.28288  0.17891  0.06139  Biso   1.000  C
  C257     1.0000 0.19630  0.12190  0.36010  Biso   1.000  C
  C258     1.0000 0.13990  0.19630  0.37810  Biso   1.000  C
  C259     1.0000 0.19630  0.37810  0.13990  Biso   1.000  C
  C260     1.0000 0.12190  0.36010  0.19630  Biso   1.000  C
  H294     1.0000 0.27380  0.10108  0.13150  Biso   1.000  H
  N43      1.0000 0.28670  0.02748  0.20478  Biso   1.000  N
  H295     1.0000 0.33941  0.05681  0.24942  Biso   1.000  H
  N44      1.0000 0.29522  0.21330  0.02748  Biso   1.000  N
  H296     1.0000 0.25058  0.16059  0.05681  Biso   1.000  H
  C261     1.0000 0.16541  0.10820  0.31611  Biso   1.000  C
  H297     1.0000 0.22620  0.10108  0.36850  Biso   1.000  H
  C262     1.0000 0.10820  0.18389  0.33459  Biso   1.000  C
  H298     1.0000 0.13150  0.22620  0.39892  Biso   1.000  H
  C263     1.0000 0.18389  0.33459  0.10820  Biso   1.000  C
  H299     1.0000 0.22620  0.39892  0.13150  Biso   1.000  H
  C264     1.0000 0.10820  0.31611  0.16541  Biso   1.000  C
  H300     1.0000 0.10108  0.36850  0.22620  Biso   1.000  H
  C265     1.0000 0.27826  0.98132  0.24042  Biso   1.000  C
  C266     1.0000 0.25958  0.22174  0.98132  Biso   1.000  C
  C267     1.0000 0.17891  0.06139  0.28288  Biso   1.000  C
  C268     1.0000 0.12190  0.13990  0.30370  Biso   1.000  C
  C269     1.0000 0.06139  0.21712  0.32109  Biso   1.000  C
  C270     1.0000 0.21712  0.32109  0.06139  Biso   1.000  C
  C271     1.0000 0.13990  0.30370  0.12190  Biso   1.000  C
  C272     1.0000 0.06139  0.28288  0.17891  Biso   1.000  C
  C273     1.0000 0.22174  0.98132  0.25958  Biso   1.000  C
  H301     1.0000 0.30289  0.98321  0.27111  Biso   1.000  H
  C274     1.0000 0.28911  0.92981  0.20751  Biso   1.000  C
  C275     1.0000 0.24042  0.27826  0.98132  Biso   1.000  C
  H302     1.0000 0.22889  0.19711  0.98321  Biso   1.000  H
  C276     1.0000 0.29249  0.21089  0.92981  Biso   1.000  C
  N45      1.0000 0.21330  0.02748  0.29522  Biso   1.000  N
  H303     1.0000 0.16059  0.05681  0.25058  Biso   1.000  H
  H304     1.0000 0.10108  0.13150  0.27380  Biso   1.000  H
  N46      1.0000 0.02748  0.20478  0.28670  Biso   1.000  N
  H305     1.0000 0.05681  0.24942  0.33941  Biso   1.000  H
  N47      1.0000 0.20478  0.28670  0.02748  Biso   1.000  N
  H306     1.0000 0.24942  0.33941  0.05681  Biso   1.000  H
  H307     1.0000 0.13150  0.27380  0.10108  Biso   1.000  H
  N48      1.0000 0.02748  0.29522  0.21330  Biso   1.000  N
  H308     1.0000 0.05681  0.25058  0.16059  Biso   1.000  H
  H309     1.0000 0.19711  0.98321  0.22889  Biso   1.000  H
  C277     1.0000 0.21089  0.92981  0.29249  Biso   1.000  C
  H310     1.0000 0.32620  0.92909  0.19570  Biso   1.000  H
  H311     1.0000 0.26621  0.92901  0.17609  Biso   1.000  H
  C278     1.0000 0.27750  0.88051  0.24371  Biso   1.000  C
  H312     1.0000 0.27111  0.30289  0.98321  Biso   1.000  H
  C279     1.0000 0.20751  0.28911  0.92981  Biso   1.000  C
  H313     1.0000 0.30430  0.17380  0.92909  Biso   1.000  H
  H314     1.0000 0.32391  0.23379  0.92901  Biso   1.000  H
  C280     1.0000 0.25629  0.22250  0.88051  Biso   1.000  C
  C281     1.0000 0.98132  0.24042  0.27826  Biso   1.000  C
  C282     1.0000 0.98132  0.25958  0.22174  Biso   1.000  C
  H315     1.0000 0.17380  0.92909  0.30430  Biso   1.000  H
  H316     1.0000 0.23379  0.92901  0.32391  Biso   1.000  H
  C283     1.0000 0.22250  0.88051  0.25629  Biso   1.000  C
  H317     1.0000 0.28690  0.84769  0.22491  Biso   1.000  H
  H318     1.0000 0.29871  0.88248  0.27630  Biso   1.000  H
  H319     1.0000 0.19570  0.32620  0.92909  Biso   1.000  H
  H320     1.0000 0.17609  0.26621  0.92901  Biso   1.000  H
  C284     1.0000 0.24371  0.27750  0.88051  Biso   1.000  C
  H321     1.0000 0.27509  0.21310  0.84769  Biso   1.000  H
  H322     1.0000 0.22370  0.20129  0.88248  Biso   1.000  H
  H323     1.0000 0.98321  0.27111  0.30289  Biso   1.000  H
  C285     1.0000 0.92981  0.20751  0.28911  Biso   1.000  C
  H324     1.0000 0.98321  0.22889  0.19711  Biso   1.000  H
  C286     1.0000 0.92981  0.29249  0.21089  Biso   1.000  C
  H325     1.0000 0.21310  0.84769  0.27509  Biso   1.000  H
  H326     1.0000 0.20129  0.88248  0.22370  Biso   1.000  H
  H327     1.0000 0.22491  0.28690  0.84769  Biso   1.000  H
  H328     1.0000 0.27630  0.29871  0.88248  Biso   1.000  H
  H329     1.0000 0.92909  0.19570  0.32620  Biso   1.000  H
  H330     1.0000 0.92901  0.17609  0.26621  Biso   1.000  H
  C287     1.0000 0.88051  0.24371  0.27750  Biso   1.000  C
  H331     1.0000 0.92909  0.30430  0.17380  Biso   1.000  H
  H332     1.0000 0.92901  0.32391  0.23379  Biso   1.000  H
  C288     1.0000 0.88051  0.25629  0.22250  Biso   1.000  C
  H333     1.0000 0.84769  0.22491  0.28690  Biso   1.000  H
  H334     1.0000 0.88248  0.27630  0.29871  Biso   1.000  H
  H335     1.0000 0.84769  0.27509  0.21310  Biso   1.000  H
  H336     1.0000 0.88248  0.22370  0.20129  Biso   1.000  H
  C289     1.0000 0.66541  0.60820  0.31611  Biso   1.000  C
  C290     1.0000 0.67891  0.56139  0.28288  Biso   1.000  C
  C291     1.0000 0.69630  0.62190  0.36010  Biso   1.000  C
  C292     1.0000 0.62190  0.63990  0.30370  Biso   1.000  C
  N49      1.0000 0.71330  0.52748  0.29522  Biso   1.000  N
  H337     1.0000 0.66059  0.55681  0.25058  Biso   1.000  H
  H338     1.0000 0.72620  0.60108  0.36850  Biso   1.000  H
  C293     1.0000 0.68389  0.66541  0.39180  Biso   1.000  C
  H339     1.0000 0.60108  0.63150  0.27380  Biso   1.000  H
  C294     1.0000 0.60820  0.68389  0.33459  Biso   1.000  C
  C295     1.0000 0.72174  0.48132  0.25958  Biso   1.000  C
  C296     1.0000 0.63990  0.69630  0.37810  Biso   1.000  C
  C297     1.0000 0.71712  0.67891  0.43861  Biso   1.000  C
  C298     1.0000 0.56139  0.71712  0.32109  Biso   1.000  C
  C299     1.0000 0.71089  0.42981  0.29249  Biso   1.000  C
  C300     1.0000 0.77826  0.48132  0.24042  Biso   1.000  C
  H340     1.0000 0.69711  0.48321  0.22889  Biso   1.000  H
  H341     1.0000 0.63150  0.72620  0.39892  Biso   1.000  H
  N50      1.0000 0.70478  0.71330  0.47252  Biso   1.000  N
  H342     1.0000 0.74942  0.66059  0.44319  Biso   1.000  H
  N51      1.0000 0.52748  0.70478  0.28670  Biso   1.000  N
  H343     1.0000 0.55681  0.74942  0.33941  Biso   1.000  H
  C301     1.0000 0.72250  0.38051  0.25629  Biso   1.000  C
  H344     1.0000 0.67380  0.42909  0.30430  Biso   1.000  H
  H345     1.0000 0.73379  0.42901  0.32391  Biso   1.000  H
  C302     1.0000 0.78911  0.42981  0.20751  Biso   1.000  C
  N52      1.0000 0.78670  0.52748  0.20478  Biso   1.000  N
  H346     1.0000 0.80289  0.48321  0.27111  Biso   1.000  H
  C303     1.0000 0.74042  0.72174  0.51868  Biso   1.000  C
  C304     1.0000 0.48132  0.74042  0.27826  Biso   1.000  C
  C305     1.0000 0.77750  0.38051  0.24371  Biso   1.000  C
  H347     1.0000 0.71310  0.34769  0.27509  Biso   1.000  H
  H348     1.0000 0.70129  0.38248  0.22370  Biso   1.000  H
  H349     1.0000 0.82620  0.42909  0.19570  Biso   1.000  H
  H350     1.0000 0.76621  0.42901  0.17609  Biso   1.000  H
  C306     1.0000 0.82109  0.56139  0.21712  Biso   1.000  C
  C307     1.0000 0.75958  0.77826  0.51868  Biso   1.000  C
  H351     1.0000 0.77111  0.69711  0.51679  Biso   1.000  H
  C308     1.0000 0.70751  0.71089  0.57019  Biso   1.000  C
  C309     1.0000 0.48132  0.75958  0.22174  Biso   1.000  C
  H352     1.0000 0.48321  0.77111  0.30289  Biso   1.000  H
  C310     1.0000 0.42981  0.70751  0.28911  Biso   1.000  C
  H353     1.0000 0.78690  0.34769  0.22491  Biso   1.000  H
  H354     1.0000 0.79871  0.38248  0.27630  Biso   1.000  H
  C311     1.0000 0.83459  0.60820  0.18389  Biso   1.000  C
  H355     1.0000 0.83941  0.55681  0.24942  Biso   1.000  H
  N53      1.0000 0.79522  0.78670  0.47252  Biso   1.000  N
  H356     1.0000 0.72889  0.80289  0.51679  Biso   1.000  H
  C312     1.0000 0.79249  0.78911  0.57019  Biso   1.000  C
  H357     1.0000 0.69570  0.67380  0.57091  Biso   1.000  H
  H358     1.0000 0.67609  0.73379  0.57099  Biso   1.000  H
  C313     1.0000 0.74371  0.72250  0.61949  Biso   1.000  C
  N54      1.0000 0.52748  0.79522  0.21330  Biso   1.000  N
  H359     1.0000 0.48321  0.72889  0.19711  Biso   1.000  H
  C314     1.0000 0.42981  0.79249  0.21089  Biso   1.000  C
  H360     1.0000 0.42909  0.69570  0.32620  Biso   1.000  H
  H361     1.0000 0.42901  0.67609  0.26621  Biso   1.000  H
  C315     1.0000 0.38051  0.74371  0.27750  Biso   1.000  C
  C316     1.0000 0.80370  0.62190  0.13990  Biso   1.000  C
  C317     1.0000 0.87810  0.63990  0.19630  Biso   1.000  C
  C318     1.0000 0.78288  0.82109  0.43861  Biso   1.000  C
  H362     1.0000 0.80430  0.82620  0.57091  Biso   1.000  H
  H363     1.0000 0.82391  0.76621  0.57099  Biso   1.000  H
  C319     1.0000 0.75629  0.77750  0.61949  Biso   1.000  C
  H364     1.0000 0.72491  0.71310  0.65231  Biso   1.000  H
  H365     1.0000 0.77630  0.70129  0.61752  Biso   1.000  H
  C320     1.0000 0.56139  0.78288  0.17891  Biso   1.000  C
  H366     1.0000 0.42909  0.80430  0.17380  Biso   1.000  H
  H367     1.0000 0.42901  0.82391  0.23379  Biso   1.000  H
  C321     1.0000 0.38051  0.75629  0.22250  Biso   1.000  C
  H368     1.0000 0.34769  0.72491  0.28690  Biso   1.000  H
  H369     1.0000 0.38248  0.77630  0.29871  Biso   1.000  H
  H370     1.0000 0.77380  0.60108  0.13150  Biso   1.000  H
  C322     1.0000 0.81611  0.66541  0.10820  Biso   1.000  C
  H371     1.0000 0.89892  0.63150  0.22620  Biso   1.000  H
  C323     1.0000 0.89180  0.68389  0.16541  Biso   1.000  C
  C324     1.0000 0.81611  0.83459  0.39180  Biso   1.000  C
  H372     1.0000 0.75058  0.83941  0.44319  Biso   1.000  H
  H373     1.0000 0.77509  0.78690  0.65231  Biso   1.000  H
  H374     1.0000 0.72370  0.79871  0.61752  Biso   1.000  H
  C325     1.0000 0.60820  0.81611  0.16541  Biso   1.000  C
  H375     1.0000 0.55681  0.75058  0.16059  Biso   1.000  H
  H376     1.0000 0.34769  0.77509  0.21310  Biso   1.000  H
  H377     1.0000 0.38248  0.72370  0.20129  Biso   1.000  H
  C326     1.0000 0.86010  0.69630  0.12190  Biso   1.000  C
  C327     1.0000 0.78288  0.67891  0.06139  Biso   1.000  C
  C328     1.0000 0.93861  0.71712  0.17891  Biso   1.000  C
  C329     1.0000 0.86010  0.80370  0.37810  Biso   1.000  C
  C330     1.0000 0.80370  0.87810  0.36010  Biso   1.000  C
  C331     1.0000 0.63990  0.80370  0.12190  Biso   1.000  C
  C332     1.0000 0.62190  0.86010  0.19630  Biso   1.000  C
  H378     1.0000 0.86850  0.72620  0.10108  Biso   1.000  H
  N55      1.0000 0.79522  0.71330  0.02748  Biso   1.000  N
  H379     1.0000 0.75058  0.66059  0.05681  Biso   1.000  H
  N56      1.0000 0.97252  0.70478  0.21330  Biso   1.000  N
  H380     1.0000 0.94319  0.74942  0.16059  Biso   1.000  H
  C333     1.0000 0.89180  0.81611  0.33459  Biso   1.000  C
  H381     1.0000 0.86850  0.77380  0.39892  Biso   1.000  H
  H382     1.0000 0.77380  0.89892  0.36850  Biso   1.000  H
  C334     1.0000 0.83459  0.89180  0.31611  Biso   1.000  C
  C335     1.0000 0.68389  0.83459  0.10820  Biso   1.000  C
  H383     1.0000 0.63150  0.77380  0.10108  Biso   1.000  H
  H384     1.0000 0.60108  0.86850  0.22620  Biso   1.000  H
  C336     1.0000 0.66541  0.89180  0.18389  Biso   1.000  C
  C337     1.0000 0.75958  0.72174  0.98132  Biso   1.000  C
  C338     1.0000 0.01868  0.74042  0.22174  Biso   1.000  C
  C339     1.0000 0.93861  0.78288  0.32109  Biso   1.000  C
  C340     1.0000 0.87810  0.86010  0.30370  Biso   1.000  C
  C341     1.0000 0.82109  0.93861  0.28288  Biso   1.000  C
  C342     1.0000 0.71712  0.82109  0.06139  Biso   1.000  C
  C343     1.0000 0.69630  0.87810  0.13990  Biso   1.000  C
  C344     1.0000 0.67891  0.93861  0.21712  Biso   1.000  C
  C345     1.0000 0.74042  0.77826  0.98132  Biso   1.000  C
  H385     1.0000 0.72889  0.69711  0.98321  Biso   1.000  H
  C346     1.0000 0.79249  0.71089  0.92981  Biso   1.000  C
  C347     1.0000 0.01868  0.75958  0.27826  Biso   1.000  C
  H386     1.0000 0.01679  0.77111  0.19711  Biso   1.000  H
  C348     1.0000 0.07019  0.70751  0.21089  Biso   1.000  C
  N57      1.0000 0.97252  0.79522  0.28670  Biso   1.000  N
  H387     1.0000 0.94319  0.75058  0.33941  Biso   1.000  H
  H388     1.0000 0.89892  0.86850  0.27380  Biso   1.000  H
  N58      1.0000 0.78670  0.97252  0.29522  Biso   1.000  N
  H389     1.0000 0.83941  0.94319  0.25058  Biso   1.000  H
  N59      1.0000 0.70478  0.78670  0.02748  Biso   1.000  N
  H390     1.0000 0.74942  0.83941  0.05681  Biso   1.000  H
  H391     1.0000 0.72620  0.89892  0.13150  Biso   1.000  H
  N60      1.0000 0.71330  0.97252  0.20478  Biso   1.000  N
  H392     1.0000 0.66059  0.94319  0.24942  Biso   1.000  H
  H393     1.0000 0.77111  0.80289  0.98321  Biso   1.000  H
  C349     1.0000 0.70751  0.78911  0.92981  Biso   1.000  C
  H394     1.0000 0.80430  0.67380  0.92909  Biso   1.000  H
  H395     1.0000 0.82391  0.73379  0.92901  Biso   1.000  H
  C350     1.0000 0.75629  0.72250  0.88051  Biso   1.000  C
  H396     1.0000 0.01679  0.72889  0.30289  Biso   1.000  H
  C351     1.0000 0.07019  0.79249  0.28911  Biso   1.000  C
  H397     1.0000 0.07091  0.69570  0.17380  Biso   1.000  H
  H398     1.0000 0.07099  0.67609  0.23379  Biso   1.000  H
  C352     1.0000 0.11949  0.74371  0.22250  Biso   1.000  C
  C353     1.0000 0.77826  0.01868  0.25958  Biso   1.000  C
  C354     1.0000 0.72174  0.01868  0.24042  Biso   1.000  C
  H399     1.0000 0.69570  0.82620  0.92909  Biso   1.000  H
  H400     1.0000 0.67609  0.76621  0.92901  Biso   1.000  H
  C355     1.0000 0.74371  0.77750  0.88051  Biso   1.000  C
  H401     1.0000 0.77509  0.71310  0.84769  Biso   1.000  H
  H402     1.0000 0.72370  0.70129  0.88248  Biso   1.000  H
  H403     1.0000 0.07091  0.80430  0.32620  Biso   1.000  H
  H404     1.0000 0.07099  0.82391  0.26621  Biso   1.000  H
  C356     1.0000 0.11949  0.75629  0.27750  Biso   1.000  C
  H405     1.0000 0.15231  0.72491  0.21310  Biso   1.000  H
  H406     1.0000 0.11752  0.77630  0.20129  Biso   1.000  H
  H407     1.0000 0.80289  0.01679  0.22889  Biso   1.000  H
  C357     1.0000 0.78911  0.07019  0.29249  Biso   1.000  C
  H408     1.0000 0.69711  0.01679  0.27111  Biso   1.000  H
  C358     1.0000 0.71089  0.07019  0.20751  Biso   1.000  C
  H409     1.0000 0.72491  0.78690  0.84769  Biso   1.000  H
  H410     1.0000 0.77630  0.79871  0.88248  Biso   1.000  H
  H411     1.0000 0.15231  0.77509  0.28690  Biso   1.000  H
  H412     1.0000 0.11752  0.72370  0.29871  Biso   1.000  H
  H413     1.0000 0.82620  0.07091  0.30430  Biso   1.000  H
  H414     1.0000 0.76621  0.07099  0.32391  Biso   1.000  H
  C359     1.0000 0.77750  0.11949  0.25629  Biso   1.000  C
  H415     1.0000 0.67380  0.07091  0.19570  Biso   1.000  H
  H416     1.0000 0.73379  0.07099  0.17609  Biso   1.000  H
  C360     1.0000 0.72250  0.11949  0.24371  Biso   1.000  C
  H417     1.0000 0.78690  0.15231  0.27509  Biso   1.000  H
  H418     1.0000 0.79871  0.11752  0.22370  Biso   1.000  H
  H419     1.0000 0.71310  0.15231  0.22491  Biso   1.000  H
  H420     1.0000 0.70129  0.11752  0.27630  Biso   1.000  H
  C361     1.0000 0.63990  0.30370  0.62190  Biso   1.000  C
  C362     1.0000 0.68389  0.33459  0.60820  Biso   1.000  C
  H421     1.0000 0.63150  0.27380  0.60108  Biso   1.000  H
  C363     1.0000 0.60820  0.31611  0.66541  Biso   1.000  C
  C364     1.0000 0.71712  0.32109  0.56139  Biso   1.000  C
  C365     1.0000 0.69630  0.37810  0.63990  Biso   1.000  C
  C366     1.0000 0.62190  0.36010  0.69630  Biso   1.000  C
  C367     1.0000 0.56139  0.28288  0.67891  Biso   1.000  C
  N61      1.0000 0.70478  0.28670  0.52748  Biso   1.000  N
  H422     1.0000 0.74942  0.33941  0.55681  Biso   1.000  H
  H423     1.0000 0.72620  0.39892  0.63150  Biso   1.000  H
  C368     1.0000 0.66541  0.39180  0.68389  Biso   1.000  C
  H424     1.0000 0.60108  0.36850  0.72620  Biso   1.000  H
  N62      1.0000 0.52748  0.29522  0.71330  Biso   1.000  N
  H425     1.0000 0.55681  0.25058  0.66059  Biso   1.000  H
  C369     1.0000 0.74042  0.27826  0.48132  Biso   1.000  C
  C370     1.0000 0.67891  0.43861  0.71712  Biso   1.000  C
  C371     1.0000 0.48132  0.25958  0.72174  Biso   1.000  C
  C372     1.0000 0.70751  0.28911  0.42981  Biso   1.000  C
  C373     1.0000 0.75958  0.22174  0.48132  Biso   1.000  C
  H426     1.0000 0.77111  0.30289  0.48321  Biso   1.000  H
  N63      1.0000 0.71330  0.47252  0.70478  Biso   1.000  N
  H427     1.0000 0.66059  0.44319  0.74942  Biso   1.000  H
  C374     1.0000 0.48132  0.24042  0.77826  Biso   1.000  C
  H428     1.0000 0.48321  0.22889  0.69711  Biso   1.000  H
  C375     1.0000 0.42981  0.29249  0.71089  Biso   1.000  C
  H429     1.0000 0.69570  0.32620  0.42909  Biso   1.000  H
  H430     1.0000 0.67609  0.26621  0.42901  Biso   1.000  H
  C376     1.0000 0.74371  0.27750  0.38051  Biso   1.000  C
  N64      1.0000 0.79522  0.21330  0.52748  Biso   1.000  N
  H431     1.0000 0.72889  0.19711  0.48321  Biso   1.000  H
  C377     1.0000 0.79249  0.21089  0.42981  Biso   1.000  C
  C378     1.0000 0.72174  0.51868  0.74042  Biso   1.000  C
  N65      1.0000 0.52748  0.20478  0.78670  Biso   1.000  N
  H432     1.0000 0.48321  0.27111  0.80289  Biso   1.000  H
  C379     1.0000 0.42981  0.20751  0.78911  Biso   1.000  C
  H433     1.0000 0.42909  0.30430  0.67380  Biso   1.000  H
  H434     1.0000 0.42901  0.32391  0.73379  Biso   1.000  H
  C380     1.0000 0.38051  0.25629  0.72250  Biso   1.000  C
  C381     1.0000 0.75629  0.22250  0.38051  Biso   1.000  C
  H435     1.0000 0.72491  0.28690  0.34769  Biso   1.000  H
  H436     1.0000 0.77630  0.29871  0.38248  Biso   1.000  H
  C382     1.0000 0.78288  0.17891  0.56139  Biso   1.000  C
  H437     1.0000 0.80430  0.17380  0.42909  Biso   1.000  H
  H438     1.0000 0.82391  0.23379  0.42901  Biso   1.000  H
  C383     1.0000 0.77826  0.51868  0.75958  Biso   1.000  C
  H439     1.0000 0.69711  0.51679  0.77111  Biso   1.000  H
  C384     1.0000 0.71089  0.57019  0.70751  Biso   1.000  C
  C385     1.0000 0.56139  0.21712  0.82109  Biso   1.000  C
  H440     1.0000 0.42909  0.19570  0.82620  Biso   1.000  H
  H441     1.0000 0.42901  0.17609  0.76621  Biso   1.000  H
  C386     1.0000 0.38051  0.24371  0.77750  Biso   1.000  C
  H442     1.0000 0.34769  0.27509  0.71310  Biso   1.000  H
  H443     1.0000 0.38248  0.22370  0.70129  Biso   1.000  H
  H444     1.0000 0.77509  0.21310  0.34769  Biso   1.000  H
  H445     1.0000 0.72370  0.20129  0.38248  Biso   1.000  H
  C387     1.0000 0.81611  0.16541  0.60820  Biso   1.000  C
  H446     1.0000 0.75058  0.16059  0.55681  Biso   1.000  H
  N66      1.0000 0.78670  0.47252  0.79522  Biso   1.000  N
  H447     1.0000 0.80289  0.51679  0.72889  Biso   1.000  H
  C388     1.0000 0.78911  0.57019  0.79249  Biso   1.000  C
  H448     1.0000 0.67380  0.57091  0.69570  Biso   1.000  H
  H449     1.0000 0.73379  0.57099  0.67609  Biso   1.000  H
  C389     1.0000 0.72250  0.61949  0.74371  Biso   1.000  C
  C390     1.0000 0.60820  0.18389  0.83459  Biso   1.000  C
  H450     1.0000 0.55681  0.24942  0.83941  Biso   1.000  H
  H451     1.0000 0.34769  0.22491  0.78690  Biso   1.000  H
  H452     1.0000 0.38248  0.27630  0.79871  Biso   1.000  H
  C391     1.0000 0.80370  0.12190  0.63990  Biso   1.000  C
  C392     1.0000 0.86010  0.19630  0.62190  Biso   1.000  C
  C393     1.0000 0.82109  0.43861  0.78288  Biso   1.000  C
  H453     1.0000 0.82620  0.57091  0.80430  Biso   1.000  H
  H454     1.0000 0.76621  0.57099  0.82391  Biso   1.000  H
  C394     1.0000 0.77750  0.61949  0.75629  Biso   1.000  C
  H455     1.0000 0.71310  0.65231  0.72491  Biso   1.000  H
  H456     1.0000 0.70129  0.61752  0.77630  Biso   1.000  H
  C395     1.0000 0.63990  0.19630  0.87810  Biso   1.000  C
  C396     1.0000 0.62190  0.13990  0.80370  Biso   1.000  C
  H457     1.0000 0.77380  0.10108  0.63150  Biso   1.000  H
  C397     1.0000 0.83459  0.10820  0.68389  Biso   1.000  C
  H458     1.0000 0.86850  0.22620  0.60108  Biso   1.000  H
  C398     1.0000 0.89180  0.18389  0.66541  Biso   1.000  C
  C399     1.0000 0.83459  0.39180  0.81611  Biso   1.000  C
  H459     1.0000 0.83941  0.44319  0.75058  Biso   1.000  H
  H460     1.0000 0.78690  0.65231  0.77509  Biso   1.000  H
  H461     1.0000 0.79871  0.61752  0.72370  Biso   1.000  H
  H462     1.0000 0.63150  0.22620  0.89892  Biso   1.000  H
  C400     1.0000 0.68389  0.16541  0.89180  Biso   1.000  C
  C401     1.0000 0.66541  0.10820  0.81611  Biso   1.000  C
  H463     1.0000 0.60108  0.13150  0.77380  Biso   1.000  H
  C402     1.0000 0.87810  0.13990  0.69630  Biso   1.000  C
  C403     1.0000 0.82109  0.06139  0.71712  Biso   1.000  C
  C404     1.0000 0.93861  0.21712  0.67891  Biso   1.000  C
  C405     1.0000 0.87810  0.36010  0.80370  Biso   1.000  C
  C406     1.0000 0.80370  0.37810  0.86010  Biso   1.000  C
  C407     1.0000 0.69630  0.12190  0.86010  Biso   1.000  C
  C408     1.0000 0.71712  0.17891  0.93861  Biso   1.000  C
  C409     1.0000 0.67891  0.06139  0.78288  Biso   1.000  C
  H464     1.0000 0.89892  0.13150  0.72620  Biso   1.000  H
  N67      1.0000 0.78670  0.02748  0.70478  Biso   1.000  N
  H465     1.0000 0.83941  0.05681  0.74942  Biso   1.000  H
  N68      1.0000 0.97252  0.20478  0.71330  Biso   1.000  N
  H466     1.0000 0.94319  0.24942  0.66059  Biso   1.000  H
  C410     1.0000 0.89180  0.31611  0.83459  Biso   1.000  C
  H467     1.0000 0.89892  0.36850  0.77380  Biso   1.000  H
  H468     1.0000 0.77380  0.39892  0.86850  Biso   1.000  H
  C411     1.0000 0.81611  0.33459  0.89180  Biso   1.000  C
  H469     1.0000 0.72620  0.10108  0.86850  Biso   1.000  H
  N69      1.0000 0.70478  0.21330  0.97252  Biso   1.000  N
  H470     1.0000 0.74942  0.16059  0.94319  Biso   1.000  H
  N70      1.0000 0.71330  0.02748  0.79522  Biso   1.000  N
  H471     1.0000 0.66059  0.05681  0.75058  Biso   1.000  H
  C412     1.0000 0.77826  0.98132  0.74042  Biso   1.000  C
  C413     1.0000 0.01868  0.24042  0.72174  Biso   1.000  C
  C414     1.0000 0.93861  0.28288  0.82109  Biso   1.000  C
  C415     1.0000 0.86010  0.30370  0.87810  Biso   1.000  C
  C416     1.0000 0.78288  0.32109  0.93861  Biso   1.000  C
  C417     1.0000 0.74042  0.22174  0.01868  Biso   1.000  C
  C418     1.0000 0.72174  0.98132  0.75958  Biso   1.000  C
  H472     1.0000 0.80289  0.98321  0.77111  Biso   1.000  H
  C419     1.0000 0.78911  0.92981  0.70751  Biso   1.000  C
  C420     1.0000 0.01868  0.25958  0.77826  Biso   1.000  C
  H473     1.0000 0.01679  0.27111  0.69711  Biso   1.000  H
  C421     1.0000 0.07019  0.20751  0.71089  Biso   1.000  C
  N71      1.0000 0.97252  0.29522  0.78670  Biso   1.000  N
  H474     1.0000 0.94319  0.25058  0.83941  Biso   1.000  H
  H475     1.0000 0.86850  0.27380  0.89892  Biso   1.000  H
  N72      1.0000 0.79522  0.28670  0.97252  Biso   1.000  N
  H476     1.0000 0.75058  0.33941  0.94319  Biso   1.000  H
  C422     1.0000 0.75958  0.27826  0.01868  Biso   1.000  C
  H477     1.0000 0.77111  0.19711  0.01679  Biso   1.000  H
  C423     1.0000 0.70751  0.21089  0.07019  Biso   1.000  C
  H478     1.0000 0.69711  0.98321  0.72889  Biso   1.000  H
  C424     1.0000 0.71089  0.92981  0.79249  Biso   1.000  C
  H479     1.0000 0.82620  0.92909  0.69570  Biso   1.000  H
  H480     1.0000 0.76621  0.92901  0.67609  Biso   1.000  H
  C425     1.0000 0.77750  0.88051  0.74371  Biso   1.000  C
  H481     1.0000 0.01679  0.22889  0.80289  Biso   1.000  H
  C426     1.0000 0.07019  0.29249  0.78911  Biso   1.000  C
  H482     1.0000 0.07091  0.19570  0.67380  Biso   1.000  H
  H483     1.0000 0.07099  0.17609  0.73379  Biso   1.000  H
  C427     1.0000 0.11949  0.24371  0.72250  Biso   1.000  C
  H484     1.0000 0.72889  0.30289  0.01679  Biso   1.000  H
  C428     1.0000 0.79249  0.28911  0.07019  Biso   1.000  C
  H485     1.0000 0.69570  0.17380  0.07091  Biso   1.000  H
  H486     1.0000 0.67609  0.23379  0.07099  Biso   1.000  H
  C429     1.0000 0.74371  0.22250  0.11949  Biso   1.000  C
  H487     1.0000 0.67380  0.92909  0.80430  Biso   1.000  H
  H488     1.0000 0.73379  0.92901  0.82391  Biso   1.000  H
  C430     1.0000 0.72250  0.88051  0.75629  Biso   1.000  C
  H489     1.0000 0.78690  0.84769  0.72491  Biso   1.000  H
  H490     1.0000 0.79871  0.88248  0.77630  Biso   1.000  H
  H491     1.0000 0.07091  0.30430  0.82620  Biso   1.000  H
  H492     1.0000 0.07099  0.32391  0.76621  Biso   1.000  H
  C431     1.0000 0.11949  0.25629  0.77750  Biso   1.000  C
  H493     1.0000 0.15231  0.22491  0.71310  Biso   1.000  H
  H494     1.0000 0.11752  0.27630  0.70129  Biso   1.000  H
  H495     1.0000 0.80430  0.32620  0.07091  Biso   1.000  H
  H496     1.0000 0.82391  0.26621  0.07099  Biso   1.000  H
  C432     1.0000 0.75629  0.27750  0.11949  Biso   1.000  C
  H497     1.0000 0.72491  0.21310  0.15231  Biso   1.000  H
  H498     1.0000 0.77630  0.20129  0.11752  Biso   1.000  H
  H499     1.0000 0.71310  0.84769  0.77509  Biso   1.000  H
  H500     1.0000 0.70129  0.88248  0.72370  Biso   1.000  H
  H501     1.0000 0.15231  0.27509  0.78690  Biso   1.000  H
  H502     1.0000 0.11752  0.22370  0.79871  Biso   1.000  H
  H503     1.0000 0.77509  0.28690  0.15231  Biso   1.000  H
  H504     1.0000 0.72370  0.29871  0.11752  Biso   1.000  H
  C433     1.0000 0.30370  0.62190  0.63990  Biso   1.000  C
  C434     1.0000 0.31611  0.66541  0.60820  Biso   1.000  C
  H505     1.0000 0.27380  0.60108  0.63150  Biso   1.000  H
  C435     1.0000 0.33459  0.60820  0.68389  Biso   1.000  C
  C436     1.0000 0.28288  0.67891  0.56139  Biso   1.000  C
  C437     1.0000 0.36010  0.69630  0.62190  Biso   1.000  C
  C438     1.0000 0.37810  0.63990  0.69630  Biso   1.000  C
  C439     1.0000 0.32109  0.56139  0.71712  Biso   1.000  C
  N73      1.0000 0.29522  0.71330  0.52748  Biso   1.000  N
  H506     1.0000 0.25058  0.66059  0.55681  Biso   1.000  H
  H507     1.0000 0.36850  0.72620  0.60108  Biso   1.000  H
  C440     1.0000 0.39180  0.68389  0.66541  Biso   1.000  C
  H508     1.0000 0.39892  0.63150  0.72620  Biso   1.000  H
  N74      1.0000 0.28670  0.52748  0.70478  Biso   1.000  N
  H509     1.0000 0.33941  0.55681  0.74942  Biso   1.000  H
  C441     1.0000 0.25958  0.72174  0.48132  Biso   1.000  C
  C442     1.0000 0.43861  0.71712  0.67891  Biso   1.000  C
  C443     1.0000 0.27826  0.48132  0.74042  Biso   1.000  C
  C444     1.0000 0.29249  0.71089  0.42981  Biso   1.000  C
  C445     1.0000 0.24042  0.77826  0.48132  Biso   1.000  C
  H510     1.0000 0.22889  0.69711  0.48321  Biso   1.000  H
  N75      1.0000 0.47252  0.70478  0.71330  Biso   1.000  N
  H511     1.0000 0.44319  0.74942  0.66059  Biso   1.000  H
  C446     1.0000 0.22174  0.48132  0.75958  Biso   1.000  C
  H512     1.0000 0.30289  0.48321  0.77111  Biso   1.000  H
  C447     1.0000 0.28911  0.42981  0.70751  Biso   1.000  C
  C448     1.0000 0.25629  0.72250  0.38051  Biso   1.000  C
  H513     1.0000 0.30430  0.67380  0.42909  Biso   1.000  H
  H514     1.0000 0.32391  0.73379  0.42901  Biso   1.000  H
  C449     1.0000 0.20751  0.78911  0.42981  Biso   1.000  C
  N76      1.0000 0.20478  0.78670  0.52748  Biso   1.000  N
  H515     1.0000 0.27111  0.80289  0.48321  Biso   1.000  H
  C450     1.0000 0.51868  0.74042  0.72174  Biso   1.000  C
  N77      1.0000 0.21330  0.52748  0.79522  Biso   1.000  N
  H516     1.0000 0.19711  0.48321  0.72889  Biso   1.000  H
  C451     1.0000 0.21089  0.42981  0.79249  Biso   1.000  C
  H517     1.0000 0.32620  0.42909  0.69570  Biso   1.000  H
  H518     1.0000 0.26621  0.42901  0.67609  Biso   1.000  H
  C452     1.0000 0.27750  0.38051  0.74371  Biso   1.000  C
  C453     1.0000 0.24371  0.77750  0.38051  Biso   1.000  C
  H519     1.0000 0.27509  0.71310  0.34769  Biso   1.000  H
  H520     1.0000 0.22370  0.70129  0.38248  Biso   1.000  H
  H521     1.0000 0.19570  0.82620  0.42909  Biso   1.000  H
  H522     1.0000 0.17609  0.76621  0.42901  Biso   1.000  H
  C454     1.0000 0.21712  0.82109  0.56139  Biso   1.000  C
  C455     1.0000 0.51868  0.75958  0.77826  Biso   1.000  C
  H523     1.0000 0.51679  0.77111  0.69711  Biso   1.000  H
  C456     1.0000 0.57019  0.70751  0.71089  Biso   1.000  C
  C457     1.0000 0.17891  0.56139  0.78288  Biso   1.000  C
  H524     1.0000 0.17380  0.42909  0.80430  Biso   1.000  H
  H525     1.0000 0.23379  0.42901  0.82391  Biso   1.000  H
  C458     1.0000 0.22250  0.38051  0.75629  Biso   1.000  C
  H526     1.0000 0.28690  0.34769  0.72491  Biso   1.000  H
  H527     1.0000 0.29871  0.38248  0.77630  Biso   1.000  H
  H528     1.0000 0.22491  0.78690  0.34769  Biso   1.000  H
  H529     1.0000 0.27630  0.79871  0.38248  Biso   1.000  H
  C459     1.0000 0.18389  0.83459  0.60820  Biso   1.000  C
  H530     1.0000 0.24942  0.83941  0.55681  Biso   1.000  H
  N78      1.0000 0.47252  0.79522  0.78670  Biso   1.000  N
  H531     1.0000 0.51679  0.72889  0.80289  Biso   1.000  H
  C460     1.0000 0.57019  0.79249  0.78911  Biso   1.000  C
  H532     1.0000 0.57091  0.69570  0.67380  Biso   1.000  H
  H533     1.0000 0.57099  0.67609  0.73379  Biso   1.000  H
  C461     1.0000 0.61949  0.74371  0.72250  Biso   1.000  C
  C462     1.0000 0.16541  0.60820  0.81611  Biso   1.000  C
  H534     1.0000 0.16059  0.55681  0.75058  Biso   1.000  H
  H535     1.0000 0.21310  0.34769  0.77509  Biso   1.000  H
  H536     1.0000 0.20129  0.38248  0.72370  Biso   1.000  H
  C463     1.0000 0.19630  0.87810  0.63990  Biso   1.000  C
  C464     1.0000 0.13990  0.80370  0.62190  Biso   1.000  C
  C465     1.0000 0.43861  0.78288  0.82109  Biso   1.000  C
  H537     1.0000 0.57091  0.80430  0.82620  Biso   1.000  H
  H538     1.0000 0.57099  0.82391  0.76621  Biso   1.000  H
  C466     1.0000 0.61949  0.75629  0.77750  Biso   1.000  C
  H539     1.0000 0.65231  0.72491  0.71310  Biso   1.000  H
  H540     1.0000 0.61752  0.77630  0.70129  Biso   1.000  H
  C467     1.0000 0.12190  0.63990  0.80370  Biso   1.000  C
  C468     1.0000 0.19630  0.62190  0.86010  Biso   1.000  C
  H541     1.0000 0.22620  0.89892  0.63150  Biso   1.000  H
  C469     1.0000 0.16541  0.89180  0.68389  Biso   1.000  C
  H542     1.0000 0.13150  0.77380  0.60108  Biso   1.000  H
  C470     1.0000 0.10820  0.81611  0.66541  Biso   1.000  C
  C471     1.0000 0.39180  0.81611  0.83459  Biso   1.000  C
  H543     1.0000 0.44319  0.75058  0.83941  Biso   1.000  H
  H544     1.0000 0.65231  0.77509  0.78690  Biso   1.000  H
  H545     1.0000 0.61752  0.72370  0.79871  Biso   1.000  H
  C472     1.0000 0.10820  0.68389  0.83459  Biso   1.000  C
  H546     1.0000 0.10108  0.63150  0.77380  Biso   1.000  H
  H547     1.0000 0.22620  0.60108  0.86850  Biso   1.000  H
  C473     1.0000 0.18389  0.66541  0.89180  Biso   1.000  C
  C474     1.0000 0.12190  0.86010  0.69630  Biso   1.000  C
  C475     1.0000 0.17891  0.93861  0.71712  Biso   1.000  C
  C476     1.0000 0.06139  0.78288  0.67891  Biso   1.000  C
  C477     1.0000 0.37810  0.86010  0.80370  Biso   1.000  C
  C478     1.0000 0.36010  0.80370  0.87810  Biso   1.000  C
  C479     1.0000 0.06139  0.71712  0.82109  Biso   1.000  C
  C480     1.0000 0.13990  0.69630  0.87810  Biso   1.000  C
  C481     1.0000 0.21712  0.67891  0.93861  Biso   1.000  C
  H548     1.0000 0.10108  0.86850  0.72620  Biso   1.000  H
  N79      1.0000 0.21330  0.97252  0.70478  Biso   1.000  N
  H549     1.0000 0.16059  0.94319  0.74942  Biso   1.000  H
  N80      1.0000 0.02748  0.79522  0.71330  Biso   1.000  N
  H550     1.0000 0.05681  0.75058  0.66059  Biso   1.000  H
  C482     1.0000 0.33459  0.89180  0.81611  Biso   1.000  C
  H551     1.0000 0.39892  0.86850  0.77380  Biso   1.000  H
  H552     1.0000 0.36850  0.77380  0.89892  Biso   1.000  H
  C483     1.0000 0.31611  0.83459  0.89180  Biso   1.000  C
  N81      1.0000 0.02748  0.70478  0.78670  Biso   1.000  N
  H553     1.0000 0.05681  0.74942  0.83941  Biso   1.000  H
  H554     1.0000 0.13150  0.72620  0.89892  Biso   1.000  H
  N82      1.0000 0.20478  0.71330  0.97252  Biso   1.000  N
  H555     1.0000 0.24942  0.66059  0.94319  Biso   1.000  H
  C484     1.0000 0.22174  0.01868  0.74042  Biso   1.000  C
  C485     1.0000 0.98132  0.75958  0.72174  Biso   1.000  C
  C486     1.0000 0.32109  0.93861  0.78288  Biso   1.000  C
  C487     1.0000 0.30370  0.87810  0.86010  Biso   1.000  C
  C488     1.0000 0.28288  0.82109  0.93861  Biso   1.000  C
  C489     1.0000 0.98132  0.74042  0.77826  Biso   1.000  C
  C490     1.0000 0.24042  0.72174  0.01868  Biso   1.000  C
  C491     1.0000 0.27826  0.01868  0.75958  Biso   1.000  C
  H556     1.0000 0.19711  0.01679  0.77111  Biso   1.000  H
  C492     1.0000 0.21089  0.07019  0.70751  Biso   1.000  C
  H557     1.0000 0.98321  0.72889  0.69711  Biso   1.000  H
  C493     1.0000 0.92981  0.79249  0.71089  Biso   1.000  C
  N83      1.0000 0.28670  0.97252  0.79522  Biso   1.000  N
  H558     1.0000 0.33941  0.94319  0.75058  Biso   1.000  H
  H559     1.0000 0.27380  0.89892  0.86850  Biso   1.000  H
  N84      1.0000 0.29522  0.78670  0.97252  Biso   1.000  N
  H560     1.0000 0.25058  0.83941  0.94319  Biso   1.000  H
  H561     1.0000 0.98321  0.77111  0.80289  Biso   1.000  H
  C494     1.0000 0.92981  0.70751  0.78911  Biso   1.000  C
  C495     1.0000 0.25958  0.77826  0.01868  Biso   1.000  C
  H562     1.0000 0.27111  0.69711  0.01679  Biso   1.000  H
  C496     1.0000 0.20751  0.71089  0.07019  Biso   1.000  C
  H563     1.0000 0.30289  0.01679  0.72889  Biso   1.000  H
  C497     1.0000 0.28911  0.07019  0.79249  Biso   1.000  C
  H564     1.0000 0.17380  0.07091  0.69570  Biso   1.000  H
  H565     1.0000 0.23379  0.07099  0.67609  Biso   1.000  H
  C498     1.0000 0.22250  0.11949  0.74371  Biso   1.000  C
  H566     1.0000 0.92909  0.80430  0.67380  Biso   1.000  H
  H567     1.0000 0.92901  0.82391  0.73379  Biso   1.000  H
  C499     1.0000 0.88051  0.75629  0.72250  Biso   1.000  C
  H568     1.0000 0.92909  0.69570  0.82620  Biso   1.000  H
  H569     1.0000 0.92901  0.67609  0.76621  Biso   1.000  H
  C500     1.0000 0.88051  0.74371  0.77750  Biso   1.000  C
  H570     1.0000 0.22889  0.80289  0.01679  Biso   1.000  H
  C501     1.0000 0.29249  0.78911  0.07019  Biso   1.000  C
  H571     1.0000 0.19570  0.67380  0.07091  Biso   1.000  H
  H572     1.0000 0.17609  0.73379  0.07099  Biso   1.000  H
  C502     1.0000 0.24371  0.72250  0.11949  Biso   1.000  C
  H573     1.0000 0.32620  0.07091  0.80430  Biso   1.000  H
  H574     1.0000 0.26621  0.07099  0.82391  Biso   1.000  H
  C503     1.0000 0.27750  0.11949  0.75629  Biso   1.000  C
  H575     1.0000 0.21310  0.15231  0.72491  Biso   1.000  H
  H576     1.0000 0.20129  0.11752  0.77630  Biso   1.000  H
  H577     1.0000 0.84769  0.77509  0.71310  Biso   1.000  H
  H578     1.0000 0.88248  0.72370  0.70129  Biso   1.000  H
  H579     1.0000 0.84769  0.72491  0.78690  Biso   1.000  H
  H580     1.0000 0.88248  0.77630  0.79871  Biso   1.000  H
  H581     1.0000 0.30430  0.82620  0.07091  Biso   1.000  H
  H582     1.0000 0.32391  0.76621  0.07099  Biso   1.000  H
  C504     1.0000 0.25629  0.77750  0.11949  Biso   1.000  C
  H583     1.0000 0.22491  0.71310  0.15231  Biso   1.000  H
  H584     1.0000 0.27630  0.70129  0.11752  Biso   1.000  H
  H585     1.0000 0.28690  0.15231  0.77509  Biso   1.000  H
  H586     1.0000 0.29871  0.11752  0.72370  Biso   1.000  H
  H587     1.0000 0.27509  0.78690  0.15231  Biso   1.000  H
  H588     1.0000 0.22370  0.79871  0.11752  Biso   1.000  H
  Ne1      1.0000 0.25000  0.25000  0.25000  Biso   1.000  Ne
  He1      1.0000 0.18594  0.31406  0.31406  Biso   1.000  He
  He2      1.0000 0.31359  0.18641  0.31358  Biso   1.000  He
  He3      1.0000 0.18331  0.18331  0.18331  Biso   1.000  He
  He4      1.0000 0.31604  0.31604  0.18396  Biso   1.000  He
  Ar1      1.0000 0.25000  0.25000  0.25000  Biso   1.000  Ar
  Ne2      1.0000 0.50000  0.00000  0.50000  Biso   1.000  Ne
  He5      1.0000 0.43439  0.93439  0.56561  Biso   1.000  He
  He6      1.0000 0.56499  0.06499  0.56499  Biso   1.000  He
  He7      1.0000 0.56171  0.93829  0.43829  Biso   1.000  He
  He8      1.0000 0.43440  0.06560  0.43440  Biso   1.000  He
  Ar2      1.0000 0.50000  0.00000  0.50000  Biso   1.000  Ar
  Ne3      1.0000 0.50000  0.50000  0.00000  Biso   1.000  Ne
  He9      1.0000 0.43439  0.43439  0.06561  Biso   1.000  He
  He10     1.0000 0.56499  0.56499  0.06499  Biso   1.000  He
  He11     1.0000 0.56171  0.43829  0.93829  Biso   1.000  He
  He12     1.0000 0.43440  0.56560  0.93440  Biso   1.000  He
  Ar3      1.0000 0.50000  0.50000  0.00000  Biso   1.000  Ar
  Ne4      1.0000 0.00000  0.50000  0.50000  Biso   1.000  Ne
  He13     1.0000 0.93439  0.43439  0.56561  Biso   1.000  He
  He14     1.0000 0.06499  0.56499  0.56499  Biso   1.000  He
  He15     1.0000 0.06171  0.43829  0.43829  Biso   1.000  He
  He16     1.0000 0.93440  0.56560  0.43440  Biso   1.000  He
  Ar4      1.0000 0.00000  0.50000  0.50000  Biso   1.000  Ar
  Ne5      1.0000 0.75000  0.75000  0.25000  Biso   1.000  Ne
  He17     1.0000 0.68594  0.81406  0.31406  Biso   1.000  He
  He18     1.0000 0.81359  0.68641  0.31358  Biso   1.000  He
  He19     1.0000 0.68331  0.68331  0.18331  Biso   1.000  He
  He20     1.0000 0.81604  0.81604  0.18396  Biso   1.000  He
  Ar5      1.0000 0.75000  0.75000  0.25000  Biso   1.000  Ar
  Ne6      1.0000 0.75000  0.25000  0.75000  Biso   1.000  Ne
  He21     1.0000 0.68594  0.31406  0.81406  Biso   1.000  He
  He22     1.0000 0.81359  0.18641  0.81358  Biso   1.000  He
  He23     1.0000 0.68331  0.18331  0.68331  Biso   1.000  He
  He24     1.0000 0.81604  0.31604  0.68396  Biso   1.000  He
  Ar6      1.0000 0.75000  0.25000  0.75000  Biso   1.000  Ar
  Ne7      1.0000 0.25000  0.75000  0.75000  Biso   1.000  Ne
  He25     1.0000 0.18594  0.81406  0.81406  Biso   1.000  He
  He26     1.0000 0.31359  0.68641  0.81358  Biso   1.000  He
  He27     1.0000 0.18331  0.68331  0.68331  Biso   1.000  He
  He28     1.0000 0.31604  0.81604  0.68396  Biso   1.000  He
  Ar7      1.0000 0.25000  0.75000  0.75000  Biso   1.000  Ar
