data_image0
_cell_length_a       24.893
_cell_length_b       24.893
_cell_length_c       24.893
_cell_angle_alpha    90
_cell_angle_beta     90
_cell_angle_gamma    90

_symmetry_space_group_name_H-M    "P 1"
_symmetry_int_tables_number       1

loop_
  _symmetry_equiv_pos_as_xyz
  'x, y, z'

loop_
  _atom_site_label
  _atom_site_occupancy
  _atom_site_fract_x
  _atom_site_fract_y
  _atom_site_fract_z
  _atom_site_thermal_displace_type
  _atom_site_B_iso_or_equiv
  _atom_site_type_symbol
  C1       1.0000 0.50609  0.36938  0.47270  Biso   1.000  C
  C2       1.0000 0.54308  0.31981  0.46049  Biso   1.000  C
  C3       1.0000 0.49391  0.36938  0.52730  Biso   1.000  C
  H1       1.0000 0.52448  0.40240  0.46310  Biso   1.000  H
  H2       1.0000 0.47339  0.36709  0.45169  Biso   1.000  H
  C4       1.0000 0.50958  0.26851  0.47162  Biso   1.000  C
  H3       1.0000 0.55481  0.32049  0.42329  Biso   1.000  H
  H4       1.0000 0.57470  0.32061  0.48339  Biso   1.000  H
  C5       1.0000 0.45692  0.31981  0.53951  Biso   1.000  C
  H5       1.0000 0.47552  0.40240  0.53690  Biso   1.000  H
  H6       1.0000 0.52661  0.36709  0.54831  Biso   1.000  H
  N1       1.0000 0.54521  0.22231  0.46338  Biso   1.000  N
  C6       1.0000 0.49042  0.26851  0.52838  Biso   1.000  C
  H7       1.0000 0.47909  0.26658  0.44691  Biso   1.000  H
  H8       1.0000 0.44519  0.32049  0.57671  Biso   1.000  H
  H9       1.0000 0.42530  0.32061  0.51661  Biso   1.000  H
  C7       1.0000 0.53272  0.18849  0.42871  Biso   1.000  C
  N2       1.0000 0.45479  0.22231  0.53662  Biso   1.000  N
  H10      1.0000 0.52091  0.26658  0.55309  Biso   1.000  H
  C8       1.0000 0.56618  0.14181  0.41530  Biso   1.000  C
  H11      1.0000 0.50038  0.19311  0.41040  Biso   1.000  H
  C9       1.0000 0.46728  0.18849  0.57129  Biso   1.000  C
  C10      1.0000 0.61049  0.12839  0.44599  Biso   1.000  C
  C11      1.0000 0.55401  0.11051  0.37159  Biso   1.000  C
  C12      1.0000 0.43382  0.14181  0.58470  Biso   1.000  C
  H12      1.0000 0.49962  0.19311  0.58960  Biso   1.000  H
  H13      1.0000 0.61929  0.14940  0.47560  Biso   1.000  H
  C13      1.0000 0.64179  0.08468  0.43382  Biso   1.000  C
  H14      1.0000 0.52440  0.11931  0.35058  Biso   1.000  H
  C14      1.0000 0.58470  0.06620  0.35821  Biso   1.000  C
  C15      1.0000 0.44599  0.11051  0.62841  Biso   1.000  C
  C16      1.0000 0.38951  0.12839  0.55401  Biso   1.000  C
  C17      1.0000 0.62841  0.05399  0.38951  Biso   1.000  C
  C18      1.0000 0.68851  0.07131  0.46728  Biso   1.000  C
  C19      1.0000 0.57129  0.03270  0.31149  Biso   1.000  C
  H15      1.0000 0.47560  0.11931  0.64942  Biso   1.000  H
  C20      1.0000 0.41530  0.06620  0.64179  Biso   1.000  C
  H16      1.0000 0.38071  0.14940  0.52440  Biso   1.000  H
  C21      1.0000 0.35821  0.08468  0.56618  Biso   1.000  C
  H17      1.0000 0.64942  0.02438  0.38071  Biso   1.000  H
  N3       1.0000 0.72229  0.03660  0.45479  Biso   1.000  N
  H18      1.0000 0.69309  0.08958  0.49962  Biso   1.000  H
  N4       1.0000 0.53662  0.04519  0.27771  Biso   1.000  N
  H19      1.0000 0.58960  0.00040  0.30691  Biso   1.000  H
  C22      1.0000 0.37159  0.05399  0.61049  Biso   1.000  C
  C23      1.0000 0.42871  0.03270  0.68851  Biso   1.000  C
  C24      1.0000 0.31149  0.07131  0.53272  Biso   1.000  C
  C25      1.0000 0.76849  0.02836  0.49042  Biso   1.000  C
  C26      1.0000 0.52838  0.00960  0.23151  Biso   1.000  C
  H20      1.0000 0.35058  0.02438  0.61929  Biso   1.000  H
  N5       1.0000 0.46338  0.04519  0.72229  Biso   1.000  N
  H21      1.0000 0.41040  0.00040  0.69309  Biso   1.000  H
  N6       1.0000 0.27771  0.03660  0.54521  Biso   1.000  N
  H22      1.0000 0.30691  0.08958  0.50038  Biso   1.000  H
  H23      1.0000 0.76660  0.05311  0.52091  Biso   1.000  H
  C27      1.0000 0.81979  0.03949  0.45692  Biso   1.000  C
  C28      1.0000 0.76849  0.97164  0.50958  Biso   1.000  C
  C29      1.0000 0.53951  0.04310  0.18021  Biso   1.000  C
  C30      1.0000 0.47162  0.99040  0.23151  Biso   1.000  C
  H24      1.0000 0.55309  0.97911  0.23340  Biso   1.000  H
  C31      1.0000 0.47162  0.00960  0.76849  Biso   1.000  C
  C32      1.0000 0.23151  0.02836  0.50958  Biso   1.000  C
  H25      1.0000 0.82051  0.07669  0.44519  Biso   1.000  H
  H26      1.0000 0.82059  0.01659  0.42530  Biso   1.000  H
  C33      1.0000 0.86940  0.02732  0.49391  Biso   1.000  C
  N7       1.0000 0.72229  0.96340  0.54521  Biso   1.000  N
  H27      1.0000 0.76660  0.94689  0.47909  Biso   1.000  H
  C34      1.0000 0.81979  0.96051  0.54308  Biso   1.000  C
  H28      1.0000 0.57671  0.05479  0.17949  Biso   1.000  H
  H29      1.0000 0.51661  0.07472  0.17941  Biso   1.000  H
  C35      1.0000 0.52730  0.00611  0.13060  Biso   1.000  C
  H30      1.0000 0.44691  0.02089  0.23340  Biso   1.000  H
  N8       1.0000 0.46338  0.95481  0.27771  Biso   1.000  N
  C36      1.0000 0.46049  0.95690  0.18021  Biso   1.000  C
  C37      1.0000 0.46049  0.04310  0.81979  Biso   1.000  C
  C38      1.0000 0.52838  0.99040  0.76849  Biso   1.000  C
  H31      1.0000 0.44691  0.97911  0.76660  Biso   1.000  H
  H32      1.0000 0.23340  0.05311  0.47909  Biso   1.000  H
  C39      1.0000 0.18021  0.03949  0.54308  Biso   1.000  C
  C40      1.0000 0.23151  0.97164  0.49042  Biso   1.000  C
  H33      1.0000 0.90238  0.03692  0.47552  Biso   1.000  H
  H34      1.0000 0.86711  0.04829  0.52661  Biso   1.000  H
  C41      1.0000 0.86940  0.97268  0.50609  Biso   1.000  C
  C42      1.0000 0.68851  0.92869  0.53272  Biso   1.000  C
  H35      1.0000 0.82051  0.92331  0.55481  Biso   1.000  H
  H36      1.0000 0.82059  0.98341  0.57470  Biso   1.000  H
  H37      1.0000 0.53690  0.02450  0.09762  Biso   1.000  H
  C43      1.0000 0.47270  0.99389  0.13060  Biso   1.000  C
  H38      1.0000 0.54831  0.97341  0.13289  Biso   1.000  H
  C44      1.0000 0.42871  0.96730  0.31149  Biso   1.000  C
  H39      1.0000 0.42329  0.94521  0.17949  Biso   1.000  H
  H40      1.0000 0.48339  0.92528  0.17941  Biso   1.000  H
  H41      1.0000 0.42329  0.05479  0.82051  Biso   1.000  H
  H42      1.0000 0.48339  0.07472  0.82059  Biso   1.000  H
  C45      1.0000 0.47270  0.00611  0.86940  Biso   1.000  C
  H43      1.0000 0.55309  0.02089  0.76660  Biso   1.000  H
  N9       1.0000 0.53662  0.95481  0.72229  Biso   1.000  N
  C46      1.0000 0.53951  0.95690  0.81979  Biso   1.000  C
  H44      1.0000 0.17949  0.07669  0.55481  Biso   1.000  H
  H45      1.0000 0.17941  0.01659  0.57470  Biso   1.000  H
  C47      1.0000 0.13060  0.02732  0.50609  Biso   1.000  C
  N10      1.0000 0.27771  0.96340  0.45479  Biso   1.000  N
  H46      1.0000 0.23340  0.94689  0.52091  Biso   1.000  H
  C48      1.0000 0.18021  0.96051  0.45692  Biso   1.000  C
  H47      1.0000 0.90238  0.96308  0.52448  Biso   1.000  H
  H48      1.0000 0.86711  0.95171  0.47339  Biso   1.000  H
  C49      1.0000 0.64179  0.91532  0.56618  Biso   1.000  C
  H49      1.0000 0.69309  0.91042  0.50038  Biso   1.000  H
  H50      1.0000 0.45169  0.02659  0.13289  Biso   1.000  H
  H51      1.0000 0.46310  0.97550  0.09762  Biso   1.000  H
  C50      1.0000 0.41530  0.93380  0.35821  Biso   1.000  C
  H52      1.0000 0.41040  0.99960  0.30691  Biso   1.000  H
  H53      1.0000 0.46310  0.02450  0.90238  Biso   1.000  H
  C51      1.0000 0.52730  0.99389  0.86940  Biso   1.000  C
  H54      1.0000 0.45169  0.97341  0.86711  Biso   1.000  H
  C52      1.0000 0.57129  0.96730  0.68851  Biso   1.000  C
  H55      1.0000 0.57671  0.94521  0.82051  Biso   1.000  H
  H56      1.0000 0.51661  0.92528  0.82059  Biso   1.000  H
  H57      1.0000 0.09762  0.03692  0.52448  Biso   1.000  H
  H58      1.0000 0.13289  0.04829  0.47339  Biso   1.000  H
  C53      1.0000 0.13060  0.97268  0.49391  Biso   1.000  C
  C54      1.0000 0.31149  0.92869  0.46728  Biso   1.000  C
  H59      1.0000 0.17949  0.92331  0.44519  Biso   1.000  H
  H60      1.0000 0.17941  0.98341  0.42530  Biso   1.000  H
  C55      1.0000 0.61049  0.87161  0.55401  Biso   1.000  C
  C56      1.0000 0.62841  0.94601  0.61049  Biso   1.000  C
  C57      1.0000 0.37159  0.94601  0.38951  Biso   1.000  C
  C58      1.0000 0.44599  0.88949  0.37159  Biso   1.000  C
  H61      1.0000 0.54831  0.02659  0.86711  Biso   1.000  H
  H62      1.0000 0.53690  0.97550  0.90238  Biso   1.000  H
  C59      1.0000 0.58470  0.93380  0.64179  Biso   1.000  C
  H63      1.0000 0.58960  0.99960  0.69309  Biso   1.000  H
  H64      1.0000 0.09762  0.96308  0.47552  Biso   1.000  H
  H65      1.0000 0.13289  0.95171  0.52661  Biso   1.000  H
  C60      1.0000 0.35821  0.91532  0.43382  Biso   1.000  C
  H66      1.0000 0.30691  0.91042  0.49962  Biso   1.000  H
  H67      1.0000 0.61929  0.85060  0.52440  Biso   1.000  H
  C61      1.0000 0.56618  0.85819  0.58470  Biso   1.000  C
  H68      1.0000 0.64942  0.97562  0.61929  Biso   1.000  H
  H69      1.0000 0.35058  0.97562  0.38071  Biso   1.000  H
  H70      1.0000 0.47560  0.88069  0.35058  Biso   1.000  H
  C62      1.0000 0.43382  0.85819  0.41530  Biso   1.000  C
  C63      1.0000 0.55401  0.88949  0.62841  Biso   1.000  C
  C64      1.0000 0.38951  0.87161  0.44599  Biso   1.000  C
  C65      1.0000 0.53272  0.81151  0.57129  Biso   1.000  C
  C66      1.0000 0.46728  0.81151  0.42871  Biso   1.000  C
  H71      1.0000 0.52440  0.88069  0.64942  Biso   1.000  H
  H72      1.0000 0.38071  0.85060  0.47560  Biso   1.000  H
  N11      1.0000 0.54521  0.77769  0.53662  Biso   1.000  N
  H73      1.0000 0.50038  0.80689  0.58960  Biso   1.000  H
  N12      1.0000 0.45479  0.77769  0.46338  Biso   1.000  N
  H74      1.0000 0.49962  0.80689  0.41040  Biso   1.000  H
  C67      1.0000 0.50958  0.73149  0.52838  Biso   1.000  C
  C68      1.0000 0.49042  0.73149  0.47162  Biso   1.000  C
  H75      1.0000 0.47909  0.73342  0.55309  Biso   1.000  H
  C69      1.0000 0.54308  0.68019  0.53951  Biso   1.000  C
  H76      1.0000 0.52091  0.73342  0.44691  Biso   1.000  H
  C70      1.0000 0.45692  0.68019  0.46049  Biso   1.000  C
  H77      1.0000 0.55481  0.67951  0.57671  Biso   1.000  H
  H78      1.0000 0.57470  0.67939  0.51661  Biso   1.000  H
  C71      1.0000 0.50609  0.63062  0.52730  Biso   1.000  C
  H79      1.0000 0.44519  0.67951  0.42329  Biso   1.000  H
  H80      1.0000 0.42530  0.67939  0.48339  Biso   1.000  H
  C72      1.0000 0.49391  0.63062  0.47270  Biso   1.000  C
  H81      1.0000 0.52448  0.59760  0.53690  Biso   1.000  H
  H82      1.0000 0.47339  0.63291  0.54831  Biso   1.000  H
  H83      1.0000 0.47552  0.59760  0.46310  Biso   1.000  H
  H84      1.0000 0.52661  0.63291  0.45169  Biso   1.000  H
  C73      1.0000 0.47270  0.50609  0.36938  Biso   1.000  C
  C74      1.0000 0.46049  0.54308  0.31981  Biso   1.000  C
  C75      1.0000 0.52730  0.49391  0.36938  Biso   1.000  C
  H85      1.0000 0.46310  0.52448  0.40240  Biso   1.000  H
  H86      1.0000 0.45169  0.47339  0.36709  Biso   1.000  H
  C76      1.0000 0.47162  0.50958  0.26851  Biso   1.000  C
  H87      1.0000 0.42329  0.55481  0.32049  Biso   1.000  H
  H88      1.0000 0.48339  0.57470  0.32061  Biso   1.000  H
  C77      1.0000 0.53951  0.45692  0.31981  Biso   1.000  C
  H89      1.0000 0.53690  0.47552  0.40240  Biso   1.000  H
  H90      1.0000 0.54831  0.52661  0.36709  Biso   1.000  H
  C78      1.0000 0.52838  0.49042  0.26851  Biso   1.000  C
  N13      1.0000 0.46338  0.54521  0.22231  Biso   1.000  N
  H91      1.0000 0.44691  0.47909  0.26658  Biso   1.000  H
  H92      1.0000 0.57671  0.44519  0.32049  Biso   1.000  H
  H93      1.0000 0.51661  0.42530  0.32061  Biso   1.000  H
  N14      1.0000 0.53662  0.45479  0.22231  Biso   1.000  N
  H94      1.0000 0.55309  0.52091  0.26658  Biso   1.000  H
  C79      1.0000 0.42871  0.53272  0.18849  Biso   1.000  C
  C80      1.0000 0.57129  0.46728  0.18849  Biso   1.000  C
  C81      1.0000 0.41530  0.56618  0.14181  Biso   1.000  C
  H95      1.0000 0.41040  0.50038  0.19311  Biso   1.000  H
  C82      1.0000 0.58470  0.43382  0.14181  Biso   1.000  C
  H96      1.0000 0.58960  0.49962  0.19311  Biso   1.000  H
  C83      1.0000 0.44599  0.61049  0.12839  Biso   1.000  C
  C84      1.0000 0.37159  0.55401  0.11051  Biso   1.000  C
  C85      1.0000 0.55401  0.38951  0.12839  Biso   1.000  C
  C86      1.0000 0.62841  0.44599  0.11051  Biso   1.000  C
  H97      1.0000 0.47560  0.61929  0.14940  Biso   1.000  H
  C87      1.0000 0.43382  0.64179  0.08468  Biso   1.000  C
  H98      1.0000 0.35058  0.52440  0.11931  Biso   1.000  H
  C88      1.0000 0.35821  0.58470  0.06620  Biso   1.000  C
  C89      1.0000 0.56618  0.35821  0.08468  Biso   1.000  C
  H99      1.0000 0.52440  0.38071  0.14940  Biso   1.000  H
  C90      1.0000 0.64179  0.41530  0.06620  Biso   1.000  C
  H100     1.0000 0.64942  0.47560  0.11931  Biso   1.000  H
  C91      1.0000 0.38951  0.62841  0.05399  Biso   1.000  C
  C92      1.0000 0.46728  0.68851  0.07131  Biso   1.000  C
  C93      1.0000 0.31149  0.57129  0.03270  Biso   1.000  C
  C94      1.0000 0.53272  0.31149  0.07131  Biso   1.000  C
  C95      1.0000 0.61049  0.37159  0.05399  Biso   1.000  C
  C96      1.0000 0.68851  0.42871  0.03270  Biso   1.000  C
  H101     1.0000 0.38071  0.64942  0.02438  Biso   1.000  H
  N15      1.0000 0.45479  0.72229  0.03660  Biso   1.000  N
  H102     1.0000 0.49962  0.69309  0.08958  Biso   1.000  H
  N16      1.0000 0.27771  0.53662  0.04519  Biso   1.000  N
  H103     1.0000 0.30691  0.58960  0.00040  Biso   1.000  H
  N17      1.0000 0.54521  0.27771  0.03660  Biso   1.000  N
  H104     1.0000 0.50038  0.30691  0.08958  Biso   1.000  H
  H105     1.0000 0.61929  0.35058  0.02438  Biso   1.000  H
  N18      1.0000 0.72229  0.46338  0.04519  Biso   1.000  N
  H106     1.0000 0.69309  0.41040  0.00040  Biso   1.000  H
  C97      1.0000 0.49042  0.76849  0.02836  Biso   1.000  C
  C98      1.0000 0.23151  0.52838  0.00960  Biso   1.000  C
  C99      1.0000 0.50958  0.23151  0.02836  Biso   1.000  C
  C100     1.0000 0.76849  0.47162  0.00960  Biso   1.000  C
  C101     1.0000 0.50958  0.76849  0.97164  Biso   1.000  C
  H107     1.0000 0.52091  0.76660  0.05311  Biso   1.000  H
  C102     1.0000 0.45692  0.81979  0.03949  Biso   1.000  C
  C103     1.0000 0.23151  0.47162  0.99040  Biso   1.000  C
  C104     1.0000 0.18021  0.53951  0.04310  Biso   1.000  C
  H108     1.0000 0.23340  0.55309  0.97911  Biso   1.000  H
  H109     1.0000 0.47909  0.23340  0.05311  Biso   1.000  H
  C105     1.0000 0.54308  0.18021  0.03949  Biso   1.000  C
  C106     1.0000 0.49042  0.23151  0.97164  Biso   1.000  C
  C107     1.0000 0.81979  0.46049  0.04310  Biso   1.000  C
  C108     1.0000 0.76849  0.52838  0.99040  Biso   1.000  C
  H110     1.0000 0.76660  0.44691  0.97911  Biso   1.000  H
  N19      1.0000 0.54521  0.72229  0.96340  Biso   1.000  N
  H111     1.0000 0.47909  0.76660  0.94689  Biso   1.000  H
  C109     1.0000 0.54308  0.81979  0.96051  Biso   1.000  C
  H112     1.0000 0.44519  0.82051  0.07669  Biso   1.000  H
  H113     1.0000 0.42530  0.82059  0.01659  Biso   1.000  H
  C110     1.0000 0.49391  0.86940  0.02732  Biso   1.000  C
  N20      1.0000 0.27771  0.46338  0.95481  Biso   1.000  N
  H114     1.0000 0.23340  0.44691  0.02089  Biso   1.000  H
  C111     1.0000 0.18021  0.46049  0.95690  Biso   1.000  C
  H115     1.0000 0.17949  0.57671  0.05479  Biso   1.000  H
  H116     1.0000 0.17941  0.51661  0.07472  Biso   1.000  H
  C112     1.0000 0.13060  0.52730  0.00611  Biso   1.000  C
  H117     1.0000 0.55481  0.17949  0.07669  Biso   1.000  H
  H118     1.0000 0.57470  0.17941  0.01659  Biso   1.000  H
  C113     1.0000 0.50609  0.13060  0.02732  Biso   1.000  C
  N21      1.0000 0.45479  0.27771  0.96340  Biso   1.000  N
  H119     1.0000 0.52091  0.23340  0.94689  Biso   1.000  H
  C114     1.0000 0.45692  0.18021  0.96051  Biso   1.000  C
  H120     1.0000 0.82051  0.42329  0.05479  Biso   1.000  H
  H121     1.0000 0.82059  0.48339  0.07472  Biso   1.000  H
  C115     1.0000 0.86940  0.47270  0.00611  Biso   1.000  C
  H122     1.0000 0.76660  0.55309  0.02089  Biso   1.000  H
  N22      1.0000 0.72229  0.53662  0.95481  Biso   1.000  N
  C116     1.0000 0.81979  0.53951  0.95690  Biso   1.000  C
  C117     1.0000 0.53272  0.68851  0.92869  Biso   1.000  C
  H123     1.0000 0.55481  0.82051  0.92331  Biso   1.000  H
  H124     1.0000 0.57470  0.82059  0.98341  Biso   1.000  H
  C118     1.0000 0.50609  0.86940  0.97268  Biso   1.000  C
  H125     1.0000 0.47552  0.90238  0.03692  Biso   1.000  H
  H126     1.0000 0.52661  0.86711  0.04829  Biso   1.000  H
  C119     1.0000 0.31149  0.42871  0.96730  Biso   1.000  C
  H127     1.0000 0.17949  0.42329  0.94521  Biso   1.000  H
  H128     1.0000 0.17941  0.48339  0.92528  Biso   1.000  H
  C120     1.0000 0.13060  0.47270  0.99389  Biso   1.000  C
  H129     1.0000 0.09762  0.53690  0.02450  Biso   1.000  H
  H130     1.0000 0.13289  0.54831  0.97341  Biso   1.000  H
  H131     1.0000 0.52448  0.09762  0.03692  Biso   1.000  H
  H132     1.0000 0.47339  0.13289  0.04829  Biso   1.000  H
  C121     1.0000 0.49391  0.13060  0.97268  Biso   1.000  C
  C122     1.0000 0.46728  0.31149  0.92869  Biso   1.000  C
  H133     1.0000 0.44519  0.17949  0.92331  Biso   1.000  H
  H134     1.0000 0.42530  0.17941  0.98341  Biso   1.000  H
  H135     1.0000 0.90238  0.46310  0.02450  Biso   1.000  H
  C123     1.0000 0.86940  0.52730  0.99389  Biso   1.000  C
  H136     1.0000 0.86711  0.45169  0.97341  Biso   1.000  H
  C124     1.0000 0.68851  0.57129  0.96730  Biso   1.000  C
  H137     1.0000 0.82051  0.57671  0.94521  Biso   1.000  H
  H138     1.0000 0.82059  0.51661  0.92528  Biso   1.000  H
  C125     1.0000 0.56618  0.64179  0.91532  Biso   1.000  C
  H139     1.0000 0.50038  0.69309  0.91042  Biso   1.000  H
  H140     1.0000 0.52448  0.90238  0.96308  Biso   1.000  H
  H141     1.0000 0.47339  0.86711  0.95171  Biso   1.000  H
  C126     1.0000 0.35821  0.41530  0.93380  Biso   1.000  C
  H142     1.0000 0.30691  0.41040  0.99960  Biso   1.000  H
  H143     1.0000 0.13289  0.45169  0.02659  Biso   1.000  H
  H144     1.0000 0.09762  0.46310  0.97550  Biso   1.000  H
  H145     1.0000 0.47552  0.09762  0.96308  Biso   1.000  H
  H146     1.0000 0.52661  0.13289  0.95171  Biso   1.000  H
  C127     1.0000 0.43382  0.35821  0.91532  Biso   1.000  C
  H147     1.0000 0.49962  0.30691  0.91042  Biso   1.000  H
  H148     1.0000 0.86711  0.54831  0.02659  Biso   1.000  H
  H149     1.0000 0.90238  0.53690  0.97550  Biso   1.000  H
  C128     1.0000 0.64179  0.58470  0.93380  Biso   1.000  C
  H150     1.0000 0.69309  0.58960  0.99960  Biso   1.000  H
  C129     1.0000 0.61049  0.62841  0.94601  Biso   1.000  C
  C130     1.0000 0.55401  0.61049  0.87161  Biso   1.000  C
  C131     1.0000 0.38951  0.37159  0.94601  Biso   1.000  C
  C132     1.0000 0.37159  0.44599  0.88949  Biso   1.000  C
  C133     1.0000 0.44599  0.38951  0.87161  Biso   1.000  C
  C134     1.0000 0.62841  0.55401  0.88949  Biso   1.000  C
  H151     1.0000 0.61929  0.64942  0.97562  Biso   1.000  H
  C135     1.0000 0.58470  0.56618  0.85819  Biso   1.000  C
  H152     1.0000 0.52440  0.61929  0.85060  Biso   1.000  H
  H153     1.0000 0.38071  0.35058  0.97562  Biso   1.000  H
  C136     1.0000 0.41530  0.43382  0.85819  Biso   1.000  C
  H154     1.0000 0.35058  0.47560  0.88069  Biso   1.000  H
  H155     1.0000 0.47560  0.38071  0.85060  Biso   1.000  H
  H156     1.0000 0.64942  0.52440  0.88069  Biso   1.000  H
  C137     1.0000 0.57129  0.53272  0.81151  Biso   1.000  C
  C138     1.0000 0.42871  0.46728  0.81151  Biso   1.000  C
  N23      1.0000 0.53662  0.54521  0.77769  Biso   1.000  N
  H157     1.0000 0.58960  0.50038  0.80689  Biso   1.000  H
  N24      1.0000 0.46338  0.45479  0.77769  Biso   1.000  N
  H158     1.0000 0.41040  0.49962  0.80689  Biso   1.000  H
  C139     1.0000 0.52838  0.50958  0.73149  Biso   1.000  C
  C140     1.0000 0.47162  0.49042  0.73149  Biso   1.000  C
  H159     1.0000 0.55309  0.47909  0.73342  Biso   1.000  H
  C141     1.0000 0.53951  0.54308  0.68019  Biso   1.000  C
  H160     1.0000 0.44691  0.52091  0.73342  Biso   1.000  H
  C142     1.0000 0.46049  0.45692  0.68019  Biso   1.000  C
  H161     1.0000 0.57671  0.55481  0.67951  Biso   1.000  H
  H162     1.0000 0.51661  0.57470  0.67939  Biso   1.000  H
  C143     1.0000 0.52730  0.50609  0.63062  Biso   1.000  C
  H163     1.0000 0.42329  0.44519  0.67951  Biso   1.000  H
  H164     1.0000 0.48339  0.42530  0.67939  Biso   1.000  H
  C144     1.0000 0.47270  0.49391  0.63062  Biso   1.000  C
  H165     1.0000 0.53690  0.52448  0.59760  Biso   1.000  H
  H166     1.0000 0.54831  0.47339  0.63291  Biso   1.000  H
  H167     1.0000 0.46310  0.47552  0.59760  Biso   1.000  H
  H168     1.0000 0.45169  0.52661  0.63291  Biso   1.000  H
  C145     1.0000 0.36938  0.47270  0.50609  Biso   1.000  C
  C146     1.0000 0.31981  0.46049  0.54308  Biso   1.000  C
  C147     1.0000 0.36938  0.52730  0.49391  Biso   1.000  C
  H169     1.0000 0.40240  0.46310  0.52448  Biso   1.000  H
  H170     1.0000 0.36709  0.45169  0.47339  Biso   1.000  H
  C148     1.0000 0.26851  0.47162  0.50958  Biso   1.000  C
  H171     1.0000 0.32049  0.42329  0.55481  Biso   1.000  H
  H172     1.0000 0.32061  0.48339  0.57470  Biso   1.000  H
  C149     1.0000 0.31981  0.53951  0.45692  Biso   1.000  C
  H173     1.0000 0.40240  0.53690  0.47552  Biso   1.000  H
  H174     1.0000 0.36709  0.54831  0.52661  Biso   1.000  H
  N25      1.0000 0.22231  0.46338  0.54521  Biso   1.000  N
  C150     1.0000 0.26851  0.52838  0.49042  Biso   1.000  C
  H175     1.0000 0.26658  0.44691  0.47909  Biso   1.000  H
  H176     1.0000 0.32049  0.57671  0.44519  Biso   1.000  H
  H177     1.0000 0.32061  0.51661  0.42530  Biso   1.000  H
  C151     1.0000 0.18849  0.42871  0.53272  Biso   1.000  C
  N26      1.0000 0.22231  0.53662  0.45479  Biso   1.000  N
  H178     1.0000 0.26658  0.55309  0.52091  Biso   1.000  H
  C152     1.0000 0.14181  0.41530  0.56618  Biso   1.000  C
  H179     1.0000 0.19311  0.41040  0.50038  Biso   1.000  H
  C153     1.0000 0.18849  0.57129  0.46728  Biso   1.000  C
  C154     1.0000 0.12839  0.44599  0.61049  Biso   1.000  C
  C155     1.0000 0.11051  0.37159  0.55401  Biso   1.000  C
  C156     1.0000 0.14181  0.58470  0.43382  Biso   1.000  C
  H180     1.0000 0.19311  0.58960  0.49962  Biso   1.000  H
  H181     1.0000 0.14940  0.47560  0.61929  Biso   1.000  H
  C157     1.0000 0.08468  0.43382  0.64179  Biso   1.000  C
  H182     1.0000 0.11931  0.35058  0.52440  Biso   1.000  H
  C158     1.0000 0.06620  0.35821  0.58470  Biso   1.000  C
  C159     1.0000 0.12839  0.55401  0.38951  Biso   1.000  C
  C160     1.0000 0.11051  0.62841  0.44599  Biso   1.000  C
  C161     1.0000 0.05399  0.38951  0.62841  Biso   1.000  C
  C162     1.0000 0.07131  0.46728  0.68851  Biso   1.000  C
  C163     1.0000 0.03270  0.31149  0.57129  Biso   1.000  C
  H183     1.0000 0.14940  0.52440  0.38071  Biso   1.000  H
  C164     1.0000 0.08468  0.56618  0.35821  Biso   1.000  C
  H184     1.0000 0.11931  0.64942  0.47560  Biso   1.000  H
  C165     1.0000 0.06620  0.64179  0.41530  Biso   1.000  C
  H185     1.0000 0.02438  0.38071  0.64942  Biso   1.000  H
  N27      1.0000 0.03660  0.45479  0.72229  Biso   1.000  N
  H186     1.0000 0.08958  0.49962  0.69309  Biso   1.000  H
  N28      1.0000 0.04519  0.27771  0.53662  Biso   1.000  N
  H187     1.0000 0.00040  0.30691  0.58960  Biso   1.000  H
  C166     1.0000 0.05399  0.61049  0.37159  Biso   1.000  C
  C167     1.0000 0.07131  0.53272  0.31149  Biso   1.000  C
  C168     1.0000 0.03270  0.68851  0.42871  Biso   1.000  C
  C169     1.0000 0.02836  0.49042  0.76849  Biso   1.000  C
  C170     1.0000 0.00960  0.23151  0.52838  Biso   1.000  C
  H188     1.0000 0.02438  0.61929  0.35058  Biso   1.000  H
  N29      1.0000 0.03660  0.54521  0.27771  Biso   1.000  N
  H189     1.0000 0.08958  0.50038  0.30691  Biso   1.000  H
  N30      1.0000 0.04519  0.72229  0.46338  Biso   1.000  N
  H190     1.0000 0.00040  0.69309  0.41040  Biso   1.000  H
  H191     1.0000 0.05311  0.52091  0.76660  Biso   1.000  H
  C171     1.0000 0.03949  0.45692  0.81979  Biso   1.000  C
  C172     1.0000 0.97164  0.50958  0.76849  Biso   1.000  C
  C173     1.0000 0.04310  0.18021  0.53951  Biso   1.000  C
  C174     1.0000 0.99040  0.23151  0.47162  Biso   1.000  C
  H192     1.0000 0.97911  0.23340  0.55309  Biso   1.000  H
  C175     1.0000 0.02836  0.50958  0.23151  Biso   1.000  C
  C176     1.0000 0.00960  0.76849  0.47162  Biso   1.000  C
  H193     1.0000 0.07669  0.44519  0.82051  Biso   1.000  H
  H194     1.0000 0.01659  0.42530  0.82059  Biso   1.000  H
  C177     1.0000 0.02732  0.49391  0.86940  Biso   1.000  C
  N31      1.0000 0.96340  0.54521  0.72229  Biso   1.000  N
  H195     1.0000 0.94689  0.47909  0.76660  Biso   1.000  H
  C178     1.0000 0.96051  0.54308  0.81979  Biso   1.000  C
  H196     1.0000 0.05479  0.17949  0.57671  Biso   1.000  H
  H197     1.0000 0.07472  0.17941  0.51661  Biso   1.000  H
  C179     1.0000 0.00611  0.13060  0.52730  Biso   1.000  C
  H198     1.0000 0.02089  0.23340  0.44691  Biso   1.000  H
  N32      1.0000 0.95481  0.27771  0.46338  Biso   1.000  N
  C180     1.0000 0.95690  0.18021  0.46049  Biso   1.000  C
  H199     1.0000 0.05311  0.47909  0.23340  Biso   1.000  H
  C181     1.0000 0.03949  0.54308  0.18021  Biso   1.000  C
  C182     1.0000 0.97164  0.49042  0.23151  Biso   1.000  C
  C183     1.0000 0.04310  0.81979  0.46049  Biso   1.000  C
  C184     1.0000 0.99040  0.76849  0.52838  Biso   1.000  C
  H200     1.0000 0.97911  0.76660  0.44691  Biso   1.000  H
  H201     1.0000 0.03692  0.47552  0.90238  Biso   1.000  H
  H202     1.0000 0.04829  0.52661  0.86711  Biso   1.000  H
  C185     1.0000 0.97268  0.50609  0.86940  Biso   1.000  C
  C186     1.0000 0.92869  0.53272  0.68851  Biso   1.000  C
  H203     1.0000 0.92331  0.55481  0.82051  Biso   1.000  H
  H204     1.0000 0.98341  0.57470  0.82059  Biso   1.000  H
  H205     1.0000 0.02450  0.09762  0.53690  Biso   1.000  H
  C187     1.0000 0.99389  0.13060  0.47270  Biso   1.000  C
  H206     1.0000 0.97341  0.13289  0.54831  Biso   1.000  H
  C188     1.0000 0.96730  0.31149  0.42871  Biso   1.000  C
  H207     1.0000 0.94521  0.17949  0.42329  Biso   1.000  H
  H208     1.0000 0.92528  0.17941  0.48339  Biso   1.000  H
  H209     1.0000 0.07669  0.55481  0.17949  Biso   1.000  H
  H210     1.0000 0.01659  0.57470  0.17941  Biso   1.000  H
  C189     1.0000 0.02732  0.50609  0.13060  Biso   1.000  C
  N33      1.0000 0.96340  0.45479  0.27771  Biso   1.000  N
  H211     1.0000 0.94689  0.52091  0.23340  Biso   1.000  H
  C190     1.0000 0.96051  0.45692  0.18021  Biso   1.000  C
  H212     1.0000 0.05479  0.82051  0.42329  Biso   1.000  H
  H213     1.0000 0.07472  0.82059  0.48339  Biso   1.000  H
  C191     1.0000 0.00611  0.86940  0.47270  Biso   1.000  C
  H214     1.0000 0.02089  0.76660  0.55309  Biso   1.000  H
  N34      1.0000 0.95481  0.72229  0.53662  Biso   1.000  N
  C192     1.0000 0.95690  0.81979  0.53951  Biso   1.000  C
  H215     1.0000 0.96308  0.52448  0.90238  Biso   1.000  H
  H216     1.0000 0.95171  0.47339  0.86711  Biso   1.000  H
  C193     1.0000 0.91532  0.56618  0.64179  Biso   1.000  C
  H217     1.0000 0.91042  0.50038  0.69309  Biso   1.000  H
  H218     1.0000 0.02659  0.13289  0.45169  Biso   1.000  H
  H219     1.0000 0.97550  0.09762  0.46310  Biso   1.000  H
  C194     1.0000 0.93380  0.35821  0.41530  Biso   1.000  C
  H220     1.0000 0.99960  0.30691  0.41040  Biso   1.000  H
  H221     1.0000 0.03692  0.52448  0.09762  Biso   1.000  H
  H222     1.0000 0.04829  0.47339  0.13289  Biso   1.000  H
  C195     1.0000 0.97268  0.49391  0.13060  Biso   1.000  C
  C196     1.0000 0.92869  0.46728  0.31149  Biso   1.000  C
  H223     1.0000 0.92331  0.44519  0.17949  Biso   1.000  H
  H224     1.0000 0.98341  0.42530  0.17941  Biso   1.000  H
  H225     1.0000 0.02450  0.90238  0.46310  Biso   1.000  H
  C197     1.0000 0.99389  0.86940  0.52730  Biso   1.000  C
  H226     1.0000 0.97341  0.86711  0.45169  Biso   1.000  H
  C198     1.0000 0.96730  0.68851  0.57129  Biso   1.000  C
  H227     1.0000 0.94521  0.82051  0.57671  Biso   1.000  H
  H228     1.0000 0.92528  0.82059  0.51661  Biso   1.000  H
  C199     1.0000 0.87161  0.55401  0.61049  Biso   1.000  C
  C200     1.0000 0.94601  0.61049  0.62841  Biso   1.000  C
  C201     1.0000 0.94601  0.38951  0.37159  Biso   1.000  C
  C202     1.0000 0.88949  0.37159  0.44599  Biso   1.000  C
  H229     1.0000 0.96308  0.47552  0.09762  Biso   1.000  H
  H230     1.0000 0.95171  0.52661  0.13289  Biso   1.000  H
  C203     1.0000 0.91532  0.43382  0.35821  Biso   1.000  C
  H231     1.0000 0.91042  0.49962  0.30691  Biso   1.000  H
  H232     1.0000 0.02659  0.86711  0.54831  Biso   1.000  H
  H233     1.0000 0.97550  0.90238  0.53690  Biso   1.000  H
  C204     1.0000 0.93380  0.64179  0.58470  Biso   1.000  C
  H234     1.0000 0.99960  0.69309  0.58960  Biso   1.000  H
  H235     1.0000 0.85060  0.52440  0.61929  Biso   1.000  H
  C205     1.0000 0.85819  0.58470  0.56618  Biso   1.000  C
  H236     1.0000 0.97562  0.61929  0.64942  Biso   1.000  H
  H237     1.0000 0.97562  0.38071  0.35058  Biso   1.000  H
  H238     1.0000 0.88069  0.35058  0.47560  Biso   1.000  H
  C206     1.0000 0.85819  0.41530  0.43382  Biso   1.000  C
  C207     1.0000 0.87161  0.44599  0.38951  Biso   1.000  C
  C208     1.0000 0.88949  0.62841  0.55401  Biso   1.000  C
  C209     1.0000 0.81151  0.57129  0.53272  Biso   1.000  C
  C210     1.0000 0.81151  0.42871  0.46728  Biso   1.000  C
  H239     1.0000 0.85060  0.47560  0.38071  Biso   1.000  H
  H240     1.0000 0.88069  0.64942  0.52440  Biso   1.000  H
  N35      1.0000 0.77769  0.53662  0.54521  Biso   1.000  N
  H241     1.0000 0.80689  0.58960  0.50038  Biso   1.000  H
  N36      1.0000 0.77769  0.46338  0.45479  Biso   1.000  N
  H242     1.0000 0.80689  0.41040  0.49962  Biso   1.000  H
  C211     1.0000 0.73149  0.52838  0.50958  Biso   1.000  C
  C212     1.0000 0.73149  0.47162  0.49042  Biso   1.000  C
  H243     1.0000 0.73342  0.55309  0.47909  Biso   1.000  H
  C213     1.0000 0.68019  0.53951  0.54308  Biso   1.000  C
  H244     1.0000 0.73342  0.44691  0.52091  Biso   1.000  H
  C214     1.0000 0.68019  0.46049  0.45692  Biso   1.000  C
  H245     1.0000 0.67951  0.57671  0.55481  Biso   1.000  H
  H246     1.0000 0.67939  0.51661  0.57470  Biso   1.000  H
  C215     1.0000 0.63062  0.52730  0.50609  Biso   1.000  C
  H247     1.0000 0.67951  0.42329  0.44519  Biso   1.000  H
  H248     1.0000 0.67939  0.48339  0.42530  Biso   1.000  H
  C216     1.0000 0.63062  0.47270  0.49391  Biso   1.000  C
  H249     1.0000 0.59760  0.53690  0.52448  Biso   1.000  H
  H250     1.0000 0.63291  0.54831  0.47339  Biso   1.000  H
  H251     1.0000 0.59760  0.46310  0.47552  Biso   1.000  H
  H252     1.0000 0.63291  0.45169  0.52661  Biso   1.000  H
  C217     1.0000 0.37842  0.36050  0.30398  Biso   1.000  C
  C218     1.0000 0.39180  0.31619  0.33471  Biso   1.000  C
  H253     1.0000 0.39939  0.36930  0.27441  Biso   1.000  H
  C219     1.0000 0.33471  0.39180  0.31619  Biso   1.000  C
  C220     1.0000 0.43852  0.28269  0.32130  Biso   1.000  C
  C221     1.0000 0.36050  0.30398  0.37842  Biso   1.000  C
  C222     1.0000 0.30398  0.37842  0.36050  Biso   1.000  C
  C223     1.0000 0.32130  0.43852  0.28269  Biso   1.000  C
  N37      1.0000 0.47230  0.29518  0.28659  Biso   1.000  N
  H254     1.0000 0.44310  0.25039  0.33961  Biso   1.000  H
  H255     1.0000 0.36930  0.27441  0.39939  Biso   1.000  H
  C224     1.0000 0.31619  0.33471  0.39180  Biso   1.000  C
  H256     1.0000 0.27441  0.39939  0.36930  Biso   1.000  H
  N38      1.0000 0.28659  0.47230  0.29518  Biso   1.000  N
  H257     1.0000 0.33961  0.44310  0.25039  Biso   1.000  H
  C225     1.0000 0.51850  0.25959  0.27839  Biso   1.000  C
  C226     1.0000 0.28269  0.32130  0.43852  Biso   1.000  C
  C227     1.0000 0.27839  0.51850  0.25959  Biso   1.000  C
  C228     1.0000 0.51850  0.24039  0.22163  Biso   1.000  C
  H258     1.0000 0.51661  0.22910  0.30310  Biso   1.000  H
  C229     1.0000 0.56980  0.29309  0.28952  Biso   1.000  C
  N39      1.0000 0.29518  0.28659  0.47230  Biso   1.000  N
  H259     1.0000 0.25039  0.33961  0.44310  Biso   1.000  H
  C230     1.0000 0.22163  0.51850  0.24039  Biso   1.000  C
  H260     1.0000 0.30310  0.51661  0.22910  Biso   1.000  H
  C231     1.0000 0.28952  0.56980  0.29309  Biso   1.000  C
  N40      1.0000 0.47230  0.20480  0.21339  Biso   1.000  N
  H261     1.0000 0.51661  0.27092  0.19688  Biso   1.000  H
  C232     1.0000 0.56980  0.20689  0.21050  Biso   1.000  C
  H262     1.0000 0.57048  0.30478  0.32672  Biso   1.000  H
  H263     1.0000 0.57060  0.32471  0.26658  Biso   1.000  H
  C233     1.0000 0.61941  0.25610  0.27731  Biso   1.000  C
  C234     1.0000 0.25959  0.27839  0.51850  Biso   1.000  C
  N41      1.0000 0.21339  0.47230  0.20480  Biso   1.000  N
  H264     1.0000 0.19688  0.51661  0.27092  Biso   1.000  H
  C235     1.0000 0.21050  0.56980  0.20689  Biso   1.000  C
  H265     1.0000 0.32672  0.57048  0.30478  Biso   1.000  H
  H266     1.0000 0.26658  0.57060  0.32471  Biso   1.000  H
  C236     1.0000 0.27731  0.61941  0.25610  Biso   1.000  C
  C237     1.0000 0.43852  0.21729  0.17868  Biso   1.000  C
  H267     1.0000 0.57048  0.19520  0.17330  Biso   1.000  H
  H268     1.0000 0.57060  0.17531  0.23340  Biso   1.000  H
  C238     1.0000 0.61941  0.24388  0.22271  Biso   1.000  C
  H269     1.0000 0.65239  0.27449  0.28691  Biso   1.000  H
  H270     1.0000 0.61708  0.22340  0.29832  Biso   1.000  H
  C239     1.0000 0.24039  0.22163  0.51850  Biso   1.000  C
  H271     1.0000 0.22910  0.30310  0.51661  Biso   1.000  H
  C240     1.0000 0.29309  0.28952  0.56980  Biso   1.000  C
  C241     1.0000 0.17868  0.43852  0.21729  Biso   1.000  C
  H272     1.0000 0.17330  0.57048  0.19520  Biso   1.000  H
  H273     1.0000 0.23340  0.57060  0.17531  Biso   1.000  H
  C242     1.0000 0.22271  0.61941  0.24388  Biso   1.000  C
  H274     1.0000 0.28691  0.65239  0.27449  Biso   1.000  H
  H275     1.0000 0.29832  0.61708  0.22340  Biso   1.000  H
  C243     1.0000 0.39180  0.18379  0.16531  Biso   1.000  C
  H276     1.0000 0.44310  0.24959  0.16041  Biso   1.000  H
  H277     1.0000 0.65239  0.22549  0.21311  Biso   1.000  H
  H278     1.0000 0.61708  0.27658  0.20170  Biso   1.000  H
  N42      1.0000 0.20480  0.21339  0.47230  Biso   1.000  N
  H279     1.0000 0.27092  0.19688  0.51661  Biso   1.000  H
  C244     1.0000 0.20689  0.21050  0.56980  Biso   1.000  C
  H280     1.0000 0.30478  0.32672  0.57048  Biso   1.000  H
  H281     1.0000 0.32471  0.26658  0.57060  Biso   1.000  H
  C245     1.0000 0.25610  0.27731  0.61941  Biso   1.000  C
  C246     1.0000 0.16531  0.39180  0.18379  Biso   1.000  C
  H282     1.0000 0.16041  0.44310  0.24959  Biso   1.000  H
  H283     1.0000 0.21311  0.65239  0.22549  Biso   1.000  H
  H284     1.0000 0.20170  0.61708  0.27658  Biso   1.000  H
  C247     1.0000 0.37842  0.13952  0.19600  Biso   1.000  C
  C248     1.0000 0.36050  0.19600  0.12160  Biso   1.000  C
  C249     1.0000 0.21729  0.17868  0.43852  Biso   1.000  C
  H285     1.0000 0.19520  0.17330  0.57048  Biso   1.000  H
  H286     1.0000 0.17531  0.23340  0.57060  Biso   1.000  H
  C250     1.0000 0.24388  0.22271  0.61941  Biso   1.000  C
  H287     1.0000 0.27449  0.28691  0.65239  Biso   1.000  H
  H288     1.0000 0.22340  0.29832  0.61708  Biso   1.000  H
  C251     1.0000 0.19600  0.37842  0.13952  Biso   1.000  C
  C252     1.0000 0.12160  0.36050  0.19600  Biso   1.000  C
  H289     1.0000 0.39939  0.13072  0.22561  Biso   1.000  H
  C253     1.0000 0.33471  0.10818  0.18379  Biso   1.000  C
  H290     1.0000 0.36930  0.22561  0.10059  Biso   1.000  H
  C254     1.0000 0.31619  0.16531  0.10818  Biso   1.000  C
  C255     1.0000 0.18379  0.16531  0.39180  Biso   1.000  C
  H291     1.0000 0.24959  0.16041  0.44310  Biso   1.000  H
  H292     1.0000 0.22549  0.21311  0.65239  Biso   1.000  H
  H293     1.0000 0.27658  0.20170  0.61708  Biso   1.000  H
  C256     1.0000 0.18379  0.33471  0.10818  Biso   1.000  C
  H294     1.0000 0.22561  0.39939  0.13072  Biso   1.000  H
  C257     1.0000 0.10818  0.31619  0.16531  Biso   1.000  C
  H295     1.0000 0.10059  0.36930  0.22561  Biso   1.000  H
  C258     1.0000 0.30398  0.12160  0.13952  Biso   1.000  C
  C259     1.0000 0.32130  0.06150  0.21729  Biso   1.000  C
  C260     1.0000 0.28269  0.17868  0.06150  Biso   1.000  C
  C261     1.0000 0.19600  0.12160  0.36050  Biso   1.000  C
  C262     1.0000 0.13952  0.19600  0.37842  Biso   1.000  C
  C263     1.0000 0.21729  0.32130  0.06150  Biso   1.000  C
  C264     1.0000 0.13952  0.30398  0.12160  Biso   1.000  C
  C265     1.0000 0.06150  0.28269  0.17868  Biso   1.000  C
  H296     1.0000 0.27441  0.10059  0.13072  Biso   1.000  H
  N43      1.0000 0.28659  0.02772  0.20480  Biso   1.000  N
  H297     1.0000 0.33961  0.05688  0.24959  Biso   1.000  H
  N44      1.0000 0.29518  0.21339  0.02772  Biso   1.000  N
  H298     1.0000 0.25039  0.16041  0.05688  Biso   1.000  H
  C266     1.0000 0.16531  0.10818  0.31619  Biso   1.000  C
  H299     1.0000 0.22561  0.10059  0.36930  Biso   1.000  H
  C267     1.0000 0.10818  0.18379  0.33471  Biso   1.000  C
  H300     1.0000 0.13072  0.22561  0.39939  Biso   1.000  H
  N45      1.0000 0.20480  0.28659  0.02772  Biso   1.000  N
  H301     1.0000 0.24959  0.33961  0.05688  Biso   1.000  H
  H302     1.0000 0.13072  0.27441  0.10059  Biso   1.000  H
  N46      1.0000 0.02772  0.29518  0.21339  Biso   1.000  N
  H303     1.0000 0.05688  0.25039  0.16041  Biso   1.000  H
  C268     1.0000 0.27839  0.98148  0.24039  Biso   1.000  C
  C269     1.0000 0.25959  0.22163  0.98148  Biso   1.000  C
  C270     1.0000 0.17868  0.06150  0.28269  Biso   1.000  C
  C271     1.0000 0.12160  0.13952  0.30398  Biso   1.000  C
  C272     1.0000 0.06150  0.21729  0.32130  Biso   1.000  C
  C273     1.0000 0.24039  0.27839  0.98148  Biso   1.000  C
  C274     1.0000 0.98148  0.25959  0.22163  Biso   1.000  C
  C275     1.0000 0.22163  0.98148  0.25959  Biso   1.000  C
  H304     1.0000 0.30310  0.98341  0.27092  Biso   1.000  H
  C276     1.0000 0.28952  0.93018  0.20689  Biso   1.000  C
  H305     1.0000 0.22910  0.19688  0.98341  Biso   1.000  H
  C277     1.0000 0.29309  0.21050  0.93018  Biso   1.000  C
  N47      1.0000 0.21339  0.02772  0.29518  Biso   1.000  N
  H306     1.0000 0.16041  0.05688  0.25039  Biso   1.000  H
  H307     1.0000 0.10059  0.13072  0.27441  Biso   1.000  H
  N48      1.0000 0.02772  0.20480  0.28659  Biso   1.000  N
  H308     1.0000 0.05688  0.24959  0.33961  Biso   1.000  H
  H309     1.0000 0.27092  0.30310  0.98341  Biso   1.000  H
  C278     1.0000 0.20689  0.28952  0.93018  Biso   1.000  C
  C279     1.0000 0.98148  0.24039  0.27839  Biso   1.000  C
  H310     1.0000 0.98341  0.22910  0.19688  Biso   1.000  H
  C280     1.0000 0.93018  0.29309  0.21050  Biso   1.000  C
  H311     1.0000 0.19688  0.98341  0.22910  Biso   1.000  H
  C281     1.0000 0.21050  0.93018  0.29309  Biso   1.000  C
  H312     1.0000 0.32672  0.92950  0.19520  Biso   1.000  H
  H313     1.0000 0.26658  0.92942  0.17531  Biso   1.000  H
  C282     1.0000 0.27731  0.88061  0.24388  Biso   1.000  C
  H314     1.0000 0.30478  0.17330  0.92950  Biso   1.000  H
  H315     1.0000 0.32471  0.23340  0.92942  Biso   1.000  H
  C283     1.0000 0.25610  0.22271  0.88061  Biso   1.000  C
  H316     1.0000 0.19520  0.32672  0.92950  Biso   1.000  H
  H317     1.0000 0.17531  0.26658  0.92942  Biso   1.000  H
  C284     1.0000 0.24388  0.27731  0.88061  Biso   1.000  C
  H318     1.0000 0.98341  0.27092  0.30310  Biso   1.000  H
  C285     1.0000 0.93018  0.20689  0.28952  Biso   1.000  C
  H319     1.0000 0.92950  0.30478  0.17330  Biso   1.000  H
  H320     1.0000 0.92942  0.32471  0.23340  Biso   1.000  H
  C286     1.0000 0.88061  0.25610  0.22271  Biso   1.000  C
  H321     1.0000 0.17330  0.92950  0.30478  Biso   1.000  H
  H322     1.0000 0.23340  0.92942  0.32471  Biso   1.000  H
  C287     1.0000 0.22271  0.88061  0.25610  Biso   1.000  C
  H323     1.0000 0.28691  0.84759  0.22549  Biso   1.000  H
  H324     1.0000 0.29832  0.88290  0.27658  Biso   1.000  H
  H325     1.0000 0.27449  0.21311  0.84759  Biso   1.000  H
  H326     1.0000 0.22340  0.20170  0.88290  Biso   1.000  H
  H327     1.0000 0.22549  0.28691  0.84759  Biso   1.000  H
  H328     1.0000 0.27658  0.29832  0.88290  Biso   1.000  H
  H329     1.0000 0.92950  0.19520  0.32672  Biso   1.000  H
  H330     1.0000 0.92942  0.17531  0.26658  Biso   1.000  H
  C288     1.0000 0.88061  0.24388  0.27731  Biso   1.000  C
  H331     1.0000 0.84759  0.27449  0.21311  Biso   1.000  H
  H332     1.0000 0.88290  0.22340  0.20170  Biso   1.000  H
  H333     1.0000 0.21311  0.84759  0.27449  Biso   1.000  H
  H334     1.0000 0.20170  0.88290  0.22340  Biso   1.000  H
  H335     1.0000 0.84759  0.22549  0.28691  Biso   1.000  H
  H336     1.0000 0.88290  0.27658  0.29832  Biso   1.000  H
  C289     1.0000 0.63950  0.30398  0.62158  Biso   1.000  C
  C290     1.0000 0.68381  0.33471  0.60820  Biso   1.000  C
  H337     1.0000 0.63070  0.27441  0.60061  Biso   1.000  H
  C291     1.0000 0.60820  0.31619  0.66529  Biso   1.000  C
  C292     1.0000 0.71731  0.32130  0.56148  Biso   1.000  C
  C293     1.0000 0.69602  0.37842  0.63950  Biso   1.000  C
  C294     1.0000 0.62158  0.36050  0.69602  Biso   1.000  C
  C295     1.0000 0.56148  0.28269  0.67870  Biso   1.000  C
  N49      1.0000 0.70482  0.28659  0.52770  Biso   1.000  N
  H338     1.0000 0.74961  0.33961  0.55690  Biso   1.000  H
  H339     1.0000 0.72559  0.39939  0.63070  Biso   1.000  H
  C296     1.0000 0.66529  0.39180  0.68381  Biso   1.000  C
  H340     1.0000 0.60061  0.36930  0.72559  Biso   1.000  H
  N50      1.0000 0.52770  0.29518  0.71341  Biso   1.000  N
  H341     1.0000 0.55690  0.25039  0.66039  Biso   1.000  H
  C297     1.0000 0.74041  0.27839  0.48150  Biso   1.000  C
  C298     1.0000 0.67870  0.43852  0.71731  Biso   1.000  C
  C299     1.0000 0.48150  0.25959  0.72161  Biso   1.000  C
  C300     1.0000 0.70691  0.28952  0.43020  Biso   1.000  C
  C301     1.0000 0.75961  0.22163  0.48150  Biso   1.000  C
  H342     1.0000 0.77090  0.30310  0.48339  Biso   1.000  H
  N51      1.0000 0.71341  0.47230  0.70482  Biso   1.000  N
  H343     1.0000 0.66039  0.44310  0.74961  Biso   1.000  H
  C302     1.0000 0.48150  0.24039  0.77837  Biso   1.000  C
  H344     1.0000 0.48339  0.22910  0.69690  Biso   1.000  H
  C303     1.0000 0.43020  0.29309  0.71048  Biso   1.000  C
  H345     1.0000 0.69522  0.32672  0.42952  Biso   1.000  H
  H346     1.0000 0.67529  0.26658  0.42940  Biso   1.000  H
  C304     1.0000 0.74390  0.27731  0.38059  Biso   1.000  C
  N52      1.0000 0.79520  0.21339  0.52770  Biso   1.000  N
  H347     1.0000 0.72908  0.19688  0.48339  Biso   1.000  H
  C305     1.0000 0.79311  0.21050  0.43020  Biso   1.000  C
  C306     1.0000 0.72161  0.51850  0.74041  Biso   1.000  C
  N53      1.0000 0.52770  0.20480  0.78661  Biso   1.000  N
  H348     1.0000 0.48339  0.27092  0.80312  Biso   1.000  H
  C307     1.0000 0.43020  0.20689  0.78950  Biso   1.000  C
  H349     1.0000 0.42952  0.30478  0.67328  Biso   1.000  H
  H350     1.0000 0.42940  0.32471  0.73342  Biso   1.000  H
  C308     1.0000 0.38059  0.25610  0.72269  Biso   1.000  C
  C309     1.0000 0.75612  0.22271  0.38059  Biso   1.000  C
  H351     1.0000 0.72551  0.28691  0.34761  Biso   1.000  H
  H352     1.0000 0.77660  0.29832  0.38292  Biso   1.000  H
  C310     1.0000 0.78271  0.17868  0.56148  Biso   1.000  C
  H353     1.0000 0.80480  0.17330  0.42952  Biso   1.000  H
  H354     1.0000 0.82469  0.23340  0.42940  Biso   1.000  H
  C311     1.0000 0.77837  0.51850  0.75961  Biso   1.000  C
  H355     1.0000 0.69690  0.51661  0.77090  Biso   1.000  H
  C312     1.0000 0.71048  0.56980  0.70691  Biso   1.000  C
  C313     1.0000 0.56148  0.21729  0.82132  Biso   1.000  C
  H356     1.0000 0.42952  0.19520  0.82670  Biso   1.000  H
  H357     1.0000 0.42940  0.17531  0.76660  Biso   1.000  H
  C314     1.0000 0.38059  0.24388  0.77729  Biso   1.000  C
  H358     1.0000 0.34761  0.27449  0.71309  Biso   1.000  H
  H359     1.0000 0.38292  0.22340  0.70168  Biso   1.000  H
  H360     1.0000 0.77451  0.21311  0.34761  Biso   1.000  H
  H361     1.0000 0.72342  0.20170  0.38292  Biso   1.000  H
  C315     1.0000 0.81621  0.16531  0.60820  Biso   1.000  C
  H362     1.0000 0.75041  0.16041  0.55690  Biso   1.000  H
  N54      1.0000 0.78661  0.47230  0.79520  Biso   1.000  N
  H363     1.0000 0.80312  0.51661  0.72908  Biso   1.000  H
  C316     1.0000 0.78950  0.56980  0.79311  Biso   1.000  C
  H364     1.0000 0.67328  0.57048  0.69522  Biso   1.000  H
  H365     1.0000 0.73342  0.57060  0.67529  Biso   1.000  H
  C317     1.0000 0.72269  0.61941  0.74390  Biso   1.000  C
  C318     1.0000 0.60820  0.18379  0.83469  Biso   1.000  C
  H366     1.0000 0.55690  0.24959  0.83959  Biso   1.000  H
  H367     1.0000 0.34761  0.22549  0.78689  Biso   1.000  H
  H368     1.0000 0.38292  0.27658  0.79830  Biso   1.000  H
  C319     1.0000 0.80400  0.12160  0.63950  Biso   1.000  C
  C320     1.0000 0.86048  0.19600  0.62158  Biso   1.000  C
  C321     1.0000 0.82132  0.43852  0.78271  Biso   1.000  C
  H369     1.0000 0.82670  0.57048  0.80480  Biso   1.000  H
  H370     1.0000 0.76660  0.57060  0.82469  Biso   1.000  H
  C322     1.0000 0.77729  0.61941  0.75612  Biso   1.000  C
  H371     1.0000 0.71309  0.65239  0.72551  Biso   1.000  H
  H372     1.0000 0.70168  0.61708  0.77660  Biso   1.000  H
  C323     1.0000 0.63950  0.19600  0.87840  Biso   1.000  C
  C324     1.0000 0.62158  0.13952  0.80400  Biso   1.000  C
  H373     1.0000 0.77439  0.10059  0.63070  Biso   1.000  H
  C325     1.0000 0.83469  0.10818  0.68381  Biso   1.000  C
  H374     1.0000 0.86928  0.22561  0.60061  Biso   1.000  H
  C326     1.0000 0.89182  0.18379  0.66529  Biso   1.000  C
  C327     1.0000 0.83469  0.39180  0.81621  Biso   1.000  C
  H375     1.0000 0.83959  0.44310  0.75041  Biso   1.000  H
  H376     1.0000 0.78689  0.65239  0.77451  Biso   1.000  H
  H377     1.0000 0.79830  0.61708  0.72342  Biso   1.000  H
  H378     1.0000 0.63070  0.22561  0.89941  Biso   1.000  H
  C328     1.0000 0.68381  0.16531  0.89182  Biso   1.000  C
  C329     1.0000 0.66529  0.10818  0.81621  Biso   1.000  C
  H379     1.0000 0.60061  0.13072  0.77439  Biso   1.000  H
  C330     1.0000 0.87840  0.13952  0.69602  Biso   1.000  C
  C331     1.0000 0.82132  0.06150  0.71731  Biso   1.000  C
  C332     1.0000 0.93850  0.21729  0.67870  Biso   1.000  C
  C333     1.0000 0.87840  0.36050  0.80400  Biso   1.000  C
  C334     1.0000 0.80400  0.37842  0.86048  Biso   1.000  C
  C335     1.0000 0.69602  0.12160  0.86048  Biso   1.000  C
  C336     1.0000 0.71731  0.17868  0.93850  Biso   1.000  C
  C337     1.0000 0.67870  0.06150  0.78271  Biso   1.000  C
  H380     1.0000 0.89941  0.13072  0.72559  Biso   1.000  H
  N55      1.0000 0.78661  0.02772  0.70482  Biso   1.000  N
  H381     1.0000 0.83959  0.05688  0.74961  Biso   1.000  H
  N56      1.0000 0.97228  0.20480  0.71341  Biso   1.000  N
  H382     1.0000 0.94312  0.24959  0.66039  Biso   1.000  H
  C338     1.0000 0.89182  0.31619  0.83469  Biso   1.000  C
  H383     1.0000 0.89941  0.36930  0.77439  Biso   1.000  H
  H384     1.0000 0.77439  0.39939  0.86928  Biso   1.000  H
  C339     1.0000 0.81621  0.33471  0.89182  Biso   1.000  C
  H385     1.0000 0.72559  0.10059  0.86928  Biso   1.000  H
  N57      1.0000 0.70482  0.21339  0.97228  Biso   1.000  N
  H386     1.0000 0.74961  0.16041  0.94312  Biso   1.000  H
  N58      1.0000 0.71341  0.02772  0.79520  Biso   1.000  N
  H387     1.0000 0.66039  0.05688  0.75041  Biso   1.000  H
  C340     1.0000 0.77837  0.98148  0.74041  Biso   1.000  C
  C341     1.0000 0.01852  0.24039  0.72161  Biso   1.000  C
  C342     1.0000 0.93850  0.28269  0.82132  Biso   1.000  C
  C343     1.0000 0.86048  0.30398  0.87840  Biso   1.000  C
  C344     1.0000 0.78271  0.32130  0.93850  Biso   1.000  C
  C345     1.0000 0.74041  0.22163  0.01852  Biso   1.000  C
  C346     1.0000 0.72161  0.98148  0.75961  Biso   1.000  C
  H388     1.0000 0.80312  0.98341  0.77090  Biso   1.000  H
  C347     1.0000 0.78950  0.93018  0.70691  Biso   1.000  C
  C348     1.0000 0.01852  0.25959  0.77837  Biso   1.000  C
  H389     1.0000 0.01659  0.27092  0.69690  Biso   1.000  H
  C349     1.0000 0.06982  0.20689  0.71048  Biso   1.000  C
  N59      1.0000 0.97228  0.29518  0.78661  Biso   1.000  N
  H390     1.0000 0.94312  0.25039  0.83959  Biso   1.000  H
  H391     1.0000 0.86928  0.27441  0.89941  Biso   1.000  H
  N60      1.0000 0.79520  0.28659  0.97228  Biso   1.000  N
  H392     1.0000 0.75041  0.33961  0.94312  Biso   1.000  H
  C350     1.0000 0.75961  0.27839  0.01852  Biso   1.000  C
  H393     1.0000 0.77090  0.19688  0.01659  Biso   1.000  H
  C351     1.0000 0.70691  0.21050  0.06982  Biso   1.000  C
  H394     1.0000 0.69690  0.98341  0.72908  Biso   1.000  H
  C352     1.0000 0.71048  0.93018  0.79311  Biso   1.000  C
  H395     1.0000 0.82670  0.92950  0.69522  Biso   1.000  H
  H396     1.0000 0.76660  0.92942  0.67529  Biso   1.000  H
  C353     1.0000 0.77729  0.88061  0.74390  Biso   1.000  C
  H397     1.0000 0.01659  0.22910  0.80312  Biso   1.000  H
  C354     1.0000 0.06982  0.29309  0.78950  Biso   1.000  C
  H398     1.0000 0.07050  0.19520  0.67328  Biso   1.000  H
  H399     1.0000 0.07058  0.17531  0.73342  Biso   1.000  H
  C355     1.0000 0.11939  0.24388  0.72269  Biso   1.000  C
  H400     1.0000 0.72908  0.30310  0.01659  Biso   1.000  H
  C356     1.0000 0.79311  0.28952  0.06982  Biso   1.000  C
  H401     1.0000 0.69522  0.17330  0.07050  Biso   1.000  H
  H402     1.0000 0.67529  0.23340  0.07058  Biso   1.000  H
  C357     1.0000 0.74390  0.22271  0.11939  Biso   1.000  C
  H403     1.0000 0.67328  0.92950  0.80480  Biso   1.000  H
  H404     1.0000 0.73342  0.92942  0.82469  Biso   1.000  H
  C358     1.0000 0.72269  0.88061  0.75612  Biso   1.000  C
  H405     1.0000 0.78689  0.84759  0.72551  Biso   1.000  H
  H406     1.0000 0.79830  0.88290  0.77660  Biso   1.000  H
  H407     1.0000 0.07050  0.30478  0.82670  Biso   1.000  H
  H408     1.0000 0.07058  0.32471  0.76660  Biso   1.000  H
  C359     1.0000 0.11939  0.25610  0.77729  Biso   1.000  C
  H409     1.0000 0.15241  0.22549  0.71309  Biso   1.000  H
  H410     1.0000 0.11710  0.27658  0.70168  Biso   1.000  H
  H411     1.0000 0.80480  0.32672  0.07050  Biso   1.000  H
  H412     1.0000 0.82469  0.26658  0.07058  Biso   1.000  H
  C360     1.0000 0.75612  0.27731  0.11939  Biso   1.000  C
  H413     1.0000 0.72551  0.21311  0.15241  Biso   1.000  H
  H414     1.0000 0.77660  0.20170  0.11710  Biso   1.000  H
  H415     1.0000 0.71309  0.84759  0.77451  Biso   1.000  H
  H416     1.0000 0.70168  0.88290  0.72342  Biso   1.000  H
  H417     1.0000 0.15241  0.27449  0.78689  Biso   1.000  H
  H418     1.0000 0.11710  0.22340  0.79830  Biso   1.000  H
  H419     1.0000 0.77451  0.28691  0.15241  Biso   1.000  H
  H420     1.0000 0.72342  0.29832  0.11710  Biso   1.000  H
  C361     1.0000 0.62158  0.63950  0.30398  Biso   1.000  C
  C362     1.0000 0.66529  0.60820  0.31619  Biso   1.000  C
  H421     1.0000 0.60061  0.63070  0.27441  Biso   1.000  H
  C363     1.0000 0.60820  0.68381  0.33471  Biso   1.000  C
  C364     1.0000 0.67870  0.56148  0.28269  Biso   1.000  C
  C365     1.0000 0.69602  0.62158  0.36050  Biso   1.000  C
  C366     1.0000 0.63950  0.69602  0.37842  Biso   1.000  C
  C367     1.0000 0.56148  0.71731  0.32130  Biso   1.000  C
  N61      1.0000 0.71341  0.52770  0.29518  Biso   1.000  N
  H422     1.0000 0.66039  0.55690  0.25039  Biso   1.000  H
  H423     1.0000 0.72559  0.60061  0.36930  Biso   1.000  H
  C368     1.0000 0.68381  0.66529  0.39180  Biso   1.000  C
  H424     1.0000 0.63070  0.72559  0.39939  Biso   1.000  H
  N62      1.0000 0.52770  0.70482  0.28659  Biso   1.000  N
  H425     1.0000 0.55690  0.74961  0.33961  Biso   1.000  H
  C369     1.0000 0.72161  0.48150  0.25959  Biso   1.000  C
  C370     1.0000 0.71731  0.67870  0.43852  Biso   1.000  C
  C371     1.0000 0.48150  0.74041  0.27839  Biso   1.000  C
  C372     1.0000 0.71048  0.43020  0.29309  Biso   1.000  C
  C373     1.0000 0.77837  0.48150  0.24039  Biso   1.000  C
  H426     1.0000 0.69690  0.48339  0.22910  Biso   1.000  H
  N63      1.0000 0.70482  0.71341  0.47230  Biso   1.000  N
  H427     1.0000 0.74961  0.66039  0.44310  Biso   1.000  H
  C374     1.0000 0.48150  0.75961  0.22163  Biso   1.000  C
  H428     1.0000 0.48339  0.77090  0.30310  Biso   1.000  H
  C375     1.0000 0.43020  0.70691  0.28952  Biso   1.000  C
  C376     1.0000 0.72269  0.38059  0.25610  Biso   1.000  C
  H429     1.0000 0.67328  0.42952  0.30478  Biso   1.000  H
  H430     1.0000 0.73342  0.42940  0.32471  Biso   1.000  H
  C377     1.0000 0.78950  0.43020  0.20689  Biso   1.000  C
  N64      1.0000 0.78661  0.52770  0.20480  Biso   1.000  N
  H431     1.0000 0.80312  0.48339  0.27092  Biso   1.000  H
  C378     1.0000 0.74041  0.72161  0.51850  Biso   1.000  C
  N65      1.0000 0.52770  0.79520  0.21339  Biso   1.000  N
  H432     1.0000 0.48339  0.72908  0.19688  Biso   1.000  H
  C379     1.0000 0.43020  0.79311  0.21050  Biso   1.000  C
  H433     1.0000 0.42952  0.69522  0.32672  Biso   1.000  H
  H434     1.0000 0.42940  0.67529  0.26658  Biso   1.000  H
  C380     1.0000 0.38059  0.74390  0.27731  Biso   1.000  C
  C381     1.0000 0.77729  0.38059  0.24388  Biso   1.000  C
  H435     1.0000 0.71309  0.34761  0.27449  Biso   1.000  H
  H436     1.0000 0.70168  0.38292  0.22340  Biso   1.000  H
  H437     1.0000 0.82670  0.42952  0.19520  Biso   1.000  H
  H438     1.0000 0.76660  0.42940  0.17531  Biso   1.000  H
  C382     1.0000 0.82132  0.56148  0.21729  Biso   1.000  C
  C383     1.0000 0.75961  0.77837  0.51850  Biso   1.000  C
  H439     1.0000 0.77090  0.69690  0.51661  Biso   1.000  H
  C384     1.0000 0.70691  0.71048  0.56980  Biso   1.000  C
  C385     1.0000 0.56148  0.78271  0.17868  Biso   1.000  C
  H440     1.0000 0.42952  0.80480  0.17330  Biso   1.000  H
  H441     1.0000 0.42940  0.82469  0.23340  Biso   1.000  H
  C386     1.0000 0.38059  0.75612  0.22271  Biso   1.000  C
  H442     1.0000 0.34761  0.72551  0.28691  Biso   1.000  H
  H443     1.0000 0.38292  0.77660  0.29832  Biso   1.000  H
  H444     1.0000 0.78689  0.34761  0.22549  Biso   1.000  H
  H445     1.0000 0.79830  0.38292  0.27658  Biso   1.000  H
  C387     1.0000 0.83469  0.60820  0.18379  Biso   1.000  C
  H446     1.0000 0.83959  0.55690  0.24959  Biso   1.000  H
  N66      1.0000 0.79520  0.78661  0.47230  Biso   1.000  N
  H447     1.0000 0.72908  0.80312  0.51661  Biso   1.000  H
  C388     1.0000 0.79311  0.78950  0.56980  Biso   1.000  C
  H448     1.0000 0.69522  0.67328  0.57048  Biso   1.000  H
  H449     1.0000 0.67529  0.73342  0.57060  Biso   1.000  H
  C389     1.0000 0.74390  0.72269  0.61941  Biso   1.000  C
  C390     1.0000 0.60820  0.81621  0.16531  Biso   1.000  C
  H450     1.0000 0.55690  0.75041  0.16041  Biso   1.000  H
  H451     1.0000 0.34761  0.77451  0.21311  Biso   1.000  H
  H452     1.0000 0.38292  0.72342  0.20170  Biso   1.000  H
  C391     1.0000 0.80400  0.62158  0.13952  Biso   1.000  C
  C392     1.0000 0.87840  0.63950  0.19600  Biso   1.000  C
  C393     1.0000 0.78271  0.82132  0.43852  Biso   1.000  C
  H453     1.0000 0.80480  0.82670  0.57048  Biso   1.000  H
  H454     1.0000 0.82469  0.76660  0.57060  Biso   1.000  H
  C394     1.0000 0.75612  0.77729  0.61941  Biso   1.000  C
  H455     1.0000 0.72551  0.71309  0.65239  Biso   1.000  H
  H456     1.0000 0.77660  0.70168  0.61708  Biso   1.000  H
  C395     1.0000 0.63950  0.80400  0.12160  Biso   1.000  C
  C396     1.0000 0.62158  0.86048  0.19600  Biso   1.000  C
  H457     1.0000 0.77439  0.60061  0.13072  Biso   1.000  H
  C397     1.0000 0.81621  0.66529  0.10818  Biso   1.000  C
  H458     1.0000 0.89941  0.63070  0.22561  Biso   1.000  H
  C398     1.0000 0.89182  0.68381  0.16531  Biso   1.000  C
  C399     1.0000 0.81621  0.83469  0.39180  Biso   1.000  C
  H459     1.0000 0.75041  0.83959  0.44310  Biso   1.000  H
  H460     1.0000 0.77451  0.78689  0.65239  Biso   1.000  H
  H461     1.0000 0.72342  0.79830  0.61708  Biso   1.000  H
  C400     1.0000 0.68381  0.83469  0.10818  Biso   1.000  C
  H462     1.0000 0.63070  0.77439  0.10059  Biso   1.000  H
  H463     1.0000 0.60061  0.86928  0.22561  Biso   1.000  H
  C401     1.0000 0.66529  0.89182  0.18379  Biso   1.000  C
  C402     1.0000 0.86048  0.69602  0.12160  Biso   1.000  C
  C403     1.0000 0.78271  0.67870  0.06150  Biso   1.000  C
  C404     1.0000 0.93850  0.71731  0.17868  Biso   1.000  C
  C405     1.0000 0.86048  0.80400  0.37842  Biso   1.000  C
  C406     1.0000 0.80400  0.87840  0.36050  Biso   1.000  C
  C407     1.0000 0.71731  0.82132  0.06150  Biso   1.000  C
  C408     1.0000 0.69602  0.87840  0.13952  Biso   1.000  C
  C409     1.0000 0.67870  0.93850  0.21729  Biso   1.000  C
  H464     1.0000 0.86928  0.72559  0.10059  Biso   1.000  H
  N67      1.0000 0.79520  0.71341  0.02772  Biso   1.000  N
  H465     1.0000 0.75041  0.66039  0.05688  Biso   1.000  H
  N68      1.0000 0.97228  0.70482  0.21339  Biso   1.000  N
  H466     1.0000 0.94312  0.74961  0.16041  Biso   1.000  H
  C410     1.0000 0.89182  0.81621  0.33471  Biso   1.000  C
  H467     1.0000 0.86928  0.77439  0.39939  Biso   1.000  H
  H468     1.0000 0.77439  0.89941  0.36930  Biso   1.000  H
  C411     1.0000 0.83469  0.89182  0.31619  Biso   1.000  C
  N69      1.0000 0.70482  0.78661  0.02772  Biso   1.000  N
  H469     1.0000 0.74961  0.83959  0.05688  Biso   1.000  H
  H470     1.0000 0.72559  0.89941  0.13072  Biso   1.000  H
  N70      1.0000 0.71341  0.97228  0.20480  Biso   1.000  N
  H471     1.0000 0.66039  0.94312  0.24959  Biso   1.000  H
  C412     1.0000 0.75961  0.72161  0.98148  Biso   1.000  C
  C413     1.0000 0.01852  0.74041  0.22163  Biso   1.000  C
  C414     1.0000 0.93850  0.78271  0.32130  Biso   1.000  C
  C415     1.0000 0.87840  0.86048  0.30398  Biso   1.000  C
  C416     1.0000 0.82132  0.93850  0.28269  Biso   1.000  C
  C417     1.0000 0.74041  0.77837  0.98148  Biso   1.000  C
  C418     1.0000 0.72161  0.01852  0.24039  Biso   1.000  C
  H472     1.0000 0.72908  0.69690  0.98341  Biso   1.000  H
  C419     1.0000 0.79311  0.71048  0.93018  Biso   1.000  C
  C420     1.0000 0.01852  0.75961  0.27839  Biso   1.000  C
  H473     1.0000 0.01659  0.77090  0.19688  Biso   1.000  H
  C421     1.0000 0.06982  0.70691  0.21050  Biso   1.000  C
  N71      1.0000 0.97228  0.79520  0.28659  Biso   1.000  N
  H474     1.0000 0.94312  0.75041  0.33961  Biso   1.000  H
  H475     1.0000 0.89941  0.86928  0.27441  Biso   1.000  H
  N72      1.0000 0.78661  0.97228  0.29518  Biso   1.000  N
  H476     1.0000 0.83959  0.94312  0.25039  Biso   1.000  H
  H477     1.0000 0.77090  0.80312  0.98341  Biso   1.000  H
  C422     1.0000 0.70691  0.78950  0.93018  Biso   1.000  C
  C423     1.0000 0.77837  0.01852  0.25959  Biso   1.000  C
  H478     1.0000 0.69690  0.01659  0.27092  Biso   1.000  H
  C424     1.0000 0.71048  0.06982  0.20689  Biso   1.000  C
  H479     1.0000 0.80480  0.67328  0.92950  Biso   1.000  H
  H480     1.0000 0.82469  0.73342  0.92942  Biso   1.000  H
  C425     1.0000 0.75612  0.72269  0.88061  Biso   1.000  C
  H481     1.0000 0.01659  0.72908  0.30310  Biso   1.000  H
  C426     1.0000 0.06982  0.79311  0.28952  Biso   1.000  C
  H482     1.0000 0.07050  0.69522  0.17330  Biso   1.000  H
  H483     1.0000 0.07058  0.67529  0.23340  Biso   1.000  H
  C427     1.0000 0.11939  0.74390  0.22271  Biso   1.000  C
  H484     1.0000 0.69522  0.82670  0.92950  Biso   1.000  H
  H485     1.0000 0.67529  0.76660  0.92942  Biso   1.000  H
  C428     1.0000 0.74390  0.77729  0.88061  Biso   1.000  C
  H486     1.0000 0.80312  0.01659  0.22910  Biso   1.000  H
  C429     1.0000 0.78950  0.06982  0.29309  Biso   1.000  C
  H487     1.0000 0.67328  0.07050  0.19520  Biso   1.000  H
  H488     1.0000 0.73342  0.07058  0.17531  Biso   1.000  H
  C430     1.0000 0.72269  0.11939  0.24388  Biso   1.000  C
  H489     1.0000 0.77451  0.71309  0.84759  Biso   1.000  H
  H490     1.0000 0.72342  0.70168  0.88290  Biso   1.000  H
  H491     1.0000 0.07050  0.80480  0.32672  Biso   1.000  H
  H492     1.0000 0.07058  0.82469  0.26658  Biso   1.000  H
  C431     1.0000 0.11939  0.75612  0.27731  Biso   1.000  C
  H493     1.0000 0.15241  0.72551  0.21311  Biso   1.000  H
  H494     1.0000 0.11710  0.77660  0.20170  Biso   1.000  H
  H495     1.0000 0.72551  0.78689  0.84759  Biso   1.000  H
  H496     1.0000 0.77660  0.79830  0.88290  Biso   1.000  H
  H497     1.0000 0.82670  0.07050  0.30478  Biso   1.000  H
  H498     1.0000 0.76660  0.07058  0.32471  Biso   1.000  H
  C432     1.0000 0.77729  0.11939  0.25610  Biso   1.000  C
  H499     1.0000 0.71309  0.15241  0.22549  Biso   1.000  H
  H500     1.0000 0.70168  0.11710  0.27658  Biso   1.000  H
  H501     1.0000 0.15241  0.77451  0.28691  Biso   1.000  H
  H502     1.0000 0.11710  0.72342  0.29832  Biso   1.000  H
  H503     1.0000 0.78689  0.15241  0.27449  Biso   1.000  H
  H504     1.0000 0.79830  0.11710  0.22340  Biso   1.000  H
  C433     1.0000 0.30398  0.62158  0.63950  Biso   1.000  C
  C434     1.0000 0.31619  0.66529  0.60820  Biso   1.000  C
  H505     1.0000 0.27441  0.60061  0.63070  Biso   1.000  H
  C435     1.0000 0.33471  0.60820  0.68381  Biso   1.000  C
  C436     1.0000 0.28269  0.67870  0.56148  Biso   1.000  C
  C437     1.0000 0.36050  0.69602  0.62158  Biso   1.000  C
  C438     1.0000 0.37842  0.63950  0.69602  Biso   1.000  C
  C439     1.0000 0.32130  0.56148  0.71731  Biso   1.000  C
  N73      1.0000 0.29518  0.71341  0.52770  Biso   1.000  N
  H506     1.0000 0.25039  0.66039  0.55690  Biso   1.000  H
  H507     1.0000 0.36930  0.72559  0.60061  Biso   1.000  H
  C440     1.0000 0.39180  0.68381  0.66529  Biso   1.000  C
  H508     1.0000 0.39939  0.63070  0.72559  Biso   1.000  H
  N74      1.0000 0.28659  0.52770  0.70482  Biso   1.000  N
  H509     1.0000 0.33961  0.55690  0.74961  Biso   1.000  H
  C441     1.0000 0.25959  0.72161  0.48150  Biso   1.000  C
  C442     1.0000 0.43852  0.71731  0.67870  Biso   1.000  C
  C443     1.0000 0.27839  0.48150  0.74041  Biso   1.000  C
  C444     1.0000 0.29309  0.71048  0.43020  Biso   1.000  C
  C445     1.0000 0.24039  0.77837  0.48150  Biso   1.000  C
  H510     1.0000 0.22910  0.69690  0.48339  Biso   1.000  H
  N75      1.0000 0.47230  0.70482  0.71341  Biso   1.000  N
  H511     1.0000 0.44310  0.74961  0.66039  Biso   1.000  H
  C446     1.0000 0.22163  0.48150  0.75961  Biso   1.000  C
  H512     1.0000 0.30310  0.48339  0.77090  Biso   1.000  H
  C447     1.0000 0.28952  0.43020  0.70691  Biso   1.000  C
  C448     1.0000 0.25610  0.72269  0.38059  Biso   1.000  C
  H513     1.0000 0.30478  0.67328  0.42952  Biso   1.000  H
  H514     1.0000 0.32471  0.73342  0.42940  Biso   1.000  H
  C449     1.0000 0.20689  0.78950  0.43020  Biso   1.000  C
  N76      1.0000 0.20480  0.78661  0.52770  Biso   1.000  N
  H515     1.0000 0.27092  0.80312  0.48339  Biso   1.000  H
  C450     1.0000 0.51850  0.74041  0.72161  Biso   1.000  C
  N77      1.0000 0.21339  0.52770  0.79520  Biso   1.000  N
  H516     1.0000 0.19688  0.48339  0.72908  Biso   1.000  H
  C451     1.0000 0.21050  0.43020  0.79311  Biso   1.000  C
  H517     1.0000 0.32672  0.42952  0.69522  Biso   1.000  H
  H518     1.0000 0.26658  0.42940  0.67529  Biso   1.000  H
  C452     1.0000 0.27731  0.38059  0.74390  Biso   1.000  C
  C453     1.0000 0.24388  0.77729  0.38059  Biso   1.000  C
  H519     1.0000 0.27449  0.71309  0.34761  Biso   1.000  H
  H520     1.0000 0.22340  0.70168  0.38292  Biso   1.000  H
  H521     1.0000 0.19520  0.82670  0.42952  Biso   1.000  H
  H522     1.0000 0.17531  0.76660  0.42940  Biso   1.000  H
  C454     1.0000 0.21729  0.82132  0.56148  Biso   1.000  C
  C455     1.0000 0.51850  0.75961  0.77837  Biso   1.000  C
  H523     1.0000 0.51661  0.77090  0.69690  Biso   1.000  H
  C456     1.0000 0.56980  0.70691  0.71048  Biso   1.000  C
  C457     1.0000 0.17868  0.56148  0.78271  Biso   1.000  C
  H524     1.0000 0.17330  0.42952  0.80480  Biso   1.000  H
  H525     1.0000 0.23340  0.42940  0.82469  Biso   1.000  H
  C458     1.0000 0.22271  0.38059  0.75612  Biso   1.000  C
  H526     1.0000 0.28691  0.34761  0.72551  Biso   1.000  H
  H527     1.0000 0.29832  0.38292  0.77660  Biso   1.000  H
  H528     1.0000 0.22549  0.78689  0.34761  Biso   1.000  H
  H529     1.0000 0.27658  0.79830  0.38292  Biso   1.000  H
  C459     1.0000 0.18379  0.83469  0.60820  Biso   1.000  C
  H530     1.0000 0.24959  0.83959  0.55690  Biso   1.000  H
  N78      1.0000 0.47230  0.79520  0.78661  Biso   1.000  N
  H531     1.0000 0.51661  0.72908  0.80312  Biso   1.000  H
  C460     1.0000 0.56980  0.79311  0.78950  Biso   1.000  C
  H532     1.0000 0.57048  0.69522  0.67328  Biso   1.000  H
  H533     1.0000 0.57060  0.67529  0.73342  Biso   1.000  H
  C461     1.0000 0.61941  0.74390  0.72269  Biso   1.000  C
  C462     1.0000 0.16531  0.60820  0.81621  Biso   1.000  C
  H534     1.0000 0.16041  0.55690  0.75041  Biso   1.000  H
  H535     1.0000 0.21311  0.34761  0.77451  Biso   1.000  H
  H536     1.0000 0.20170  0.38292  0.72342  Biso   1.000  H
  C463     1.0000 0.19600  0.87840  0.63950  Biso   1.000  C
  C464     1.0000 0.13952  0.80400  0.62158  Biso   1.000  C
  C465     1.0000 0.43852  0.78271  0.82132  Biso   1.000  C
  H537     1.0000 0.57048  0.80480  0.82670  Biso   1.000  H
  H538     1.0000 0.57060  0.82469  0.76660  Biso   1.000  H
  C466     1.0000 0.61941  0.75612  0.77729  Biso   1.000  C
  H539     1.0000 0.65239  0.72551  0.71309  Biso   1.000  H
  H540     1.0000 0.61708  0.77660  0.70168  Biso   1.000  H
  C467     1.0000 0.12160  0.63950  0.80400  Biso   1.000  C
  C468     1.0000 0.19600  0.62158  0.86048  Biso   1.000  C
  H541     1.0000 0.22561  0.89941  0.63070  Biso   1.000  H
  C469     1.0000 0.16531  0.89182  0.68381  Biso   1.000  C
  H542     1.0000 0.13072  0.77439  0.60061  Biso   1.000  H
  C470     1.0000 0.10818  0.81621  0.66529  Biso   1.000  C
  C471     1.0000 0.39180  0.81621  0.83469  Biso   1.000  C
  H543     1.0000 0.44310  0.75041  0.83959  Biso   1.000  H
  H544     1.0000 0.65239  0.77451  0.78689  Biso   1.000  H
  H545     1.0000 0.61708  0.72342  0.79830  Biso   1.000  H
  C472     1.0000 0.10818  0.68381  0.83469  Biso   1.000  C
  H546     1.0000 0.10059  0.63070  0.77439  Biso   1.000  H
  H547     1.0000 0.22561  0.60061  0.86928  Biso   1.000  H
  C473     1.0000 0.18379  0.66529  0.89182  Biso   1.000  C
  C474     1.0000 0.12160  0.86048  0.69602  Biso   1.000  C
  C475     1.0000 0.17868  0.93850  0.71731  Biso   1.000  C
  C476     1.0000 0.06150  0.78271  0.67870  Biso   1.000  C
  C477     1.0000 0.37842  0.86048  0.80400  Biso   1.000  C
  C478     1.0000 0.36050  0.80400  0.87840  Biso   1.000  C
  C479     1.0000 0.06150  0.71731  0.82132  Biso   1.000  C
  C480     1.0000 0.13952  0.69602  0.87840  Biso   1.000  C
  C481     1.0000 0.21729  0.67870  0.93850  Biso   1.000  C
  H548     1.0000 0.10059  0.86928  0.72559  Biso   1.000  H
  N79      1.0000 0.21339  0.97228  0.70482  Biso   1.000  N
  H549     1.0000 0.16041  0.94312  0.74961  Biso   1.000  H
  N80      1.0000 0.02772  0.79520  0.71341  Biso   1.000  N
  H550     1.0000 0.05688  0.75041  0.66039  Biso   1.000  H
  C482     1.0000 0.33471  0.89182  0.81621  Biso   1.000  C
  H551     1.0000 0.39939  0.86928  0.77439  Biso   1.000  H
  H552     1.0000 0.36930  0.77439  0.89941  Biso   1.000  H
  C483     1.0000 0.31619  0.83469  0.89182  Biso   1.000  C
  N81      1.0000 0.02772  0.70482  0.78661  Biso   1.000  N
  H553     1.0000 0.05688  0.74961  0.83959  Biso   1.000  H
  H554     1.0000 0.13072  0.72559  0.89941  Biso   1.000  H
  N82      1.0000 0.20480  0.71341  0.97228  Biso   1.000  N
  H555     1.0000 0.24959  0.66039  0.94312  Biso   1.000  H
  C484     1.0000 0.22163  0.01852  0.74041  Biso   1.000  C
  C485     1.0000 0.98148  0.75961  0.72161  Biso   1.000  C
  C486     1.0000 0.32130  0.93850  0.78271  Biso   1.000  C
  C487     1.0000 0.30398  0.87840  0.86048  Biso   1.000  C
  C488     1.0000 0.28269  0.82132  0.93850  Biso   1.000  C
  C489     1.0000 0.98148  0.74041  0.77837  Biso   1.000  C
  C490     1.0000 0.24039  0.72161  0.01852  Biso   1.000  C
  C491     1.0000 0.27839  0.01852  0.75961  Biso   1.000  C
  H556     1.0000 0.19688  0.01659  0.77090  Biso   1.000  H
  C492     1.0000 0.21050  0.06982  0.70691  Biso   1.000  C
  H557     1.0000 0.98341  0.72908  0.69690  Biso   1.000  H
  C493     1.0000 0.93018  0.79311  0.71048  Biso   1.000  C
  N83      1.0000 0.28659  0.97228  0.79520  Biso   1.000  N
  H558     1.0000 0.33961  0.94312  0.75041  Biso   1.000  H
  H559     1.0000 0.27441  0.89941  0.86928  Biso   1.000  H
  N84      1.0000 0.29518  0.78661  0.97228  Biso   1.000  N
  H560     1.0000 0.25039  0.83959  0.94312  Biso   1.000  H
  H561     1.0000 0.98341  0.77090  0.80312  Biso   1.000  H
  C494     1.0000 0.93018  0.70691  0.78950  Biso   1.000  C
  C495     1.0000 0.25959  0.77837  0.01852  Biso   1.000  C
  H562     1.0000 0.27092  0.69690  0.01659  Biso   1.000  H
  C496     1.0000 0.20689  0.71048  0.06982  Biso   1.000  C
  H563     1.0000 0.30310  0.01659  0.72908  Biso   1.000  H
  C497     1.0000 0.28952  0.06982  0.79311  Biso   1.000  C
  H564     1.0000 0.17330  0.07050  0.69522  Biso   1.000  H
  H565     1.0000 0.23340  0.07058  0.67529  Biso   1.000  H
  C498     1.0000 0.22271  0.11939  0.74390  Biso   1.000  C
  H566     1.0000 0.92950  0.80480  0.67328  Biso   1.000  H
  H567     1.0000 0.92942  0.82469  0.73342  Biso   1.000  H
  C499     1.0000 0.88061  0.75612  0.72269  Biso   1.000  C
  H568     1.0000 0.92950  0.69522  0.82670  Biso   1.000  H
  H569     1.0000 0.92942  0.67529  0.76660  Biso   1.000  H
  C500     1.0000 0.88061  0.74390  0.77729  Biso   1.000  C
  H570     1.0000 0.22910  0.80312  0.01659  Biso   1.000  H
  C501     1.0000 0.29309  0.78950  0.06982  Biso   1.000  C
  H571     1.0000 0.19520  0.67328  0.07050  Biso   1.000  H
  H572     1.0000 0.17531  0.73342  0.07058  Biso   1.000  H
  C502     1.0000 0.24388  0.72269  0.11939  Biso   1.000  C
  H573     1.0000 0.32672  0.07050  0.80480  Biso   1.000  H
  H574     1.0000 0.26658  0.07058  0.82469  Biso   1.000  H
  C503     1.0000 0.27731  0.11939  0.75612  Biso   1.000  C
  H575     1.0000 0.21311  0.15241  0.72551  Biso   1.000  H
  H576     1.0000 0.20170  0.11710  0.77660  Biso   1.000  H
  H577     1.0000 0.84759  0.77451  0.71309  Biso   1.000  H
  H578     1.0000 0.88290  0.72342  0.70168  Biso   1.000  H
  H579     1.0000 0.84759  0.72551  0.78689  Biso   1.000  H
  H580     1.0000 0.88290  0.77660  0.79830  Biso   1.000  H
  H581     1.0000 0.30478  0.82670  0.07050  Biso   1.000  H
  H582     1.0000 0.32471  0.76660  0.07058  Biso   1.000  H
  C504     1.0000 0.25610  0.77729  0.11939  Biso   1.000  C
  H583     1.0000 0.22549  0.71309  0.15241  Biso   1.000  H
  H584     1.0000 0.27658  0.70168  0.11710  Biso   1.000  H
  H585     1.0000 0.28691  0.15241  0.77451  Biso   1.000  H
  H586     1.0000 0.29832  0.11710  0.72342  Biso   1.000  H
  H587     1.0000 0.27449  0.78689  0.15241  Biso   1.000  H
  H588     1.0000 0.22340  0.79830  0.11710  Biso   1.000  H
  Ne1      1.0000 0.25000  0.25000  0.25000  Biso   1.000  Ne
  He1      1.0000 0.18579  0.31420  0.31420  Biso   1.000  He
  He2      1.0000 0.31374  0.18626  0.31373  Biso   1.000  He
  He3      1.0000 0.18317  0.18317  0.18317  Biso   1.000  He
  He4      1.0000 0.31618  0.31618  0.18381  Biso   1.000  He
  Ar1      1.0000 0.25000  0.25000  0.25000  Biso   1.000  Ar
  Ne2      1.0000 0.50000  0.50000  0.00000  Biso   1.000  Ne
  He5      1.0000 0.43421  0.43422  0.06579  Biso   1.000  He
  He6      1.0000 0.56516  0.56515  0.06516  Biso   1.000  He
  He7      1.0000 0.56187  0.43815  0.93813  Biso   1.000  He
  He8      1.0000 0.43423  0.56576  0.93422  Biso   1.000  He
  Ar2      1.0000 0.50000  0.50000  0.00000  Biso   1.000  Ar
  Ne3      1.0000 0.50000  0.00000  0.50000  Biso   1.000  Ne
  He9      1.0000 0.43423  0.93421  0.56579  Biso   1.000  He
  He10     1.0000 0.56513  0.06515  0.56514  Biso   1.000  He
  He11     1.0000 0.56184  0.93814  0.43814  Biso   1.000  He
  He12     1.0000 0.43425  0.06577  0.43424  Biso   1.000  He
  Ar3      1.0000 0.50000  0.00000  0.50000  Biso   1.000  Ar
  Ne4      1.0000 0.00000  0.50000  0.50000  Biso   1.000  Ne
  He13     1.0000 0.93422  0.43422  0.56576  Biso   1.000  He
  He14     1.0000 0.06516  0.56516  0.56515  Biso   1.000  He
  He15     1.0000 0.06187  0.43813  0.43814  Biso   1.000  He
  He16     1.0000 0.93422  0.56577  0.43424  Biso   1.000  He
  Ar4      1.0000 0.00000  0.50000  0.50000  Biso   1.000  Ar
  Ne5      1.0000 0.75000  0.75000  0.25000  Biso   1.000  Ne
  He17     1.0000 0.68580  0.81421  0.31420  Biso   1.000  He
  He18     1.0000 0.81373  0.68628  0.31372  Biso   1.000  He
  He19     1.0000 0.68317  0.68317  0.18316  Biso   1.000  He
  He20     1.0000 0.81619  0.81619  0.18381  Biso   1.000  He
  Ar5      1.0000 0.74999  0.74999  0.25001  Biso   1.000  Ar
  Ne6      1.0000 0.75000  0.25000  0.75000  Biso   1.000  Ne
  He21     1.0000 0.68578  0.31422  0.81422  Biso   1.000  He
  He22     1.0000 0.81372  0.18628  0.81372  Biso   1.000  He
  He23     1.0000 0.68315  0.18315  0.68316  Biso   1.000  He
  He24     1.0000 0.81621  0.31620  0.68380  Biso   1.000  He
  Ar6      1.0000 0.74999  0.25000  0.74998  Biso   1.000  Ar
  Ne7      1.0000 0.25000  0.75000  0.75000  Biso   1.000  Ne
  He25     1.0000 0.18580  0.81421  0.81420  Biso   1.000  He
  He26     1.0000 0.31372  0.68628  0.81373  Biso   1.000  He
  He27     1.0000 0.18316  0.68317  0.68317  Biso   1.000  He
  He28     1.0000 0.31619  0.81619  0.68382  Biso   1.000  He
  Ar7      1.0000 0.25000  0.74998  0.74999  Biso   1.000  Ar
