data_image0
_cell_length_a       24.898
_cell_length_b       24.898
_cell_length_c       24.898
_cell_angle_alpha    90
_cell_angle_beta     90
_cell_angle_gamma    90

_symmetry_space_group_name_H-M    "P 1"
_symmetry_int_tables_number       1

loop_
  _symmetry_equiv_pos_as_xyz
  'x, y, z'

loop_
  _atom_site_label
  _atom_site_occupancy
  _atom_site_fract_x
  _atom_site_fract_y
  _atom_site_fract_z
  _atom_site_thermal_displace_type
  _atom_site_B_iso_or_equiv
  _atom_site_type_symbol
  C1       1.0000 0.50751  0.36858  0.47221  Biso   1.000  C
  C2       1.0000 0.54269  0.31930  0.46072  Biso   1.000  C
  C3       1.0000 0.49249  0.36858  0.52779  Biso   1.000  C
  H1       1.0000 0.52719  0.40120  0.46389  Biso   1.000  H
  H2       1.0000 0.47558  0.36762  0.44992  Biso   1.000  H
  C4       1.0000 0.50940  0.26910  0.47180  Biso   1.000  C
  H3       1.0000 0.55438  0.31958  0.42349  Biso   1.000  H
  H4       1.0000 0.57418  0.31970  0.48361  Biso   1.000  H
  C5       1.0000 0.45731  0.31930  0.53928  Biso   1.000  C
  H5       1.0000 0.47281  0.40120  0.53611  Biso   1.000  H
  H6       1.0000 0.52442  0.36762  0.55008  Biso   1.000  H
  N1       1.0000 0.54591  0.22311  0.46341  Biso   1.000  N
  C6       1.0000 0.49060  0.26910  0.52820  Biso   1.000  C
  H7       1.0000 0.47879  0.26709  0.44710  Biso   1.000  H
  H8       1.0000 0.44562  0.31958  0.57651  Biso   1.000  H
  H9       1.0000 0.42582  0.31970  0.51639  Biso   1.000  H
  C7       1.0000 0.53370  0.18989  0.42879  Biso   1.000  C
  N2       1.0000 0.45409  0.22311  0.53659  Biso   1.000  N
  H10      1.0000 0.52121  0.26709  0.55290  Biso   1.000  H
  C8       1.0000 0.56619  0.14210  0.41501  Biso   1.000  C
  H11      1.0000 0.50189  0.19532  0.40999  Biso   1.000  H
  C9       1.0000 0.46630  0.18989  0.57121  Biso   1.000  C
  C10      1.0000 0.61089  0.12901  0.44610  Biso   1.000  C
  C11      1.0000 0.55390  0.11089  0.37099  Biso   1.000  C
  C12      1.0000 0.43381  0.14210  0.58499  Biso   1.000  C
  H12      1.0000 0.49811  0.19532  0.59001  Biso   1.000  H
  H13      1.0000 0.61969  0.15021  0.47558  Biso   1.000  H
  C13      1.0000 0.64210  0.08499  0.43381  Biso   1.000  C
  H14      1.0000 0.52442  0.11969  0.34979  Biso   1.000  H
  C14      1.0000 0.58499  0.06619  0.35790  Biso   1.000  C
  C15      1.0000 0.44610  0.11089  0.62901  Biso   1.000  C
  C16      1.0000 0.38911  0.12901  0.55390  Biso   1.000  C
  C17      1.0000 0.62901  0.05390  0.38911  Biso   1.000  C
  C18      1.0000 0.68989  0.07121  0.46630  Biso   1.000  C
  C19      1.0000 0.57121  0.03370  0.31011  Biso   1.000  C
  H15      1.0000 0.47558  0.11969  0.65021  Biso   1.000  H
  C20      1.0000 0.41501  0.06619  0.64210  Biso   1.000  C
  H16      1.0000 0.38031  0.15021  0.52442  Biso   1.000  H
  C21      1.0000 0.35790  0.08499  0.56619  Biso   1.000  C
  H17      1.0000 0.65021  0.02442  0.38031  Biso   1.000  H
  N3       1.0000 0.72311  0.03659  0.45409  Biso   1.000  N
  H18      1.0000 0.69532  0.09001  0.49811  Biso   1.000  H
  N4       1.0000 0.53659  0.04591  0.27689  Biso   1.000  N
  H19      1.0000 0.59001  0.00189  0.30468  Biso   1.000  H
  C22      1.0000 0.37099  0.05390  0.61089  Biso   1.000  C
  C23      1.0000 0.42879  0.03370  0.68989  Biso   1.000  C
  C24      1.0000 0.31011  0.07121  0.53370  Biso   1.000  C
  C25      1.0000 0.76910  0.02820  0.49060  Biso   1.000  C
  C26      1.0000 0.52820  0.00940  0.23090  Biso   1.000  C
  H20      1.0000 0.34979  0.02442  0.61969  Biso   1.000  H
  N5       1.0000 0.46341  0.04591  0.72311  Biso   1.000  N
  H21      1.0000 0.40999  0.00189  0.69532  Biso   1.000  H
  N6       1.0000 0.27689  0.03659  0.54591  Biso   1.000  N
  H22      1.0000 0.30468  0.09001  0.50189  Biso   1.000  H
  H23      1.0000 0.76709  0.05290  0.52121  Biso   1.000  H
  C27      1.0000 0.81930  0.03928  0.45731  Biso   1.000  C
  C28      1.0000 0.76910  0.97180  0.50940  Biso   1.000  C
  C29      1.0000 0.53928  0.04269  0.18070  Biso   1.000  C
  C30      1.0000 0.47180  0.99060  0.23090  Biso   1.000  C
  H24      1.0000 0.55290  0.97879  0.23291  Biso   1.000  H
  C31      1.0000 0.47180  0.00940  0.76910  Biso   1.000  C
  C32      1.0000 0.23090  0.02820  0.50940  Biso   1.000  C
  H25      1.0000 0.81958  0.07651  0.44562  Biso   1.000  H
  H26      1.0000 0.81970  0.01639  0.42582  Biso   1.000  H
  C33      1.0000 0.86858  0.02779  0.49249  Biso   1.000  C
  N7       1.0000 0.72311  0.96341  0.54591  Biso   1.000  N
  H27      1.0000 0.76709  0.94710  0.47879  Biso   1.000  H
  C34      1.0000 0.81930  0.96072  0.54269  Biso   1.000  C
  H28      1.0000 0.57651  0.05438  0.18042  Biso   1.000  H
  H29      1.0000 0.51639  0.07418  0.18030  Biso   1.000  H
  C35      1.0000 0.52779  0.00751  0.13142  Biso   1.000  C
  H30      1.0000 0.44710  0.02121  0.23291  Biso   1.000  H
  N8       1.0000 0.46341  0.95409  0.27689  Biso   1.000  N
  C36      1.0000 0.46072  0.95731  0.18070  Biso   1.000  C
  C37      1.0000 0.46072  0.04269  0.81930  Biso   1.000  C
  C38      1.0000 0.52820  0.99060  0.76910  Biso   1.000  C
  H31      1.0000 0.44710  0.97879  0.76709  Biso   1.000  H
  H32      1.0000 0.23291  0.05290  0.47879  Biso   1.000  H
  C39      1.0000 0.18070  0.03928  0.54269  Biso   1.000  C
  C40      1.0000 0.23090  0.97180  0.49060  Biso   1.000  C
  H33      1.0000 0.90120  0.03611  0.47281  Biso   1.000  H
  H34      1.0000 0.86762  0.05008  0.52442  Biso   1.000  H
  C41      1.0000 0.86858  0.97221  0.50751  Biso   1.000  C
  C42      1.0000 0.68989  0.92879  0.53370  Biso   1.000  C
  H35      1.0000 0.81958  0.92349  0.55438  Biso   1.000  H
  H36      1.0000 0.81970  0.98361  0.57418  Biso   1.000  H
  H37      1.0000 0.53611  0.02719  0.09880  Biso   1.000  H
  C43      1.0000 0.47221  0.99249  0.13142  Biso   1.000  C
  H38      1.0000 0.55008  0.97558  0.13238  Biso   1.000  H
  C44      1.0000 0.42879  0.96630  0.31011  Biso   1.000  C
  H39      1.0000 0.42349  0.94562  0.18042  Biso   1.000  H
  H40      1.0000 0.48361  0.92582  0.18030  Biso   1.000  H
  H41      1.0000 0.42349  0.05438  0.81958  Biso   1.000  H
  H42      1.0000 0.48361  0.07418  0.81970  Biso   1.000  H
  C45      1.0000 0.47221  0.00751  0.86858  Biso   1.000  C
  H43      1.0000 0.55290  0.02121  0.76709  Biso   1.000  H
  N9       1.0000 0.53659  0.95409  0.72311  Biso   1.000  N
  C46      1.0000 0.53928  0.95731  0.81930  Biso   1.000  C
  H44      1.0000 0.18042  0.07651  0.55438  Biso   1.000  H
  H45      1.0000 0.18030  0.01639  0.57418  Biso   1.000  H
  C47      1.0000 0.13142  0.02779  0.50751  Biso   1.000  C
  N10      1.0000 0.27689  0.96341  0.45409  Biso   1.000  N
  H46      1.0000 0.23291  0.94710  0.52121  Biso   1.000  H
  C48      1.0000 0.18070  0.96072  0.45731  Biso   1.000  C
  H47      1.0000 0.90120  0.96389  0.52719  Biso   1.000  H
  H48      1.0000 0.86762  0.94992  0.47558  Biso   1.000  H
  C49      1.0000 0.64210  0.91501  0.56619  Biso   1.000  C
  H49      1.0000 0.69532  0.90999  0.50189  Biso   1.000  H
  H50      1.0000 0.44992  0.02442  0.13238  Biso   1.000  H
  H51      1.0000 0.46389  0.97281  0.09880  Biso   1.000  H
  C50      1.0000 0.41501  0.93381  0.35790  Biso   1.000  C
  H52      1.0000 0.40999  0.99811  0.30468  Biso   1.000  H
  H53      1.0000 0.46389  0.02719  0.90120  Biso   1.000  H
  C51      1.0000 0.52779  0.99249  0.86858  Biso   1.000  C
  H54      1.0000 0.44992  0.97558  0.86762  Biso   1.000  H
  C52      1.0000 0.57121  0.96630  0.68989  Biso   1.000  C
  H55      1.0000 0.57651  0.94562  0.81958  Biso   1.000  H
  H56      1.0000 0.51639  0.92582  0.81970  Biso   1.000  H
  H57      1.0000 0.09880  0.03611  0.52719  Biso   1.000  H
  H58      1.0000 0.13238  0.05008  0.47558  Biso   1.000  H
  C53      1.0000 0.13142  0.97221  0.49249  Biso   1.000  C
  C54      1.0000 0.31011  0.92879  0.46630  Biso   1.000  C
  H59      1.0000 0.18042  0.92349  0.44562  Biso   1.000  H
  H60      1.0000 0.18030  0.98361  0.42582  Biso   1.000  H
  C55      1.0000 0.61089  0.87099  0.55390  Biso   1.000  C
  C56      1.0000 0.62901  0.94610  0.61089  Biso   1.000  C
  C57      1.0000 0.37099  0.94610  0.38911  Biso   1.000  C
  C58      1.0000 0.44610  0.88911  0.37099  Biso   1.000  C
  H61      1.0000 0.55008  0.02442  0.86762  Biso   1.000  H
  H62      1.0000 0.53611  0.97281  0.90120  Biso   1.000  H
  C59      1.0000 0.58499  0.93381  0.64210  Biso   1.000  C
  H63      1.0000 0.59001  0.99811  0.69532  Biso   1.000  H
  H64      1.0000 0.09880  0.96389  0.47281  Biso   1.000  H
  H65      1.0000 0.13238  0.94992  0.52442  Biso   1.000  H
  C60      1.0000 0.35790  0.91501  0.43381  Biso   1.000  C
  H66      1.0000 0.30468  0.90999  0.49811  Biso   1.000  H
  H67      1.0000 0.61969  0.84979  0.52442  Biso   1.000  H
  C61      1.0000 0.56619  0.85790  0.58499  Biso   1.000  C
  H68      1.0000 0.65021  0.97558  0.61969  Biso   1.000  H
  H69      1.0000 0.34979  0.97558  0.38031  Biso   1.000  H
  H70      1.0000 0.47558  0.88031  0.34979  Biso   1.000  H
  C62      1.0000 0.43381  0.85790  0.41501  Biso   1.000  C
  C63      1.0000 0.55390  0.88911  0.62901  Biso   1.000  C
  C64      1.0000 0.38911  0.87099  0.44610  Biso   1.000  C
  C65      1.0000 0.53370  0.81011  0.57121  Biso   1.000  C
  C66      1.0000 0.46630  0.81011  0.42879  Biso   1.000  C
  H71      1.0000 0.52442  0.88031  0.65021  Biso   1.000  H
  H72      1.0000 0.38031  0.84979  0.47558  Biso   1.000  H
  N11      1.0000 0.54591  0.77689  0.53659  Biso   1.000  N
  H73      1.0000 0.50189  0.80468  0.59001  Biso   1.000  H
  N12      1.0000 0.45409  0.77689  0.46341  Biso   1.000  N
  H74      1.0000 0.49811  0.80468  0.40999  Biso   1.000  H
  C67      1.0000 0.50940  0.73090  0.52820  Biso   1.000  C
  C68      1.0000 0.49060  0.73090  0.47180  Biso   1.000  C
  H75      1.0000 0.47879  0.73291  0.55290  Biso   1.000  H
  C69      1.0000 0.54269  0.68070  0.53928  Biso   1.000  C
  H76      1.0000 0.52121  0.73291  0.44710  Biso   1.000  H
  C70      1.0000 0.45731  0.68070  0.46072  Biso   1.000  C
  H77      1.0000 0.55438  0.68042  0.57651  Biso   1.000  H
  H78      1.0000 0.57418  0.68030  0.51639  Biso   1.000  H
  C71      1.0000 0.50751  0.63142  0.52779  Biso   1.000  C
  H79      1.0000 0.44562  0.68042  0.42349  Biso   1.000  H
  H80      1.0000 0.42582  0.68030  0.48361  Biso   1.000  H
  C72      1.0000 0.49249  0.63142  0.47221  Biso   1.000  C
  H81      1.0000 0.52719  0.59880  0.53611  Biso   1.000  H
  H82      1.0000 0.47558  0.63238  0.55008  Biso   1.000  H
  H83      1.0000 0.47281  0.59880  0.46389  Biso   1.000  H
  H84      1.0000 0.52442  0.63238  0.44992  Biso   1.000  H
  C73      1.0000 0.47221  0.50751  0.36858  Biso   1.000  C
  C74      1.0000 0.46072  0.54269  0.31930  Biso   1.000  C
  C75      1.0000 0.52779  0.49249  0.36858  Biso   1.000  C
  H85      1.0000 0.46389  0.52719  0.40120  Biso   1.000  H
  H86      1.0000 0.44992  0.47558  0.36762  Biso   1.000  H
  C76      1.0000 0.47180  0.50940  0.26910  Biso   1.000  C
  H87      1.0000 0.42349  0.55438  0.31958  Biso   1.000  H
  H88      1.0000 0.48361  0.57418  0.31970  Biso   1.000  H
  C77      1.0000 0.53928  0.45731  0.31930  Biso   1.000  C
  H89      1.0000 0.53611  0.47281  0.40120  Biso   1.000  H
  H90      1.0000 0.55008  0.52442  0.36762  Biso   1.000  H
  C78      1.0000 0.52820  0.49060  0.26910  Biso   1.000  C
  N13      1.0000 0.46341  0.54591  0.22311  Biso   1.000  N
  H91      1.0000 0.44710  0.47879  0.26709  Biso   1.000  H
  H92      1.0000 0.57651  0.44562  0.31958  Biso   1.000  H
  H93      1.0000 0.51639  0.42582  0.31970  Biso   1.000  H
  N14      1.0000 0.53659  0.45409  0.22311  Biso   1.000  N
  H94      1.0000 0.55290  0.52121  0.26709  Biso   1.000  H
  C79      1.0000 0.42879  0.53370  0.18989  Biso   1.000  C
  C80      1.0000 0.57121  0.46630  0.18989  Biso   1.000  C
  C81      1.0000 0.41501  0.56619  0.14210  Biso   1.000  C
  H95      1.0000 0.40999  0.50189  0.19532  Biso   1.000  H
  C82      1.0000 0.58499  0.43381  0.14210  Biso   1.000  C
  H96      1.0000 0.59001  0.49811  0.19532  Biso   1.000  H
  C83      1.0000 0.44610  0.61089  0.12901  Biso   1.000  C
  C84      1.0000 0.37099  0.55390  0.11089  Biso   1.000  C
  C85      1.0000 0.55390  0.38911  0.12901  Biso   1.000  C
  C86      1.0000 0.62901  0.44610  0.11089  Biso   1.000  C
  H97      1.0000 0.47558  0.61969  0.15021  Biso   1.000  H
  C87      1.0000 0.43381  0.64210  0.08499  Biso   1.000  C
  H98      1.0000 0.34979  0.52442  0.11969  Biso   1.000  H
  C88      1.0000 0.35790  0.58499  0.06619  Biso   1.000  C
  C89      1.0000 0.56619  0.35790  0.08499  Biso   1.000  C
  H99      1.0000 0.52442  0.38031  0.15021  Biso   1.000  H
  C90      1.0000 0.64210  0.41501  0.06619  Biso   1.000  C
  H100     1.0000 0.65021  0.47558  0.11969  Biso   1.000  H
  C91      1.0000 0.38911  0.62901  0.05390  Biso   1.000  C
  C92      1.0000 0.46630  0.68989  0.07121  Biso   1.000  C
  C93      1.0000 0.31011  0.57121  0.03370  Biso   1.000  C
  C94      1.0000 0.53370  0.31011  0.07121  Biso   1.000  C
  C95      1.0000 0.61089  0.37099  0.05390  Biso   1.000  C
  C96      1.0000 0.68989  0.42879  0.03370  Biso   1.000  C
  H101     1.0000 0.38031  0.65021  0.02442  Biso   1.000  H
  N15      1.0000 0.45409  0.72311  0.03659  Biso   1.000  N
  H102     1.0000 0.49811  0.69532  0.09001  Biso   1.000  H
  N16      1.0000 0.27689  0.53659  0.04591  Biso   1.000  N
  H103     1.0000 0.30468  0.59001  0.00189  Biso   1.000  H
  N17      1.0000 0.54591  0.27689  0.03659  Biso   1.000  N
  H104     1.0000 0.50189  0.30468  0.09001  Biso   1.000  H
  H105     1.0000 0.61969  0.34979  0.02442  Biso   1.000  H
  N18      1.0000 0.72311  0.46341  0.04591  Biso   1.000  N
  H106     1.0000 0.69532  0.40999  0.00189  Biso   1.000  H
  C97      1.0000 0.49060  0.76910  0.02820  Biso   1.000  C
  C98      1.0000 0.23090  0.52820  0.00940  Biso   1.000  C
  C99      1.0000 0.50940  0.23090  0.02820  Biso   1.000  C
  C100     1.0000 0.76910  0.47180  0.00940  Biso   1.000  C
  C101     1.0000 0.50940  0.76910  0.97180  Biso   1.000  C
  H107     1.0000 0.52121  0.76709  0.05290  Biso   1.000  H
  C102     1.0000 0.45731  0.81930  0.03928  Biso   1.000  C
  C103     1.0000 0.23090  0.47180  0.99060  Biso   1.000  C
  C104     1.0000 0.18070  0.53928  0.04269  Biso   1.000  C
  H108     1.0000 0.23291  0.55290  0.97879  Biso   1.000  H
  H109     1.0000 0.47879  0.23291  0.05290  Biso   1.000  H
  C105     1.0000 0.54269  0.18070  0.03928  Biso   1.000  C
  C106     1.0000 0.49060  0.23090  0.97180  Biso   1.000  C
  C107     1.0000 0.81930  0.46072  0.04269  Biso   1.000  C
  C108     1.0000 0.76910  0.52820  0.99060  Biso   1.000  C
  H110     1.0000 0.76709  0.44710  0.97879  Biso   1.000  H
  N19      1.0000 0.54591  0.72311  0.96341  Biso   1.000  N
  H111     1.0000 0.47879  0.76709  0.94710  Biso   1.000  H
  C109     1.0000 0.54269  0.81930  0.96072  Biso   1.000  C
  H112     1.0000 0.44562  0.81958  0.07651  Biso   1.000  H
  H113     1.0000 0.42582  0.81970  0.01639  Biso   1.000  H
  C110     1.0000 0.49249  0.86858  0.02779  Biso   1.000  C
  N20      1.0000 0.27689  0.46341  0.95409  Biso   1.000  N
  H114     1.0000 0.23291  0.44710  0.02121  Biso   1.000  H
  C111     1.0000 0.18070  0.46072  0.95731  Biso   1.000  C
  H115     1.0000 0.18042  0.57651  0.05438  Biso   1.000  H
  H116     1.0000 0.18030  0.51639  0.07418  Biso   1.000  H
  C112     1.0000 0.13142  0.52779  0.00751  Biso   1.000  C
  H117     1.0000 0.55438  0.18042  0.07651  Biso   1.000  H
  H118     1.0000 0.57418  0.18030  0.01639  Biso   1.000  H
  C113     1.0000 0.50751  0.13142  0.02779  Biso   1.000  C
  N21      1.0000 0.45409  0.27689  0.96341  Biso   1.000  N
  H119     1.0000 0.52121  0.23291  0.94710  Biso   1.000  H
  C114     1.0000 0.45731  0.18070  0.96072  Biso   1.000  C
  H120     1.0000 0.81958  0.42349  0.05438  Biso   1.000  H
  H121     1.0000 0.81970  0.48361  0.07418  Biso   1.000  H
  C115     1.0000 0.86858  0.47221  0.00751  Biso   1.000  C
  H122     1.0000 0.76709  0.55290  0.02121  Biso   1.000  H
  N22      1.0000 0.72311  0.53659  0.95409  Biso   1.000  N
  C116     1.0000 0.81930  0.53928  0.95731  Biso   1.000  C
  C117     1.0000 0.53370  0.68989  0.92879  Biso   1.000  C
  H123     1.0000 0.55438  0.81958  0.92349  Biso   1.000  H
  H124     1.0000 0.57418  0.81970  0.98361  Biso   1.000  H
  C118     1.0000 0.50751  0.86858  0.97221  Biso   1.000  C
  H125     1.0000 0.47281  0.90120  0.03611  Biso   1.000  H
  H126     1.0000 0.52442  0.86762  0.05008  Biso   1.000  H
  C119     1.0000 0.31011  0.42879  0.96630  Biso   1.000  C
  H127     1.0000 0.18042  0.42349  0.94562  Biso   1.000  H
  H128     1.0000 0.18030  0.48361  0.92582  Biso   1.000  H
  C120     1.0000 0.13142  0.47221  0.99249  Biso   1.000  C
  H129     1.0000 0.09880  0.53611  0.02719  Biso   1.000  H
  H130     1.0000 0.13238  0.55008  0.97558  Biso   1.000  H
  H131     1.0000 0.52719  0.09880  0.03611  Biso   1.000  H
  H132     1.0000 0.47558  0.13238  0.05008  Biso   1.000  H
  C121     1.0000 0.49249  0.13142  0.97221  Biso   1.000  C
  C122     1.0000 0.46630  0.31011  0.92879  Biso   1.000  C
  H133     1.0000 0.44562  0.18042  0.92349  Biso   1.000  H
  H134     1.0000 0.42582  0.18030  0.98361  Biso   1.000  H
  H135     1.0000 0.90120  0.46389  0.02719  Biso   1.000  H
  C123     1.0000 0.86858  0.52779  0.99249  Biso   1.000  C
  H136     1.0000 0.86762  0.44992  0.97558  Biso   1.000  H
  C124     1.0000 0.68989  0.57121  0.96630  Biso   1.000  C
  H137     1.0000 0.81958  0.57651  0.94562  Biso   1.000  H
  H138     1.0000 0.81970  0.51639  0.92582  Biso   1.000  H
  C125     1.0000 0.56619  0.64210  0.91501  Biso   1.000  C
  H139     1.0000 0.50189  0.69532  0.90999  Biso   1.000  H
  H140     1.0000 0.52719  0.90120  0.96389  Biso   1.000  H
  H141     1.0000 0.47558  0.86762  0.94992  Biso   1.000  H
  C126     1.0000 0.35790  0.41501  0.93381  Biso   1.000  C
  H142     1.0000 0.30468  0.40999  0.99811  Biso   1.000  H
  H143     1.0000 0.13238  0.44992  0.02442  Biso   1.000  H
  H144     1.0000 0.09880  0.46389  0.97281  Biso   1.000  H
  H145     1.0000 0.47281  0.09880  0.96389  Biso   1.000  H
  H146     1.0000 0.52442  0.13238  0.94992  Biso   1.000  H
  C127     1.0000 0.43381  0.35790  0.91501  Biso   1.000  C
  H147     1.0000 0.49811  0.30468  0.90999  Biso   1.000  H
  H148     1.0000 0.86762  0.55008  0.02442  Biso   1.000  H
  H149     1.0000 0.90120  0.53611  0.97281  Biso   1.000  H
  C128     1.0000 0.64210  0.58499  0.93381  Biso   1.000  C
  H150     1.0000 0.69532  0.59001  0.99811  Biso   1.000  H
  C129     1.0000 0.61089  0.62901  0.94610  Biso   1.000  C
  C130     1.0000 0.55390  0.61089  0.87099  Biso   1.000  C
  C131     1.0000 0.38911  0.37099  0.94610  Biso   1.000  C
  C132     1.0000 0.37099  0.44610  0.88911  Biso   1.000  C
  C133     1.0000 0.44610  0.38911  0.87099  Biso   1.000  C
  C134     1.0000 0.62901  0.55390  0.88911  Biso   1.000  C
  H151     1.0000 0.61969  0.65021  0.97558  Biso   1.000  H
  C135     1.0000 0.58499  0.56619  0.85790  Biso   1.000  C
  H152     1.0000 0.52442  0.61969  0.84979  Biso   1.000  H
  H153     1.0000 0.38031  0.34979  0.97558  Biso   1.000  H
  C136     1.0000 0.41501  0.43381  0.85790  Biso   1.000  C
  H154     1.0000 0.34979  0.47558  0.88031  Biso   1.000  H
  H155     1.0000 0.47558  0.38031  0.84979  Biso   1.000  H
  H156     1.0000 0.65021  0.52442  0.88031  Biso   1.000  H
  C137     1.0000 0.57121  0.53370  0.81011  Biso   1.000  C
  C138     1.0000 0.42879  0.46630  0.81011  Biso   1.000  C
  N23      1.0000 0.53659  0.54591  0.77689  Biso   1.000  N
  H157     1.0000 0.59001  0.50189  0.80468  Biso   1.000  H
  N24      1.0000 0.46341  0.45409  0.77689  Biso   1.000  N
  H158     1.0000 0.40999  0.49811  0.80468  Biso   1.000  H
  C139     1.0000 0.52820  0.50940  0.73090  Biso   1.000  C
  C140     1.0000 0.47180  0.49060  0.73090  Biso   1.000  C
  H159     1.0000 0.55290  0.47879  0.73291  Biso   1.000  H
  C141     1.0000 0.53928  0.54269  0.68070  Biso   1.000  C
  H160     1.0000 0.44710  0.52121  0.73291  Biso   1.000  H
  C142     1.0000 0.46072  0.45731  0.68070  Biso   1.000  C
  H161     1.0000 0.57651  0.55438  0.68042  Biso   1.000  H
  H162     1.0000 0.51639  0.57418  0.68030  Biso   1.000  H
  C143     1.0000 0.52779  0.50751  0.63142  Biso   1.000  C
  H163     1.0000 0.42349  0.44562  0.68042  Biso   1.000  H
  H164     1.0000 0.48361  0.42582  0.68030  Biso   1.000  H
  C144     1.0000 0.47221  0.49249  0.63142  Biso   1.000  C
  H165     1.0000 0.53611  0.52719  0.59880  Biso   1.000  H
  H166     1.0000 0.55008  0.47558  0.63238  Biso   1.000  H
  H167     1.0000 0.46389  0.47281  0.59880  Biso   1.000  H
  H168     1.0000 0.44992  0.52442  0.63238  Biso   1.000  H
  C145     1.0000 0.36858  0.47221  0.50751  Biso   1.000  C
  C146     1.0000 0.31930  0.46072  0.54269  Biso   1.000  C
  C147     1.0000 0.36858  0.52779  0.49249  Biso   1.000  C
  H169     1.0000 0.40120  0.46389  0.52719  Biso   1.000  H
  H170     1.0000 0.36762  0.44992  0.47558  Biso   1.000  H
  C148     1.0000 0.26910  0.47180  0.50940  Biso   1.000  C
  H171     1.0000 0.31958  0.42349  0.55438  Biso   1.000  H
  H172     1.0000 0.31970  0.48361  0.57418  Biso   1.000  H
  C149     1.0000 0.31930  0.53928  0.45731  Biso   1.000  C
  H173     1.0000 0.40120  0.53611  0.47281  Biso   1.000  H
  H174     1.0000 0.36762  0.55008  0.52442  Biso   1.000  H
  N25      1.0000 0.22311  0.46341  0.54591  Biso   1.000  N
  C150     1.0000 0.26910  0.52820  0.49060  Biso   1.000  C
  H175     1.0000 0.26709  0.44710  0.47879  Biso   1.000  H
  H176     1.0000 0.31958  0.57651  0.44562  Biso   1.000  H
  H177     1.0000 0.31970  0.51639  0.42582  Biso   1.000  H
  C151     1.0000 0.18989  0.42879  0.53370  Biso   1.000  C
  N26      1.0000 0.22311  0.53659  0.45409  Biso   1.000  N
  H178     1.0000 0.26709  0.55290  0.52121  Biso   1.000  H
  C152     1.0000 0.14210  0.41501  0.56619  Biso   1.000  C
  H179     1.0000 0.19532  0.40999  0.50189  Biso   1.000  H
  C153     1.0000 0.18989  0.57121  0.46630  Biso   1.000  C
  C154     1.0000 0.12901  0.44610  0.61089  Biso   1.000  C
  C155     1.0000 0.11089  0.37099  0.55390  Biso   1.000  C
  C156     1.0000 0.14210  0.58499  0.43381  Biso   1.000  C
  H180     1.0000 0.19532  0.59001  0.49811  Biso   1.000  H
  H181     1.0000 0.15021  0.47558  0.61969  Biso   1.000  H
  C157     1.0000 0.08499  0.43381  0.64210  Biso   1.000  C
  H182     1.0000 0.11969  0.34979  0.52442  Biso   1.000  H
  C158     1.0000 0.06619  0.35790  0.58499  Biso   1.000  C
  C159     1.0000 0.12901  0.55390  0.38911  Biso   1.000  C
  C160     1.0000 0.11089  0.62901  0.44610  Biso   1.000  C
  C161     1.0000 0.05390  0.38911  0.62901  Biso   1.000  C
  C162     1.0000 0.07121  0.46630  0.68989  Biso   1.000  C
  C163     1.0000 0.03370  0.31011  0.57121  Biso   1.000  C
  H183     1.0000 0.15021  0.52442  0.38031  Biso   1.000  H
  C164     1.0000 0.08499  0.56619  0.35790  Biso   1.000  C
  H184     1.0000 0.11969  0.65021  0.47558  Biso   1.000  H
  C165     1.0000 0.06619  0.64210  0.41501  Biso   1.000  C
  H185     1.0000 0.02442  0.38031  0.65021  Biso   1.000  H
  N27      1.0000 0.03659  0.45409  0.72311  Biso   1.000  N
  H186     1.0000 0.09001  0.49811  0.69532  Biso   1.000  H
  N28      1.0000 0.04591  0.27689  0.53659  Biso   1.000  N
  H187     1.0000 0.00189  0.30468  0.59001  Biso   1.000  H
  C166     1.0000 0.05390  0.61089  0.37099  Biso   1.000  C
  C167     1.0000 0.07121  0.53370  0.31011  Biso   1.000  C
  C168     1.0000 0.03370  0.68989  0.42879  Biso   1.000  C
  C169     1.0000 0.02820  0.49060  0.76910  Biso   1.000  C
  C170     1.0000 0.00940  0.23090  0.52820  Biso   1.000  C
  H188     1.0000 0.02442  0.61969  0.34979  Biso   1.000  H
  N29      1.0000 0.03659  0.54591  0.27689  Biso   1.000  N
  H189     1.0000 0.09001  0.50189  0.30468  Biso   1.000  H
  N30      1.0000 0.04591  0.72311  0.46341  Biso   1.000  N
  H190     1.0000 0.00189  0.69532  0.40999  Biso   1.000  H
  H191     1.0000 0.05290  0.52121  0.76709  Biso   1.000  H
  C171     1.0000 0.03928  0.45731  0.81930  Biso   1.000  C
  C172     1.0000 0.97180  0.50940  0.76910  Biso   1.000  C
  C173     1.0000 0.04269  0.18070  0.53928  Biso   1.000  C
  C174     1.0000 0.99060  0.23090  0.47180  Biso   1.000  C
  H192     1.0000 0.97879  0.23291  0.55290  Biso   1.000  H
  C175     1.0000 0.02820  0.50940  0.23090  Biso   1.000  C
  C176     1.0000 0.00940  0.76910  0.47180  Biso   1.000  C
  H193     1.0000 0.07651  0.44562  0.81958  Biso   1.000  H
  H194     1.0000 0.01639  0.42582  0.81970  Biso   1.000  H
  C177     1.0000 0.02779  0.49249  0.86858  Biso   1.000  C
  N31      1.0000 0.96341  0.54591  0.72311  Biso   1.000  N
  H195     1.0000 0.94710  0.47879  0.76709  Biso   1.000  H
  C178     1.0000 0.96072  0.54269  0.81930  Biso   1.000  C
  H196     1.0000 0.05438  0.18042  0.57651  Biso   1.000  H
  H197     1.0000 0.07418  0.18030  0.51639  Biso   1.000  H
  C179     1.0000 0.00751  0.13142  0.52779  Biso   1.000  C
  H198     1.0000 0.02121  0.23291  0.44710  Biso   1.000  H
  N32      1.0000 0.95409  0.27689  0.46341  Biso   1.000  N
  C180     1.0000 0.95731  0.18070  0.46072  Biso   1.000  C
  H199     1.0000 0.05290  0.47879  0.23291  Biso   1.000  H
  C181     1.0000 0.03928  0.54269  0.18070  Biso   1.000  C
  C182     1.0000 0.97180  0.49060  0.23090  Biso   1.000  C
  C183     1.0000 0.04269  0.81930  0.46072  Biso   1.000  C
  C184     1.0000 0.99060  0.76910  0.52820  Biso   1.000  C
  H200     1.0000 0.97879  0.76709  0.44710  Biso   1.000  H
  H201     1.0000 0.03611  0.47281  0.90120  Biso   1.000  H
  H202     1.0000 0.05008  0.52442  0.86762  Biso   1.000  H
  C185     1.0000 0.97221  0.50751  0.86858  Biso   1.000  C
  C186     1.0000 0.92879  0.53370  0.68989  Biso   1.000  C
  H203     1.0000 0.92349  0.55438  0.81958  Biso   1.000  H
  H204     1.0000 0.98361  0.57418  0.81970  Biso   1.000  H
  H205     1.0000 0.02719  0.09880  0.53611  Biso   1.000  H
  C187     1.0000 0.99249  0.13142  0.47221  Biso   1.000  C
  H206     1.0000 0.97558  0.13238  0.55008  Biso   1.000  H
  C188     1.0000 0.96630  0.31011  0.42879  Biso   1.000  C
  H207     1.0000 0.94562  0.18042  0.42349  Biso   1.000  H
  H208     1.0000 0.92582  0.18030  0.48361  Biso   1.000  H
  H209     1.0000 0.07651  0.55438  0.18042  Biso   1.000  H
  H210     1.0000 0.01639  0.57418  0.18030  Biso   1.000  H
  C189     1.0000 0.02779  0.50751  0.13142  Biso   1.000  C
  N33      1.0000 0.96341  0.45409  0.27689  Biso   1.000  N
  H211     1.0000 0.94710  0.52121  0.23291  Biso   1.000  H
  C190     1.0000 0.96072  0.45731  0.18070  Biso   1.000  C
  H212     1.0000 0.05438  0.81958  0.42349  Biso   1.000  H
  H213     1.0000 0.07418  0.81970  0.48361  Biso   1.000  H
  C191     1.0000 0.00751  0.86858  0.47221  Biso   1.000  C
  H214     1.0000 0.02121  0.76709  0.55290  Biso   1.000  H
  N34      1.0000 0.95409  0.72311  0.53659  Biso   1.000  N
  C192     1.0000 0.95731  0.81930  0.53928  Biso   1.000  C
  H215     1.0000 0.96389  0.52719  0.90120  Biso   1.000  H
  H216     1.0000 0.94992  0.47558  0.86762  Biso   1.000  H
  C193     1.0000 0.91501  0.56619  0.64210  Biso   1.000  C
  H217     1.0000 0.90999  0.50189  0.69532  Biso   1.000  H
  H218     1.0000 0.02442  0.13238  0.44992  Biso   1.000  H
  H219     1.0000 0.97281  0.09880  0.46389  Biso   1.000  H
  C194     1.0000 0.93381  0.35790  0.41501  Biso   1.000  C
  H220     1.0000 0.99811  0.30468  0.40999  Biso   1.000  H
  H221     1.0000 0.03611  0.52719  0.09880  Biso   1.000  H
  H222     1.0000 0.05008  0.47558  0.13238  Biso   1.000  H
  C195     1.0000 0.97221  0.49249  0.13142  Biso   1.000  C
  C196     1.0000 0.92879  0.46630  0.31011  Biso   1.000  C
  H223     1.0000 0.92349  0.44562  0.18042  Biso   1.000  H
  H224     1.0000 0.98361  0.42582  0.18030  Biso   1.000  H
  H225     1.0000 0.02719  0.90120  0.46389  Biso   1.000  H
  C197     1.0000 0.99249  0.86858  0.52779  Biso   1.000  C
  H226     1.0000 0.97558  0.86762  0.44992  Biso   1.000  H
  C198     1.0000 0.96630  0.68989  0.57121  Biso   1.000  C
  H227     1.0000 0.94562  0.81958  0.57651  Biso   1.000  H
  H228     1.0000 0.92582  0.81970  0.51639  Biso   1.000  H
  C199     1.0000 0.87099  0.55390  0.61089  Biso   1.000  C
  C200     1.0000 0.94610  0.61089  0.62901  Biso   1.000  C
  C201     1.0000 0.94610  0.38911  0.37099  Biso   1.000  C
  C202     1.0000 0.88911  0.37099  0.44610  Biso   1.000  C
  H229     1.0000 0.96389  0.47281  0.09880  Biso   1.000  H
  H230     1.0000 0.94992  0.52442  0.13238  Biso   1.000  H
  C203     1.0000 0.91501  0.43381  0.35790  Biso   1.000  C
  H231     1.0000 0.90999  0.49811  0.30468  Biso   1.000  H
  H232     1.0000 0.02442  0.86762  0.55008  Biso   1.000  H
  H233     1.0000 0.97281  0.90120  0.53611  Biso   1.000  H
  C204     1.0000 0.93381  0.64210  0.58499  Biso   1.000  C
  H234     1.0000 0.99811  0.69532  0.59001  Biso   1.000  H
  H235     1.0000 0.84979  0.52442  0.61969  Biso   1.000  H
  C205     1.0000 0.85790  0.58499  0.56619  Biso   1.000  C
  H236     1.0000 0.97558  0.61969  0.65021  Biso   1.000  H
  H237     1.0000 0.97558  0.38031  0.34979  Biso   1.000  H
  H238     1.0000 0.88031  0.34979  0.47558  Biso   1.000  H
  C206     1.0000 0.85790  0.41501  0.43381  Biso   1.000  C
  C207     1.0000 0.87099  0.44610  0.38911  Biso   1.000  C
  C208     1.0000 0.88911  0.62901  0.55390  Biso   1.000  C
  C209     1.0000 0.81011  0.57121  0.53370  Biso   1.000  C
  C210     1.0000 0.81011  0.42879  0.46630  Biso   1.000  C
  H239     1.0000 0.84979  0.47558  0.38031  Biso   1.000  H
  H240     1.0000 0.88031  0.65021  0.52442  Biso   1.000  H
  N35      1.0000 0.77689  0.53659  0.54591  Biso   1.000  N
  H241     1.0000 0.80468  0.59001  0.50189  Biso   1.000  H
  N36      1.0000 0.77689  0.46341  0.45409  Biso   1.000  N
  H242     1.0000 0.80468  0.40999  0.49811  Biso   1.000  H
  C211     1.0000 0.73090  0.52820  0.50940  Biso   1.000  C
  C212     1.0000 0.73090  0.47180  0.49060  Biso   1.000  C
  H243     1.0000 0.73291  0.55290  0.47879  Biso   1.000  H
  C213     1.0000 0.68070  0.53928  0.54269  Biso   1.000  C
  H244     1.0000 0.73291  0.44710  0.52121  Biso   1.000  H
  C214     1.0000 0.68070  0.46072  0.45731  Biso   1.000  C
  H245     1.0000 0.68042  0.57651  0.55438  Biso   1.000  H
  H246     1.0000 0.68030  0.51639  0.57418  Biso   1.000  H
  C215     1.0000 0.63142  0.52779  0.50751  Biso   1.000  C
  H247     1.0000 0.68042  0.42349  0.44562  Biso   1.000  H
  H248     1.0000 0.68030  0.48361  0.42582  Biso   1.000  H
  C216     1.0000 0.63142  0.47221  0.49249  Biso   1.000  C
  H249     1.0000 0.59880  0.53611  0.52719  Biso   1.000  H
  H250     1.0000 0.63238  0.55008  0.47558  Biso   1.000  H
  H251     1.0000 0.59880  0.46389  0.47281  Biso   1.000  H
  H252     1.0000 0.63238  0.44992  0.52442  Biso   1.000  H
  C217     1.0000 0.37899  0.36091  0.30392  Biso   1.000  C
  C218     1.0000 0.39212  0.31621  0.33501  Biso   1.000  C
  H253     1.0000 0.40019  0.36971  0.27440  Biso   1.000  H
  C219     1.0000 0.33501  0.39212  0.31621  Biso   1.000  C
  C220     1.0000 0.43991  0.28372  0.32119  Biso   1.000  C
  C221     1.0000 0.36091  0.30392  0.37899  Biso   1.000  C
  C222     1.0000 0.30392  0.37899  0.36091  Biso   1.000  C
  C223     1.0000 0.32119  0.43991  0.28372  Biso   1.000  C
  N37      1.0000 0.47309  0.29589  0.28661  Biso   1.000  N
  H254     1.0000 0.44530  0.25191  0.33999  Biso   1.000  H
  H255     1.0000 0.36971  0.27440  0.40019  Biso   1.000  H
  C224     1.0000 0.31621  0.33501  0.39212  Biso   1.000  C
  H256     1.0000 0.27440  0.40019  0.36971  Biso   1.000  H
  N38      1.0000 0.28661  0.47309  0.29589  Biso   1.000  N
  H257     1.0000 0.33999  0.44530  0.25191  Biso   1.000  H
  C225     1.0000 0.51912  0.25942  0.27822  Biso   1.000  C
  C226     1.0000 0.28372  0.32119  0.43991  Biso   1.000  C
  C227     1.0000 0.27822  0.51912  0.25942  Biso   1.000  C
  C228     1.0000 0.51912  0.24058  0.22178  Biso   1.000  C
  H258     1.0000 0.51711  0.22881  0.30292  Biso   1.000  H
  C229     1.0000 0.56928  0.29271  0.28930  Biso   1.000  C
  N39      1.0000 0.29589  0.28661  0.47309  Biso   1.000  N
  H259     1.0000 0.25191  0.33999  0.44530  Biso   1.000  H
  C230     1.0000 0.22178  0.51912  0.24058  Biso   1.000  C
  H260     1.0000 0.30292  0.51711  0.22881  Biso   1.000  H
  C231     1.0000 0.28930  0.56928  0.29271  Biso   1.000  C
  N40      1.0000 0.47309  0.20411  0.21339  Biso   1.000  N
  H261     1.0000 0.51711  0.27119  0.19708  Biso   1.000  H
  C232     1.0000 0.56928  0.20729  0.21070  Biso   1.000  C
  H262     1.0000 0.56960  0.30440  0.32649  Biso   1.000  H
  H263     1.0000 0.56968  0.32420  0.26641  Biso   1.000  H
  C233     1.0000 0.61860  0.25749  0.27781  Biso   1.000  C
  C234     1.0000 0.25942  0.27822  0.51912  Biso   1.000  C
  N41      1.0000 0.21339  0.47309  0.20411  Biso   1.000  N
  H264     1.0000 0.19708  0.51711  0.27119  Biso   1.000  H
  C235     1.0000 0.21070  0.56928  0.20729  Biso   1.000  C
  H265     1.0000 0.32649  0.56960  0.30440  Biso   1.000  H
  H266     1.0000 0.26641  0.56968  0.32420  Biso   1.000  H
  C236     1.0000 0.27781  0.61860  0.25749  Biso   1.000  C
  C237     1.0000 0.43991  0.21628  0.17881  Biso   1.000  C
  H267     1.0000 0.56960  0.19560  0.17351  Biso   1.000  H
  H268     1.0000 0.56968  0.17580  0.23359  Biso   1.000  H
  C238     1.0000 0.61860  0.24251  0.22219  Biso   1.000  C
  H269     1.0000 0.65122  0.27721  0.28609  Biso   1.000  H
  H270     1.0000 0.61760  0.22560  0.30010  Biso   1.000  H
  C239     1.0000 0.24058  0.22178  0.51912  Biso   1.000  C
  H271     1.0000 0.22881  0.30292  0.51711  Biso   1.000  H
  C240     1.0000 0.29271  0.28930  0.56928  Biso   1.000  C
  C241     1.0000 0.17881  0.43991  0.21628  Biso   1.000  C
  H272     1.0000 0.17351  0.56960  0.19560  Biso   1.000  H
  H273     1.0000 0.23359  0.56968  0.17580  Biso   1.000  H
  C242     1.0000 0.22219  0.61860  0.24251  Biso   1.000  C
  H274     1.0000 0.28609  0.65122  0.27721  Biso   1.000  H
  H275     1.0000 0.30010  0.61760  0.22560  Biso   1.000  H
  C243     1.0000 0.39212  0.18379  0.16499  Biso   1.000  C
  H276     1.0000 0.44530  0.24809  0.16001  Biso   1.000  H
  H277     1.0000 0.65122  0.22279  0.21391  Biso   1.000  H
  H278     1.0000 0.61760  0.27440  0.19990  Biso   1.000  H
  N42      1.0000 0.20411  0.21339  0.47309  Biso   1.000  N
  H279     1.0000 0.27119  0.19708  0.51711  Biso   1.000  H
  C244     1.0000 0.20729  0.21070  0.56928  Biso   1.000  C
  H280     1.0000 0.30440  0.32649  0.56960  Biso   1.000  H
  H281     1.0000 0.32420  0.26641  0.56968  Biso   1.000  H
  C245     1.0000 0.25749  0.27781  0.61860  Biso   1.000  C
  C246     1.0000 0.16499  0.39212  0.18379  Biso   1.000  C
  H282     1.0000 0.16001  0.44530  0.24809  Biso   1.000  H
  H283     1.0000 0.21391  0.65122  0.22279  Biso   1.000  H
  H284     1.0000 0.19990  0.61760  0.27440  Biso   1.000  H
  C247     1.0000 0.37899  0.13909  0.19608  Biso   1.000  C
  C248     1.0000 0.36091  0.19608  0.12101  Biso   1.000  C
  C249     1.0000 0.21628  0.17881  0.43991  Biso   1.000  C
  H285     1.0000 0.19560  0.17351  0.56960  Biso   1.000  H
  H286     1.0000 0.17580  0.23359  0.56968  Biso   1.000  H
  C250     1.0000 0.24251  0.22219  0.61860  Biso   1.000  C
  H287     1.0000 0.27721  0.28609  0.65122  Biso   1.000  H
  H288     1.0000 0.22560  0.30010  0.61760  Biso   1.000  H
  C251     1.0000 0.19608  0.37899  0.13909  Biso   1.000  C
  C252     1.0000 0.12101  0.36091  0.19608  Biso   1.000  C
  H289     1.0000 0.40019  0.13029  0.22560  Biso   1.000  H
  C253     1.0000 0.33501  0.10788  0.18379  Biso   1.000  C
  H290     1.0000 0.36971  0.22560  0.09981  Biso   1.000  H
  C254     1.0000 0.31621  0.16499  0.10788  Biso   1.000  C
  C255     1.0000 0.18379  0.16499  0.39212  Biso   1.000  C
  H291     1.0000 0.24809  0.16001  0.44530  Biso   1.000  H
  H292     1.0000 0.22279  0.21391  0.65122  Biso   1.000  H
  H293     1.0000 0.27440  0.19990  0.61760  Biso   1.000  H
  C256     1.0000 0.18379  0.33501  0.10788  Biso   1.000  C
  H294     1.0000 0.22560  0.40019  0.13029  Biso   1.000  H
  C257     1.0000 0.10788  0.31621  0.16499  Biso   1.000  C
  H295     1.0000 0.09981  0.36971  0.22560  Biso   1.000  H
  C258     1.0000 0.30392  0.12101  0.13909  Biso   1.000  C
  C259     1.0000 0.32119  0.06009  0.21628  Biso   1.000  C
  C260     1.0000 0.28372  0.17881  0.06009  Biso   1.000  C
  C261     1.0000 0.19608  0.12101  0.36091  Biso   1.000  C
  C262     1.0000 0.13909  0.19608  0.37899  Biso   1.000  C
  C263     1.0000 0.21628  0.32119  0.06009  Biso   1.000  C
  C264     1.0000 0.13909  0.30392  0.12101  Biso   1.000  C
  C265     1.0000 0.06009  0.28372  0.17881  Biso   1.000  C
  H296     1.0000 0.27440  0.09981  0.13029  Biso   1.000  H
  N43      1.0000 0.28661  0.02691  0.20411  Biso   1.000  N
  H297     1.0000 0.33999  0.05470  0.24809  Biso   1.000  H
  N44      1.0000 0.29589  0.21339  0.02691  Biso   1.000  N
  H298     1.0000 0.25191  0.16001  0.05470  Biso   1.000  H
  C266     1.0000 0.16499  0.10788  0.31621  Biso   1.000  C
  H299     1.0000 0.22560  0.09981  0.36971  Biso   1.000  H
  C267     1.0000 0.10788  0.18379  0.33501  Biso   1.000  C
  H300     1.0000 0.13029  0.22560  0.40019  Biso   1.000  H
  N45      1.0000 0.20411  0.28661  0.02691  Biso   1.000  N
  H301     1.0000 0.24809  0.33999  0.05470  Biso   1.000  H
  H302     1.0000 0.13029  0.27440  0.09981  Biso   1.000  H
  N46      1.0000 0.02691  0.29589  0.21339  Biso   1.000  N
  H303     1.0000 0.05470  0.25191  0.16001  Biso   1.000  H
  C268     1.0000 0.27822  0.98088  0.24058  Biso   1.000  C
  C269     1.0000 0.25942  0.22178  0.98088  Biso   1.000  C
  C270     1.0000 0.17881  0.06009  0.28372  Biso   1.000  C
  C271     1.0000 0.12101  0.13909  0.30392  Biso   1.000  C
  C272     1.0000 0.06009  0.21628  0.32119  Biso   1.000  C
  C273     1.0000 0.24058  0.27822  0.98088  Biso   1.000  C
  C274     1.0000 0.98088  0.25942  0.22178  Biso   1.000  C
  C275     1.0000 0.22178  0.98088  0.25942  Biso   1.000  C
  H304     1.0000 0.30292  0.98289  0.27119  Biso   1.000  H
  C276     1.0000 0.28930  0.93072  0.20729  Biso   1.000  C
  H305     1.0000 0.22881  0.19708  0.98289  Biso   1.000  H
  C277     1.0000 0.29271  0.21070  0.93072  Biso   1.000  C
  N47      1.0000 0.21339  0.02691  0.29589  Biso   1.000  N
  H306     1.0000 0.16001  0.05470  0.25191  Biso   1.000  H
  H307     1.0000 0.09981  0.13029  0.27440  Biso   1.000  H
  N48      1.0000 0.02691  0.20411  0.28661  Biso   1.000  N
  H308     1.0000 0.05470  0.24809  0.33999  Biso   1.000  H
  H309     1.0000 0.27119  0.30292  0.98289  Biso   1.000  H
  C278     1.0000 0.20729  0.28930  0.93072  Biso   1.000  C
  C279     1.0000 0.98088  0.24058  0.27822  Biso   1.000  C
  H310     1.0000 0.98289  0.22881  0.19708  Biso   1.000  H
  C280     1.0000 0.93072  0.29271  0.21070  Biso   1.000  C
  H311     1.0000 0.19708  0.98289  0.22881  Biso   1.000  H
  C281     1.0000 0.21070  0.93072  0.29271  Biso   1.000  C
  H312     1.0000 0.32649  0.93040  0.19560  Biso   1.000  H
  H313     1.0000 0.26641  0.93032  0.17580  Biso   1.000  H
  C282     1.0000 0.27781  0.88140  0.24251  Biso   1.000  C
  H314     1.0000 0.30440  0.17351  0.93040  Biso   1.000  H
  H315     1.0000 0.32420  0.23359  0.93032  Biso   1.000  H
  C283     1.0000 0.25749  0.22219  0.88140  Biso   1.000  C
  H316     1.0000 0.19560  0.32649  0.93040  Biso   1.000  H
  H317     1.0000 0.17580  0.26641  0.93032  Biso   1.000  H
  C284     1.0000 0.24251  0.27781  0.88140  Biso   1.000  C
  H318     1.0000 0.98289  0.27119  0.30292  Biso   1.000  H
  C285     1.0000 0.93072  0.20729  0.28930  Biso   1.000  C
  H319     1.0000 0.93040  0.30440  0.17351  Biso   1.000  H
  H320     1.0000 0.93032  0.32420  0.23359  Biso   1.000  H
  C286     1.0000 0.88140  0.25749  0.22219  Biso   1.000  C
  H321     1.0000 0.17351  0.93040  0.30440  Biso   1.000  H
  H322     1.0000 0.23359  0.93032  0.32420  Biso   1.000  H
  C287     1.0000 0.22219  0.88140  0.25749  Biso   1.000  C
  H323     1.0000 0.28609  0.84878  0.22279  Biso   1.000  H
  H324     1.0000 0.30010  0.88240  0.27440  Biso   1.000  H
  H325     1.0000 0.27721  0.21391  0.84878  Biso   1.000  H
  H326     1.0000 0.22560  0.19990  0.88240  Biso   1.000  H
  H327     1.0000 0.22279  0.28609  0.84878  Biso   1.000  H
  H328     1.0000 0.27440  0.30010  0.88240  Biso   1.000  H
  H329     1.0000 0.93040  0.19560  0.32649  Biso   1.000  H
  H330     1.0000 0.93032  0.17580  0.26641  Biso   1.000  H
  C288     1.0000 0.88140  0.24251  0.27781  Biso   1.000  C
  H331     1.0000 0.84878  0.27721  0.21391  Biso   1.000  H
  H332     1.0000 0.88240  0.22560  0.19990  Biso   1.000  H
  H333     1.0000 0.21391  0.84878  0.27721  Biso   1.000  H
  H334     1.0000 0.19990  0.88240  0.22560  Biso   1.000  H
  H335     1.0000 0.84878  0.22279  0.28609  Biso   1.000  H
  H336     1.0000 0.88240  0.27440  0.30010  Biso   1.000  H
  C289     1.0000 0.63909  0.30392  0.62101  Biso   1.000  C
  C290     1.0000 0.68379  0.33501  0.60788  Biso   1.000  C
  H337     1.0000 0.63029  0.27440  0.59981  Biso   1.000  H
  C291     1.0000 0.60788  0.31621  0.66499  Biso   1.000  C
  C292     1.0000 0.71628  0.32119  0.56009  Biso   1.000  C
  C293     1.0000 0.69608  0.37899  0.63909  Biso   1.000  C
  C294     1.0000 0.62101  0.36091  0.69608  Biso   1.000  C
  C295     1.0000 0.56009  0.28372  0.67881  Biso   1.000  C
  N49      1.0000 0.70411  0.28661  0.52691  Biso   1.000  N
  H338     1.0000 0.74809  0.33999  0.55470  Biso   1.000  H
  H339     1.0000 0.72560  0.40019  0.63029  Biso   1.000  H
  C296     1.0000 0.66499  0.39212  0.68379  Biso   1.000  C
  H340     1.0000 0.59981  0.36971  0.72560  Biso   1.000  H
  N50      1.0000 0.52691  0.29589  0.71339  Biso   1.000  N
  H341     1.0000 0.55470  0.25191  0.66001  Biso   1.000  H
  C297     1.0000 0.74058  0.27822  0.48088  Biso   1.000  C
  C298     1.0000 0.67881  0.43991  0.71628  Biso   1.000  C
  C299     1.0000 0.48088  0.25942  0.72178  Biso   1.000  C
  C300     1.0000 0.70729  0.28930  0.43072  Biso   1.000  C
  C301     1.0000 0.75942  0.22178  0.48088  Biso   1.000  C
  H342     1.0000 0.77119  0.30292  0.48289  Biso   1.000  H
  N51      1.0000 0.71339  0.47309  0.70411  Biso   1.000  N
  H343     1.0000 0.66001  0.44530  0.74809  Biso   1.000  H
  C302     1.0000 0.48088  0.24058  0.77822  Biso   1.000  C
  H344     1.0000 0.48289  0.22881  0.69708  Biso   1.000  H
  C303     1.0000 0.43072  0.29271  0.71070  Biso   1.000  C
  H345     1.0000 0.69560  0.32649  0.43040  Biso   1.000  H
  H346     1.0000 0.67580  0.26641  0.43032  Biso   1.000  H
  C304     1.0000 0.74251  0.27781  0.38140  Biso   1.000  C
  N52      1.0000 0.79589  0.21339  0.52691  Biso   1.000  N
  H347     1.0000 0.72881  0.19708  0.48289  Biso   1.000  H
  C305     1.0000 0.79271  0.21070  0.43072  Biso   1.000  C
  C306     1.0000 0.72178  0.51912  0.74058  Biso   1.000  C
  N53      1.0000 0.52691  0.20411  0.78661  Biso   1.000  N
  H348     1.0000 0.48289  0.27119  0.80292  Biso   1.000  H
  C307     1.0000 0.43072  0.20729  0.78930  Biso   1.000  C
  H349     1.0000 0.43040  0.30440  0.67351  Biso   1.000  H
  H350     1.0000 0.43032  0.32420  0.73359  Biso   1.000  H
  C308     1.0000 0.38140  0.25749  0.72219  Biso   1.000  C
  C309     1.0000 0.75749  0.22219  0.38140  Biso   1.000  C
  H351     1.0000 0.72279  0.28609  0.34878  Biso   1.000  H
  H352     1.0000 0.77440  0.30010  0.38240  Biso   1.000  H
  C310     1.0000 0.78372  0.17881  0.56009  Biso   1.000  C
  H353     1.0000 0.80440  0.17351  0.43040  Biso   1.000  H
  H354     1.0000 0.82420  0.23359  0.43032  Biso   1.000  H
  C311     1.0000 0.77822  0.51912  0.75942  Biso   1.000  C
  H355     1.0000 0.69708  0.51711  0.77119  Biso   1.000  H
  C312     1.0000 0.71070  0.56928  0.70729  Biso   1.000  C
  C313     1.0000 0.56009  0.21628  0.82119  Biso   1.000  C
  H356     1.0000 0.43040  0.19560  0.82649  Biso   1.000  H
  H357     1.0000 0.43032  0.17580  0.76641  Biso   1.000  H
  C314     1.0000 0.38140  0.24251  0.77781  Biso   1.000  C
  H358     1.0000 0.34878  0.27721  0.71391  Biso   1.000  H
  H359     1.0000 0.38240  0.22560  0.69990  Biso   1.000  H
  H360     1.0000 0.77721  0.21391  0.34878  Biso   1.000  H
  H361     1.0000 0.72560  0.19990  0.38240  Biso   1.000  H
  C315     1.0000 0.81621  0.16499  0.60788  Biso   1.000  C
  H362     1.0000 0.75191  0.16001  0.55470  Biso   1.000  H
  N54      1.0000 0.78661  0.47309  0.79589  Biso   1.000  N
  H363     1.0000 0.80292  0.51711  0.72881  Biso   1.000  H
  C316     1.0000 0.78930  0.56928  0.79271  Biso   1.000  C
  H364     1.0000 0.67351  0.56960  0.69560  Biso   1.000  H
  H365     1.0000 0.73359  0.56968  0.67580  Biso   1.000  H
  C317     1.0000 0.72219  0.61860  0.74251  Biso   1.000  C
  C318     1.0000 0.60788  0.18379  0.83501  Biso   1.000  C
  H366     1.0000 0.55470  0.24809  0.83999  Biso   1.000  H
  H367     1.0000 0.34878  0.22279  0.78609  Biso   1.000  H
  H368     1.0000 0.38240  0.27440  0.80010  Biso   1.000  H
  C319     1.0000 0.80392  0.12101  0.63909  Biso   1.000  C
  C320     1.0000 0.86091  0.19608  0.62101  Biso   1.000  C
  C321     1.0000 0.82119  0.43991  0.78372  Biso   1.000  C
  H369     1.0000 0.82649  0.56960  0.80440  Biso   1.000  H
  H370     1.0000 0.76641  0.56968  0.82420  Biso   1.000  H
  C322     1.0000 0.77781  0.61860  0.75749  Biso   1.000  C
  H371     1.0000 0.71391  0.65122  0.72279  Biso   1.000  H
  H372     1.0000 0.69990  0.61760  0.77440  Biso   1.000  H
  C323     1.0000 0.63909  0.19608  0.87899  Biso   1.000  C
  C324     1.0000 0.62101  0.13909  0.80392  Biso   1.000  C
  H373     1.0000 0.77440  0.09981  0.63029  Biso   1.000  H
  C325     1.0000 0.83501  0.10788  0.68379  Biso   1.000  C
  H374     1.0000 0.86971  0.22560  0.59981  Biso   1.000  H
  C326     1.0000 0.89212  0.18379  0.66499  Biso   1.000  C
  C327     1.0000 0.83501  0.39212  0.81621  Biso   1.000  C
  H375     1.0000 0.83999  0.44530  0.75191  Biso   1.000  H
  H376     1.0000 0.78609  0.65122  0.77721  Biso   1.000  H
  H377     1.0000 0.80010  0.61760  0.72560  Biso   1.000  H
  H378     1.0000 0.63029  0.22560  0.90019  Biso   1.000  H
  C328     1.0000 0.68379  0.16499  0.89212  Biso   1.000  C
  C329     1.0000 0.66499  0.10788  0.81621  Biso   1.000  C
  H379     1.0000 0.59981  0.13029  0.77440  Biso   1.000  H
  C330     1.0000 0.87899  0.13909  0.69608  Biso   1.000  C
  C331     1.0000 0.82119  0.06009  0.71628  Biso   1.000  C
  C332     1.0000 0.93991  0.21628  0.67881  Biso   1.000  C
  C333     1.0000 0.87899  0.36091  0.80392  Biso   1.000  C
  C334     1.0000 0.80392  0.37899  0.86091  Biso   1.000  C
  C335     1.0000 0.69608  0.12101  0.86091  Biso   1.000  C
  C336     1.0000 0.71628  0.17881  0.93991  Biso   1.000  C
  C337     1.0000 0.67881  0.06009  0.78372  Biso   1.000  C
  H380     1.0000 0.90019  0.13029  0.72560  Biso   1.000  H
  N55      1.0000 0.78661  0.02691  0.70411  Biso   1.000  N
  H381     1.0000 0.83999  0.05470  0.74809  Biso   1.000  H
  N56      1.0000 0.97309  0.20411  0.71339  Biso   1.000  N
  H382     1.0000 0.94530  0.24809  0.66001  Biso   1.000  H
  C338     1.0000 0.89212  0.31621  0.83501  Biso   1.000  C
  H383     1.0000 0.90019  0.36971  0.77440  Biso   1.000  H
  H384     1.0000 0.77440  0.40019  0.86971  Biso   1.000  H
  C339     1.0000 0.81621  0.33501  0.89212  Biso   1.000  C
  H385     1.0000 0.72560  0.09981  0.86971  Biso   1.000  H
  N57      1.0000 0.70411  0.21339  0.97309  Biso   1.000  N
  H386     1.0000 0.74809  0.16001  0.94530  Biso   1.000  H
  N58      1.0000 0.71339  0.02691  0.79589  Biso   1.000  N
  H387     1.0000 0.66001  0.05470  0.75191  Biso   1.000  H
  C340     1.0000 0.77822  0.98088  0.74058  Biso   1.000  C
  C341     1.0000 0.01912  0.24058  0.72178  Biso   1.000  C
  C342     1.0000 0.93991  0.28372  0.82119  Biso   1.000  C
  C343     1.0000 0.86091  0.30392  0.87899  Biso   1.000  C
  C344     1.0000 0.78372  0.32119  0.93991  Biso   1.000  C
  C345     1.0000 0.74058  0.22178  0.01912  Biso   1.000  C
  C346     1.0000 0.72178  0.98088  0.75942  Biso   1.000  C
  H388     1.0000 0.80292  0.98289  0.77119  Biso   1.000  H
  C347     1.0000 0.78930  0.93072  0.70729  Biso   1.000  C
  C348     1.0000 0.01912  0.25942  0.77822  Biso   1.000  C
  H389     1.0000 0.01711  0.27119  0.69708  Biso   1.000  H
  C349     1.0000 0.06928  0.20729  0.71070  Biso   1.000  C
  N59      1.0000 0.97309  0.29589  0.78661  Biso   1.000  N
  H390     1.0000 0.94530  0.25191  0.83999  Biso   1.000  H
  H391     1.0000 0.86971  0.27440  0.90019  Biso   1.000  H
  N60      1.0000 0.79589  0.28661  0.97309  Biso   1.000  N
  H392     1.0000 0.75191  0.33999  0.94530  Biso   1.000  H
  C350     1.0000 0.75942  0.27822  0.01912  Biso   1.000  C
  H393     1.0000 0.77119  0.19708  0.01711  Biso   1.000  H
  C351     1.0000 0.70729  0.21070  0.06928  Biso   1.000  C
  H394     1.0000 0.69708  0.98289  0.72881  Biso   1.000  H
  C352     1.0000 0.71070  0.93072  0.79271  Biso   1.000  C
  H395     1.0000 0.82649  0.93040  0.69560  Biso   1.000  H
  H396     1.0000 0.76641  0.93032  0.67580  Biso   1.000  H
  C353     1.0000 0.77781  0.88140  0.74251  Biso   1.000  C
  H397     1.0000 0.01711  0.22881  0.80292  Biso   1.000  H
  C354     1.0000 0.06928  0.29271  0.78930  Biso   1.000  C
  H398     1.0000 0.06960  0.19560  0.67351  Biso   1.000  H
  H399     1.0000 0.06968  0.17580  0.73359  Biso   1.000  H
  C355     1.0000 0.11860  0.24251  0.72219  Biso   1.000  C
  H400     1.0000 0.72881  0.30292  0.01711  Biso   1.000  H
  C356     1.0000 0.79271  0.28930  0.06928  Biso   1.000  C
  H401     1.0000 0.69560  0.17351  0.06960  Biso   1.000  H
  H402     1.0000 0.67580  0.23359  0.06968  Biso   1.000  H
  C357     1.0000 0.74251  0.22219  0.11860  Biso   1.000  C
  H403     1.0000 0.67351  0.93040  0.80440  Biso   1.000  H
  H404     1.0000 0.73359  0.93032  0.82420  Biso   1.000  H
  C358     1.0000 0.72219  0.88140  0.75749  Biso   1.000  C
  H405     1.0000 0.78609  0.84878  0.72279  Biso   1.000  H
  H406     1.0000 0.80010  0.88240  0.77440  Biso   1.000  H
  H407     1.0000 0.06960  0.30440  0.82649  Biso   1.000  H
  H408     1.0000 0.06968  0.32420  0.76641  Biso   1.000  H
  C359     1.0000 0.11860  0.25749  0.77781  Biso   1.000  C
  H409     1.0000 0.15122  0.22279  0.71391  Biso   1.000  H
  H410     1.0000 0.11760  0.27440  0.69990  Biso   1.000  H
  H411     1.0000 0.80440  0.32649  0.06960  Biso   1.000  H
  H412     1.0000 0.82420  0.26641  0.06968  Biso   1.000  H
  C360     1.0000 0.75749  0.27781  0.11860  Biso   1.000  C
  H413     1.0000 0.72279  0.21391  0.15122  Biso   1.000  H
  H414     1.0000 0.77440  0.19990  0.11760  Biso   1.000  H
  H415     1.0000 0.71391  0.84878  0.77721  Biso   1.000  H
  H416     1.0000 0.69990  0.88240  0.72560  Biso   1.000  H
  H417     1.0000 0.15122  0.27721  0.78609  Biso   1.000  H
  H418     1.0000 0.11760  0.22560  0.80010  Biso   1.000  H
  H419     1.0000 0.77721  0.28609  0.15122  Biso   1.000  H
  H420     1.0000 0.72560  0.30010  0.11760  Biso   1.000  H
  C361     1.0000 0.62101  0.63909  0.30392  Biso   1.000  C
  C362     1.0000 0.66499  0.60788  0.31621  Biso   1.000  C
  H421     1.0000 0.59981  0.63029  0.27440  Biso   1.000  H
  C363     1.0000 0.60788  0.68379  0.33501  Biso   1.000  C
  C364     1.0000 0.67881  0.56009  0.28372  Biso   1.000  C
  C365     1.0000 0.69608  0.62101  0.36091  Biso   1.000  C
  C366     1.0000 0.63909  0.69608  0.37899  Biso   1.000  C
  C367     1.0000 0.56009  0.71628  0.32119  Biso   1.000  C
  N61      1.0000 0.71339  0.52691  0.29589  Biso   1.000  N
  H422     1.0000 0.66001  0.55470  0.25191  Biso   1.000  H
  H423     1.0000 0.72560  0.59981  0.36971  Biso   1.000  H
  C368     1.0000 0.68379  0.66499  0.39212  Biso   1.000  C
  H424     1.0000 0.63029  0.72560  0.40019  Biso   1.000  H
  N62      1.0000 0.52691  0.70411  0.28661  Biso   1.000  N
  H425     1.0000 0.55470  0.74809  0.33999  Biso   1.000  H
  C369     1.0000 0.72178  0.48088  0.25942  Biso   1.000  C
  C370     1.0000 0.71628  0.67881  0.43991  Biso   1.000  C
  C371     1.0000 0.48088  0.74058  0.27822  Biso   1.000  C
  C372     1.0000 0.71070  0.43072  0.29271  Biso   1.000  C
  C373     1.0000 0.77822  0.48088  0.24058  Biso   1.000  C
  H426     1.0000 0.69708  0.48289  0.22881  Biso   1.000  H
  N63      1.0000 0.70411  0.71339  0.47309  Biso   1.000  N
  H427     1.0000 0.74809  0.66001  0.44530  Biso   1.000  H
  C374     1.0000 0.48088  0.75942  0.22178  Biso   1.000  C
  H428     1.0000 0.48289  0.77119  0.30292  Biso   1.000  H
  C375     1.0000 0.43072  0.70729  0.28930  Biso   1.000  C
  C376     1.0000 0.72219  0.38140  0.25749  Biso   1.000  C
  H429     1.0000 0.67351  0.43040  0.30440  Biso   1.000  H
  H430     1.0000 0.73359  0.43032  0.32420  Biso   1.000  H
  C377     1.0000 0.78930  0.43072  0.20729  Biso   1.000  C
  N64      1.0000 0.78661  0.52691  0.20411  Biso   1.000  N
  H431     1.0000 0.80292  0.48289  0.27119  Biso   1.000  H
  C378     1.0000 0.74058  0.72178  0.51912  Biso   1.000  C
  N65      1.0000 0.52691  0.79589  0.21339  Biso   1.000  N
  H432     1.0000 0.48289  0.72881  0.19708  Biso   1.000  H
  C379     1.0000 0.43072  0.79271  0.21070  Biso   1.000  C
  H433     1.0000 0.43040  0.69560  0.32649  Biso   1.000  H
  H434     1.0000 0.43032  0.67580  0.26641  Biso   1.000  H
  C380     1.0000 0.38140  0.74251  0.27781  Biso   1.000  C
  C381     1.0000 0.77781  0.38140  0.24251  Biso   1.000  C
  H435     1.0000 0.71391  0.34878  0.27721  Biso   1.000  H
  H436     1.0000 0.69990  0.38240  0.22560  Biso   1.000  H
  H437     1.0000 0.82649  0.43040  0.19560  Biso   1.000  H
  H438     1.0000 0.76641  0.43032  0.17580  Biso   1.000  H
  C382     1.0000 0.82119  0.56009  0.21628  Biso   1.000  C
  C383     1.0000 0.75942  0.77822  0.51912  Biso   1.000  C
  H439     1.0000 0.77119  0.69708  0.51711  Biso   1.000  H
  C384     1.0000 0.70729  0.71070  0.56928  Biso   1.000  C
  C385     1.0000 0.56009  0.78372  0.17881  Biso   1.000  C
  H440     1.0000 0.43040  0.80440  0.17351  Biso   1.000  H
  H441     1.0000 0.43032  0.82420  0.23359  Biso   1.000  H
  C386     1.0000 0.38140  0.75749  0.22219  Biso   1.000  C
  H442     1.0000 0.34878  0.72279  0.28609  Biso   1.000  H
  H443     1.0000 0.38240  0.77440  0.30010  Biso   1.000  H
  H444     1.0000 0.78609  0.34878  0.22279  Biso   1.000  H
  H445     1.0000 0.80010  0.38240  0.27440  Biso   1.000  H
  C387     1.0000 0.83501  0.60788  0.18379  Biso   1.000  C
  H446     1.0000 0.83999  0.55470  0.24809  Biso   1.000  H
  N66      1.0000 0.79589  0.78661  0.47309  Biso   1.000  N
  H447     1.0000 0.72881  0.80292  0.51711  Biso   1.000  H
  C388     1.0000 0.79271  0.78930  0.56928  Biso   1.000  C
  H448     1.0000 0.69560  0.67351  0.56960  Biso   1.000  H
  H449     1.0000 0.67580  0.73359  0.56968  Biso   1.000  H
  C389     1.0000 0.74251  0.72219  0.61860  Biso   1.000  C
  C390     1.0000 0.60788  0.81621  0.16499  Biso   1.000  C
  H450     1.0000 0.55470  0.75191  0.16001  Biso   1.000  H
  H451     1.0000 0.34878  0.77721  0.21391  Biso   1.000  H
  H452     1.0000 0.38240  0.72560  0.19990  Biso   1.000  H
  C391     1.0000 0.80392  0.62101  0.13909  Biso   1.000  C
  C392     1.0000 0.87899  0.63909  0.19608  Biso   1.000  C
  C393     1.0000 0.78372  0.82119  0.43991  Biso   1.000  C
  H453     1.0000 0.80440  0.82649  0.56960  Biso   1.000  H
  H454     1.0000 0.82420  0.76641  0.56968  Biso   1.000  H
  C394     1.0000 0.75749  0.77781  0.61860  Biso   1.000  C
  H455     1.0000 0.72279  0.71391  0.65122  Biso   1.000  H
  H456     1.0000 0.77440  0.69990  0.61760  Biso   1.000  H
  C395     1.0000 0.63909  0.80392  0.12101  Biso   1.000  C
  C396     1.0000 0.62101  0.86091  0.19608  Biso   1.000  C
  H457     1.0000 0.77440  0.59981  0.13029  Biso   1.000  H
  C397     1.0000 0.81621  0.66499  0.10788  Biso   1.000  C
  H458     1.0000 0.90019  0.63029  0.22560  Biso   1.000  H
  C398     1.0000 0.89212  0.68379  0.16499  Biso   1.000  C
  C399     1.0000 0.81621  0.83501  0.39212  Biso   1.000  C
  H459     1.0000 0.75191  0.83999  0.44530  Biso   1.000  H
  H460     1.0000 0.77721  0.78609  0.65122  Biso   1.000  H
  H461     1.0000 0.72560  0.80010  0.61760  Biso   1.000  H
  C400     1.0000 0.68379  0.83501  0.10788  Biso   1.000  C
  H462     1.0000 0.63029  0.77440  0.09981  Biso   1.000  H
  H463     1.0000 0.59981  0.86971  0.22560  Biso   1.000  H
  C401     1.0000 0.66499  0.89212  0.18379  Biso   1.000  C
  C402     1.0000 0.86091  0.69608  0.12101  Biso   1.000  C
  C403     1.0000 0.78372  0.67881  0.06009  Biso   1.000  C
  C404     1.0000 0.93991  0.71628  0.17881  Biso   1.000  C
  C405     1.0000 0.86091  0.80392  0.37899  Biso   1.000  C
  C406     1.0000 0.80392  0.87899  0.36091  Biso   1.000  C
  C407     1.0000 0.71628  0.82119  0.06009  Biso   1.000  C
  C408     1.0000 0.69608  0.87899  0.13909  Biso   1.000  C
  C409     1.0000 0.67881  0.93991  0.21628  Biso   1.000  C
  H464     1.0000 0.86971  0.72560  0.09981  Biso   1.000  H
  N67      1.0000 0.79589  0.71339  0.02691  Biso   1.000  N
  H465     1.0000 0.75191  0.66001  0.05470  Biso   1.000  H
  N68      1.0000 0.97309  0.70411  0.21339  Biso   1.000  N
  H466     1.0000 0.94530  0.74809  0.16001  Biso   1.000  H
  C410     1.0000 0.89212  0.81621  0.33501  Biso   1.000  C
  H467     1.0000 0.86971  0.77440  0.40019  Biso   1.000  H
  H468     1.0000 0.77440  0.90019  0.36971  Biso   1.000  H
  C411     1.0000 0.83501  0.89212  0.31621  Biso   1.000  C
  N69      1.0000 0.70411  0.78661  0.02691  Biso   1.000  N
  H469     1.0000 0.74809  0.83999  0.05470  Biso   1.000  H
  H470     1.0000 0.72560  0.90019  0.13029  Biso   1.000  H
  N70      1.0000 0.71339  0.97309  0.20411  Biso   1.000  N
  H471     1.0000 0.66001  0.94530  0.24809  Biso   1.000  H
  C412     1.0000 0.75942  0.72178  0.98088  Biso   1.000  C
  C413     1.0000 0.01912  0.74058  0.22178  Biso   1.000  C
  C414     1.0000 0.93991  0.78372  0.32119  Biso   1.000  C
  C415     1.0000 0.87899  0.86091  0.30392  Biso   1.000  C
  C416     1.0000 0.82119  0.93991  0.28372  Biso   1.000  C
  C417     1.0000 0.74058  0.77822  0.98088  Biso   1.000  C
  C418     1.0000 0.72178  0.01912  0.24058  Biso   1.000  C
  H472     1.0000 0.72881  0.69708  0.98289  Biso   1.000  H
  C419     1.0000 0.79271  0.71070  0.93072  Biso   1.000  C
  C420     1.0000 0.01912  0.75942  0.27822  Biso   1.000  C
  H473     1.0000 0.01711  0.77119  0.19708  Biso   1.000  H
  C421     1.0000 0.06928  0.70729  0.21070  Biso   1.000  C
  N71      1.0000 0.97309  0.79589  0.28661  Biso   1.000  N
  H474     1.0000 0.94530  0.75191  0.33999  Biso   1.000  H
  H475     1.0000 0.90019  0.86971  0.27440  Biso   1.000  H
  N72      1.0000 0.78661  0.97309  0.29589  Biso   1.000  N
  H476     1.0000 0.83999  0.94530  0.25191  Biso   1.000  H
  H477     1.0000 0.77119  0.80292  0.98289  Biso   1.000  H
  C422     1.0000 0.70729  0.78930  0.93072  Biso   1.000  C
  C423     1.0000 0.77822  0.01912  0.25942  Biso   1.000  C
  H478     1.0000 0.69708  0.01711  0.27119  Biso   1.000  H
  C424     1.0000 0.71070  0.06928  0.20729  Biso   1.000  C
  H479     1.0000 0.80440  0.67351  0.93040  Biso   1.000  H
  H480     1.0000 0.82420  0.73359  0.93032  Biso   1.000  H
  C425     1.0000 0.75749  0.72219  0.88140  Biso   1.000  C
  H481     1.0000 0.01711  0.72881  0.30292  Biso   1.000  H
  C426     1.0000 0.06928  0.79271  0.28930  Biso   1.000  C
  H482     1.0000 0.06960  0.69560  0.17351  Biso   1.000  H
  H483     1.0000 0.06968  0.67580  0.23359  Biso   1.000  H
  C427     1.0000 0.11860  0.74251  0.22219  Biso   1.000  C
  H484     1.0000 0.69560  0.82649  0.93040  Biso   1.000  H
  H485     1.0000 0.67580  0.76641  0.93032  Biso   1.000  H
  C428     1.0000 0.74251  0.77781  0.88140  Biso   1.000  C
  H486     1.0000 0.80292  0.01711  0.22881  Biso   1.000  H
  C429     1.0000 0.78930  0.06928  0.29271  Biso   1.000  C
  H487     1.0000 0.67351  0.06960  0.19560  Biso   1.000  H
  H488     1.0000 0.73359  0.06968  0.17580  Biso   1.000  H
  C430     1.0000 0.72219  0.11860  0.24251  Biso   1.000  C
  H489     1.0000 0.77721  0.71391  0.84878  Biso   1.000  H
  H490     1.0000 0.72560  0.69990  0.88240  Biso   1.000  H
  H491     1.0000 0.06960  0.80440  0.32649  Biso   1.000  H
  H492     1.0000 0.06968  0.82420  0.26641  Biso   1.000  H
  C431     1.0000 0.11860  0.75749  0.27781  Biso   1.000  C
  H493     1.0000 0.15122  0.72279  0.21391  Biso   1.000  H
  H494     1.0000 0.11760  0.77440  0.19990  Biso   1.000  H
  H495     1.0000 0.72279  0.78609  0.84878  Biso   1.000  H
  H496     1.0000 0.77440  0.80010  0.88240  Biso   1.000  H
  H497     1.0000 0.82649  0.06960  0.30440  Biso   1.000  H
  H498     1.0000 0.76641  0.06968  0.32420  Biso   1.000  H
  C432     1.0000 0.77781  0.11860  0.25749  Biso   1.000  C
  H499     1.0000 0.71391  0.15122  0.22279  Biso   1.000  H
  H500     1.0000 0.69990  0.11760  0.27440  Biso   1.000  H
  H501     1.0000 0.15122  0.77721  0.28609  Biso   1.000  H
  H502     1.0000 0.11760  0.72560  0.30010  Biso   1.000  H
  H503     1.0000 0.78609  0.15122  0.27721  Biso   1.000  H
  H504     1.0000 0.80010  0.11760  0.22560  Biso   1.000  H
  C433     1.0000 0.30392  0.62101  0.63909  Biso   1.000  C
  C434     1.0000 0.31621  0.66499  0.60788  Biso   1.000  C
  H505     1.0000 0.27440  0.59981  0.63029  Biso   1.000  H
  C435     1.0000 0.33501  0.60788  0.68379  Biso   1.000  C
  C436     1.0000 0.28372  0.67881  0.56009  Biso   1.000  C
  C437     1.0000 0.36091  0.69608  0.62101  Biso   1.000  C
  C438     1.0000 0.37899  0.63909  0.69608  Biso   1.000  C
  C439     1.0000 0.32119  0.56009  0.71628  Biso   1.000  C
  N73      1.0000 0.29589  0.71339  0.52691  Biso   1.000  N
  H506     1.0000 0.25191  0.66001  0.55470  Biso   1.000  H
  H507     1.0000 0.36971  0.72560  0.59981  Biso   1.000  H
  C440     1.0000 0.39212  0.68379  0.66499  Biso   1.000  C
  H508     1.0000 0.40019  0.63029  0.72560  Biso   1.000  H
  N74      1.0000 0.28661  0.52691  0.70411  Biso   1.000  N
  H509     1.0000 0.33999  0.55470  0.74809  Biso   1.000  H
  C441     1.0000 0.25942  0.72178  0.48088  Biso   1.000  C
  C442     1.0000 0.43991  0.71628  0.67881  Biso   1.000  C
  C443     1.0000 0.27822  0.48088  0.74058  Biso   1.000  C
  C444     1.0000 0.29271  0.71070  0.43072  Biso   1.000  C
  C445     1.0000 0.24058  0.77822  0.48088  Biso   1.000  C
  H510     1.0000 0.22881  0.69708  0.48289  Biso   1.000  H
  N75      1.0000 0.47309  0.70411  0.71339  Biso   1.000  N
  H511     1.0000 0.44530  0.74809  0.66001  Biso   1.000  H
  C446     1.0000 0.22178  0.48088  0.75942  Biso   1.000  C
  H512     1.0000 0.30292  0.48289  0.77119  Biso   1.000  H
  C447     1.0000 0.28930  0.43072  0.70729  Biso   1.000  C
  C448     1.0000 0.25749  0.72219  0.38140  Biso   1.000  C
  H513     1.0000 0.30440  0.67351  0.43040  Biso   1.000  H
  H514     1.0000 0.32420  0.73359  0.43032  Biso   1.000  H
  C449     1.0000 0.20729  0.78930  0.43072  Biso   1.000  C
  N76      1.0000 0.20411  0.78661  0.52691  Biso   1.000  N
  H515     1.0000 0.27119  0.80292  0.48289  Biso   1.000  H
  C450     1.0000 0.51912  0.74058  0.72178  Biso   1.000  C
  N77      1.0000 0.21339  0.52691  0.79589  Biso   1.000  N
  H516     1.0000 0.19708  0.48289  0.72881  Biso   1.000  H
  C451     1.0000 0.21070  0.43072  0.79271  Biso   1.000  C
  H517     1.0000 0.32649  0.43040  0.69560  Biso   1.000  H
  H518     1.0000 0.26641  0.43032  0.67580  Biso   1.000  H
  C452     1.0000 0.27781  0.38140  0.74251  Biso   1.000  C
  C453     1.0000 0.24251  0.77781  0.38140  Biso   1.000  C
  H519     1.0000 0.27721  0.71391  0.34878  Biso   1.000  H
  H520     1.0000 0.22560  0.69990  0.38240  Biso   1.000  H
  H521     1.0000 0.19560  0.82649  0.43040  Biso   1.000  H
  H522     1.0000 0.17580  0.76641  0.43032  Biso   1.000  H
  C454     1.0000 0.21628  0.82119  0.56009  Biso   1.000  C
  C455     1.0000 0.51912  0.75942  0.77822  Biso   1.000  C
  H523     1.0000 0.51711  0.77119  0.69708  Biso   1.000  H
  C456     1.0000 0.56928  0.70729  0.71070  Biso   1.000  C
  C457     1.0000 0.17881  0.56009  0.78372  Biso   1.000  C
  H524     1.0000 0.17351  0.43040  0.80440  Biso   1.000  H
  H525     1.0000 0.23359  0.43032  0.82420  Biso   1.000  H
  C458     1.0000 0.22219  0.38140  0.75749  Biso   1.000  C
  H526     1.0000 0.28609  0.34878  0.72279  Biso   1.000  H
  H527     1.0000 0.30010  0.38240  0.77440  Biso   1.000  H
  H528     1.0000 0.22279  0.78609  0.34878  Biso   1.000  H
  H529     1.0000 0.27440  0.80010  0.38240  Biso   1.000  H
  C459     1.0000 0.18379  0.83501  0.60788  Biso   1.000  C
  H530     1.0000 0.24809  0.83999  0.55470  Biso   1.000  H
  N78      1.0000 0.47309  0.79589  0.78661  Biso   1.000  N
  H531     1.0000 0.51711  0.72881  0.80292  Biso   1.000  H
  C460     1.0000 0.56928  0.79271  0.78930  Biso   1.000  C
  H532     1.0000 0.56960  0.69560  0.67351  Biso   1.000  H
  H533     1.0000 0.56968  0.67580  0.73359  Biso   1.000  H
  C461     1.0000 0.61860  0.74251  0.72219  Biso   1.000  C
  C462     1.0000 0.16499  0.60788  0.81621  Biso   1.000  C
  H534     1.0000 0.16001  0.55470  0.75191  Biso   1.000  H
  H535     1.0000 0.21391  0.34878  0.77721  Biso   1.000  H
  H536     1.0000 0.19990  0.38240  0.72560  Biso   1.000  H
  C463     1.0000 0.19608  0.87899  0.63909  Biso   1.000  C
  C464     1.0000 0.13909  0.80392  0.62101  Biso   1.000  C
  C465     1.0000 0.43991  0.78372  0.82119  Biso   1.000  C
  H537     1.0000 0.56960  0.80440  0.82649  Biso   1.000  H
  H538     1.0000 0.56968  0.82420  0.76641  Biso   1.000  H
  C466     1.0000 0.61860  0.75749  0.77781  Biso   1.000  C
  H539     1.0000 0.65122  0.72279  0.71391  Biso   1.000  H
  H540     1.0000 0.61760  0.77440  0.69990  Biso   1.000  H
  C467     1.0000 0.12101  0.63909  0.80392  Biso   1.000  C
  C468     1.0000 0.19608  0.62101  0.86091  Biso   1.000  C
  H541     1.0000 0.22560  0.90019  0.63029  Biso   1.000  H
  C469     1.0000 0.16499  0.89212  0.68379  Biso   1.000  C
  H542     1.0000 0.13029  0.77440  0.59981  Biso   1.000  H
  C470     1.0000 0.10788  0.81621  0.66499  Biso   1.000  C
  C471     1.0000 0.39212  0.81621  0.83501  Biso   1.000  C
  H543     1.0000 0.44530  0.75191  0.83999  Biso   1.000  H
  H544     1.0000 0.65122  0.77721  0.78609  Biso   1.000  H
  H545     1.0000 0.61760  0.72560  0.80010  Biso   1.000  H
  C472     1.0000 0.10788  0.68379  0.83501  Biso   1.000  C
  H546     1.0000 0.09981  0.63029  0.77440  Biso   1.000  H
  H547     1.0000 0.22560  0.59981  0.86971  Biso   1.000  H
  C473     1.0000 0.18379  0.66499  0.89212  Biso   1.000  C
  C474     1.0000 0.12101  0.86091  0.69608  Biso   1.000  C
  C475     1.0000 0.17881  0.93991  0.71628  Biso   1.000  C
  C476     1.0000 0.06009  0.78372  0.67881  Biso   1.000  C
  C477     1.0000 0.37899  0.86091  0.80392  Biso   1.000  C
  C478     1.0000 0.36091  0.80392  0.87899  Biso   1.000  C
  C479     1.0000 0.06009  0.71628  0.82119  Biso   1.000  C
  C480     1.0000 0.13909  0.69608  0.87899  Biso   1.000  C
  C481     1.0000 0.21628  0.67881  0.93991  Biso   1.000  C
  H548     1.0000 0.09981  0.86971  0.72560  Biso   1.000  H
  N79      1.0000 0.21339  0.97309  0.70411  Biso   1.000  N
  H549     1.0000 0.16001  0.94530  0.74809  Biso   1.000  H
  N80      1.0000 0.02691  0.79589  0.71339  Biso   1.000  N
  H550     1.0000 0.05470  0.75191  0.66001  Biso   1.000  H
  C482     1.0000 0.33501  0.89212  0.81621  Biso   1.000  C
  H551     1.0000 0.40019  0.86971  0.77440  Biso   1.000  H
  H552     1.0000 0.36971  0.77440  0.90019  Biso   1.000  H
  C483     1.0000 0.31621  0.83501  0.89212  Biso   1.000  C
  N81      1.0000 0.02691  0.70411  0.78661  Biso   1.000  N
  H553     1.0000 0.05470  0.74809  0.83999  Biso   1.000  H
  H554     1.0000 0.13029  0.72560  0.90019  Biso   1.000  H
  N82      1.0000 0.20411  0.71339  0.97309  Biso   1.000  N
  H555     1.0000 0.24809  0.66001  0.94530  Biso   1.000  H
  C484     1.0000 0.22178  0.01912  0.74058  Biso   1.000  C
  C485     1.0000 0.98088  0.75942  0.72178  Biso   1.000  C
  C486     1.0000 0.32119  0.93991  0.78372  Biso   1.000  C
  C487     1.0000 0.30392  0.87899  0.86091  Biso   1.000  C
  C488     1.0000 0.28372  0.82119  0.93991  Biso   1.000  C
  C489     1.0000 0.98088  0.74058  0.77822  Biso   1.000  C
  C490     1.0000 0.24058  0.72178  0.01912  Biso   1.000  C
  C491     1.0000 0.27822  0.01912  0.75942  Biso   1.000  C
  H556     1.0000 0.19708  0.01711  0.77119  Biso   1.000  H
  C492     1.0000 0.21070  0.06928  0.70729  Biso   1.000  C
  H557     1.0000 0.98289  0.72881  0.69708  Biso   1.000  H
  C493     1.0000 0.93072  0.79271  0.71070  Biso   1.000  C
  N83      1.0000 0.28661  0.97309  0.79589  Biso   1.000  N
  H558     1.0000 0.33999  0.94530  0.75191  Biso   1.000  H
  H559     1.0000 0.27440  0.90019  0.86971  Biso   1.000  H
  N84      1.0000 0.29589  0.78661  0.97309  Biso   1.000  N
  H560     1.0000 0.25191  0.83999  0.94530  Biso   1.000  H
  H561     1.0000 0.98289  0.77119  0.80292  Biso   1.000  H
  C494     1.0000 0.93072  0.70729  0.78930  Biso   1.000  C
  C495     1.0000 0.25942  0.77822  0.01912  Biso   1.000  C
  H562     1.0000 0.27119  0.69708  0.01711  Biso   1.000  H
  C496     1.0000 0.20729  0.71070  0.06928  Biso   1.000  C
  H563     1.0000 0.30292  0.01711  0.72881  Biso   1.000  H
  C497     1.0000 0.28930  0.06928  0.79271  Biso   1.000  C
  H564     1.0000 0.17351  0.06960  0.69560  Biso   1.000  H
  H565     1.0000 0.23359  0.06968  0.67580  Biso   1.000  H
  C498     1.0000 0.22219  0.11860  0.74251  Biso   1.000  C
  H566     1.0000 0.93040  0.80440  0.67351  Biso   1.000  H
  H567     1.0000 0.93032  0.82420  0.73359  Biso   1.000  H
  C499     1.0000 0.88140  0.75749  0.72219  Biso   1.000  C
  H568     1.0000 0.93040  0.69560  0.82649  Biso   1.000  H
  H569     1.0000 0.93032  0.67580  0.76641  Biso   1.000  H
  C500     1.0000 0.88140  0.74251  0.77781  Biso   1.000  C
  H570     1.0000 0.22881  0.80292  0.01711  Biso   1.000  H
  C501     1.0000 0.29271  0.78930  0.06928  Biso   1.000  C
  H571     1.0000 0.19560  0.67351  0.06960  Biso   1.000  H
  H572     1.0000 0.17580  0.73359  0.06968  Biso   1.000  H
  C502     1.0000 0.24251  0.72219  0.11860  Biso   1.000  C
  H573     1.0000 0.32649  0.06960  0.80440  Biso   1.000  H
  H574     1.0000 0.26641  0.06968  0.82420  Biso   1.000  H
  C503     1.0000 0.27781  0.11860  0.75749  Biso   1.000  C
  H575     1.0000 0.21391  0.15122  0.72279  Biso   1.000  H
  H576     1.0000 0.19990  0.11760  0.77440  Biso   1.000  H
  H577     1.0000 0.84878  0.77721  0.71391  Biso   1.000  H
  H578     1.0000 0.88240  0.72560  0.69990  Biso   1.000  H
  H579     1.0000 0.84878  0.72279  0.78609  Biso   1.000  H
  H580     1.0000 0.88240  0.77440  0.80010  Biso   1.000  H
  H581     1.0000 0.30440  0.82649  0.06960  Biso   1.000  H
  H582     1.0000 0.32420  0.76641  0.06968  Biso   1.000  H
  C504     1.0000 0.25749  0.77781  0.11860  Biso   1.000  C
  H583     1.0000 0.22279  0.71391  0.15122  Biso   1.000  H
  H584     1.0000 0.27440  0.69990  0.11760  Biso   1.000  H
  H585     1.0000 0.28609  0.15122  0.77721  Biso   1.000  H
  H586     1.0000 0.30010  0.11760  0.72560  Biso   1.000  H
  H587     1.0000 0.27721  0.78609  0.15122  Biso   1.000  H
  H588     1.0000 0.22560  0.80010  0.11760  Biso   1.000  H
  Ne1      1.0000 0.25000  0.25000  0.25000  Biso   1.000  Ne
  He1      1.0000 0.18537  0.31462  0.31462  Biso   1.000  He
  He2      1.0000 0.31406  0.18594  0.31406  Biso   1.000  He
  He3      1.0000 0.18303  0.18303  0.18303  Biso   1.000  He
  He4      1.0000 0.31664  0.31664  0.18336  Biso   1.000  He
  Ar1      1.0000 0.25000  0.25000  0.25000  Biso   1.000  Ar
  Ne2      1.0000 0.50000  0.00000  0.50000  Biso   1.000  Ne
  He5      1.0000 0.43386  0.93387  0.56613  Biso   1.000  He
  He6      1.0000 0.56559  0.06559  0.56559  Biso   1.000  He
  He7      1.0000 0.56211  0.93789  0.43789  Biso   1.000  He
  He8      1.0000 0.43404  0.06595  0.43404  Biso   1.000  He
  Ar2      1.0000 0.50000  0.00000  0.50000  Biso   1.000  Ar
  Ne3      1.0000 0.50000  0.50000  0.00000  Biso   1.000  Ne
  He9      1.0000 0.43386  0.43387  0.06613  Biso   1.000  He
  He10     1.0000 0.56559  0.56559  0.06559  Biso   1.000  He
  He11     1.0000 0.56211  0.43789  0.93789  Biso   1.000  He
  He12     1.0000 0.43404  0.56595  0.93404  Biso   1.000  He
  Ar3      1.0000 0.50000  0.50000  0.00000  Biso   1.000  Ar
  Ne4      1.0000 0.00000  0.50000  0.50000  Biso   1.000  Ne
  He13     1.0000 0.93386  0.43387  0.56613  Biso   1.000  He
  He14     1.0000 0.06559  0.56559  0.56559  Biso   1.000  He
  He15     1.0000 0.06211  0.43789  0.43789  Biso   1.000  He
  He16     1.0000 0.93404  0.56595  0.43404  Biso   1.000  He
  Ar4      1.0000 0.00000  0.50000  0.50000  Biso   1.000  Ar
  Ne5      1.0000 0.75000  0.75000  0.25000  Biso   1.000  Ne
  He17     1.0000 0.68537  0.81462  0.31462  Biso   1.000  He
  He18     1.0000 0.81406  0.68594  0.31406  Biso   1.000  He
  He19     1.0000 0.68303  0.68303  0.18303  Biso   1.000  He
  He20     1.0000 0.81664  0.81664  0.18336  Biso   1.000  He
  Ar5      1.0000 0.75000  0.75000  0.25000  Biso   1.000  Ar
  Ne6      1.0000 0.75000  0.25000  0.75000  Biso   1.000  Ne
  He21     1.0000 0.68537  0.31462  0.81462  Biso   1.000  He
  He22     1.0000 0.81406  0.18594  0.81406  Biso   1.000  He
  He23     1.0000 0.68303  0.18303  0.68303  Biso   1.000  He
  He24     1.0000 0.81664  0.31664  0.68336  Biso   1.000  He
  Ar6      1.0000 0.75000  0.25000  0.75000  Biso   1.000  Ar
  Ne7      1.0000 0.25000  0.75000  0.75000  Biso   1.000  Ne
  He25     1.0000 0.18537  0.81462  0.81462  Biso   1.000  He
  He26     1.0000 0.31406  0.68594  0.81406  Biso   1.000  He
  He27     1.0000 0.18303  0.68303  0.68303  Biso   1.000  He
  He28     1.0000 0.31664  0.81664  0.68336  Biso   1.000  He
  Ar7      1.0000 0.25000  0.75000  0.75000  Biso   1.000  Ar
