data_image0
_cell_length_a       15.136
_cell_length_b       24.59
_cell_length_c       24.775
_cell_angle_alpha    61.23
_cell_angle_beta     81.3
_cell_angle_gamma    74.16

_symmetry_space_group_name_H-M    "P 1"
_symmetry_int_tables_number       1

loop_
  _symmetry_equiv_pos_as_xyz
  'x, y, z'

loop_
  _atom_site_label
  _atom_site_occupancy
  _atom_site_fract_x
  _atom_site_fract_y
  _atom_site_fract_z
  _atom_site_thermal_displace_type
  _atom_site_B_iso_or_equiv
  _atom_site_type_symbol
  C1       1.0000 0.54498  0.35806  0.61799  Biso   1.000  C
  C2       1.0000 0.61036  0.36644  0.65300  Biso   1.000  C
  H1       1.0000 0.57788  0.33445  0.59570  Biso   1.000  H
  H2       1.0000 0.50783  0.39998  0.58916  Biso   1.000  H
  C3       1.0000 0.47995  0.31505  0.67856  Biso   1.000  C
  O1       1.0000 0.68997  0.37566  0.61168  Biso   1.000  O
  H3       1.0000 0.58373  0.40396  0.66027  Biso   1.000  H
  H4       1.0000 0.62604  0.32797  0.69298  Biso   1.000  H
  H5       1.0000 0.52136  0.28105  0.71177  Biso   1.000  H
  H6       1.0000 0.44032  0.34376  0.69486  Biso   1.000  H
  C4       1.0000 0.41496  0.28306  0.66000  Biso   1.000  C
  C5       1.0000 0.75855  0.39496  0.62407  Biso   1.000  C
  H7       1.0000 0.38014  0.25858  0.69717  Biso   1.000  H
  H8       1.0000 0.45302  0.25457  0.64457  Biso   1.000  H
  H9       1.0000 0.37126  0.31675  0.62886  Biso   1.000  H
  C6       1.0000 0.83308  0.40157  0.58257  Biso   1.000  C
  C7       1.0000 0.75637  0.40805  0.67239  Biso   1.000  C
  C8       1.0000 0.84135  0.38547  0.52997  Biso   1.000  C
  C9       1.0000 0.90437  0.42265  0.59178  Biso   1.000  C
  C10      1.0000 0.82655  0.42606  0.68358  Biso   1.000  C
  H10      1.0000 0.70377  0.40436  0.69906  Biso   1.000  H
  C11      1.0000 0.88853  0.31796  0.55079  Biso   1.000  C
  H11      1.0000 0.77935  0.39335  0.51546  Biso   1.000  H
  H12      1.0000 0.87650  0.41294  0.49519  Biso   1.000  H
  H13      1.0000 0.95515  0.42905  0.56359  Biso   1.000  H
  C12      1.0000 0.90124  0.43414  0.64148  Biso   1.000  C
  C13      1.0000 0.82427  0.43877  0.73807  Biso   1.000  C
  C14      1.0000 0.84086  0.26873  0.57829  Biso   1.000  C
  C15      1.0000 0.98727  0.29854  0.54756  Biso   1.000  C
  O2       1.0000 0.96967  0.45266  0.65479  Biso   1.000  O
  H14      1.0000 0.75964  0.45307  0.74908  Biso   1.000  H
  H15      1.0000 0.85556  0.47367  0.72609  Biso   1.000  H
  C16      1.0000 0.87076  0.37998  0.79408  Biso   1.000  C
  C17      1.0000 0.88683  0.20444  0.60219  Biso   1.000  C
  H16      1.0000 0.77562  0.27946  0.58077  Biso   1.000  H
  C18      1.0000 0.03044  0.23496  0.57059  Biso   1.000  C
  O3       1.0000 0.03029  0.34773  0.51970  Biso   1.000  O
  C19      1.0000 0.05672  0.45347  0.61956  Biso   1.000  C
  C20      1.0000 0.95845  0.36905  0.80799  Biso   1.000  C
  C21      1.0000 0.81796  0.33668  0.83567  Biso   1.000  C
  O4       1.0000 0.84354  0.15435  0.63139  Biso   1.000  O
  C22      1.0000 0.98306  0.18704  0.59800  Biso   1.000  C
  H17      1.0000 0.09558  0.22344  0.56746  Biso   1.000  H
  C23      1.0000 0.12724  0.33106  0.51956  Biso   1.000  C
  H18      1.0000 0.07589  0.41566  0.61228  Biso   1.000  H
  H19      1.0000 0.05005  0.49227  0.57916  Biso   1.000  H
  C24      1.0000 0.12554  0.45276  0.65617  Biso   1.000  C
  H20      1.0000 0.99293  0.39947  0.78127  Biso   1.000  H
  C25      1.0000 0.00210  0.31497  0.86008  Biso   1.000  C
  O5       1.0000 0.72891  0.35037  0.82015  Biso   1.000  O
  C26      1.0000 0.85881  0.28179  0.88717  Biso   1.000  C
  C27      1.0000 0.74565  0.17077  0.63259  Biso   1.000  C
  C28      1.0000 0.03394  0.11697  0.62366  Biso   1.000  C
  H21      1.0000 0.15029  0.30596  0.49676  Biso   1.000  H
  H22      1.0000 0.14846  0.30424  0.56249  Biso   1.000  H
  C29      1.0000 0.16490  0.38923  0.49008  Biso   1.000  C
  H23      1.0000 0.13118  0.41376  0.69629  Biso   1.000  H
  H24      1.0000 0.10428  0.48997  0.66419  Biso   1.000  H
  C30      1.0000 0.21757  0.45445  0.62458  Biso   1.000  C
  C31      1.0000 0.95033  0.26939  0.90025  Biso   1.000  C
  O6       1.0000 0.09082  0.30259  0.87455  Biso   1.000  O
  C32      1.0000 0.66811  0.31119  0.86506  Biso   1.000  C
  H25      1.0000 0.82301  0.25217  0.91379  Biso   1.000  H
  C33      1.0000 0.71092  0.10968  0.66668  Biso   1.000  C
  H26      1.0000 0.72274  0.19536  0.59008  Biso   1.000  H
  H27      1.0000 0.72283  0.19744  0.65378  Biso   1.000  H
  H28      1.0000 0.99326  0.09215  0.62269  Biso   1.000  H
  C34      1.0000 0.06465  0.08898  0.68906  Biso   1.000  C
  H29      1.0000 0.08847  0.11305  0.59699  Biso   1.000  H
  H30      1.0000 0.13686  0.41614  0.51058  Biso   1.000  H
  H31      1.0000 0.14734  0.41405  0.44637  Biso   1.000  H
  C35      1.0000 0.27040  0.37385  0.49367  Biso   1.000  C
  H32      1.0000 0.21246  0.49295  0.58400  Biso   1.000  H
  H33      1.0000 0.24047  0.41655  0.61758  Biso   1.000  H
  C36      1.0000 0.28515  0.45526  0.66428  Biso   1.000  C
  C37      1.0000 0.99514  0.20919  0.95437  Biso   1.000  C
  C38      1.0000 0.13502  0.35639  0.84755  Biso   1.000  C
  H34      1.0000 0.66565  0.31317  0.90425  Biso   1.000  H
  H35      1.0000 0.69156  0.26606  0.87358  Biso   1.000  H
  C39      1.0000 0.57373  0.33667  0.83825  Biso   1.000  C
  C40      1.0000 0.61051  0.12037  0.66668  Biso   1.000  C
  H36      1.0000 0.73935  0.08168  0.64738  Biso   1.000  H
  H37      1.0000 0.73123  0.08704  0.70979  Biso   1.000  H
  C41      1.0000 0.14890  0.09168  0.70177  Biso   1.000  C
  C42      1.0000 0.00693  0.05848  0.73825  Biso   1.000  C
  H38      1.0000 0.28736  0.34923  0.53757  Biso   1.000  H
  H39      1.0000 0.29796  0.34635  0.47378  Biso   1.000  H
  C43      1.0000 0.31176  0.43233  0.46337  Biso   1.000  C
  H40      1.0000 0.34523  0.45704  0.64309  Biso   1.000  H
  H41      1.0000 0.29135  0.41646  0.70389  Biso   1.000  H
  H42      1.0000 0.26214  0.49266  0.67128  Biso   1.000  H
  C44      1.0000 0.03476  0.15447  0.93746  Biso   1.000  C
  H43      1.0000 0.94929  0.19641  0.98845  Biso   1.000  H
  H44      1.0000 0.04521  0.21750  0.96888  Biso   1.000  H
  H45      1.0000 0.09106  0.39466  0.84719  Biso   1.000  H
  H46      1.0000 0.15545  0.36616  0.80467  Biso   1.000  H
  C45      1.0000 0.21602  0.33837  0.88597  Biso   1.000  C
  H47      1.0000 0.53336  0.30787  0.86529  Biso   1.000  H
  H48      1.0000 0.57783  0.33838  0.79726  Biso   1.000  H
  C46      1.0000 0.53271  0.40337  0.83217  Biso   1.000  C
  H49      1.0000 0.59028  0.14085  0.62366  Biso   1.000  H
  H50      1.0000 0.58177  0.14995  0.68418  Biso   1.000  H
  C47      1.0000 0.57826  0.05938  0.70339  Biso   1.000  C
  O7       1.0000 0.20136  0.12248  0.65115  Biso   1.000  O
  C48      1.0000 0.17435  0.06506  0.76326  Biso   1.000  C
  H51      1.0000 0.94963  0.05587  0.72969  Biso   1.000  H
  C49      1.0000 0.03150  0.03179  0.79997  Biso   1.000  C
  H52      1.0000 0.37868  0.41854  0.46728  Biso   1.000  H
  H53      1.0000 0.28675  0.45917  0.48377  Biso   1.000  H
  H54      1.0000 0.29636  0.45672  0.41970  Biso   1.000  H
  C50      1.0000 0.98249  0.11659  0.93967  Biso   1.000  C
  C51      1.0000 0.12390  0.14799  0.91296  Biso   1.000  C
  H55      1.0000 0.24715  0.37415  0.86828  Biso   1.000  H
  H56      1.0000 0.19437  0.33068  0.92825  Biso   1.000  H
  C52      1.0000 0.27595  0.28578  0.88836  Biso   1.000  C
  H57      1.0000 0.52501  0.40138  0.87349  Biso   1.000  H
  H58      1.0000 0.57493  0.43158  0.80725  Biso   1.000  H
  C53      1.0000 0.43934  0.43099  0.80117  Biso   1.000  C
  H59      1.0000 0.51111  0.06877  0.70187  Biso   1.000  H
  H60      1.0000 0.59665  0.03955  0.74627  Biso   1.000  H
  H61      1.0000 0.60596  0.03018  0.68598  Biso   1.000  H
  C54      1.0000 0.28772  0.12665  0.66018  Biso   1.000  C
  C55      1.0000 0.11832  0.03559  0.81209  Biso   1.000  C
  H62      1.0000 0.23202  0.06756  0.77137  Biso   1.000  H
  O8       1.0000 0.98165  0.00027  0.85069  Biso   1.000  O
  C56      1.0000 0.02112  0.06818  0.92346  Biso   1.000  C
  O9       1.0000 0.89400  0.12701  0.96275  Biso   1.000  O
  C57      1.0000 0.15620  0.10138  0.89536  Biso   1.000  C
  H63      1.0000 0.16114  0.17527  0.90877  Biso   1.000  H
  H64      1.0000 0.30451  0.29450  0.84705  Biso   1.000  H
  H65      1.0000 0.24495  0.25067  0.90218  Biso   1.000  H
  C58      1.0000 0.35685  0.26570  0.93806  Biso   1.000  C
  H66      1.0000 0.41293  0.47329  0.79845  Biso   1.000  H
  H67      1.0000 0.39783  0.40276  0.82568  Biso   1.000  H
  H68      1.0000 0.44733  0.43446  0.75976  Biso   1.000  H
  H69      1.0000 0.32825  0.08337  0.67888  Biso   1.000  H
  H70      1.0000 0.28124  0.14428  0.68948  Biso   1.000  H
  C59      1.0000 0.33097  0.16678  0.60307  Biso   1.000  C
  C60      1.0000 0.14584  0.00937  0.87759  Biso   1.000  C
  C61      1.0000 0.88814  0.00248  0.84097  Biso   1.000  C
  C62      1.0000 0.10984  0.06009  0.89905  Biso   1.000  C
  H71      1.0000 0.98534  0.03940  0.92927  Biso   1.000  H
  C63      1.0000 0.83371  0.09109  0.96105  Biso   1.000  C
  O10      1.0000 0.24343  0.09258  0.87128  Biso   1.000  O
  H72      1.0000 0.40434  0.22918  0.93866  Biso   1.000  H
  H73      1.0000 0.32880  0.25419  0.97938  Biso   1.000  H
  H74      1.0000 0.38456  0.30186  0.92549  Biso   1.000  H
  H75      1.0000 0.29626  0.21176  0.58718  Biso   1.000  H
  H76      1.0000 0.39466  0.16428  0.61076  Biso   1.000  H
  C64      1.0000 0.33193  0.14528  0.55926  Biso   1.000  C
  H77      1.0000 0.21362  0.99600  0.88016  Biso   1.000  H
  H78      1.0000 0.12041  0.97158  0.90467  Biso   1.000  H
  H79      1.0000 0.85010  0.04657  0.82595  Biso   1.000  H
  H80      1.0000 0.88776  0.98816  0.80997  Biso   1.000  H
  C65      1.0000 0.85058  0.95939  0.90117  Biso   1.000  C
  H81      1.0000 0.85601  0.04509  0.98887  Biso   1.000  H
  H82      1.0000 0.83245  0.09689  0.91867  Biso   1.000  H
  C66      1.0000 0.73945  0.11497  0.98118  Biso   1.000  C
  C67      1.0000 0.30433  0.13828  0.85566  Biso   1.000  C
  H83      1.0000 0.27924  0.12526  0.56778  Biso   1.000  H
  H84      1.0000 0.32518  0.18195  0.51739  Biso   1.000  H
  C68      1.0000 0.41496  0.10003  0.56299  Biso   1.000  C
  H85      1.0000 0.85443  0.97278  0.93235  Biso   1.000  H
  H86      1.0000 0.88824  0.91528  0.91508  Biso   1.000  H
  C69      1.0000 0.75070  0.96058  0.89578  Biso   1.000  C
  H87      1.0000 0.71551  0.15970  0.95055  Biso   1.000  H
  C70      1.0000 0.67241  0.07551  0.98854  Biso   1.000  C
  H88      1.0000 0.74338  0.11428  0.02102  Biso   1.000  H
  H89      1.0000 0.27073  0.18249  0.82945  Biso   1.000  H
  H90      1.0000 0.32110  0.13598  0.89398  Biso   1.000  H
  C71      1.0000 0.38750  0.12139  0.82296  Biso   1.000  C
  H91      1.0000 0.41553  0.08545  0.53236  Biso   1.000  H
  H92      1.0000 0.42127  0.06425  0.60399  Biso   1.000  H
  H93      1.0000 0.46686  0.12075  0.55346  Biso   1.000  H
  H94      1.0000 0.71302  0.00430  0.88376  Biso   1.000  H
  H95      1.0000 0.74680  0.94968  0.86275  Biso   1.000  H
  C72      1.0000 0.71081  0.91428  0.95547  Biso   1.000  C
  H96      1.0000 0.66963  0.07468  0.94926  Biso   1.000  H
  H97      1.0000 0.69437  0.03099  0.02069  Biso   1.000  H
  C73      1.0000 0.57854  0.10280  0.00632  Biso   1.000  C
  H98      1.0000 0.36805  0.11685  0.78929  Biso   1.000  H
  H99      1.0000 0.41704  0.15799  0.80357  Biso   1.000  H
  C74      1.0000 0.45635  0.06558  0.85617  Biso   1.000  C
  H100     1.0000 0.64699  0.91708  0.94935  Biso   1.000  H
  H101     1.0000 0.71284  0.92549  0.98827  Biso   1.000  H
  H102     1.0000 0.74699  0.87079  0.96726  Biso   1.000  H
  H103     1.0000 0.55644  0.14661  0.97417  Biso   1.000  H
  H104     1.0000 0.53658  0.07667  0.01102  Biso   1.000  H
  H105     1.0000 0.58125  0.10318  0.04543  Biso   1.000  H
  H106     1.0000 0.50699  0.06101  0.82715  Biso   1.000  H
  H107     1.0000 0.42963  0.02776  0.87307  Biso   1.000  H
  C75      1.0000 0.49289  0.06659  0.90587  Biso   1.000  C
  H108     1.0000 0.54290  0.02858  0.92484  Biso   1.000  H
  H109     1.0000 0.44469  0.06700  0.93677  Biso   1.000  H
  H110     1.0000 0.51741  0.10491  0.88975  Biso   1.000  H
  C76      1.0000 0.45495  0.64206  0.38198  Biso   1.000  C
  C77      1.0000 0.38959  0.63363  0.34697  Biso   1.000  C
  H111     1.0000 0.42205  0.66566  0.40427  Biso   1.000  H
  H112     1.0000 0.49210  0.60016  0.41077  Biso   1.000  H
  C78      1.0000 0.52000  0.68502  0.32141  Biso   1.000  C
  O11      1.0000 0.30997  0.62445  0.38829  Biso   1.000  O
  H113     1.0000 0.41622  0.59611  0.33969  Biso   1.000  H
  H114     1.0000 0.37389  0.67214  0.30699  Biso   1.000  H
  H115     1.0000 0.47859  0.71902  0.28820  Biso   1.000  H
  H116     1.0000 0.55957  0.65631  0.30510  Biso   1.000  H
  C79      1.0000 0.58498  0.71705  0.33997  Biso   1.000  C
  C80      1.0000 0.24139  0.60515  0.37590  Biso   1.000  C
  H117     1.0000 0.61979  0.74153  0.30280  Biso   1.000  H
  H118     1.0000 0.54685  0.74554  0.35540  Biso   1.000  H
  H119     1.0000 0.62869  0.68332  0.37111  Biso   1.000  H
  C81      1.0000 0.24358  0.59202  0.32758  Biso   1.000  C
  C82      1.0000 0.16685  0.59854  0.41740  Biso   1.000  C
  C83      1.0000 0.17341  0.57401  0.31639  Biso   1.000  C
  H120     1.0000 0.29618  0.59571  0.30091  Biso   1.000  H
  C84      1.0000 0.09558  0.57742  0.40819  Biso   1.000  C
  C85      1.0000 0.15858  0.61465  0.47000  Biso   1.000  C
  C86      1.0000 0.17568  0.56130  0.26190  Biso   1.000  C
  C87      1.0000 0.09871  0.56593  0.35849  Biso   1.000  C
  H121     1.0000 0.04478  0.57106  0.43637  Biso   1.000  H
  C88      1.0000 0.11140  0.68215  0.44918  Biso   1.000  C
  H122     1.0000 0.22060  0.60675  0.48446  Biso   1.000  H
  H123     1.0000 0.12344  0.58717  0.50477  Biso   1.000  H
  H124     1.0000 0.24031  0.54700  0.25089  Biso   1.000  H
  H125     1.0000 0.14437  0.52644  0.27387  Biso   1.000  H
  C89      1.0000 0.12917  0.62013  0.20589  Biso   1.000  C
  O12      1.0000 0.03026  0.54745  0.34518  Biso   1.000  O
  C90      1.0000 0.01269  0.70153  0.45240  Biso   1.000  C
  C91      1.0000 0.15910  0.73134  0.42168  Biso   1.000  C
  C92      1.0000 0.04150  0.63102  0.19198  Biso   1.000  C
  C93      1.0000 0.18198  0.66343  0.16430  Biso   1.000  C
  C94      1.0000 0.94315  0.54666  0.38037  Biso   1.000  C
  O13      1.0000 0.96966  0.65234  0.48027  Biso   1.000  O
  C95      1.0000 0.96950  0.76515  0.42937  Biso   1.000  C
  C96      1.0000 0.11312  0.79563  0.39778  Biso   1.000  C
  H126     1.0000 0.22424  0.72065  0.41919  Biso   1.000  H
  H127     1.0000 0.00702  0.60060  0.21869  Biso   1.000  H
  C97      1.0000 0.99778  0.68510  0.13988  Biso   1.000  C
  O14      1.0000 0.27097  0.64972  0.17977  Biso   1.000  O
  C98      1.0000 0.14112  0.71832  0.11280  Biso   1.000  C
  H128     1.0000 0.92405  0.58445  0.38769  Biso   1.000  H
  H129     1.0000 0.94988  0.50784  0.42081  Biso   1.000  H
  C99      1.0000 0.87442  0.54731  0.34379  Biso   1.000  C
  C100     1.0000 0.87271  0.66903  0.48036  Biso   1.000  C
  C101     1.0000 0.01689  0.81302  0.40197  Biso   1.000  C
  H130     1.0000 0.90437  0.77663  0.43251  Biso   1.000  H
  O15      1.0000 0.15641  0.84572  0.36857  Biso   1.000  O
  C102     1.0000 0.04962  0.73070  0.09967  Biso   1.000  C
  O16      1.0000 0.90913  0.69750  0.12538  Biso   1.000  O
  C103     1.0000 0.33182  0.68892  0.13491  Biso   1.000  C
  H131     1.0000 0.17694  0.74790  0.08618  Biso   1.000  H
  H132     1.0000 0.86875  0.58635  0.30368  Biso   1.000  H
  H133     1.0000 0.89566  0.51015  0.33578  Biso   1.000  H
  C104     1.0000 0.78238  0.54562  0.37539  Biso   1.000  C
  H134     1.0000 0.84964  0.69417  0.50316  Biso   1.000  H
  H135     1.0000 0.85149  0.69583  0.43748  Biso   1.000  H
  C105     1.0000 0.83505  0.61084  0.50989  Biso   1.000  C
  C106     1.0000 0.96601  0.88312  0.37627  Biso   1.000  C
  C107     1.0000 0.25428  0.82934  0.36738  Biso   1.000  C
  C108     1.0000 0.00481  0.79088  0.04560  Biso   1.000  C
  C109     1.0000 0.86491  0.64372  0.15241  Biso   1.000  C
  H136     1.0000 0.33430  0.68690  0.09571  Biso   1.000  H
  H137     1.0000 0.30839  0.73401  0.12639  Biso   1.000  H
  C110     1.0000 0.42622  0.66342  0.16167  Biso   1.000  C
  H138     1.0000 0.78747  0.50716  0.41597  Biso   1.000  H
  H139     1.0000 0.75948  0.58352  0.38239  Biso   1.000  H
  C111     1.0000 0.71481  0.54481  0.33569  Biso   1.000  C
  H140     1.0000 0.86309  0.58393  0.48939  Biso   1.000  H
  H141     1.0000 0.85253  0.58606  0.55360  Biso   1.000  H
  C112     1.0000 0.72954  0.62626  0.50629  Biso   1.000  C
  H142     1.0000 0.00669  0.90791  0.37728  Biso   1.000  H
  C113     1.0000 0.93528  0.91113  0.31091  Biso   1.000  C
  H143     1.0000 0.91149  0.88702  0.40298  Biso   1.000  H
  H144     1.0000 0.27719  0.80475  0.40989  Biso   1.000  H
  H145     1.0000 0.27712  0.80263  0.34619  Biso   1.000  H
  C114     1.0000 0.28901  0.89043  0.33329  Biso   1.000  C
  H146     1.0000 0.05064  0.80370  0.01152  Biso   1.000  H
  H147     1.0000 0.95472  0.78261  0.03109  Biso   1.000  H
  C115     1.0000 0.96520  0.84560  0.06250  Biso   1.000  C
  H148     1.0000 0.90889  0.60541  0.15278  Biso   1.000  H
  H149     1.0000 0.84450  0.63391  0.19530  Biso   1.000  H
  C116     1.0000 0.78393  0.66169  0.11400  Biso   1.000  C
  H150     1.0000 0.46659  0.69220  0.13468  Biso   1.000  H
  H151     1.0000 0.42210  0.66173  0.20271  Biso   1.000  H
  C117     1.0000 0.46718  0.59670  0.16780  Biso   1.000  C
  H152     1.0000 0.65465  0.54303  0.35687  Biso   1.000  H
  H153     1.0000 0.70858  0.58365  0.29608  Biso   1.000  H
  H154     1.0000 0.73781  0.50741  0.32869  Biso   1.000  H
  H155     1.0000 0.71259  0.65084  0.46240  Biso   1.000  H
  H156     1.0000 0.70198  0.65376  0.52619  Biso   1.000  H
  C118     1.0000 0.68819  0.56774  0.53660  Biso   1.000  C
  C119     1.0000 0.85097  0.90843  0.29819  Biso   1.000  C
  C120     1.0000 0.99301  0.94165  0.26167  Biso   1.000  C
  H157     1.0000 0.26059  0.91843  0.35259  Biso   1.000  H
  H158     1.0000 0.26872  0.91303  0.29018  Biso   1.000  H
  C121     1.0000 0.38942  0.87974  0.33329  Biso   1.000  C
  C122     1.0000 0.01744  0.88352  0.06029  Biso   1.000  C
  C123     1.0000 0.87605  0.85208  0.08701  Biso   1.000  C
  H159     1.0000 0.75280  0.62591  0.13169  Biso   1.000  H
  H160     1.0000 0.80559  0.66939  0.07172  Biso   1.000  H
  C124     1.0000 0.72401  0.71429  0.11160  Biso   1.000  C
  H161     1.0000 0.47492  0.59873  0.12648  Biso   1.000  H
  H162     1.0000 0.42503  0.56851  0.19267  Biso   1.000  H
  C125     1.0000 0.56059  0.56912  0.19880  Biso   1.000  C
  H163     1.0000 0.62127  0.58153  0.53269  Biso   1.000  H
  H164     1.0000 0.71319  0.54094  0.51620  Biso   1.000  H
  H165     1.0000 0.70359  0.54335  0.58027  Biso   1.000  H
  C126     1.0000 0.82560  0.93501  0.23670  Biso   1.000  C
  O17      1.0000 0.79858  0.87765  0.34877  Biso   1.000  O
  C127     1.0000 0.96844  0.96832  0.19999  Biso   1.000  C
  H166     1.0000 0.05031  0.94425  0.27028  Biso   1.000  H
  H167     1.0000 0.40968  0.85924  0.37627  Biso   1.000  H
  H168     1.0000 0.41819  0.85012  0.31579  Biso   1.000  H
  C128     1.0000 0.42167  0.94074  0.29658  Biso   1.000  C
  O18      1.0000 0.10593  0.87310  0.03722  Biso   1.000  O
  C129     1.0000 0.97883  0.93189  0.07651  Biso   1.000  C
  C130     1.0000 0.84369  0.89869  0.10460  Biso   1.000  C
  H169     1.0000 0.83881  0.82480  0.09120  Biso   1.000  H
  H170     1.0000 0.69543  0.70564  0.15287  Biso   1.000  H
  H171     1.0000 0.75500  0.74940  0.09779  Biso   1.000  H
  C131     1.0000 0.64308  0.73442  0.06190  Biso   1.000  C
  H172     1.0000 0.58700  0.52682  0.20151  Biso   1.000  H
  H173     1.0000 0.60213  0.59731  0.17429  Biso   1.000  H
  H174     1.0000 0.55263  0.56561  0.24020  Biso   1.000  H
  C132     1.0000 0.88162  0.96452  0.18788  Biso   1.000  C
  H175     1.0000 0.76793  0.93251  0.22860  Biso   1.000  H
  C133     1.0000 0.71217  0.87341  0.33979  Biso   1.000  C
  O19      1.0000 0.01830  0.99980  0.14928  Biso   1.000  O
  H176     1.0000 0.48884  0.93130  0.29810  Biso   1.000  H
  H177     1.0000 0.40330  0.96052  0.25370  Biso   1.000  H
  H178     1.0000 0.39398  0.96993  0.31399  Biso   1.000  H
  C134     1.0000 0.16624  0.90898  0.03892  Biso   1.000  C
  H179     1.0000 0.01459  0.96071  0.07070  Biso   1.000  H
  C135     1.0000 0.89011  0.93998  0.10092  Biso   1.000  C
  O20      1.0000 0.75651  0.90753  0.12869  Biso   1.000  O
  H180     1.0000 0.59561  0.77089  0.06131  Biso   1.000  H
  H181     1.0000 0.67114  0.74592  0.02059  Biso   1.000  H
  H182     1.0000 0.61539  0.69821  0.07448  Biso   1.000  H
  C136     1.0000 0.85412  0.99070  0.12238  Biso   1.000  C
  H183     1.0000 0.67169  0.91674  0.32109  Biso   1.000  H
  H184     1.0000 0.71870  0.85583  0.31049  Biso   1.000  H
  C137     1.0000 0.66896  0.83333  0.39690  Biso   1.000  C
  C138     1.0000 0.11181  0.99759  0.15900  Biso   1.000  C
  H185     1.0000 0.14394  0.95498  0.01110  Biso   1.000  H
  H186     1.0000 0.16748  0.90322  0.08130  Biso   1.000  H
  C139     1.0000 0.26050  0.88510  0.01879  Biso   1.000  C
  C140     1.0000 0.69562  0.86179  0.14431  Biso   1.000  C
  H187     1.0000 0.78631  0.00411  0.11980  Biso   1.000  H
  H188     1.0000 0.87954  0.02849  0.09530  Biso   1.000  H
  H189     1.0000 0.70367  0.78835  0.41279  Biso   1.000  H
  H190     1.0000 0.60528  0.83586  0.38916  Biso   1.000  H
  C141     1.0000 0.66800  0.85483  0.44070  Biso   1.000  C
  H191     1.0000 0.14978  0.95350  0.17402  Biso   1.000  H
  H192     1.0000 0.11219  0.01191  0.19000  Biso   1.000  H
  C142     1.0000 0.14929  0.04072  0.09880  Biso   1.000  C
  H193     1.0000 0.28444  0.84039  0.04938  Biso   1.000  H
  C143     1.0000 0.32752  0.92462  0.01138  Biso   1.000  C
  H194     1.0000 0.25658  0.88579  0.97895  Biso   1.000  H
  H195     1.0000 0.72920  0.81762  0.17051  Biso   1.000  H
  H196     1.0000 0.67884  0.86413  0.10598  Biso   1.000  H
  C144     1.0000 0.61243  0.87872  0.17701  Biso   1.000  C
  H197     1.0000 0.72070  0.87485  0.43218  Biso   1.000  H
  H198     1.0000 0.67476  0.81817  0.48257  Biso   1.000  H
  C145     1.0000 0.58500  0.90003  0.43697  Biso   1.000  C
  H199     1.0000 0.14552  0.02729  0.06762  Biso   1.000  H
  H200     1.0000 0.11171  0.08479  0.08489  Biso   1.000  H
  C146     1.0000 0.24925  0.03949  0.10419  Biso   1.000  C
  H201     1.0000 0.33033  0.92539  0.05071  Biso   1.000  H
  H202     1.0000 0.30558  0.96908  0.97927  Biso   1.000  H
  C147     1.0000 0.42139  0.89731  0.99364  Biso   1.000  C
  H203     1.0000 0.63190  0.88322  0.21068  Biso   1.000  H
  H204     1.0000 0.58290  0.84212  0.19640  Biso   1.000  H
  C148     1.0000 0.54360  0.93449  0.14380  Biso   1.000  C
  H205     1.0000 0.58436  0.91461  0.46760  Biso   1.000  H
  H206     1.0000 0.57868  0.93582  0.39598  Biso   1.000  H
  H207     1.0000 0.53309  0.87934  0.44646  Biso   1.000  H
  H208     1.0000 0.28691  0.99581  0.11621  Biso   1.000  H
  H209     1.0000 0.25315  0.05038  0.13721  Biso   1.000  H
  C149     1.0000 0.28915  0.08579  0.04449  Biso   1.000  C
  H210     1.0000 0.44349  0.85350  0.02579  Biso   1.000  H
  H211     1.0000 0.46338  0.92340  0.98895  Biso   1.000  H
  H212     1.0000 0.41870  0.89689  0.95454  Biso   1.000  H
  H213     1.0000 0.49288  0.93913  0.17277  Biso   1.000  H
  H214     1.0000 0.57033  0.97230  0.12690  Biso   1.000  H
  C150     1.0000 0.50700  0.93348  0.09410  Biso   1.000  C
  H215     1.0000 0.35290  0.08299  0.05062  Biso   1.000  H
  H216     1.0000 0.28711  0.07458  0.01170  Biso   1.000  H
  H217     1.0000 0.25296  0.12928  0.03270  Biso   1.000  H
  H218     1.0000 0.45706  0.97151  0.07508  Biso   1.000  H
  H219     1.0000 0.55525  0.93311  0.06319  Biso   1.000  H
  H220     1.0000 0.48253  0.89522  0.11018  Biso   1.000  H
  C151     1.0000 0.57757  0.56176  0.71499  Biso   1.000  C
  C152     1.0000 0.61336  0.62467  0.67446  Biso   1.000  C
  H221     1.0000 0.51027  0.57228  0.71527  Biso   1.000  H
  H222     1.0000 0.60146  0.53205  0.69758  Biso   1.000  H
  H223     1.0000 0.59875  0.54184  0.75718  Biso   1.000  H
  C153     1.0000 0.71347  0.61286  0.67230  Biso   1.000  C
  H224     1.0000 0.58755  0.65497  0.69159  Biso   1.000  H
  H225     1.0000 0.59096  0.64476  0.63208  Biso   1.000  H
  C154     1.0000 0.74625  0.67436  0.63577  Biso   1.000  C
  H226     1.0000 0.73636  0.59078  0.71467  Biso   1.000  H
  H227     1.0000 0.73936  0.58444  0.65309  Biso   1.000  H
  O21      1.0000 0.84194  0.65944  0.63116  Biso   1.000  O
  H228     1.0000 0.72577  0.70137  0.65677  Biso   1.000  H
  H229     1.0000 0.72010  0.69834  0.59408  Biso   1.000  H
  C155     1.0000 0.88646  0.70866  0.60228  Biso   1.000  C
  C156     1.0000 0.98094  0.69207  0.59597  Biso   1.000  C
  C157     1.0000 0.84137  0.77436  0.57976  Biso   1.000  C
  C158     1.0000 0.02896  0.73944  0.56857  Biso   1.000  C
  C159     1.0000 0.03098  0.62278  0.61937  Biso   1.000  C
  C160     1.0000 0.88986  0.82132  0.55249  Biso   1.000  C
  H230     1.0000 0.77649  0.78597  0.58377  Biso   1.000  H
  C161     1.0000 0.98716  0.80224  0.54697  Biso   1.000  C
  H231     1.0000 0.09400  0.72774  0.56456  Biso   1.000  H
  H232     1.0000 0.98950  0.59883  0.61739  Biso   1.000  H
  C162     1.0000 0.06375  0.59128  0.68565  Biso   1.000  C
  H233     1.0000 0.08469  0.61976  0.59197  Biso   1.000  H
  C163     1.0000 0.83936  0.89024  0.53296  Biso   1.000  C
  O22      1.0000 0.03140  0.85226  0.51836  Biso   1.000  O
  C164     1.0000 0.14787  0.59206  0.69938  Biso   1.000  C
  C165     1.0000 0.00546  0.56194  0.73429  Biso   1.000  C
  C166     1.0000 0.83225  0.90456  0.58699  Biso   1.000  C
  H234     1.0000 0.87285  0.91895  0.49810  Biso   1.000  H
  H235     1.0000 0.77710  0.89764  0.51928  Biso   1.000  H
  C167     1.0000 0.12668  0.83425  0.52039  Biso   1.000  C
  O23      1.0000 0.20246  0.62337  0.64857  Biso   1.000  O
  C168     1.0000 0.17383  0.56550  0.75926  Biso   1.000  C
  H236     1.0000 0.94687  0.56178  0.72517  Biso   1.000  H
  C169     1.0000 0.02966  0.53286  0.79587  Biso   1.000  C
  C170     1.0000 0.90807  0.92155  0.59777  Biso   1.000  C
  C171     1.0000 0.75900  0.89723  0.62858  Biso   1.000  C
  H237     1.0000 0.14626  0.80696  0.56359  Biso   1.000  H
  H238     1.0000 0.15089  0.80956  0.49727  Biso   1.000  H
  C172     1.0000 0.16380  0.89364  0.49197  Biso   1.000  C
  C173     1.0000 0.28815  0.62167  0.65857  Biso   1.000  C
  H239     1.0000 0.23204  0.56757  0.76727  Biso   1.000  H
  C174     1.0000 0.11676  0.53507  0.80919  Biso   1.000  C
  O24      1.0000 0.97865  0.50259  0.84557  Biso   1.000  O
  C175     1.0000 0.90478  0.93064  0.65028  Biso   1.000  C
  H240     1.0000 0.95979  0.92665  0.57027  Biso   1.000  H
  O25      1.0000 0.68676  0.88165  0.61417  Biso   1.000  O
  C176     1.0000 0.75657  0.90917  0.67736  Biso   1.000  C
  H241     1.0000 0.14901  0.91814  0.44780  Biso   1.000  H
  H242     1.0000 0.13231  0.92064  0.51187  Biso   1.000  H
  C177     1.0000 0.26819  0.88014  0.49828  Biso   1.000  C
  H243     1.0000 0.28658  0.64338  0.68367  Biso   1.000  H
  H244     1.0000 0.32316  0.57697  0.68077  Biso   1.000  H
  C178     1.0000 0.33499  0.65735  0.59256  Biso   1.000  C
  C179     1.0000 0.14302  0.50848  0.87537  Biso   1.000  C
  C180     1.0000 0.88567  0.50627  0.83507  Biso   1.000  C
  O26      1.0000 0.97504  0.94806  0.66377  Biso   1.000  O
  C181     1.0000 0.83029  0.92555  0.68888  Biso   1.000  C
  C182     1.0000 0.60276  0.88717  0.64977  Biso   1.000  C
  H245     1.0000 0.70377  0.90614  0.70389  Biso   1.000  H
  H246     1.0000 0.29929  0.85345  0.47811  Biso   1.000  H
  H247     1.0000 0.28270  0.85485  0.54259  Biso   1.000  H
  C183     1.0000 0.30678  0.93574  0.47258  Biso   1.000  C
  H248     1.0000 0.35575  0.69046  0.59588  Biso   1.000  H
  H249     1.0000 0.28195  0.68096  0.56488  Biso   1.000  H
  C184     1.0000 0.38499  0.64404  0.56599  Biso   1.000  C
  H250     1.0000 0.21077  0.49436  0.87837  Biso   1.000  H
  H251     1.0000 0.11685  0.47089  0.90186  Biso   1.000  H
  C185     1.0000 0.10843  0.55780  0.89817  Biso   1.000  C
  H252     1.0000 0.84853  0.55047  0.82107  Biso   1.000  H
  H253     1.0000 0.88475  0.49349  0.80297  Biso   1.000  H
  C186     1.0000 0.84642  0.46138  0.89578  Biso   1.000  C
  C187     1.0000 0.05795  0.94855  0.62849  Biso   1.000  C
  C188     1.0000 0.82795  0.93656  0.74558  Biso   1.000  C
  H254     1.0000 0.61086  0.85478  0.69348  Biso   1.000  H
  H255     1.0000 0.58269  0.93004  0.64738  Biso   1.000  H
  C189     1.0000 0.53229  0.87547  0.61887  Biso   1.000  C
  H256     1.0000 0.37306  0.92214  0.47898  Biso   1.000  H
  H257     1.0000 0.29510  0.96053  0.42841  Biso   1.000  H
  H258     1.0000 0.27806  0.96215  0.49298  Biso   1.000  H
  H259     1.0000 0.43764  0.61648  0.59326  Biso   1.000  H
  H260     1.0000 0.36186  0.61747  0.55466  Biso   1.000  H
  C190     1.0000 0.41999  0.69204  0.50998  Biso   1.000  C
  C191     1.0000 0.16266  0.59578  0.89477  Biso   1.000  C
  C192     1.0000 0.02225  0.56650  0.92167  Biso   1.000  C
  H261     1.0000 0.85057  0.47318  0.92807  Biso   1.000  H
  H262     1.0000 0.88276  0.41707  0.90868  Biso   1.000  H
  C193     1.0000 0.74666  0.46536  0.88809  Biso   1.000  C
  H263     1.0000 0.07525  0.91138  0.62015  Biso   1.000  H
  H264     1.0000 0.05168  0.98803  0.58870  Biso   1.000  H
  C194     1.0000 0.12965  0.94517  0.66838  Biso   1.000  C
  C195     1.0000 0.87434  0.87646  0.80168  Biso   1.000  C
  H265     1.0000 0.76326  0.95065  0.75668  Biso   1.000  H
  H266     1.0000 0.85926  0.97117  0.73457  Biso   1.000  H
  H267     1.0000 0.54717  0.89074  0.57437  Biso   1.000  H
  H268     1.0000 0.46945  0.89875  0.62366  Biso   1.000  H
  C196     1.0000 0.53698  0.81107  0.64696  Biso   1.000  C
  H269     1.0000 0.45195  0.67206  0.48419  Biso   1.000  H
  H270     1.0000 0.36858  0.72693  0.48727  Biso   1.000  H
  H271     1.0000 0.46257  0.70865  0.52066  Biso   1.000  H
  O27      1.0000 0.25116  0.59030  0.86976  Biso   1.000  O
  C197     1.0000 0.12602  0.64271  0.91655  Biso   1.000  C
  C198     1.0000 0.98282  0.61209  0.94138  Biso   1.000  C
  H272     1.0000 0.98554  0.53908  0.92507  Biso   1.000  H
  H273     1.0000 0.71042  0.50947  0.87648  Biso   1.000  H
  H274     1.0000 0.74276  0.45568  0.85419  Biso   1.000  H
  C199     1.0000 0.70481  0.41861  0.94764  Biso   1.000  C
  H275     1.0000 0.13793  0.90358  0.70597  Biso   1.000  H
  H276     1.0000 0.10544  0.97886  0.68128  Biso   1.000  H
  C200     1.0000 0.22175  0.95284  0.63729  Biso   1.000  C
  C201     1.0000 0.96295  0.86499  0.81416  Biso   1.000  C
  C202     1.0000 0.81964  0.83265  0.84249  Biso   1.000  C
  H277     1.0000 0.60038  0.78695  0.64438  Biso   1.000  H
  H278     1.0000 0.51826  0.79555  0.69136  Biso   1.000  H
  C203     1.0000 0.46197  0.80304  0.60698  Biso   1.000  C
  C204     1.0000 0.31764  0.62327  0.86589  Biso   1.000  C
  H279     1.0000 0.16425  0.66827  0.91517  Biso   1.000  H
  C205     1.0000 0.03517  0.65137  0.93977  Biso   1.000  C
  O28      1.0000 0.89476  0.62300  0.96344  Biso   1.000  O
  H280     1.0000 0.64041  0.42299  0.94106  Biso   1.000  H
  H281     1.0000 0.73920  0.37479  0.95847  Biso   1.000  H
  H282     1.0000 0.70826  0.42817  0.98118  Biso   1.000  H
  H283     1.0000 0.24475  0.92096  0.62177  Biso   1.000  H
  H284     1.0000 0.21499  0.99575  0.60136  Biso   1.000  H
  C206     1.0000 0.29156  0.94427  0.68077  Biso   1.000  C
  H285     1.0000 0.99827  0.89478  0.78735  Biso   1.000  H
  C207     1.0000 0.00384  0.81139  0.86455  Biso   1.000  C
  O29      1.0000 0.73037  0.84698  0.82756  Biso   1.000  O
  C208     1.0000 0.85953  0.77767  0.89408  Biso   1.000  C
  H286     1.0000 0.44708  0.76154  0.63098  Biso   1.000  H
  H287     1.0000 0.40519  0.83695  0.60026  Biso   1.000  H
  H288     1.0000 0.48988  0.80777  0.56746  Biso   1.000  H
  H289     1.0000 0.33144  0.61327  0.90785  Biso   1.000  H
  H290     1.0000 0.29202  0.66977  0.84286  Biso   1.000  H
  C209     1.0000 0.39726  0.60677  0.83696  Biso   1.000  C
  C210     1.0000 0.00075  0.70290  0.95796  Biso   1.000  C
  C211     1.0000 0.83433  0.58759  0.95925  Biso   1.000  C
  H291     1.0000 0.35046  0.95008  0.65875  Biso   1.000  H
  H292     1.0000 0.26918  0.97596  0.69597  Biso   1.000  H
  H293     1.0000 0.29988  0.90138  0.71568  Biso   1.000  H
  C212     1.0000 0.95492  0.76417  0.90628  Biso   1.000  C
  O30      1.0000 0.09441  0.79699  0.87915  Biso   1.000  O
  C213     1.0000 0.67023  0.81136  0.87086  Biso   1.000  C
  H294     1.0000 0.82304  0.74886  0.92148  Biso   1.000  H
  H295     1.0000 0.40615  0.56190  0.84567  Biso   1.000  H
  H296     1.0000 0.39096  0.63378  0.79187  Biso   1.000  H
  C214     1.0000 0.47695  0.61356  0.85598  Biso   1.000  C
  H297     1.0000 0.95654  0.68947  0.99297  Biso   1.000  H
  H298     1.0000 0.05283  0.70968  0.97187  Biso   1.000  H
  H299     1.0000 0.83176  0.59620  0.91605  Biso   1.000  H
  H300     1.0000 0.85752  0.54121  0.98495  Biso   1.000  H
  C215     1.0000 0.74044  0.60998  0.98214  Biso   1.000  C
  C216     1.0000 0.13284  0.84946  0.85999  Biso   1.000  C
  H301     1.0000 0.69296  0.76589  0.88109  Biso   1.000  H
  H302     1.0000 0.66773  0.81499  0.90918  Biso   1.000  H
  C217     1.0000 0.57403  0.83635  0.84428  Biso   1.000  C
  H303     1.0000 0.47293  0.60259  0.89988  Biso   1.000  H
  H304     1.0000 0.53386  0.58598  0.84815  Biso   1.000  H
  C218     1.0000 0.47791  0.68039  0.81697  Biso   1.000  C
  H305     1.0000 0.71534  0.65536  0.95368  Biso   1.000  H
  C219     1.0000 0.67725  0.57117  0.98638  Biso   1.000  C
  H306     1.0000 0.74534  0.60619  0.02332  Biso   1.000  H
  H307     1.0000 0.14395  0.86889  0.81476  Biso   1.000  H
  H308     1.0000 0.08958  0.88198  0.86976  Biso   1.000  H
  C220     1.0000 0.22063  0.82858  0.89159  Biso   1.000  C
  H309     1.0000 0.53314  0.80899  0.87326  Biso   1.000  H
  H310     1.0000 0.57713  0.83448  0.80495  Biso   1.000  H
  C221     1.0000 0.53575  0.90279  0.83346  Biso   1.000  C
  H311     1.0000 0.53063  0.68947  0.82715  Biso   1.000  H
  H312     1.0000 0.48163  0.69026  0.77386  Biso   1.000  H
  H313     1.0000 0.42098  0.70677  0.82517  Biso   1.000  H
  H314     1.0000 0.67332  0.57490  0.94516  Biso   1.000  H
  H315     1.0000 0.70328  0.52578  0.01461  Biso   1.000  H
  C222     1.0000 0.57759  0.59169  0.01010  Biso   1.000  C
  H316     1.0000 0.20427  0.83239  0.93005  Biso   1.000  H
  H317     1.0000 0.25575  0.86146  0.86538  Biso   1.000  H
  C223     1.0000 0.27997  0.77407  0.90697  Biso   1.000  C
  H318     1.0000 0.52981  0.90410  0.87326  Biso   1.000  H
  H319     1.0000 0.57854  0.92959  0.80638  Biso   1.000  H
  C224     1.0000 0.44103  0.93017  0.80357  Biso   1.000  C
  H320     1.0000 0.55066  0.63628  0.98187  Biso   1.000  H
  H321     1.0000 0.53934  0.56449  0.01181  Biso   1.000  H
  H322     1.0000 0.58066  0.58707  0.05132  Biso   1.000  H
  H323     1.0000 0.24502  0.73991  0.93055  Biso   1.000  H
  H324     1.0000 0.30292  0.77106  0.86879  Biso   1.000  H
  C225     1.0000 0.36256  0.75609  0.94479  Biso   1.000  C
  H325     1.0000 0.41769  0.97408  0.79707  Biso   1.000  H
  H326     1.0000 0.44708  0.92966  0.76377  Biso   1.000  H
  H327     1.0000 0.39835  0.90418  0.83065  Biso   1.000  H
  H328     1.0000 0.40495  0.71767  0.94539  Biso   1.000  H
  H329     1.0000 0.39375  0.79129  0.92627  Biso   1.000  H
  H330     1.0000 0.34251  0.74780  0.98698  Biso   1.000  H
  C226     1.0000 0.42238  0.43831  0.28497  Biso   1.000  C
  C227     1.0000 0.38658  0.37544  0.32551  Biso   1.000  C
  H331     1.0000 0.48966  0.42783  0.28470  Biso   1.000  H
  H332     1.0000 0.39849  0.46802  0.30239  Biso   1.000  H
  H333     1.0000 0.40120  0.45823  0.24278  Biso   1.000  H
  C228     1.0000 0.28646  0.38725  0.32767  Biso   1.000  C
  H334     1.0000 0.41238  0.34514  0.30837  Biso   1.000  H
  H335     1.0000 0.40898  0.35535  0.36788  Biso   1.000  H
  C229     1.0000 0.25370  0.32571  0.36420  Biso   1.000  C
  H336     1.0000 0.26358  0.40933  0.28530  Biso   1.000  H
  H337     1.0000 0.26060  0.41563  0.34688  Biso   1.000  H
  O31      1.0000 0.15795  0.34062  0.36880  Biso   1.000  O
  H338     1.0000 0.27417  0.29874  0.34319  Biso   1.000  H
  H339     1.0000 0.27985  0.30173  0.40588  Biso   1.000  H
  C230     1.0000 0.11347  0.29145  0.39768  Biso   1.000  C
  C231     1.0000 0.15859  0.22571  0.42021  Biso   1.000  C
  C232     1.0000 0.01899  0.30804  0.40399  Biso   1.000  C
  C233     1.0000 0.11009  0.17875  0.44748  Biso   1.000  C
  H340     1.0000 0.22344  0.21414  0.41620  Biso   1.000  H
  C234     1.0000 0.97100  0.26063  0.43140  Biso   1.000  C
  C235     1.0000 0.96896  0.37733  0.38060  Biso   1.000  C
  C236     1.0000 0.16059  0.10983  0.46700  Biso   1.000  C
  C237     1.0000 0.01279  0.19783  0.45300  Biso   1.000  C
  H341     1.0000 0.90595  0.27235  0.43536  Biso   1.000  H
  H342     1.0000 0.01045  0.40124  0.38258  Biso   1.000  H
  C238     1.0000 0.93619  0.40885  0.31427  Biso   1.000  C
  H343     1.0000 0.91526  0.38031  0.40800  Biso   1.000  H
  C239     1.0000 0.16768  0.09555  0.41298  Biso   1.000  C
  H344     1.0000 0.12708  0.08116  0.50187  Biso   1.000  H
  H345     1.0000 0.22286  0.10243  0.48068  Biso   1.000  H
  O32      1.0000 0.96856  0.14783  0.48156  Biso   1.000  O
  C240     1.0000 0.85208  0.40801  0.30059  Biso   1.000  C
  C241     1.0000 0.99450  0.43813  0.26568  Biso   1.000  C
  C242     1.0000 0.24095  0.10283  0.37138  Biso   1.000  C
  C243     1.0000 0.09188  0.07852  0.40220  Biso   1.000  C
  C244     1.0000 0.87325  0.16586  0.47958  Biso   1.000  C
  O33      1.0000 0.79747  0.37674  0.35139  Biso   1.000  O
  C245     1.0000 0.82610  0.43462  0.24071  Biso   1.000  C
  H346     1.0000 0.05307  0.43833  0.27480  Biso   1.000  H
  C246     1.0000 0.97029  0.46721  0.20409  Biso   1.000  C
  O34      1.0000 0.31319  0.11842  0.38580  Biso   1.000  O
  C247     1.0000 0.24339  0.09090  0.32261  Biso   1.000  C
  C248     1.0000 0.09517  0.06943  0.34969  Biso   1.000  C
  H347     1.0000 0.04016  0.07342  0.42970  Biso   1.000  H
  H348     1.0000 0.85368  0.19315  0.43637  Biso   1.000  H
  H349     1.0000 0.84905  0.19055  0.50270  Biso   1.000  H
  C249     1.0000 0.83615  0.10643  0.50800  Biso   1.000  C
  C250     1.0000 0.71178  0.37844  0.34140  Biso   1.000  C
  H350     1.0000 0.76789  0.43254  0.23270  Biso   1.000  H
  C251     1.0000 0.88319  0.46500  0.19078  Biso   1.000  C
  O35      1.0000 0.02128  0.49752  0.15439  Biso   1.000  O
  C252     1.0000 0.39717  0.11294  0.35020  Biso   1.000  C
  C253     1.0000 0.16966  0.07452  0.31109  Biso   1.000  C
  H351     1.0000 0.29618  0.09393  0.29608  Biso   1.000  H
  O36      1.0000 0.02491  0.05201  0.33619  Biso   1.000  O
  H352     1.0000 0.85092  0.08197  0.55217  Biso   1.000  H
  H353     1.0000 0.86765  0.07943  0.48810  Biso   1.000  H
  C254     1.0000 0.73176  0.11993  0.50169  Biso   1.000  C
  H354     1.0000 0.71336  0.35673  0.31630  Biso   1.000  H
  H355     1.0000 0.67680  0.42310  0.31920  Biso   1.000  H
  C255     1.0000 0.66497  0.34272  0.40740  Biso   1.000  C
  C256     1.0000 0.85694  0.49159  0.12459  Biso   1.000  C
  C257     1.0000 0.11428  0.49380  0.16490  Biso   1.000  C
  H356     1.0000 0.38907  0.14533  0.30648  Biso   1.000  H
  H357     1.0000 0.41726  0.07003  0.35259  Biso   1.000  H
  C258     1.0000 0.46764  0.12464  0.38110  Biso   1.000  C
  C259     1.0000 0.17200  0.06351  0.25439  Biso   1.000  C
  C260     1.0000 0.94198  0.05156  0.37148  Biso   1.000  C
  H358     1.0000 0.70064  0.14666  0.52186  Biso   1.000  H
  H359     1.0000 0.71723  0.14526  0.45738  Biso   1.000  H
  C261     1.0000 0.69317  0.06433  0.52739  Biso   1.000  C
  H360     1.0000 0.64418  0.30965  0.40409  Biso   1.000  H
  H361     1.0000 0.71799  0.31915  0.43508  Biso   1.000  H
  C262     1.0000 0.61496  0.35603  0.43398  Biso   1.000  C
  C263     1.0000 0.89150  0.44232  0.10179  Biso   1.000  C
  H362     1.0000 0.78918  0.50571  0.12160  Biso   1.000  H
  H363     1.0000 0.88308  0.52922  0.09811  Biso   1.000  H
  H364     1.0000 0.15142  0.44960  0.17890  Biso   1.000  H
  H365     1.0000 0.11518  0.50662  0.19700  Biso   1.000  H
  C264     1.0000 0.15354  0.53869  0.10419  Biso   1.000  C
  H366     1.0000 0.45278  0.10933  0.42560  Biso   1.000  H
  H367     1.0000 0.53044  0.10134  0.37627  Biso   1.000  H
  C265     1.0000 0.46296  0.18904  0.35301  Biso   1.000  C
  C266     1.0000 0.12561  0.12361  0.19829  Biso   1.000  C
  H368     1.0000 0.23669  0.04942  0.24329  Biso   1.000  H
  H369     1.0000 0.14067  0.02894  0.26540  Biso   1.000  H
  H370     1.0000 0.92469  0.08876  0.37977  Biso   1.000  H
  H371     1.0000 0.94827  0.01203  0.41127  Biso   1.000  H
  C267     1.0000 0.87029  0.05494  0.33159  Biso   1.000  C
  H372     1.0000 0.62689  0.07793  0.52099  Biso   1.000  H
  H373     1.0000 0.70484  0.03958  0.57156  Biso   1.000  H
  H374     1.0000 0.72187  0.03797  0.50698  Biso   1.000  H
  H375     1.0000 0.56230  0.38366  0.40667  Biso   1.000  H
  H376     1.0000 0.63808  0.38267  0.44526  Biso   1.000  H
  C268     1.0000 0.57996  0.30802  0.48999  Biso   1.000  C
  C269     1.0000 0.97768  0.43362  0.07830  Biso   1.000  C
  C270     1.0000 0.83729  0.40429  0.10520  Biso   1.000  C
  H377     1.0000 0.14939  0.52689  0.07190  Biso   1.000  H
  H378     1.0000 0.11720  0.58300  0.09129  Biso   1.000  H
  C271     1.0000 0.25329  0.53471  0.11188  Biso   1.000  C
  H379     1.0000 0.39958  0.21312  0.35558  Biso   1.000  H
  H380     1.0000 0.48169  0.20452  0.30860  Biso   1.000  H
  C272     1.0000 0.53798  0.19703  0.39299  Biso   1.000  C
  C273     1.0000 0.03698  0.13512  0.18581  Biso   1.000  C
  C274     1.0000 0.18031  0.16742  0.15748  Biso   1.000  C
  H381     1.0000 0.86194  0.09653  0.29400  Biso   1.000  H
  H382     1.0000 0.89451  0.02121  0.31869  Biso   1.000  H
  C275     1.0000 0.77820  0.04723  0.36268  Biso   1.000  C
  H383     1.0000 0.54798  0.32805  0.51578  Biso   1.000  H
  H384     1.0000 0.63137  0.27314  0.51270  Biso   1.000  H
  H385     1.0000 0.53739  0.29142  0.47930  Biso   1.000  H
  C276     1.0000 0.01712  0.38802  0.05859  Biso   1.000  C
  H386     1.0000 0.01442  0.46099  0.07489  Biso   1.000  H
  C277     1.0000 0.87391  0.35740  0.08342  Biso   1.000  C
  O37      1.0000 0.74877  0.40981  0.13021  Biso   1.000  O
  H387     1.0000 0.28953  0.49060  0.12349  Biso   1.000  H
  H388     1.0000 0.25717  0.54443  0.14578  Biso   1.000  H
  C278     1.0000 0.29512  0.58152  0.05228  Biso   1.000  C
  H389     1.0000 0.55287  0.23853  0.36899  Biso   1.000  H
  H390     1.0000 0.59476  0.16314  0.39966  Biso   1.000  H
  H391     1.0000 0.51006  0.19234  0.43251  Biso   1.000  H
  H392     1.0000 0.00169  0.10529  0.21261  Biso   1.000  H
  C279     1.0000 0.99611  0.18868  0.13542  Biso   1.000  C
  O38      1.0000 0.26957  0.15313  0.17240  Biso   1.000  O
  C280     1.0000 0.14042  0.22240  0.10589  Biso   1.000  C
  H393     1.0000 0.75520  0.07911  0.37820  Biso   1.000  H
  H394     1.0000 0.78497  0.00432  0.39861  Biso   1.000  H
  C281     1.0000 0.70838  0.05584  0.31920  Biso   1.000  C
  C282     1.0000 0.96479  0.34870  0.06020  Biso   1.000  C
  O39      1.0000 0.10520  0.37709  0.03648  Biso   1.000  O
  H395     1.0000 0.83570  0.33180  0.08480  Biso   1.000  H
  C283     1.0000 0.68231  0.37680  0.13408  Biso   1.000  C
  H396     1.0000 0.35954  0.57708  0.05891  Biso   1.000  H
  H397     1.0000 0.26073  0.62532  0.04150  Biso   1.000  H
  H398     1.0000 0.29169  0.57190  0.01879  Biso   1.000  H
  C284     1.0000 0.04503  0.23589  0.09369  Biso   1.000  C
  O40      1.0000 0.90552  0.20312  0.12082  Biso   1.000  O
  C285     1.0000 0.32972  0.18870  0.12911  Biso   1.000  C
  H399     1.0000 0.17692  0.25121  0.07849  Biso   1.000  H
  H400     1.0000 0.64948  0.05005  0.34117  Biso   1.000  H
  H401     1.0000 0.73077  0.02411  0.30400  Biso   1.000  H
  H402     1.0000 0.70005  0.09873  0.28428  Biso   1.000  H
  C286     1.0000 0.99919  0.29722  0.04201  Biso   1.000  C
  C287     1.0000 0.16563  0.41247  0.04072  Biso   1.000  C
  H403     1.0000 0.66852  0.38682  0.09207  Biso   1.000  H
  H404     1.0000 0.70787  0.33030  0.15711  Biso   1.000  H
  C288     1.0000 0.60269  0.39329  0.16301  Biso   1.000  C
  C289     1.0000 0.86711  0.15061  0.13998  Biso   1.000  C
  H405     1.0000 0.30698  0.23423  0.11888  Biso   1.000  H
  H406     1.0000 0.33221  0.18512  0.09078  Biso   1.000  H
  C290     1.0000 0.42592  0.16371  0.15568  Biso   1.000  C
  H407     1.0000 0.04341  0.31060  0.00700  Biso   1.000  H
  H408     1.0000 0.94712  0.29039  0.02810  Biso   1.000  H
  H409     1.0000 0.16818  0.40393  0.08388  Biso   1.000  H
  H410     1.0000 0.14242  0.45890  0.01502  Biso   1.000  H
  C291     1.0000 0.25951  0.39011  0.01778  Biso   1.000  C
  H411     1.0000 0.59378  0.43822  0.15430  Biso   1.000  H
  H412     1.0000 0.60897  0.36633  0.20810  Biso   1.000  H
  C292     1.0000 0.52300  0.38651  0.14398  Biso   1.000  C
  H413     1.0000 0.85598  0.13123  0.18521  Biso   1.000  H
  H414     1.0000 0.91038  0.11809  0.13021  Biso   1.000  H
  C293     1.0000 0.77930  0.17154  0.10838  Biso   1.000  C
  H415     1.0000 0.46679  0.19112  0.12671  Biso   1.000  H
  H416     1.0000 0.42282  0.16561  0.19497  Biso   1.000  H
  C294     1.0000 0.46418  0.09732  0.16651  Biso   1.000  C
  H417     1.0000 0.28461  0.34471  0.04629  Biso   1.000  H
  C295     1.0000 0.32270  0.42889  0.01359  Biso   1.000  C
  H418     1.0000 0.25460  0.39392  0.97665  Biso   1.000  H
  H419     1.0000 0.52701  0.39752  0.10009  Biso   1.000  H
  H420     1.0000 0.46609  0.41409  0.15181  Biso   1.000  H
  C296     1.0000 0.52202  0.31972  0.18300  Biso   1.000  C
  H421     1.0000 0.79569  0.16768  0.06992  Biso   1.000  H
  H422     1.0000 0.74421  0.13861  0.13459  Biso   1.000  H
  C297     1.0000 0.71998  0.22600  0.09300  Biso   1.000  C
  H423     1.0000 0.47012  0.09601  0.12671  Biso   1.000  H
  H424     1.0000 0.42139  0.07052  0.19359  Biso   1.000  H
  C298     1.0000 0.55892  0.06990  0.19640  Biso   1.000  C
  H425     1.0000 0.32661  0.42521  0.05481  Biso   1.000  H
  H426     1.0000 0.29668  0.47429  0.98535  Biso   1.000  H
  C299     1.0000 0.42237  0.40838  0.98987  Biso   1.000  C
  H427     1.0000 0.46932  0.31063  0.17277  Biso   1.000  H
  H428     1.0000 0.51832  0.30981  0.22611  Biso   1.000  H
  H429     1.0000 0.57898  0.29330  0.17480  Biso   1.000  H
  H430     1.0000 0.75492  0.26020  0.06941  Biso   1.000  H
  H431     1.0000 0.69697  0.22901  0.13118  Biso   1.000  H
  C300     1.0000 0.63738  0.24403  0.05518  Biso   1.000  C
  H432     1.0000 0.58225  0.02604  0.20290  Biso   1.000  H
  H433     1.0000 0.55287  0.07041  0.23620  Biso   1.000  H
  H434     1.0000 0.60161  0.09591  0.16927  Biso   1.000  H
  H435     1.0000 0.44929  0.36379  0.01810  Biso   1.000  H
  H436     1.0000 0.46059  0.43562  0.98816  Biso   1.000  H
  H437     1.0000 0.41930  0.41300  0.94864  Biso   1.000  H
  H438     1.0000 0.59501  0.28240  0.05458  Biso   1.000  H
  H439     1.0000 0.60619  0.20882  0.07370  Biso   1.000  H
  H440     1.0000 0.65743  0.25231  0.01299  Biso   1.000  H
  Ne1      1.0000 0.03222  0.26865  0.25203  Biso   1.000  Ne
  He1      1.0000 0.65652  0.21822  0.32524  Biso   1.000  He
  He2      1.0000 0.39267  0.32961  0.19126  Biso   1.000  He
  Ar1      1.0000 0.03178  0.26977  0.25098  Biso   1.000  Ar
  Ne2      1.0000 0.03506  0.77135  0.25176  Biso   1.000  Ne
  He3      1.0000 0.66795  0.72844  0.32320  Biso   1.000  He
  He4      1.0000 0.47762  0.86929  0.16893  Biso   1.000  He
  Ar2      1.0000 0.03557  0.76964  0.25394  Biso   1.000  Ar
  Ne3      1.0000 0.96488  0.22874  0.74820  Biso   1.000  Ne
  He5      1.0000 0.73853  0.19048  0.78771  Biso   1.000  He
  He6      1.0000 0.33203  0.27164  0.67676  Biso   1.000  He
  Ar3      1.0000 0.96485  0.22890  0.74821  Biso   1.000  Ar
  Ne4      1.0000 0.96772  0.73144  0.74793  Biso   1.000  Ne
  He7      1.0000 0.73011  0.70328  0.78725  Biso   1.000  He
  He8      1.0000 0.33515  0.77888  0.67772  Biso   1.000  He
  Ar4      1.0000 0.96817  0.73029  0.74899  Biso   1.000  Ar
