data_image0
_cell_length_a       24.172
_cell_length_b       24.172
_cell_length_c       24.172
_cell_angle_alpha    90
_cell_angle_beta     90
_cell_angle_gamma    90

_symmetry_space_group_name_H-M    "P 1"
_symmetry_int_tables_number       1

loop_
  _symmetry_equiv_pos_as_xyz
  'x, y, z'

loop_
  _atom_site_label
  _atom_site_occupancy
  _atom_site_fract_x
  _atom_site_fract_y
  _atom_site_fract_z
  _atom_site_thermal_displace_type
  _atom_site_B_iso_or_equiv
  _atom_site_type_symbol
  C1       1.0000 0.53351  0.30568  0.42570  Biso   1.000  C
  N1       1.0000 0.54749  0.26998  0.46182  Biso   1.000  N
  H1       1.0000 0.49992  0.30060  0.40609  Biso   1.000  H
  C2       1.0000 0.56752  0.35442  0.41341  Biso   1.000  C
  C3       1.0000 0.51059  0.22369  0.47079  Biso   1.000  C
  C4       1.0000 0.61302  0.36749  0.44539  Biso   1.000  C
  C5       1.0000 0.55461  0.38702  0.36749  Biso   1.000  C
  H2       1.0000 0.47299  0.22898  0.44800  Biso   1.000  H
  C6       1.0000 0.54058  0.16730  0.46471  Biso   1.000  C
  C7       1.0000 0.48941  0.22369  0.52921  Biso   1.000  C
  C8       1.0000 0.64562  0.41341  0.43248  Biso   1.000  C
  H3       1.0000 0.62212  0.34519  0.47650  Biso   1.000  H
  H4       1.0000 0.52350  0.37792  0.34519  Biso   1.000  H
  C9       1.0000 0.58659  0.43248  0.35442  Biso   1.000  C
  H5       1.0000 0.55961  0.16639  0.42851  Biso   1.000  H
  H6       1.0000 0.56930  0.16449  0.49379  Biso   1.000  H
  C10      1.0000 0.50302  0.11762  0.46889  Biso   1.000  C
  H7       1.0000 0.57831  0.16829  0.48080  Biso   1.000  H
  H8       1.0000 0.54261  0.15530  0.42562  Biso   1.000  H
  C11      1.0000 0.50000  0.12912  0.50000  Biso   1.000  C
  N2       1.0000 0.45251  0.26998  0.53818  Biso   1.000  N
  H9       1.0000 0.52701  0.22898  0.55200  Biso   1.000  H
  C12      1.0000 0.45942  0.16730  0.53529  Biso   1.000  C
  C13      1.0000 0.69432  0.42570  0.46649  Biso   1.000  C
  C14      1.0000 0.63251  0.44539  0.38702  Biso   1.000  C
  C15      1.0000 0.57430  0.46649  0.30568  Biso   1.000  C
  H10      1.0000 0.52081  0.08340  0.45491  Biso   1.000  H
  H11      1.0000 0.46732  0.12349  0.44982  Biso   1.000  H
  C16      1.0000 0.49702  0.11762  0.53111  Biso   1.000  C
  H12      1.0000 0.47820  0.10508  0.47489  Biso   1.000  H
  H13      1.0000 0.52180  0.10508  0.52511  Biso   1.000  H
  C17      1.0000 0.46649  0.30568  0.57430  Biso   1.000  C
  H14      1.0000 0.44039  0.16639  0.57149  Biso   1.000  H
  H15      1.0000 0.43070  0.16449  0.50621  Biso   1.000  H
  H16      1.0000 0.42169  0.16829  0.51920  Biso   1.000  H
  H17      1.0000 0.45739  0.15530  0.57442  Biso   1.000  H
  N3       1.0000 0.73002  0.46182  0.45251  Biso   1.000  N
  H18      1.0000 0.69940  0.40609  0.50012  Biso   1.000  H
  H19      1.0000 0.65481  0.47650  0.37792  Biso   1.000  H
  N4       1.0000 0.53818  0.45251  0.26998  Biso   1.000  N
  H20      1.0000 0.59391  0.50012  0.30060  Biso   1.000  H
  H21      1.0000 0.47919  0.08340  0.54509  Biso   1.000  H
  H22      1.0000 0.53272  0.12349  0.55022  Biso   1.000  H
  H23      1.0000 0.50012  0.30060  0.59391  Biso   1.000  H
  C18      1.0000 0.43248  0.35442  0.58659  Biso   1.000  C
  C19      1.0000 0.77631  0.47079  0.48941  Biso   1.000  C
  C20      1.0000 0.52921  0.48941  0.22369  Biso   1.000  C
  C21      1.0000 0.38702  0.36749  0.55461  Biso   1.000  C
  C22      1.0000 0.44539  0.38702  0.63251  Biso   1.000  C
  C23      1.0000 0.77631  0.52921  0.51059  Biso   1.000  C
  H24      1.0000 0.77102  0.44800  0.52701  Biso   1.000  H
  C24      1.0000 0.83270  0.46471  0.45942  Biso   1.000  C
  C25      1.0000 0.47079  0.51059  0.22369  Biso   1.000  C
  H25      1.0000 0.55200  0.52701  0.22898  Biso   1.000  H
  C26      1.0000 0.53529  0.45942  0.16730  Biso   1.000  C
  H26      1.0000 0.37792  0.34519  0.52350  Biso   1.000  H
  C27      1.0000 0.35442  0.41341  0.56752  Biso   1.000  C
  H27      1.0000 0.47650  0.37792  0.65481  Biso   1.000  H
  C28      1.0000 0.41341  0.43248  0.64562  Biso   1.000  C
  N5       1.0000 0.73002  0.53818  0.54749  Biso   1.000  N
  H28      1.0000 0.77102  0.55200  0.47299  Biso   1.000  H
  C29      1.0000 0.83270  0.53529  0.54058  Biso   1.000  C
  H29      1.0000 0.83361  0.42851  0.44039  Biso   1.000  H
  H30      1.0000 0.83551  0.49379  0.43070  Biso   1.000  H
  C30      1.0000 0.88243  0.46889  0.49702  Biso   1.000  C
  C31      1.0000 0.87093  0.50000  0.50000  Biso   1.000  C
  H31      1.0000 0.83171  0.48080  0.42169  Biso   1.000  H
  H32      1.0000 0.84470  0.42562  0.45739  Biso   1.000  H
  N6       1.0000 0.46182  0.54749  0.26998  Biso   1.000  N
  H33      1.0000 0.44800  0.47299  0.22898  Biso   1.000  H
  C32      1.0000 0.46471  0.54058  0.16730  Biso   1.000  C
  H34      1.0000 0.57149  0.44039  0.16639  Biso   1.000  H
  H35      1.0000 0.50621  0.43070  0.16449  Biso   1.000  H
  C33      1.0000 0.53111  0.49702  0.11762  Biso   1.000  C
  C34      1.0000 0.50000  0.50000  0.12912  Biso   1.000  C
  H36      1.0000 0.51920  0.42169  0.16829  Biso   1.000  H
  H37      1.0000 0.57442  0.45739  0.15530  Biso   1.000  H
  C35      1.0000 0.30568  0.42570  0.53351  Biso   1.000  C
  C36      1.0000 0.36749  0.44539  0.61302  Biso   1.000  C
  C37      1.0000 0.42570  0.46649  0.69432  Biso   1.000  C
  C38      1.0000 0.69432  0.57430  0.53351  Biso   1.000  C
  H38      1.0000 0.83361  0.57149  0.55961  Biso   1.000  H
  H39      1.0000 0.83551  0.50621  0.56930  Biso   1.000  H
  C39      1.0000 0.88243  0.53111  0.50302  Biso   1.000  C
  H40      1.0000 0.83171  0.51920  0.57831  Biso   1.000  H
  H41      1.0000 0.84470  0.57442  0.54261  Biso   1.000  H
  H42      1.0000 0.91660  0.45491  0.47919  Biso   1.000  H
  H43      1.0000 0.87651  0.44982  0.53272  Biso   1.000  H
  H44      1.0000 0.89492  0.47489  0.52180  Biso   1.000  H
  H45      1.0000 0.89492  0.52511  0.47820  Biso   1.000  H
  C40      1.0000 0.42570  0.53351  0.30568  Biso   1.000  C
  H46      1.0000 0.42851  0.55961  0.16639  Biso   1.000  H
  H47      1.0000 0.49379  0.56930  0.16449  Biso   1.000  H
  C41      1.0000 0.46889  0.50302  0.11762  Biso   1.000  C
  H48      1.0000 0.48080  0.57831  0.16829  Biso   1.000  H
  H49      1.0000 0.42562  0.54261  0.15530  Biso   1.000  H
  H50      1.0000 0.54509  0.47919  0.08340  Biso   1.000  H
  H51      1.0000 0.55022  0.53272  0.12349  Biso   1.000  H
  H52      1.0000 0.52511  0.52180  0.10508  Biso   1.000  H
  H53      1.0000 0.47489  0.47820  0.10508  Biso   1.000  H
  N7       1.0000 0.26998  0.46182  0.54749  Biso   1.000  N
  H54      1.0000 0.30060  0.40609  0.49992  Biso   1.000  H
  H55      1.0000 0.34519  0.47650  0.62212  Biso   1.000  H
  N8       1.0000 0.46182  0.45251  0.73002  Biso   1.000  N
  H56      1.0000 0.40609  0.50012  0.69940  Biso   1.000  H
  H57      1.0000 0.69940  0.59391  0.49992  Biso   1.000  H
  C42      1.0000 0.64562  0.58659  0.56752  Biso   1.000  C
  H58      1.0000 0.91660  0.54509  0.52081  Biso   1.000  H
  H59      1.0000 0.87651  0.55022  0.46732  Biso   1.000  H
  H60      1.0000 0.40609  0.49992  0.30060  Biso   1.000  H
  C43      1.0000 0.41341  0.56752  0.35442  Biso   1.000  C
  H61      1.0000 0.45491  0.52081  0.08340  Biso   1.000  H
  H62      1.0000 0.44982  0.46732  0.12349  Biso   1.000  H
  C44      1.0000 0.22369  0.47079  0.51059  Biso   1.000  C
  C45      1.0000 0.47079  0.48941  0.77631  Biso   1.000  C
  C46      1.0000 0.63251  0.55461  0.61302  Biso   1.000  C
  C47      1.0000 0.61302  0.63251  0.55461  Biso   1.000  C
  C48      1.0000 0.44539  0.61302  0.36749  Biso   1.000  C
  C49      1.0000 0.36749  0.55461  0.38702  Biso   1.000  C
  H63      1.0000 0.22898  0.44800  0.47299  Biso   1.000  H
  C50      1.0000 0.16730  0.46471  0.54058  Biso   1.000  C
  C51      1.0000 0.22369  0.52921  0.48941  Biso   1.000  C
  C52      1.0000 0.52921  0.51059  0.77631  Biso   1.000  C
  H64      1.0000 0.44800  0.52701  0.77102  Biso   1.000  H
  C53      1.0000 0.46471  0.45942  0.83270  Biso   1.000  C
  H65      1.0000 0.65481  0.52350  0.62212  Biso   1.000  H
  C54      1.0000 0.58659  0.56752  0.64562  Biso   1.000  C
  H66      1.0000 0.62212  0.65481  0.52350  Biso   1.000  H
  C55      1.0000 0.56752  0.64562  0.58659  Biso   1.000  C
  C56      1.0000 0.43248  0.64562  0.41341  Biso   1.000  C
  H67      1.0000 0.47650  0.62212  0.34519  Biso   1.000  H
  H68      1.0000 0.34519  0.52350  0.37792  Biso   1.000  H
  C57      1.0000 0.35442  0.58659  0.43248  Biso   1.000  C
  H69      1.0000 0.16639  0.42851  0.55961  Biso   1.000  H
  H70      1.0000 0.16449  0.49379  0.56930  Biso   1.000  H
  C58      1.0000 0.11762  0.46889  0.50302  Biso   1.000  C
  H71      1.0000 0.16829  0.48080  0.57831  Biso   1.000  H
  H72      1.0000 0.15530  0.42562  0.54261  Biso   1.000  H
  C59      1.0000 0.12912  0.50000  0.50000  Biso   1.000  C
  N9       1.0000 0.26998  0.53818  0.45251  Biso   1.000  N
  H73      1.0000 0.22898  0.55200  0.52701  Biso   1.000  H
  C60      1.0000 0.16730  0.53529  0.45942  Biso   1.000  C
  N10      1.0000 0.53818  0.54749  0.73002  Biso   1.000  N
  H74      1.0000 0.55200  0.47299  0.77102  Biso   1.000  H
  C61      1.0000 0.53529  0.54058  0.83270  Biso   1.000  C
  H75      1.0000 0.42851  0.44039  0.83361  Biso   1.000  H
  H76      1.0000 0.49379  0.43070  0.83551  Biso   1.000  H
  C62      1.0000 0.46889  0.49702  0.88243  Biso   1.000  C
  C63      1.0000 0.50000  0.50000  0.87093  Biso   1.000  C
  H77      1.0000 0.48080  0.42169  0.83171  Biso   1.000  H
  H78      1.0000 0.42562  0.45739  0.84470  Biso   1.000  H
  C64      1.0000 0.57430  0.53351  0.69432  Biso   1.000  C
  C65      1.0000 0.55461  0.61302  0.63251  Biso   1.000  C
  C66      1.0000 0.53351  0.69432  0.57430  Biso   1.000  C
  C67      1.0000 0.46649  0.69432  0.42570  Biso   1.000  C
  C68      1.0000 0.38702  0.63251  0.44539  Biso   1.000  C
  C69      1.0000 0.30568  0.57430  0.46649  Biso   1.000  C
  H79      1.0000 0.08340  0.45491  0.52081  Biso   1.000  H
  H80      1.0000 0.12349  0.44982  0.46732  Biso   1.000  H
  C70      1.0000 0.11762  0.53111  0.49702  Biso   1.000  C
  H81      1.0000 0.10508  0.47489  0.47820  Biso   1.000  H
  H82      1.0000 0.10508  0.52511  0.52180  Biso   1.000  H
  H83      1.0000 0.16639  0.57149  0.44039  Biso   1.000  H
  H84      1.0000 0.16449  0.50621  0.43070  Biso   1.000  H
  H85      1.0000 0.16829  0.51920  0.42169  Biso   1.000  H
  H86      1.0000 0.15530  0.57442  0.45739  Biso   1.000  H
  H87      1.0000 0.57149  0.55961  0.83361  Biso   1.000  H
  H88      1.0000 0.50621  0.56930  0.83551  Biso   1.000  H
  C71      1.0000 0.53111  0.50302  0.88243  Biso   1.000  C
  H89      1.0000 0.51920  0.57831  0.83171  Biso   1.000  H
  H90      1.0000 0.57442  0.54261  0.84470  Biso   1.000  H
  H91      1.0000 0.45491  0.47919  0.91660  Biso   1.000  H
  H92      1.0000 0.44982  0.53272  0.87651  Biso   1.000  H
  H93      1.0000 0.47489  0.52180  0.89492  Biso   1.000  H
  H94      1.0000 0.52511  0.47820  0.89492  Biso   1.000  H
  H95      1.0000 0.59391  0.49992  0.69940  Biso   1.000  H
  H96      1.0000 0.52350  0.62212  0.65481  Biso   1.000  H
  N11      1.0000 0.54749  0.73002  0.53818  Biso   1.000  N
  H97      1.0000 0.49992  0.69940  0.59391  Biso   1.000  H
  N12      1.0000 0.45251  0.73002  0.46182  Biso   1.000  N
  H98      1.0000 0.50012  0.69940  0.40609  Biso   1.000  H
  H99      1.0000 0.37792  0.65481  0.47650  Biso   1.000  H
  H100     1.0000 0.30060  0.59391  0.50012  Biso   1.000  H
  H101     1.0000 0.08340  0.54509  0.47919  Biso   1.000  H
  H102     1.0000 0.12349  0.55022  0.53272  Biso   1.000  H
  H103     1.0000 0.54509  0.52081  0.91660  Biso   1.000  H
  H104     1.0000 0.55022  0.46732  0.87651  Biso   1.000  H
  C72      1.0000 0.51059  0.77631  0.52921  Biso   1.000  C
  C73      1.0000 0.48941  0.77631  0.47079  Biso   1.000  C
  H105     1.0000 0.47299  0.77102  0.55200  Biso   1.000  H
  C74      1.0000 0.54058  0.83270  0.53529  Biso   1.000  C
  H106     1.0000 0.52701  0.77102  0.44800  Biso   1.000  H
  C75      1.0000 0.45942  0.83270  0.46471  Biso   1.000  C
  H107     1.0000 0.55961  0.83361  0.57149  Biso   1.000  H
  H108     1.0000 0.56930  0.83551  0.50621  Biso   1.000  H
  C76      1.0000 0.50302  0.88243  0.53111  Biso   1.000  C
  H109     1.0000 0.57831  0.83171  0.51920  Biso   1.000  H
  H110     1.0000 0.54261  0.84470  0.57442  Biso   1.000  H
  C77      1.0000 0.50000  0.87093  0.50000  Biso   1.000  C
  H111     1.0000 0.44039  0.83361  0.42851  Biso   1.000  H
  H112     1.0000 0.43070  0.83551  0.49379  Biso   1.000  H
  C78      1.0000 0.49702  0.88243  0.46889  Biso   1.000  C
  H113     1.0000 0.42169  0.83171  0.48080  Biso   1.000  H
  H114     1.0000 0.45739  0.84470  0.42562  Biso   1.000  H
  H115     1.0000 0.52081  0.91660  0.54509  Biso   1.000  H
  H116     1.0000 0.46732  0.87651  0.55022  Biso   1.000  H
  H117     1.0000 0.47820  0.89492  0.52511  Biso   1.000  H
  H118     1.0000 0.52180  0.89492  0.47489  Biso   1.000  H
  H119     1.0000 0.47919  0.91660  0.45491  Biso   1.000  H
  H120     1.0000 0.53272  0.87651  0.44982  Biso   1.000  H
  C79      1.0000 0.54058  0.33270  0.03529  Biso   1.000  C
  H121     1.0000 0.47820  0.39492  0.02511  Biso   1.000  H
  H122     1.0000 0.52081  0.41660  0.04509  Biso   1.000  H
  C80      1.0000 0.49702  0.38243  0.96889  Biso   1.000  C
  H123     1.0000 0.46732  0.37651  0.05022  Biso   1.000  H
  C81      1.0000 0.51059  0.27631  0.02921  Biso   1.000  C
  H124     1.0000 0.56930  0.33551  0.00621  Biso   1.000  H
  C82      1.0000 0.50000  0.37088  0.00000  Biso   1.000  C
  H125     1.0000 0.55961  0.33361  0.07149  Biso   1.000  H
  H126     1.0000 0.55961  0.33361  0.07153  Biso   1.000  H
  C83      1.0000 0.50302  0.38243  0.03111  Biso   1.000  C
  H127     1.0000 0.57831  0.33171  0.01920  Biso   1.000  H
  H128     1.0000 0.54261  0.34470  0.07438  Biso   1.000  H
  C84      1.0000 0.45942  0.33270  0.96471  Biso   1.000  C
  H129     1.0000 0.52180  0.39492  0.97489  Biso   1.000  H
  H130     1.0000 0.47919  0.41660  0.95491  Biso   1.000  H
  H131     1.0000 0.53272  0.37651  0.94982  Biso   1.000  H
  N13      1.0000 0.54749  0.23002  0.03818  Biso   1.000  N
  N14      1.0000 0.54749  0.23002  0.03823  Biso   1.000  N
  H132     1.0000 0.47299  0.27102  0.05200  Biso   1.000  H
  C85      1.0000 0.48941  0.27631  0.97079  Biso   1.000  C
  H133     1.0000 0.44039  0.33361  0.92851  Biso   1.000  H
  H134     1.0000 0.43070  0.33551  0.99379  Biso   1.000  H
  H135     1.0000 0.42169  0.33171  0.98080  Biso   1.000  H
  H136     1.0000 0.45739  0.34470  0.92562  Biso   1.000  H
  C86      1.0000 0.53351  0.19432  0.07430  Biso   1.000  C
  N15      1.0000 0.45251  0.23002  0.96182  Biso   1.000  N
  H137     1.0000 0.52701  0.27102  0.94800  Biso   1.000  H
  H138     1.0000 0.49992  0.19940  0.09391  Biso   1.000  H
  C87      1.0000 0.56752  0.14562  0.08663  Biso   1.000  C
  C88      1.0000 0.46649  0.19432  0.92570  Biso   1.000  C
  C89      1.0000 0.61302  0.13251  0.05461  Biso   1.000  C
  C90      1.0000 0.55461  0.11298  0.13251  Biso   1.000  C
  C91      1.0000 0.55461  0.11302  0.13251  Biso   1.000  C
  H139     1.0000 0.50012  0.19940  0.90609  Biso   1.000  H
  C92      1.0000 0.43248  0.14562  0.91341  Biso   1.000  C
  H140     1.0000 0.62212  0.15481  0.02350  Biso   1.000  H
  C93      1.0000 0.64562  0.08663  0.06752  Biso   1.000  C
  C94      1.0000 0.58659  0.06752  0.14562  Biso   1.000  C
  H141     1.0000 0.52350  0.12212  0.15481  Biso   1.000  H
  C95      1.0000 0.38702  0.13251  0.94539  Biso   1.000  C
  C96      1.0000 0.44539  0.11298  0.86749  Biso   1.000  C
  C97      1.0000 0.44539  0.11302  0.86749  Biso   1.000  C
  C98      1.0000 0.69432  0.07430  0.03351  Biso   1.000  C
  C99      1.0000 0.63251  0.05461  0.11298  Biso   1.000  C
  C100     1.0000 0.63251  0.05461  0.11302  Biso   1.000  C
  C101     1.0000 0.57430  0.03351  0.19432  Biso   1.000  C
  H142     1.0000 0.37792  0.15481  0.97650  Biso   1.000  H
  C102     1.0000 0.35442  0.08663  0.93253  Biso   1.000  C
  C103     1.0000 0.41341  0.06752  0.85442  Biso   1.000  C
  H143     1.0000 0.47650  0.12212  0.84519  Biso   1.000  H
  H144     1.0000 0.69940  0.09391  0.99992  Biso   1.000  H
  N16      1.0000 0.73002  0.03818  0.04749  Biso   1.000  N
  N17      1.0000 0.73002  0.03823  0.04749  Biso   1.000  N
  H145     1.0000 0.65481  0.02350  0.12212  Biso   1.000  H
  N18      1.0000 0.53818  0.04749  0.23002  Biso   1.000  N
  H146     1.0000 0.59391  0.99992  0.19940  Biso   1.000  H
  C104     1.0000 0.30568  0.07430  0.96649  Biso   1.000  C
  C105     1.0000 0.36749  0.05461  0.88702  Biso   1.000  C
  C106     1.0000 0.42570  0.03351  0.80568  Biso   1.000  C
  C107     1.0000 0.42570  0.03351  0.80573  Biso   1.000  C
  C108     1.0000 0.77631  0.02921  0.01059  Biso   1.000  C
  C109     1.0000 0.52921  0.01059  0.27631  Biso   1.000  C
  N19      1.0000 0.26998  0.03818  0.95251  Biso   1.000  N
  N20      1.0000 0.26998  0.03823  0.95251  Biso   1.000  N
  H147     1.0000 0.30060  0.09391  0.00008  Biso   1.000  H
  H148     1.0000 0.30060  0.09391  0.00012  Biso   1.000  H
  H149     1.0000 0.34519  0.02350  0.87792  Biso   1.000  H
  H150     1.0000 0.40609  0.99992  0.80060  Biso   1.000  H
  N21      1.0000 0.46182  0.04749  0.77002  Biso   1.000  N
  C110     1.0000 0.77631  0.97079  0.98941  Biso   1.000  C
  H151     1.0000 0.77102  0.05200  0.97299  Biso   1.000  H
  H152     1.0000 0.77102  0.05200  0.97303  Biso   1.000  H
  C111     1.0000 0.83270  0.03529  0.04058  Biso   1.000  C
  C112     1.0000 0.83270  0.03529  0.04063  Biso   1.000  C
  H153     1.0000 0.55200  0.97299  0.27102  Biso   1.000  H
  C113     1.0000 0.47079  0.98941  0.27631  Biso   1.000  C
  H154     1.0000 0.55200  0.97303  0.27102  Biso   1.000  H
  C114     1.0000 0.53529  0.04058  0.33270  Biso   1.000  C
  C115     1.0000 0.53529  0.04063  0.33270  Biso   1.000  C
  C116     1.0000 0.22369  0.02921  0.98941  Biso   1.000  C
  C117     1.0000 0.47079  0.01059  0.72369  Biso   1.000  C
  N22      1.0000 0.73002  0.96182  0.95251  Biso   1.000  N
  C118     1.0000 0.83270  0.96471  0.95942  Biso   1.000  C
  H155     1.0000 0.77102  0.94800  0.02701  Biso   1.000  H
  H156     1.0000 0.83551  0.00621  0.06930  Biso   1.000  H
  C119     1.0000 0.88243  0.03111  0.00302  Biso   1.000  C
  C120     1.0000 0.87093  0.00000  0.00000  Biso   1.000  C
  H157     1.0000 0.83361  0.07149  0.05961  Biso   1.000  H
  H158     1.0000 0.83361  0.07153  0.05961  Biso   1.000  H
  H159     1.0000 0.83171  0.01920  0.07831  Biso   1.000  H
  H160     1.0000 0.84470  0.07438  0.04261  Biso   1.000  H
  H161     1.0000 0.44800  0.02701  0.27102  Biso   1.000  H
  N23      1.0000 0.46182  0.95251  0.23002  Biso   1.000  N
  C121     1.0000 0.46471  0.95942  0.33270  Biso   1.000  C
  H162     1.0000 0.57149  0.05961  0.33361  Biso   1.000  H
  H163     1.0000 0.50621  0.06930  0.33551  Biso   1.000  H
  C122     1.0000 0.50000  0.00000  0.37088  Biso   1.000  C
  C123     1.0000 0.53111  0.00302  0.38243  Biso   1.000  C
  H164     1.0000 0.51920  0.07831  0.33171  Biso   1.000  H
  H165     1.0000 0.57442  0.04261  0.34470  Biso   1.000  H
  H166     1.0000 0.22898  0.05200  0.02701  Biso   1.000  H
  C124     1.0000 0.22369  0.97079  0.01059  Biso   1.000  C
  C125     1.0000 0.16730  0.03529  0.95942  Biso   1.000  C
  H167     1.0000 0.44800  0.97299  0.72898  Biso   1.000  H
  C126     1.0000 0.52921  0.98941  0.72369  Biso   1.000  C
  H168     1.0000 0.44800  0.97299  0.72903  Biso   1.000  H
  H169     1.0000 0.44800  0.97303  0.72898  Biso   1.000  H
  H170     1.0000 0.44800  0.97303  0.72903  Biso   1.000  H
  C127     1.0000 0.46471  0.04058  0.66730  Biso   1.000  C
  C128     1.0000 0.46471  0.04063  0.66730  Biso   1.000  C
  C129     1.0000 0.69432  0.92570  0.96649  Biso   1.000  C
  H171     1.0000 0.83361  0.92851  0.94039  Biso   1.000  H
  H172     1.0000 0.83551  0.99379  0.93070  Biso   1.000  H
  C130     1.0000 0.88243  0.96889  0.99698  Biso   1.000  C
  H173     1.0000 0.83361  0.92851  0.94043  Biso   1.000  H
  C131     1.0000 0.88243  0.96889  0.99702  Biso   1.000  C
  H174     1.0000 0.83171  0.98080  0.92169  Biso   1.000  H
  H175     1.0000 0.84470  0.92562  0.95739  Biso   1.000  H
  H176     1.0000 0.91660  0.04509  0.02081  Biso   1.000  H
  H177     1.0000 0.87651  0.05022  0.96732  Biso   1.000  H
  H178     1.0000 0.89492  0.02511  0.97820  Biso   1.000  H
  H179     1.0000 0.89492  0.97489  0.02180  Biso   1.000  H
  C132     1.0000 0.42570  0.96649  0.19432  Biso   1.000  C
  H180     1.0000 0.42851  0.94039  0.33361  Biso   1.000  H
  H181     1.0000 0.49379  0.93070  0.33551  Biso   1.000  H
  C133     1.0000 0.46889  0.99698  0.38243  Biso   1.000  C
  H182     1.0000 0.42851  0.94043  0.33361  Biso   1.000  H
  C134     1.0000 0.46889  0.99702  0.38243  Biso   1.000  C
  H183     1.0000 0.48080  0.92169  0.33171  Biso   1.000  H
  H184     1.0000 0.42562  0.95739  0.34470  Biso   1.000  H
  H185     1.0000 0.52511  0.97820  0.39492  Biso   1.000  H
  H186     1.0000 0.47489  0.02180  0.39492  Biso   1.000  H
  H187     1.0000 0.54509  0.02081  0.41660  Biso   1.000  H
  H188     1.0000 0.55022  0.96732  0.37651  Biso   1.000  H
  H189     1.0000 0.22898  0.94800  0.97299  Biso   1.000  H
  H190     1.0000 0.22898  0.94800  0.97303  Biso   1.000  H
  N24      1.0000 0.26998  0.96182  0.04749  Biso   1.000  N
  C135     1.0000 0.16730  0.96471  0.04058  Biso   1.000  C
  C136     1.0000 0.16730  0.96471  0.04063  Biso   1.000  C
  C137     1.0000 0.12912  0.00000  0.00000  Biso   1.000  C
  H191     1.0000 0.16639  0.07149  0.94039  Biso   1.000  H
  H192     1.0000 0.16449  0.00621  0.93070  Biso   1.000  H
  C138     1.0000 0.11762  0.03111  0.99698  Biso   1.000  C
  H193     1.0000 0.16639  0.07149  0.94043  Biso   1.000  H
  C139     1.0000 0.11762  0.03111  0.99702  Biso   1.000  C
  H194     1.0000 0.16639  0.07153  0.94039  Biso   1.000  H
  H195     1.0000 0.16639  0.07153  0.94043  Biso   1.000  H
  H196     1.0000 0.16829  0.01920  0.92169  Biso   1.000  H
  H197     1.0000 0.15530  0.07438  0.95739  Biso   1.000  H
  C140     1.0000 0.53529  0.95942  0.66730  Biso   1.000  C
  N25      1.0000 0.53818  0.95251  0.77002  Biso   1.000  N
  H198     1.0000 0.55200  0.02701  0.72898  Biso   1.000  H
  H199     1.0000 0.55200  0.02701  0.72903  Biso   1.000  H
  C141     1.0000 0.50000  0.00000  0.62912  Biso   1.000  C
  H200     1.0000 0.42851  0.05961  0.66639  Biso   1.000  H
  H201     1.0000 0.49379  0.06930  0.66449  Biso   1.000  H
  C142     1.0000 0.46889  0.00302  0.61762  Biso   1.000  C
  H202     1.0000 0.48080  0.07831  0.66829  Biso   1.000  H
  H203     1.0000 0.42562  0.04261  0.65530  Biso   1.000  H
  C143     1.0000 0.64562  0.91341  0.93253  Biso   1.000  C
  H204     1.0000 0.69940  0.90609  0.00008  Biso   1.000  H
  H205     1.0000 0.69940  0.90609  0.00012  Biso   1.000  H
  H206     1.0000 0.91660  0.95491  0.97919  Biso   1.000  H
  H207     1.0000 0.87651  0.94982  0.03268  Biso   1.000  H
  H208     1.0000 0.87651  0.94982  0.03272  Biso   1.000  H
  C144     1.0000 0.41341  0.93253  0.14562  Biso   1.000  C
  H209     1.0000 0.40609  0.00008  0.19940  Biso   1.000  H
  H210     1.0000 0.40609  0.00012  0.19940  Biso   1.000  H
  H211     1.0000 0.45491  0.97919  0.41660  Biso   1.000  H
  H212     1.0000 0.44982  0.03268  0.37651  Biso   1.000  H
  H213     1.0000 0.44982  0.03272  0.37651  Biso   1.000  H
  C145     1.0000 0.30568  0.92570  0.03351  Biso   1.000  C
  H214     1.0000 0.16639  0.92851  0.05961  Biso   1.000  H
  H215     1.0000 0.16449  0.99379  0.06930  Biso   1.000  H
  C146     1.0000 0.11762  0.96889  0.00302  Biso   1.000  C
  H216     1.0000 0.16829  0.98080  0.07831  Biso   1.000  H
  H217     1.0000 0.15530  0.92562  0.04261  Biso   1.000  H
  H218     1.0000 0.10508  0.97489  0.97820  Biso   1.000  H
  H219     1.0000 0.10508  0.02511  0.02180  Biso   1.000  H
  H220     1.0000 0.08340  0.04509  0.97919  Biso   1.000  H
  H221     1.0000 0.12349  0.05022  0.03268  Biso   1.000  H
  H222     1.0000 0.12349  0.05022  0.03272  Biso   1.000  H
  C147     1.0000 0.57430  0.96649  0.80568  Biso   1.000  C
  C148     1.0000 0.57430  0.96649  0.80573  Biso   1.000  C
  H223     1.0000 0.57149  0.94039  0.66639  Biso   1.000  H
  H224     1.0000 0.50621  0.93070  0.66449  Biso   1.000  H
  C149     1.0000 0.53111  0.99698  0.61762  Biso   1.000  C
  H225     1.0000 0.57149  0.94043  0.66639  Biso   1.000  H
  C150     1.0000 0.53111  0.99702  0.61762  Biso   1.000  C
  H226     1.0000 0.51920  0.92169  0.66829  Biso   1.000  H
  H227     1.0000 0.57442  0.95739  0.65530  Biso   1.000  H
  H228     1.0000 0.47489  0.97820  0.60512  Biso   1.000  H
  H229     1.0000 0.52511  0.02180  0.60512  Biso   1.000  H
  H230     1.0000 0.44982  0.96732  0.62349  Biso   1.000  H
  H231     1.0000 0.45491  0.02081  0.58340  Biso   1.000  H
  C151     1.0000 0.63251  0.94539  0.88702  Biso   1.000  C
  C152     1.0000 0.61302  0.86749  0.94539  Biso   1.000  C
  C153     1.0000 0.44539  0.88702  0.13251  Biso   1.000  C
  C154     1.0000 0.36749  0.94539  0.11298  Biso   1.000  C
  C155     1.0000 0.36749  0.94539  0.11302  Biso   1.000  C
  C156     1.0000 0.35442  0.91341  0.06752  Biso   1.000  C
  H232     1.0000 0.30060  0.90609  0.99992  Biso   1.000  H
  H233     1.0000 0.12349  0.94982  0.96732  Biso   1.000  H
  H234     1.0000 0.08340  0.95491  0.02081  Biso   1.000  H
  C157     1.0000 0.58659  0.93253  0.85442  Biso   1.000  C
  H235     1.0000 0.59391  0.00008  0.80060  Biso   1.000  H
  H236     1.0000 0.59391  0.00012  0.80060  Biso   1.000  H
  H237     1.0000 0.54509  0.97919  0.58340  Biso   1.000  H
  H238     1.0000 0.55022  0.03268  0.62349  Biso   1.000  H
  H239     1.0000 0.55022  0.03272  0.62349  Biso   1.000  H
  H240     1.0000 0.65481  0.97650  0.87792  Biso   1.000  H
  H241     1.0000 0.62212  0.84519  0.97650  Biso   1.000  H
  C158     1.0000 0.56752  0.85442  0.91341  Biso   1.000  C
  H242     1.0000 0.47650  0.87792  0.15481  Biso   1.000  H
  C159     1.0000 0.43248  0.85442  0.08663  Biso   1.000  C
  H243     1.0000 0.34519  0.97650  0.12212  Biso   1.000  H
  C160     1.0000 0.38702  0.86749  0.05461  Biso   1.000  C
  C161     1.0000 0.55461  0.88702  0.86749  Biso   1.000  C
  C162     1.0000 0.53351  0.80568  0.92570  Biso   1.000  C
  C163     1.0000 0.53351  0.80573  0.92570  Biso   1.000  C
  C164     1.0000 0.46649  0.80568  0.07430  Biso   1.000  C
  C165     1.0000 0.46649  0.80573  0.07430  Biso   1.000  C
  H244     1.0000 0.37792  0.84519  0.02350  Biso   1.000  H
  H245     1.0000 0.52350  0.87792  0.84519  Biso   1.000  H
  H246     1.0000 0.49992  0.80060  0.90609  Biso   1.000  H
  N26      1.0000 0.54749  0.77002  0.96182  Biso   1.000  N
  H247     1.0000 0.50012  0.80060  0.09391  Biso   1.000  H
  N27      1.0000 0.45251  0.77002  0.03818  Biso   1.000  N
  N28      1.0000 0.45251  0.77002  0.03823  Biso   1.000  N
  C166     1.0000 0.51059  0.72369  0.97079  Biso   1.000  C
  C167     1.0000 0.48941  0.72369  0.02921  Biso   1.000  C
  H248     1.0000 0.47299  0.72898  0.94800  Biso   1.000  H
  C168     1.0000 0.54058  0.66730  0.96471  Biso   1.000  C
  H249     1.0000 0.47299  0.72903  0.94800  Biso   1.000  H
  H250     1.0000 0.52701  0.72898  0.05200  Biso   1.000  H
  C169     1.0000 0.45942  0.66730  0.03529  Biso   1.000  C
  H251     1.0000 0.52701  0.72903  0.05200  Biso   1.000  H
  H252     1.0000 0.55961  0.66639  0.92851  Biso   1.000  H
  H253     1.0000 0.56930  0.66449  0.99379  Biso   1.000  H
  C170     1.0000 0.50302  0.61762  0.96889  Biso   1.000  C
  H254     1.0000 0.57831  0.66829  0.98080  Biso   1.000  H
  H255     1.0000 0.54261  0.65530  0.92562  Biso   1.000  H
  C171     1.0000 0.50000  0.62912  0.00000  Biso   1.000  C
  H256     1.0000 0.44039  0.66639  0.07149  Biso   1.000  H
  H257     1.0000 0.43070  0.66449  0.00621  Biso   1.000  H
  C172     1.0000 0.49702  0.61762  0.03111  Biso   1.000  C
  H258     1.0000 0.44039  0.66639  0.07153  Biso   1.000  H
  H259     1.0000 0.42169  0.66829  0.01920  Biso   1.000  H
  H260     1.0000 0.45739  0.65530  0.07438  Biso   1.000  H
  H261     1.0000 0.52081  0.58340  0.95491  Biso   1.000  H
  H262     1.0000 0.46732  0.62349  0.94982  Biso   1.000  H
  H263     1.0000 0.47820  0.60512  0.97489  Biso   1.000  H
  H264     1.0000 0.52180  0.60512  0.02511  Biso   1.000  H
  H265     1.0000 0.47919  0.58340  0.04509  Biso   1.000  H
  H266     1.0000 0.53272  0.62349  0.05022  Biso   1.000  H
  C173     1.0000 0.33270  0.03529  0.54058  Biso   1.000  C
  H267     1.0000 0.39492  0.02511  0.47820  Biso   1.000  H
  H268     1.0000 0.41660  0.04509  0.52081  Biso   1.000  H
  C174     1.0000 0.38243  0.96889  0.49702  Biso   1.000  C
  H269     1.0000 0.37651  0.05022  0.46732  Biso   1.000  H
  C175     1.0000 0.27631  0.02921  0.51059  Biso   1.000  C
  H270     1.0000 0.33551  0.00621  0.56930  Biso   1.000  H
  C176     1.0000 0.37088  0.00000  0.50000  Biso   1.000  C
  H271     1.0000 0.33361  0.07149  0.55961  Biso   1.000  H
  H272     1.0000 0.33361  0.07153  0.55961  Biso   1.000  H
  C177     1.0000 0.38243  0.03111  0.50302  Biso   1.000  C
  H273     1.0000 0.33171  0.01920  0.57831  Biso   1.000  H
  H274     1.0000 0.34470  0.07438  0.54261  Biso   1.000  H
  C178     1.0000 0.33270  0.96471  0.45942  Biso   1.000  C
  H275     1.0000 0.39492  0.97489  0.52180  Biso   1.000  H
  H276     1.0000 0.41660  0.95491  0.47919  Biso   1.000  H
  H277     1.0000 0.37651  0.94982  0.53272  Biso   1.000  H
  N29      1.0000 0.23002  0.03818  0.54749  Biso   1.000  N
  N30      1.0000 0.23002  0.03823  0.54749  Biso   1.000  N
  H278     1.0000 0.27102  0.05200  0.47299  Biso   1.000  H
  C179     1.0000 0.27631  0.97079  0.48941  Biso   1.000  C
  H279     1.0000 0.33361  0.92851  0.44039  Biso   1.000  H
  H280     1.0000 0.33551  0.99379  0.43070  Biso   1.000  H
  H281     1.0000 0.33171  0.98080  0.42169  Biso   1.000  H
  H282     1.0000 0.34470  0.92562  0.45739  Biso   1.000  H
  C180     1.0000 0.19432  0.07430  0.53351  Biso   1.000  C
  N31      1.0000 0.23002  0.96182  0.45251  Biso   1.000  N
  H283     1.0000 0.27102  0.94800  0.52701  Biso   1.000  H
  H284     1.0000 0.19940  0.09391  0.49992  Biso   1.000  H
  C181     1.0000 0.14562  0.08663  0.56752  Biso   1.000  C
  C182     1.0000 0.19432  0.92570  0.46649  Biso   1.000  C
  C183     1.0000 0.13251  0.05461  0.61302  Biso   1.000  C
  C184     1.0000 0.11298  0.13251  0.55461  Biso   1.000  C
  C185     1.0000 0.11302  0.13251  0.55461  Biso   1.000  C
  H285     1.0000 0.19940  0.90609  0.50012  Biso   1.000  H
  C186     1.0000 0.14562  0.91341  0.43248  Biso   1.000  C
  H286     1.0000 0.15481  0.02350  0.62212  Biso   1.000  H
  C187     1.0000 0.08663  0.06752  0.64562  Biso   1.000  C
  C188     1.0000 0.06752  0.14562  0.58659  Biso   1.000  C
  H287     1.0000 0.12212  0.15481  0.52350  Biso   1.000  H
  C189     1.0000 0.13251  0.94539  0.38702  Biso   1.000  C
  C190     1.0000 0.11298  0.86749  0.44539  Biso   1.000  C
  C191     1.0000 0.11302  0.86749  0.44539  Biso   1.000  C
  C192     1.0000 0.07430  0.03351  0.69432  Biso   1.000  C
  C193     1.0000 0.05461  0.11298  0.63251  Biso   1.000  C
  C194     1.0000 0.05461  0.11302  0.63251  Biso   1.000  C
  C195     1.0000 0.03351  0.19432  0.57430  Biso   1.000  C
  H288     1.0000 0.15481  0.97650  0.37792  Biso   1.000  H
  C196     1.0000 0.08663  0.93253  0.35442  Biso   1.000  C
  C197     1.0000 0.06752  0.85442  0.41341  Biso   1.000  C
  H289     1.0000 0.12212  0.84519  0.47650  Biso   1.000  H
  H290     1.0000 0.09391  0.99992  0.69940  Biso   1.000  H
  N32      1.0000 0.03818  0.04749  0.73002  Biso   1.000  N
  N33      1.0000 0.03823  0.04749  0.73002  Biso   1.000  N
  H291     1.0000 0.02350  0.12212  0.65481  Biso   1.000  H
  N34      1.0000 0.04749  0.23002  0.53818  Biso   1.000  N
  H292     1.0000 0.99992  0.19940  0.59391  Biso   1.000  H
  C198     1.0000 0.07430  0.96649  0.30568  Biso   1.000  C
  C199     1.0000 0.05461  0.88702  0.36749  Biso   1.000  C
  C200     1.0000 0.03351  0.80568  0.42570  Biso   1.000  C
  C201     1.0000 0.03351  0.80573  0.42570  Biso   1.000  C
  C202     1.0000 0.02921  0.01059  0.77631  Biso   1.000  C
  C203     1.0000 0.01059  0.27631  0.52921  Biso   1.000  C
  N35      1.0000 0.03818  0.95251  0.26998  Biso   1.000  N
  N36      1.0000 0.03823  0.95251  0.26998  Biso   1.000  N
  H293     1.0000 0.09391  0.00008  0.30060  Biso   1.000  H
  H294     1.0000 0.09391  0.00012  0.30060  Biso   1.000  H
  H295     1.0000 0.02350  0.87792  0.34519  Biso   1.000  H
  H296     1.0000 0.99992  0.80060  0.40609  Biso   1.000  H
  N37      1.0000 0.04749  0.77002  0.46182  Biso   1.000  N
  C204     1.0000 0.97079  0.98941  0.77631  Biso   1.000  C
  H297     1.0000 0.05200  0.97299  0.77102  Biso   1.000  H
  H298     1.0000 0.05200  0.97303  0.77102  Biso   1.000  H
  C205     1.0000 0.03529  0.04058  0.83270  Biso   1.000  C
  C206     1.0000 0.03529  0.04063  0.83270  Biso   1.000  C
  H299     1.0000 0.97299  0.27102  0.55200  Biso   1.000  H
  C207     1.0000 0.98941  0.27631  0.47079  Biso   1.000  C
  H300     1.0000 0.97303  0.27102  0.55200  Biso   1.000  H
  C208     1.0000 0.04058  0.33270  0.53529  Biso   1.000  C
  C209     1.0000 0.04063  0.33270  0.53529  Biso   1.000  C
  C210     1.0000 0.02921  0.98941  0.22369  Biso   1.000  C
  C211     1.0000 0.01059  0.72369  0.47079  Biso   1.000  C
  N38      1.0000 0.96182  0.95251  0.73002  Biso   1.000  N
  C212     1.0000 0.96471  0.95942  0.83270  Biso   1.000  C
  H301     1.0000 0.94800  0.02701  0.77102  Biso   1.000  H
  H302     1.0000 0.00621  0.06930  0.83551  Biso   1.000  H
  C213     1.0000 0.03111  0.00302  0.88243  Biso   1.000  C
  C214     1.0000 0.00000  0.00000  0.87093  Biso   1.000  C
  H303     1.0000 0.07149  0.05961  0.83361  Biso   1.000  H
  H304     1.0000 0.07153  0.05961  0.83361  Biso   1.000  H
  H305     1.0000 0.01920  0.07831  0.83171  Biso   1.000  H
  H306     1.0000 0.07438  0.04261  0.84470  Biso   1.000  H
  H307     1.0000 0.02701  0.27102  0.44800  Biso   1.000  H
  N39      1.0000 0.95251  0.23002  0.46182  Biso   1.000  N
  C215     1.0000 0.95942  0.33270  0.46471  Biso   1.000  C
  H308     1.0000 0.05961  0.33361  0.57149  Biso   1.000  H
  H309     1.0000 0.06930  0.33551  0.50621  Biso   1.000  H
  C216     1.0000 0.00000  0.37088  0.50000  Biso   1.000  C
  C217     1.0000 0.00302  0.38243  0.53111  Biso   1.000  C
  H310     1.0000 0.07831  0.33171  0.51920  Biso   1.000  H
  H311     1.0000 0.04261  0.34470  0.57442  Biso   1.000  H
  H312     1.0000 0.05200  0.02701  0.22898  Biso   1.000  H
  C218     1.0000 0.97079  0.01059  0.22369  Biso   1.000  C
  C219     1.0000 0.03529  0.95942  0.16730  Biso   1.000  C
  H313     1.0000 0.97299  0.72898  0.44800  Biso   1.000  H
  C220     1.0000 0.98941  0.72369  0.52921  Biso   1.000  C
  H314     1.0000 0.97299  0.72903  0.44800  Biso   1.000  H
  H315     1.0000 0.97303  0.72898  0.44800  Biso   1.000  H
  H316     1.0000 0.97303  0.72903  0.44800  Biso   1.000  H
  C221     1.0000 0.04058  0.66730  0.46471  Biso   1.000  C
  C222     1.0000 0.04063  0.66730  0.46471  Biso   1.000  C
  C223     1.0000 0.92570  0.96649  0.69432  Biso   1.000  C
  H317     1.0000 0.92851  0.94039  0.83361  Biso   1.000  H
  H318     1.0000 0.99379  0.93070  0.83551  Biso   1.000  H
  C224     1.0000 0.96889  0.99698  0.88243  Biso   1.000  C
  H319     1.0000 0.92851  0.94043  0.83361  Biso   1.000  H
  C225     1.0000 0.96889  0.99702  0.88243  Biso   1.000  C
  H320     1.0000 0.98080  0.92169  0.83171  Biso   1.000  H
  H321     1.0000 0.92562  0.95739  0.84470  Biso   1.000  H
  H322     1.0000 0.04509  0.02081  0.91660  Biso   1.000  H
  H323     1.0000 0.05022  0.96732  0.87651  Biso   1.000  H
  H324     1.0000 0.02511  0.97820  0.89492  Biso   1.000  H
  H325     1.0000 0.97489  0.02180  0.89492  Biso   1.000  H
  C226     1.0000 0.96649  0.19432  0.42570  Biso   1.000  C
  H326     1.0000 0.94039  0.33361  0.42851  Biso   1.000  H
  H327     1.0000 0.93070  0.33551  0.49379  Biso   1.000  H
  C227     1.0000 0.99698  0.38243  0.46889  Biso   1.000  C
  H328     1.0000 0.94043  0.33361  0.42851  Biso   1.000  H
  C228     1.0000 0.99702  0.38243  0.46889  Biso   1.000  C
  H329     1.0000 0.92169  0.33171  0.48080  Biso   1.000  H
  H330     1.0000 0.95739  0.34470  0.42562  Biso   1.000  H
  H331     1.0000 0.97820  0.39492  0.52511  Biso   1.000  H
  H332     1.0000 0.02180  0.39492  0.47489  Biso   1.000  H
  H333     1.0000 0.02081  0.41660  0.54509  Biso   1.000  H
  H334     1.0000 0.96732  0.37651  0.55022  Biso   1.000  H
  H335     1.0000 0.94800  0.97299  0.22898  Biso   1.000  H
  H336     1.0000 0.94800  0.97303  0.22898  Biso   1.000  H
  N40      1.0000 0.96182  0.04749  0.26998  Biso   1.000  N
  C229     1.0000 0.96471  0.04058  0.16730  Biso   1.000  C
  C230     1.0000 0.96471  0.04063  0.16730  Biso   1.000  C
  C231     1.0000 0.00000  0.00000  0.12912  Biso   1.000  C
  H337     1.0000 0.07149  0.94039  0.16639  Biso   1.000  H
  H338     1.0000 0.00621  0.93070  0.16449  Biso   1.000  H
  C232     1.0000 0.03111  0.99698  0.11762  Biso   1.000  C
  H339     1.0000 0.07149  0.94043  0.16639  Biso   1.000  H
  C233     1.0000 0.03111  0.99702  0.11762  Biso   1.000  C
  H340     1.0000 0.07153  0.94039  0.16639  Biso   1.000  H
  H341     1.0000 0.07153  0.94043  0.16639  Biso   1.000  H
  H342     1.0000 0.01920  0.92169  0.16829  Biso   1.000  H
  H343     1.0000 0.07438  0.95739  0.15530  Biso   1.000  H
  C234     1.0000 0.95942  0.66730  0.53529  Biso   1.000  C
  N41      1.0000 0.95251  0.77002  0.53818  Biso   1.000  N
  H344     1.0000 0.02701  0.72898  0.55200  Biso   1.000  H
  H345     1.0000 0.02701  0.72903  0.55200  Biso   1.000  H
  C235     1.0000 0.00000  0.62912  0.50000  Biso   1.000  C
  H346     1.0000 0.05961  0.66639  0.42851  Biso   1.000  H
  H347     1.0000 0.06930  0.66449  0.49379  Biso   1.000  H
  C236     1.0000 0.00302  0.61762  0.46889  Biso   1.000  C
  H348     1.0000 0.07831  0.66829  0.48080  Biso   1.000  H
  H349     1.0000 0.04261  0.65530  0.42562  Biso   1.000  H
  C237     1.0000 0.91341  0.93253  0.64562  Biso   1.000  C
  H350     1.0000 0.90609  0.00008  0.69940  Biso   1.000  H
  H351     1.0000 0.90609  0.00012  0.69940  Biso   1.000  H
  H352     1.0000 0.95491  0.97919  0.91660  Biso   1.000  H
  H353     1.0000 0.94982  0.03268  0.87651  Biso   1.000  H
  H354     1.0000 0.94982  0.03272  0.87651  Biso   1.000  H
  C238     1.0000 0.93253  0.14562  0.41341  Biso   1.000  C
  H355     1.0000 0.00008  0.19940  0.40609  Biso   1.000  H
  H356     1.0000 0.00012  0.19940  0.40609  Biso   1.000  H
  H357     1.0000 0.97919  0.41660  0.45491  Biso   1.000  H
  H358     1.0000 0.03268  0.37651  0.44982  Biso   1.000  H
  H359     1.0000 0.03272  0.37651  0.44982  Biso   1.000  H
  C239     1.0000 0.92570  0.03351  0.30568  Biso   1.000  C
  H360     1.0000 0.92851  0.05961  0.16639  Biso   1.000  H
  H361     1.0000 0.99379  0.06930  0.16449  Biso   1.000  H
  C240     1.0000 0.96889  0.00302  0.11762  Biso   1.000  C
  H362     1.0000 0.98080  0.07831  0.16829  Biso   1.000  H
  H363     1.0000 0.92562  0.04261  0.15530  Biso   1.000  H
  H364     1.0000 0.97489  0.97820  0.10508  Biso   1.000  H
  H365     1.0000 0.02511  0.02180  0.10508  Biso   1.000  H
  H366     1.0000 0.04509  0.97919  0.08340  Biso   1.000  H
  H367     1.0000 0.05022  0.03268  0.12349  Biso   1.000  H
  H368     1.0000 0.05022  0.03272  0.12349  Biso   1.000  H
  C241     1.0000 0.96649  0.80568  0.57430  Biso   1.000  C
  C242     1.0000 0.96649  0.80573  0.57430  Biso   1.000  C
  H369     1.0000 0.94039  0.66639  0.57149  Biso   1.000  H
  H370     1.0000 0.93070  0.66449  0.50621  Biso   1.000  H
  C243     1.0000 0.99698  0.61762  0.53111  Biso   1.000  C
  H371     1.0000 0.94043  0.66639  0.57149  Biso   1.000  H
  C244     1.0000 0.99702  0.61762  0.53111  Biso   1.000  C
  H372     1.0000 0.92169  0.66829  0.51920  Biso   1.000  H
  H373     1.0000 0.95739  0.65530  0.57442  Biso   1.000  H
  H374     1.0000 0.97820  0.60512  0.47489  Biso   1.000  H
  H375     1.0000 0.02180  0.60512  0.52511  Biso   1.000  H
  H376     1.0000 0.96732  0.62349  0.44982  Biso   1.000  H
  H377     1.0000 0.02081  0.58340  0.45491  Biso   1.000  H
  C245     1.0000 0.94539  0.88702  0.63251  Biso   1.000  C
  C246     1.0000 0.86749  0.94539  0.61302  Biso   1.000  C
  C247     1.0000 0.88702  0.13251  0.44539  Biso   1.000  C
  C248     1.0000 0.94539  0.11298  0.36749  Biso   1.000  C
  C249     1.0000 0.94539  0.11302  0.36749  Biso   1.000  C
  C250     1.0000 0.91341  0.06752  0.35442  Biso   1.000  C
  H378     1.0000 0.90609  0.99992  0.30060  Biso   1.000  H
  H379     1.0000 0.94982  0.96732  0.12349  Biso   1.000  H
  H380     1.0000 0.95491  0.02081  0.08340  Biso   1.000  H
  C251     1.0000 0.93253  0.85442  0.58659  Biso   1.000  C
  H381     1.0000 0.00008  0.80060  0.59391  Biso   1.000  H
  H382     1.0000 0.00012  0.80060  0.59391  Biso   1.000  H
  H383     1.0000 0.97919  0.58340  0.54509  Biso   1.000  H
  H384     1.0000 0.03268  0.62349  0.55022  Biso   1.000  H
  H385     1.0000 0.03272  0.62349  0.55022  Biso   1.000  H
  H386     1.0000 0.97650  0.87792  0.65481  Biso   1.000  H
  H387     1.0000 0.84519  0.97650  0.62212  Biso   1.000  H
  C252     1.0000 0.85442  0.91341  0.56752  Biso   1.000  C
  H388     1.0000 0.87792  0.15481  0.47650  Biso   1.000  H
  C253     1.0000 0.85442  0.08663  0.43248  Biso   1.000  C
  H389     1.0000 0.97650  0.12212  0.34519  Biso   1.000  H
  C254     1.0000 0.86749  0.05461  0.38702  Biso   1.000  C
  C255     1.0000 0.88702  0.86749  0.55461  Biso   1.000  C
  C256     1.0000 0.80568  0.92570  0.53351  Biso   1.000  C
  C257     1.0000 0.80573  0.92570  0.53351  Biso   1.000  C
  C258     1.0000 0.80568  0.07430  0.46649  Biso   1.000  C
  C259     1.0000 0.80573  0.07430  0.46649  Biso   1.000  C
  H390     1.0000 0.84519  0.02350  0.37792  Biso   1.000  H
  H391     1.0000 0.87792  0.84519  0.52350  Biso   1.000  H
  H392     1.0000 0.80060  0.90609  0.49992  Biso   1.000  H
  N42      1.0000 0.77002  0.96182  0.54749  Biso   1.000  N
  H393     1.0000 0.80060  0.09391  0.50012  Biso   1.000  H
  N43      1.0000 0.77002  0.03818  0.45251  Biso   1.000  N
  N44      1.0000 0.77002  0.03823  0.45251  Biso   1.000  N
  C260     1.0000 0.72369  0.97079  0.51059  Biso   1.000  C
  C261     1.0000 0.72369  0.02921  0.48941  Biso   1.000  C
  H394     1.0000 0.72898  0.94800  0.47299  Biso   1.000  H
  C262     1.0000 0.66730  0.96471  0.54058  Biso   1.000  C
  H395     1.0000 0.72903  0.94800  0.47299  Biso   1.000  H
  H396     1.0000 0.72898  0.05200  0.52701  Biso   1.000  H
  C263     1.0000 0.66730  0.03529  0.45942  Biso   1.000  C
  H397     1.0000 0.72903  0.05200  0.52701  Biso   1.000  H
  H398     1.0000 0.66639  0.92851  0.55961  Biso   1.000  H
  H399     1.0000 0.66449  0.99379  0.56930  Biso   1.000  H
  C264     1.0000 0.61762  0.96889  0.50302  Biso   1.000  C
  H400     1.0000 0.66829  0.98080  0.57831  Biso   1.000  H
  H401     1.0000 0.65530  0.92562  0.54261  Biso   1.000  H
  C265     1.0000 0.62912  0.00000  0.50000  Biso   1.000  C
  H402     1.0000 0.66639  0.07149  0.44039  Biso   1.000  H
  H403     1.0000 0.66449  0.00621  0.43070  Biso   1.000  H
  C266     1.0000 0.61762  0.03111  0.49702  Biso   1.000  C
  H404     1.0000 0.66639  0.07153  0.44039  Biso   1.000  H
  H405     1.0000 0.66829  0.01920  0.42169  Biso   1.000  H
  H406     1.0000 0.65530  0.07438  0.45739  Biso   1.000  H
  H407     1.0000 0.58340  0.95491  0.52081  Biso   1.000  H
  H408     1.0000 0.62349  0.94982  0.46732  Biso   1.000  H
  H409     1.0000 0.60512  0.97489  0.47820  Biso   1.000  H
  H410     1.0000 0.60512  0.02511  0.52180  Biso   1.000  H
  H411     1.0000 0.58340  0.04509  0.47919  Biso   1.000  H
  H412     1.0000 0.62349  0.05022  0.53272  Biso   1.000  H
  C267     1.0000 0.03529  0.54058  0.33270  Biso   1.000  C
  H413     1.0000 0.02511  0.47820  0.39492  Biso   1.000  H
  H414     1.0000 0.04509  0.52081  0.41660  Biso   1.000  H
  C268     1.0000 0.96889  0.49702  0.38243  Biso   1.000  C
  H415     1.0000 0.05022  0.46732  0.37651  Biso   1.000  H
  C269     1.0000 0.02921  0.51059  0.27631  Biso   1.000  C
  H416     1.0000 0.00621  0.56930  0.33551  Biso   1.000  H
  C270     1.0000 0.00000  0.50000  0.37088  Biso   1.000  C
  H417     1.0000 0.07149  0.55961  0.33361  Biso   1.000  H
  C271     1.0000 0.03111  0.50302  0.38243  Biso   1.000  C
  H418     1.0000 0.07153  0.55961  0.33361  Biso   1.000  H
  H419     1.0000 0.01920  0.57831  0.33171  Biso   1.000  H
  H420     1.0000 0.07438  0.54261  0.34470  Biso   1.000  H
  C272     1.0000 0.96471  0.45942  0.33270  Biso   1.000  C
  H421     1.0000 0.97489  0.52180  0.39492  Biso   1.000  H
  H422     1.0000 0.95491  0.47919  0.41660  Biso   1.000  H
  H423     1.0000 0.94982  0.53272  0.37651  Biso   1.000  H
  N45      1.0000 0.03818  0.54749  0.23002  Biso   1.000  N
  N46      1.0000 0.03823  0.54749  0.23002  Biso   1.000  N
  H424     1.0000 0.05200  0.47299  0.27102  Biso   1.000  H
  C273     1.0000 0.97079  0.48941  0.27631  Biso   1.000  C
  H425     1.0000 0.92851  0.44039  0.33361  Biso   1.000  H
  H426     1.0000 0.99379  0.43070  0.33551  Biso   1.000  H
  H427     1.0000 0.98080  0.42169  0.33171  Biso   1.000  H
  H428     1.0000 0.92562  0.45739  0.34470  Biso   1.000  H
  C274     1.0000 0.07430  0.53351  0.19432  Biso   1.000  C
  N47      1.0000 0.96182  0.45251  0.23002  Biso   1.000  N
  H429     1.0000 0.94800  0.52701  0.27102  Biso   1.000  H
  H430     1.0000 0.09391  0.49992  0.19940  Biso   1.000  H
  C275     1.0000 0.08663  0.56752  0.14562  Biso   1.000  C
  C276     1.0000 0.92570  0.46649  0.19432  Biso   1.000  C
  C277     1.0000 0.05461  0.61302  0.13251  Biso   1.000  C
  C278     1.0000 0.13251  0.55461  0.11298  Biso   1.000  C
  C279     1.0000 0.13251  0.55461  0.11302  Biso   1.000  C
  H431     1.0000 0.90609  0.50012  0.19940  Biso   1.000  H
  C280     1.0000 0.91341  0.43248  0.14562  Biso   1.000  C
  H432     1.0000 0.02350  0.62212  0.15481  Biso   1.000  H
  C281     1.0000 0.06752  0.64562  0.08663  Biso   1.000  C
  H433     1.0000 0.15481  0.52350  0.12212  Biso   1.000  H
  C282     1.0000 0.14562  0.58659  0.06752  Biso   1.000  C
  C283     1.0000 0.94539  0.38702  0.13251  Biso   1.000  C
  C284     1.0000 0.86749  0.44539  0.11298  Biso   1.000  C
  C285     1.0000 0.86749  0.44539  0.11302  Biso   1.000  C
  C286     1.0000 0.03351  0.69432  0.07430  Biso   1.000  C
  C287     1.0000 0.11298  0.63251  0.05461  Biso   1.000  C
  C288     1.0000 0.11302  0.63251  0.05461  Biso   1.000  C
  C289     1.0000 0.19432  0.57430  0.03351  Biso   1.000  C
  H434     1.0000 0.97650  0.37792  0.15481  Biso   1.000  H
  C290     1.0000 0.93253  0.35442  0.08663  Biso   1.000  C
  C291     1.0000 0.85442  0.41341  0.06752  Biso   1.000  C
  H435     1.0000 0.84519  0.47650  0.12212  Biso   1.000  H
  H436     1.0000 0.99992  0.69940  0.09391  Biso   1.000  H
  N48      1.0000 0.04749  0.73002  0.03818  Biso   1.000  N
  N49      1.0000 0.04749  0.73002  0.03823  Biso   1.000  N
  H437     1.0000 0.12212  0.65481  0.02350  Biso   1.000  H
  N50      1.0000 0.23002  0.53818  0.04749  Biso   1.000  N
  H438     1.0000 0.19940  0.59391  0.99992  Biso   1.000  H
  C292     1.0000 0.96649  0.30568  0.07430  Biso   1.000  C
  C293     1.0000 0.88702  0.36749  0.05461  Biso   1.000  C
  C294     1.0000 0.80568  0.42570  0.03351  Biso   1.000  C
  C295     1.0000 0.80573  0.42570  0.03351  Biso   1.000  C
  C296     1.0000 0.01059  0.77631  0.02921  Biso   1.000  C
  C297     1.0000 0.27631  0.52921  0.01059  Biso   1.000  C
  N51      1.0000 0.95251  0.26998  0.03818  Biso   1.000  N
  N52      1.0000 0.95251  0.26998  0.03823  Biso   1.000  N
  H439     1.0000 0.00008  0.30060  0.09391  Biso   1.000  H
  H440     1.0000 0.00012  0.30060  0.09391  Biso   1.000  H
  H441     1.0000 0.87792  0.34519  0.02350  Biso   1.000  H
  H442     1.0000 0.80060  0.40609  0.99992  Biso   1.000  H
  N53      1.0000 0.77002  0.46182  0.04749  Biso   1.000  N
  C298     1.0000 0.98941  0.77631  0.97079  Biso   1.000  C
  H443     1.0000 0.97299  0.77102  0.05200  Biso   1.000  H
  H444     1.0000 0.97303  0.77102  0.05200  Biso   1.000  H
  C299     1.0000 0.04058  0.83270  0.03529  Biso   1.000  C
  C300     1.0000 0.04063  0.83270  0.03529  Biso   1.000  C
  H445     1.0000 0.27102  0.55200  0.97299  Biso   1.000  H
  C301     1.0000 0.27631  0.47079  0.98941  Biso   1.000  C
  H446     1.0000 0.27102  0.55200  0.97303  Biso   1.000  H
  C302     1.0000 0.33270  0.53529  0.04058  Biso   1.000  C
  C303     1.0000 0.33270  0.53529  0.04063  Biso   1.000  C
  C304     1.0000 0.98941  0.22369  0.02921  Biso   1.000  C
  C305     1.0000 0.72369  0.47079  0.01059  Biso   1.000  C
  N54      1.0000 0.95251  0.73002  0.96182  Biso   1.000  N
  C306     1.0000 0.95942  0.83270  0.96471  Biso   1.000  C
  H447     1.0000 0.02701  0.77102  0.94800  Biso   1.000  H
  H448     1.0000 0.06930  0.83551  0.00621  Biso   1.000  H
  C307     1.0000 0.00302  0.88243  0.03111  Biso   1.000  C
  C308     1.0000 0.00000  0.87093  0.00000  Biso   1.000  C
  H449     1.0000 0.05961  0.83361  0.07149  Biso   1.000  H
  H450     1.0000 0.05961  0.83361  0.07153  Biso   1.000  H
  H451     1.0000 0.07831  0.83171  0.01920  Biso   1.000  H
  H452     1.0000 0.04261  0.84470  0.07438  Biso   1.000  H
  H453     1.0000 0.27102  0.44800  0.02701  Biso   1.000  H
  N55      1.0000 0.23002  0.46182  0.95251  Biso   1.000  N
  C309     1.0000 0.33270  0.46471  0.95942  Biso   1.000  C
  H454     1.0000 0.33361  0.57149  0.05961  Biso   1.000  H
  H455     1.0000 0.33551  0.50621  0.06930  Biso   1.000  H
  C310     1.0000 0.37088  0.50000  0.00000  Biso   1.000  C
  C311     1.0000 0.38243  0.53111  0.00302  Biso   1.000  C
  H456     1.0000 0.33171  0.51920  0.07831  Biso   1.000  H
  H457     1.0000 0.34470  0.57442  0.04261  Biso   1.000  H
  H458     1.0000 0.02701  0.22898  0.05200  Biso   1.000  H
  C312     1.0000 0.95942  0.16730  0.03529  Biso   1.000  C
  C313     1.0000 0.01059  0.22369  0.97079  Biso   1.000  C
  H459     1.0000 0.72898  0.44800  0.97299  Biso   1.000  H
  C314     1.0000 0.72369  0.52921  0.98941  Biso   1.000  C
  H460     1.0000 0.72898  0.44800  0.97303  Biso   1.000  H
  H461     1.0000 0.72903  0.44800  0.97299  Biso   1.000  H
  H462     1.0000 0.72903  0.44800  0.97303  Biso   1.000  H
  C315     1.0000 0.66730  0.46471  0.04058  Biso   1.000  C
  C316     1.0000 0.66730  0.46471  0.04063  Biso   1.000  C
  C317     1.0000 0.96649  0.69432  0.92570  Biso   1.000  C
  H463     1.0000 0.94039  0.83361  0.92851  Biso   1.000  H
  H464     1.0000 0.93070  0.83551  0.99379  Biso   1.000  H
  C318     1.0000 0.99698  0.88243  0.96889  Biso   1.000  C
  H465     1.0000 0.94043  0.83361  0.92851  Biso   1.000  H
  C319     1.0000 0.99702  0.88243  0.96889  Biso   1.000  C
  H466     1.0000 0.92169  0.83171  0.98080  Biso   1.000  H
  H467     1.0000 0.95739  0.84470  0.92562  Biso   1.000  H
  H468     1.0000 0.02081  0.91660  0.04509  Biso   1.000  H
  H469     1.0000 0.96732  0.87651  0.05022  Biso   1.000  H
  H470     1.0000 0.97820  0.89492  0.02511  Biso   1.000  H
  H471     1.0000 0.02180  0.89492  0.97489  Biso   1.000  H
  C320     1.0000 0.19432  0.42570  0.96649  Biso   1.000  C
  H472     1.0000 0.33361  0.42851  0.94039  Biso   1.000  H
  H473     1.0000 0.33551  0.49379  0.93070  Biso   1.000  H
  H474     1.0000 0.33361  0.42851  0.94043  Biso   1.000  H
  C321     1.0000 0.38243  0.46889  0.99698  Biso   1.000  C
  C322     1.0000 0.38243  0.46889  0.99702  Biso   1.000  C
  H475     1.0000 0.33171  0.48080  0.92169  Biso   1.000  H
  H476     1.0000 0.34470  0.42562  0.95739  Biso   1.000  H
  H477     1.0000 0.39492  0.52511  0.97820  Biso   1.000  H
  H478     1.0000 0.39492  0.47489  0.02180  Biso   1.000  H
  H479     1.0000 0.41660  0.54509  0.02081  Biso   1.000  H
  H480     1.0000 0.37651  0.55022  0.96732  Biso   1.000  H
  C323     1.0000 0.00000  0.12912  0.00000  Biso   1.000  C
  H481     1.0000 0.94039  0.16639  0.07149  Biso   1.000  H
  H482     1.0000 0.93070  0.16449  0.00621  Biso   1.000  H
  C324     1.0000 0.99698  0.11762  0.03111  Biso   1.000  C
  H483     1.0000 0.94039  0.16639  0.07153  Biso   1.000  H
  H484     1.0000 0.94043  0.16639  0.07149  Biso   1.000  H
  C325     1.0000 0.99702  0.11762  0.03111  Biso   1.000  C
  H485     1.0000 0.94043  0.16639  0.07153  Biso   1.000  H
  H486     1.0000 0.92169  0.16829  0.01920  Biso   1.000  H
  H487     1.0000 0.95739  0.15530  0.07438  Biso   1.000  H
  H488     1.0000 0.97299  0.22898  0.94800  Biso   1.000  H
  H489     1.0000 0.97303  0.22898  0.94800  Biso   1.000  H
  N56      1.0000 0.04749  0.26998  0.96182  Biso   1.000  N
  C326     1.0000 0.04058  0.16730  0.96471  Biso   1.000  C
  C327     1.0000 0.04063  0.16730  0.96471  Biso   1.000  C
  C328     1.0000 0.66730  0.53529  0.95942  Biso   1.000  C
  N57      1.0000 0.77002  0.53818  0.95251  Biso   1.000  N
  H490     1.0000 0.72898  0.55200  0.02701  Biso   1.000  H
  H491     1.0000 0.72903  0.55200  0.02701  Biso   1.000  H
  C329     1.0000 0.62912  0.50000  0.00000  Biso   1.000  C
  H492     1.0000 0.66639  0.42851  0.05961  Biso   1.000  H
  H493     1.0000 0.66449  0.49379  0.06930  Biso   1.000  H
  C330     1.0000 0.61762  0.46889  0.00302  Biso   1.000  C
  H494     1.0000 0.66829  0.48080  0.07831  Biso   1.000  H
  H495     1.0000 0.65530  0.42562  0.04261  Biso   1.000  H
  C331     1.0000 0.93253  0.64562  0.91341  Biso   1.000  C
  H496     1.0000 0.00008  0.69940  0.90609  Biso   1.000  H
  H497     1.0000 0.00012  0.69940  0.90609  Biso   1.000  H
  H498     1.0000 0.97919  0.91660  0.95491  Biso   1.000  H
  H499     1.0000 0.03268  0.87651  0.94982  Biso   1.000  H
  H500     1.0000 0.03272  0.87651  0.94982  Biso   1.000  H
  C332     1.0000 0.14562  0.41341  0.93253  Biso   1.000  C
  H501     1.0000 0.19940  0.40609  0.00008  Biso   1.000  H
  H502     1.0000 0.19940  0.40609  0.00012  Biso   1.000  H
  H503     1.0000 0.41660  0.45491  0.97919  Biso   1.000  H
  H504     1.0000 0.37651  0.44982  0.03268  Biso   1.000  H
  H505     1.0000 0.37651  0.44982  0.03272  Biso   1.000  H
  H506     1.0000 0.97820  0.10508  0.97489  Biso   1.000  H
  H507     1.0000 0.02180  0.10508  0.02511  Biso   1.000  H
  H508     1.0000 0.97919  0.08340  0.04509  Biso   1.000  H
  C333     1.0000 0.00302  0.11762  0.96889  Biso   1.000  C
  H509     1.0000 0.03268  0.12349  0.05022  Biso   1.000  H
  H510     1.0000 0.03272  0.12349  0.05022  Biso   1.000  H
  C334     1.0000 0.03351  0.30568  0.92570  Biso   1.000  C
  H511     1.0000 0.05961  0.16639  0.92851  Biso   1.000  H
  H512     1.0000 0.06930  0.16449  0.99379  Biso   1.000  H
  H513     1.0000 0.07831  0.16829  0.98080  Biso   1.000  H
  H514     1.0000 0.04261  0.15530  0.92562  Biso   1.000  H
  C335     1.0000 0.80568  0.57430  0.96649  Biso   1.000  C
  C336     1.0000 0.80573  0.57430  0.96649  Biso   1.000  C
  H515     1.0000 0.66639  0.57149  0.94039  Biso   1.000  H
  H516     1.0000 0.66449  0.50621  0.93070  Biso   1.000  H
  C337     1.0000 0.61762  0.53111  0.99698  Biso   1.000  C
  H517     1.0000 0.66639  0.57149  0.94043  Biso   1.000  H
  C338     1.0000 0.61762  0.53111  0.99702  Biso   1.000  C
  H518     1.0000 0.66829  0.51920  0.92169  Biso   1.000  H
  H519     1.0000 0.65530  0.57442  0.95739  Biso   1.000  H
  H520     1.0000 0.60512  0.47489  0.97820  Biso   1.000  H
  H521     1.0000 0.60512  0.52511  0.02180  Biso   1.000  H
  H522     1.0000 0.62349  0.44982  0.96732  Biso   1.000  H
  H523     1.0000 0.58340  0.45491  0.02081  Biso   1.000  H
  C339     1.0000 0.88702  0.63251  0.94539  Biso   1.000  C
  C340     1.0000 0.94539  0.61302  0.86749  Biso   1.000  C
  C341     1.0000 0.13251  0.44539  0.88702  Biso   1.000  C
  C342     1.0000 0.11298  0.36749  0.94539  Biso   1.000  C
  C343     1.0000 0.11302  0.36749  0.94539  Biso   1.000  C
  H524     1.0000 0.96732  0.12349  0.94982  Biso   1.000  H
  H525     1.0000 0.02081  0.08340  0.95491  Biso   1.000  H
  C344     1.0000 0.06752  0.35442  0.91341  Biso   1.000  C
  H526     1.0000 0.99992  0.30060  0.90609  Biso   1.000  H
  C345     1.0000 0.85442  0.58659  0.93253  Biso   1.000  C
  H527     1.0000 0.80060  0.59391  0.00008  Biso   1.000  H
  H528     1.0000 0.80060  0.59391  0.00012  Biso   1.000  H
  H529     1.0000 0.58340  0.54509  0.97919  Biso   1.000  H
  H530     1.0000 0.62349  0.55022  0.03268  Biso   1.000  H
  H531     1.0000 0.62349  0.55022  0.03272  Biso   1.000  H
  H532     1.0000 0.87792  0.65481  0.97650  Biso   1.000  H
  H533     1.0000 0.97650  0.62212  0.84519  Biso   1.000  H
  C346     1.0000 0.91341  0.56752  0.85442  Biso   1.000  C
  H534     1.0000 0.15481  0.47650  0.87792  Biso   1.000  H
  C347     1.0000 0.08663  0.43248  0.85442  Biso   1.000  C
  H535     1.0000 0.12212  0.34519  0.97650  Biso   1.000  H
  C348     1.0000 0.05461  0.38702  0.86749  Biso   1.000  C
  C349     1.0000 0.86749  0.55461  0.88702  Biso   1.000  C
  C350     1.0000 0.92570  0.53351  0.80568  Biso   1.000  C
  C351     1.0000 0.92570  0.53351  0.80573  Biso   1.000  C
  C352     1.0000 0.07430  0.46649  0.80568  Biso   1.000  C
  C353     1.0000 0.07430  0.46649  0.80573  Biso   1.000  C
  H536     1.0000 0.02350  0.37792  0.84519  Biso   1.000  H
  H537     1.0000 0.84519  0.52350  0.87792  Biso   1.000  H
  H538     1.0000 0.90609  0.49992  0.80060  Biso   1.000  H
  N58      1.0000 0.96182  0.54749  0.77002  Biso   1.000  N
  H539     1.0000 0.09391  0.50012  0.80060  Biso   1.000  H
  N59      1.0000 0.03818  0.45251  0.77002  Biso   1.000  N
  N60      1.0000 0.03823  0.45251  0.77002  Biso   1.000  N
  C354     1.0000 0.97079  0.51059  0.72369  Biso   1.000  C
  C355     1.0000 0.02921  0.48941  0.72369  Biso   1.000  C
  H540     1.0000 0.94800  0.47299  0.72898  Biso   1.000  H
  C356     1.0000 0.96471  0.54058  0.66730  Biso   1.000  C
  H541     1.0000 0.94800  0.47299  0.72903  Biso   1.000  H
  H542     1.0000 0.05200  0.52701  0.72898  Biso   1.000  H
  C357     1.0000 0.03529  0.45942  0.66730  Biso   1.000  C
  H543     1.0000 0.05200  0.52701  0.72903  Biso   1.000  H
  H544     1.0000 0.92851  0.55961  0.66639  Biso   1.000  H
  H545     1.0000 0.99379  0.56930  0.66449  Biso   1.000  H
  C358     1.0000 0.96889  0.50302  0.61762  Biso   1.000  C
  H546     1.0000 0.98080  0.57831  0.66829  Biso   1.000  H
  H547     1.0000 0.92562  0.54261  0.65530  Biso   1.000  H
  C359     1.0000 0.00000  0.50000  0.62912  Biso   1.000  C
  H548     1.0000 0.07149  0.44039  0.66639  Biso   1.000  H
  H549     1.0000 0.00621  0.43070  0.66449  Biso   1.000  H
  C360     1.0000 0.03111  0.49702  0.61762  Biso   1.000  C
  H550     1.0000 0.07153  0.44039  0.66639  Biso   1.000  H
  H551     1.0000 0.01920  0.42169  0.66829  Biso   1.000  H
  H552     1.0000 0.07438  0.45739  0.65530  Biso   1.000  H
  H553     1.0000 0.95491  0.52081  0.58340  Biso   1.000  H
  H554     1.0000 0.94982  0.46732  0.62349  Biso   1.000  H
  H555     1.0000 0.97489  0.47820  0.60512  Biso   1.000  H
  H556     1.0000 0.02511  0.52180  0.60512  Biso   1.000  H
  H557     1.0000 0.04509  0.47919  0.58340  Biso   1.000  H
  H558     1.0000 0.05022  0.53272  0.62349  Biso   1.000  H
  Ne1      1.0000 0.50000  0.50000  0.50000  Biso   1.000  Ne
  He1      1.0000 0.43355  0.56645  0.56646  Biso   1.000  He
  He2      1.0000 0.56569  0.43432  0.56568  Biso   1.000  He
  He3      1.0000 0.56872  0.56873  0.43128  Biso   1.000  He
  He4      1.0000 0.43156  0.43155  0.43156  Biso   1.000  He
  Ar1      1.0000 0.50000  0.50000  0.50000  Biso   1.000  Ar
  Ne2      1.0000 0.49974  0.99971  0.99946  Biso   1.000  Ne
  He5      1.0000 0.43355  0.06645  0.06645  Biso   1.000  He
  He6      1.0000 0.56567  0.93433  0.06566  Biso   1.000  He
  He7      1.0000 0.56871  0.06871  0.93130  Biso   1.000  He
  He8      1.0000 0.43156  0.93156  0.93156  Biso   1.000  He
  Ar2      1.0000 0.50001  0.00005  0.00002  Biso   1.000  Ar
  Ne3      1.0000 0.99946  0.49974  0.99971  Biso   1.000  Ne
  He9      1.0000 0.93356  0.56645  0.06645  Biso   1.000  He
  He10     1.0000 0.06567  0.43433  0.06567  Biso   1.000  He
  He11     1.0000 0.06872  0.56873  0.93127  Biso   1.000  He
  He12     1.0000 0.93156  0.43155  0.93156  Biso   1.000  He
  Ar3      1.0000 0.00002  0.50000  0.00002  Biso   1.000  Ar
  Ne4      1.0000 0.99971  0.99946  0.49974  Biso   1.000  Ne
  He13     1.0000 0.93354  0.06644  0.56645  Biso   1.000  He
  He14     1.0000 0.06568  0.93433  0.56568  Biso   1.000  He
  He15     1.0000 0.06871  0.06871  0.43129  Biso   1.000  He
  He16     1.0000 0.93156  0.93156  0.43156  Biso   1.000  He
  Ar4      1.0000 0.00005  0.00002  0.50001  Biso   1.000  Ar
