data_image0
_cell_length_a       24.586
_cell_length_b       24.586
_cell_length_c       24.586
_cell_angle_alpha    90
_cell_angle_beta     90
_cell_angle_gamma    90

_symmetry_space_group_name_H-M    "P 1"
_symmetry_int_tables_number       1

loop_
  _symmetry_equiv_pos_as_xyz
  'x, y, z'

loop_
  _atom_site_label
  _atom_site_occupancy
  _atom_site_fract_x
  _atom_site_fract_y
  _atom_site_fract_z
  _atom_site_thermal_displace_type
  _atom_site_B_iso_or_equiv
  _atom_site_type_symbol
  C1       1.0000 0.38119  0.36309  0.19470  Biso   1.000  C
  C2       1.0000 0.39441  0.31790  0.16330  Biso   1.000  C
  C3       1.0000 0.33670  0.39441  0.18210  Biso   1.000  C
  H1       1.0000 0.40279  0.37229  0.22440  Biso   1.000  H
  C4       1.0000 0.44302  0.28528  0.17599  Biso   1.000  C
  C5       1.0000 0.36309  0.30530  0.11881  Biso   1.000  C
  C6       1.0000 0.32401  0.44302  0.21472  Biso   1.000  C
  C7       1.0000 0.30530  0.38119  0.13691  Biso   1.000  C
  N1       1.0000 0.47551  0.29692  0.21329  Biso   1.000  N
  H2       1.0000 0.44981  0.25449  0.15521  Biso   1.000  H
  C8       1.0000 0.31790  0.33670  0.10559  Biso   1.000  C
  H3       1.0000 0.37229  0.27560  0.09721  Biso   1.000  H
  N2       1.0000 0.28671  0.47551  0.20308  Biso   1.000  N
  H4       1.0000 0.34479  0.44981  0.24551  Biso   1.000  H
  H5       1.0000 0.27560  0.40279  0.12771  Biso   1.000  H
  C9       1.0000 0.52172  0.26121  0.22179  Biso   1.000  C
  C10      1.0000 0.28528  0.32401  0.05698  Biso   1.000  C
  C11      1.0000 0.27821  0.52172  0.23879  Biso   1.000  C
  C12      1.0000 0.52172  0.23879  0.27821  Biso   1.000  C
  H6       1.0000 0.55511  0.28130  0.21561  Biso   1.000  H
  H7       1.0000 0.52030  0.23151  0.19580  Biso   1.000  H
  N3       1.0000 0.29692  0.28671  0.02449  Biso   1.000  N
  H8       1.0000 0.25449  0.34479  0.05019  Biso   1.000  H
  C13      1.0000 0.22179  0.52172  0.26121  Biso   1.000  C
  H9       1.0000 0.28439  0.55511  0.21870  Biso   1.000  H
  H10      1.0000 0.30420  0.52030  0.26849  Biso   1.000  H
  N4       1.0000 0.47551  0.20308  0.28671  Biso   1.000  N
  H11      1.0000 0.55511  0.21870  0.28439  Biso   1.000  H
  H12      1.0000 0.52030  0.26849  0.30420  Biso   1.000  H
  C14      1.0000 0.26121  0.27821  0.97828  Biso   1.000  C
  N5       1.0000 0.21329  0.47551  0.29692  Biso   1.000  N
  H13      1.0000 0.21561  0.55511  0.28130  Biso   1.000  H
  H14      1.0000 0.19580  0.52030  0.23151  Biso   1.000  H
  C15      1.0000 0.44302  0.21472  0.32401  Biso   1.000  C
  C16      1.0000 0.23879  0.22179  0.97828  Biso   1.000  C
  H15      1.0000 0.28130  0.28439  0.94489  Biso   1.000  H
  H16      1.0000 0.23151  0.30420  0.97970  Biso   1.000  H
  C17      1.0000 0.17599  0.44302  0.28528  Biso   1.000  C
  H17      1.0000 0.44981  0.24551  0.34479  Biso   1.000  H
  C18      1.0000 0.39441  0.18210  0.33670  Biso   1.000  C
  N6       1.0000 0.20308  0.21329  0.02449  Biso   1.000  N
  H18      1.0000 0.21870  0.21561  0.94489  Biso   1.000  H
  H19      1.0000 0.26849  0.19580  0.97970  Biso   1.000  H
  H20      1.0000 0.15521  0.44981  0.25449  Biso   1.000  H
  C19      1.0000 0.16330  0.39441  0.31790  Biso   1.000  C
  C20      1.0000 0.36309  0.19470  0.38119  Biso   1.000  C
  C21      1.0000 0.38119  0.13691  0.30530  Biso   1.000  C
  C22      1.0000 0.21472  0.17599  0.05698  Biso   1.000  C
  C23      1.0000 0.19470  0.38119  0.36309  Biso   1.000  C
  C24      1.0000 0.11881  0.36309  0.30530  Biso   1.000  C
  C25      1.0000 0.31790  0.16330  0.39441  Biso   1.000  C
  H21      1.0000 0.37229  0.22440  0.40279  Biso   1.000  H
  C26      1.0000 0.33670  0.10559  0.31790  Biso   1.000  C
  H22      1.0000 0.40279  0.12771  0.27560  Biso   1.000  H
  H23      1.0000 0.24551  0.15521  0.05019  Biso   1.000  H
  C27      1.0000 0.18210  0.16330  0.10559  Biso   1.000  C
  C28      1.0000 0.18210  0.33670  0.39441  Biso   1.000  C
  H24      1.0000 0.22440  0.40279  0.37229  Biso   1.000  H
  C29      1.0000 0.10559  0.31790  0.33670  Biso   1.000  C
  H25      1.0000 0.09721  0.37229  0.27560  Biso   1.000  H
  C30      1.0000 0.28528  0.17599  0.44302  Biso   1.000  C
  C31      1.0000 0.30530  0.11881  0.36309  Biso   1.000  C
  C32      1.0000 0.32401  0.05698  0.28528  Biso   1.000  C
  C33      1.0000 0.19470  0.11881  0.13691  Biso   1.000  C
  C34      1.0000 0.13691  0.19470  0.11881  Biso   1.000  C
  C35      1.0000 0.21472  0.32401  0.44302  Biso   1.000  C
  C36      1.0000 0.13691  0.30530  0.38119  Biso   1.000  C
  C37      1.0000 0.05698  0.28528  0.32401  Biso   1.000  C
  N7       1.0000 0.29692  0.21329  0.47551  Biso   1.000  N
  H26      1.0000 0.25449  0.15521  0.44981  Biso   1.000  H
  H27      1.0000 0.27560  0.09721  0.37229  Biso   1.000  H
  N8       1.0000 0.28671  0.02449  0.29692  Biso   1.000  N
  H28      1.0000 0.34479  0.05019  0.25449  Biso   1.000  H
  C38      1.0000 0.16330  0.10559  0.18210  Biso   1.000  C
  H29      1.0000 0.22440  0.09721  0.12771  Biso   1.000  H
  C39      1.0000 0.10559  0.18210  0.16330  Biso   1.000  C
  H30      1.0000 0.12771  0.22440  0.09721  Biso   1.000  H
  N9       1.0000 0.20308  0.28671  0.47551  Biso   1.000  N
  H31      1.0000 0.24551  0.34479  0.44981  Biso   1.000  H
  H32      1.0000 0.12771  0.27560  0.40279  Biso   1.000  H
  N10      1.0000 0.02449  0.29692  0.28671  Biso   1.000  N
  H33      1.0000 0.05019  0.25449  0.34479  Biso   1.000  H
  C40      1.0000 0.26121  0.22179  0.52172  Biso   1.000  C
  C41      1.0000 0.27821  0.97828  0.26121  Biso   1.000  C
  C42      1.0000 0.17599  0.05698  0.21472  Biso   1.000  C
  C43      1.0000 0.11881  0.13691  0.19470  Biso   1.000  C
  C44      1.0000 0.05698  0.21472  0.17599  Biso   1.000  C
  C45      1.0000 0.23879  0.27821  0.52172  Biso   1.000  C
  C46      1.0000 0.97828  0.26121  0.27821  Biso   1.000  C
  H34      1.0000 0.28130  0.21561  0.55511  Biso   1.000  H
  H35      1.0000 0.23151  0.19580  0.52030  Biso   1.000  H
  C47      1.0000 0.22179  0.97828  0.23879  Biso   1.000  C
  H36      1.0000 0.28439  0.94489  0.28130  Biso   1.000  H
  H37      1.0000 0.30420  0.97970  0.23151  Biso   1.000  H
  N11      1.0000 0.21329  0.02449  0.20308  Biso   1.000  N
  H38      1.0000 0.15521  0.05019  0.24551  Biso   1.000  H
  H39      1.0000 0.09721  0.12771  0.22440  Biso   1.000  H
  N12      1.0000 0.02449  0.20308  0.21329  Biso   1.000  N
  H40      1.0000 0.05019  0.24551  0.15521  Biso   1.000  H
  H41      1.0000 0.21870  0.28439  0.55511  Biso   1.000  H
  H42      1.0000 0.26849  0.30420  0.52030  Biso   1.000  H
  C48      1.0000 0.97828  0.23879  0.22179  Biso   1.000  C
  H43      1.0000 0.94489  0.28130  0.28439  Biso   1.000  H
  H44      1.0000 0.97970  0.23151  0.30420  Biso   1.000  H
  H45      1.0000 0.21561  0.94489  0.21870  Biso   1.000  H
  H46      1.0000 0.19580  0.97970  0.26849  Biso   1.000  H
  H47      1.0000 0.94489  0.21870  0.21561  Biso   1.000  H
  H48      1.0000 0.97970  0.26849  0.19580  Biso   1.000  H
  C49      1.0000 0.53290  0.40848  0.30269  Biso   1.000  C
  N13      1.0000 0.53221  0.46380  0.28211  Biso   1.000  N
  C50      1.0000 0.57122  0.40259  0.35048  Biso   1.000  C
  H49      1.0000 0.54409  0.38400  0.27381  Biso   1.000  H
  H50      1.0000 0.49650  0.39832  0.31380  Biso   1.000  H
  C51      1.0000 0.50000  0.50000  0.31729  Biso   1.000  C
  C52      1.0000 0.50700  0.47039  0.22932  Biso   1.000  C
  C53      1.0000 0.61380  0.43712  0.35980  Biso   1.000  C
  C54      1.0000 0.56288  0.35980  0.38620  Biso   1.000  C
  N14      1.0000 0.46779  0.53620  0.28211  Biso   1.000  N
  H51      1.0000 0.52392  0.52131  0.34032  Biso   1.000  H
  H52      1.0000 0.47608  0.47869  0.34032  Biso   1.000  H
  C55      1.0000 0.49300  0.52961  0.22932  Biso   1.000  C
  H53      1.0000 0.47332  0.44920  0.22850  Biso   1.000  H
  C56      1.0000 0.54169  0.45461  0.18071  Biso   1.000  C
  H54      1.0000 0.61901  0.46669  0.33682  Biso   1.000  H
  C57      1.0000 0.64952  0.42878  0.40259  Biso   1.000  C
  H55      1.0000 0.53331  0.33682  0.38099  Biso   1.000  H
  C58      1.0000 0.59741  0.35048  0.42878  Biso   1.000  C
  C59      1.0000 0.46710  0.59152  0.30269  Biso   1.000  C
  H56      1.0000 0.52668  0.55080  0.22850  Biso   1.000  H
  C60      1.0000 0.45831  0.54539  0.18071  Biso   1.000  C
  H57      1.0000 0.54942  0.41589  0.18100  Biso   1.000  H
  H58      1.0000 0.57582  0.47442  0.18079  Biso   1.000  H
  C61      1.0000 0.50700  0.47010  0.13060  Biso   1.000  C
  C62      1.0000 0.64020  0.38620  0.43712  Biso   1.000  C
  C63      1.0000 0.69731  0.46710  0.40848  Biso   1.000  C
  C64      1.0000 0.59152  0.30269  0.46710  Biso   1.000  C
  C65      1.0000 0.42878  0.59741  0.35048  Biso   1.000  C
  H59      1.0000 0.45591  0.61600  0.27381  Biso   1.000  H
  H60      1.0000 0.50350  0.60168  0.31380  Biso   1.000  H
  H61      1.0000 0.45058  0.58411  0.18100  Biso   1.000  H
  H62      1.0000 0.42418  0.52558  0.18079  Biso   1.000  H
  C66      1.0000 0.49300  0.52990  0.13060  Biso   1.000  C
  H63      1.0000 0.52689  0.46140  0.09770  Biso   1.000  H
  H64      1.0000 0.47368  0.44891  0.13068  Biso   1.000  H
  H65      1.0000 0.66318  0.38099  0.46669  Biso   1.000  H
  N15      1.0000 0.71789  0.46779  0.46380  Biso   1.000  N
  H66      1.0000 0.72619  0.45591  0.38400  Biso   1.000  H
  H67      1.0000 0.68620  0.50350  0.39832  Biso   1.000  H
  N16      1.0000 0.53620  0.28211  0.46779  Biso   1.000  N
  H68      1.0000 0.61600  0.27381  0.45591  Biso   1.000  H
  H69      1.0000 0.60168  0.31380  0.50350  Biso   1.000  H
  C67      1.0000 0.38620  0.56288  0.35980  Biso   1.000  C
  C68      1.0000 0.43712  0.64020  0.38620  Biso   1.000  C
  H70      1.0000 0.47311  0.53860  0.09770  Biso   1.000  H
  H71      1.0000 0.52632  0.55109  0.13068  Biso   1.000  H
  C69      1.0000 0.68271  0.50000  0.50000  Biso   1.000  C
  C70      1.0000 0.77068  0.49300  0.47039  Biso   1.000  C
  C71      1.0000 0.50000  0.31729  0.50000  Biso   1.000  C
  C72      1.0000 0.52961  0.22932  0.49300  Biso   1.000  C
  H72      1.0000 0.38099  0.53331  0.33682  Biso   1.000  H
  C73      1.0000 0.35048  0.57122  0.40259  Biso   1.000  C
  H73      1.0000 0.46669  0.66318  0.38099  Biso   1.000  H
  C74      1.0000 0.40259  0.64952  0.42878  Biso   1.000  C
  N17      1.0000 0.71789  0.53221  0.53620  Biso   1.000  N
  H74      1.0000 0.65968  0.47608  0.52131  Biso   1.000  H
  H75      1.0000 0.65968  0.52392  0.47869  Biso   1.000  H
  C75      1.0000 0.77068  0.50700  0.52961  Biso   1.000  C
  H76      1.0000 0.77150  0.52668  0.44920  Biso   1.000  H
  C76      1.0000 0.81929  0.45831  0.45461  Biso   1.000  C
  N18      1.0000 0.46380  0.28211  0.53221  Biso   1.000  N
  H77      1.0000 0.52131  0.34032  0.52392  Biso   1.000  H
  H78      1.0000 0.47869  0.34032  0.47608  Biso   1.000  H
  C77      1.0000 0.47039  0.22932  0.50700  Biso   1.000  C
  H79      1.0000 0.55080  0.22850  0.52668  Biso   1.000  H
  C78      1.0000 0.54539  0.18071  0.45831  Biso   1.000  C
  C79      1.0000 0.35980  0.61380  0.43712  Biso   1.000  C
  C80      1.0000 0.30269  0.53290  0.40848  Biso   1.000  C
  C81      1.0000 0.40848  0.69731  0.46710  Biso   1.000  C
  C82      1.0000 0.69731  0.53290  0.59152  Biso   1.000  C
  H80      1.0000 0.77150  0.47332  0.55080  Biso   1.000  H
  C83      1.0000 0.81929  0.54169  0.54539  Biso   1.000  C
  H81      1.0000 0.81900  0.45058  0.41589  Biso   1.000  H
  H82      1.0000 0.81921  0.42418  0.47442  Biso   1.000  H
  C84      1.0000 0.86940  0.49300  0.47010  Biso   1.000  C
  C85      1.0000 0.40848  0.30269  0.53290  Biso   1.000  C
  H83      1.0000 0.44920  0.22850  0.47332  Biso   1.000  H
  C86      1.0000 0.45461  0.18071  0.54169  Biso   1.000  C
  H84      1.0000 0.58411  0.18100  0.45058  Biso   1.000  H
  H85      1.0000 0.52558  0.18079  0.42418  Biso   1.000  H
  C87      1.0000 0.52990  0.13060  0.49300  Biso   1.000  C
  H86      1.0000 0.33682  0.61901  0.46669  Biso   1.000  H
  N19      1.0000 0.28211  0.53221  0.46380  Biso   1.000  N
  H87      1.0000 0.27381  0.54409  0.38400  Biso   1.000  H
  H88      1.0000 0.31380  0.49650  0.39832  Biso   1.000  H
  N20      1.0000 0.46380  0.71789  0.46779  Biso   1.000  N
  H89      1.0000 0.38400  0.72619  0.45591  Biso   1.000  H
  H90      1.0000 0.39832  0.68620  0.50350  Biso   1.000  H
  C88      1.0000 0.64952  0.57122  0.59741  Biso   1.000  C
  H91      1.0000 0.72619  0.54409  0.61600  Biso   1.000  H
  H92      1.0000 0.68620  0.49650  0.60168  Biso   1.000  H
  H93      1.0000 0.81900  0.54942  0.58411  Biso   1.000  H
  H94      1.0000 0.81921  0.57582  0.52558  Biso   1.000  H
  C89      1.0000 0.86940  0.50700  0.52990  Biso   1.000  C
  H95      1.0000 0.90230  0.47311  0.46140  Biso   1.000  H
  H96      1.0000 0.86932  0.52632  0.44891  Biso   1.000  H
  C90      1.0000 0.40259  0.35048  0.57122  Biso   1.000  C
  H97      1.0000 0.38400  0.27381  0.54409  Biso   1.000  H
  H98      1.0000 0.39832  0.31380  0.49650  Biso   1.000  H
  H99      1.0000 0.41589  0.18100  0.54942  Biso   1.000  H
  H100     1.0000 0.47442  0.18079  0.57582  Biso   1.000  H
  C91      1.0000 0.47010  0.13060  0.50700  Biso   1.000  C
  H101     1.0000 0.53860  0.09770  0.47311  Biso   1.000  H
  H102     1.0000 0.55109  0.13068  0.52632  Biso   1.000  H
  C92      1.0000 0.31729  0.50000  0.50000  Biso   1.000  C
  C93      1.0000 0.22932  0.50700  0.47039  Biso   1.000  C
  C94      1.0000 0.50000  0.68271  0.50000  Biso   1.000  C
  C95      1.0000 0.47039  0.77068  0.49300  Biso   1.000  C
  C96      1.0000 0.61380  0.56288  0.64020  Biso   1.000  C
  C97      1.0000 0.64020  0.61380  0.56288  Biso   1.000  C
  H103     1.0000 0.90230  0.52689  0.53860  Biso   1.000  H
  H104     1.0000 0.86932  0.47368  0.55109  Biso   1.000  H
  C98      1.0000 0.43712  0.35980  0.61380  Biso   1.000  C
  C99      1.0000 0.35980  0.38620  0.56288  Biso   1.000  C
  H105     1.0000 0.46140  0.09770  0.52689  Biso   1.000  H
  H106     1.0000 0.44891  0.13068  0.47368  Biso   1.000  H
  N21      1.0000 0.28211  0.46779  0.53620  Biso   1.000  N
  H107     1.0000 0.34032  0.52392  0.52131  Biso   1.000  H
  H108     1.0000 0.34032  0.47608  0.47869  Biso   1.000  H
  C100     1.0000 0.22932  0.49300  0.52961  Biso   1.000  C
  H109     1.0000 0.22850  0.47332  0.44920  Biso   1.000  H
  C101     1.0000 0.18071  0.54169  0.45461  Biso   1.000  C
  N22      1.0000 0.53620  0.71789  0.53221  Biso   1.000  N
  H110     1.0000 0.47869  0.65968  0.52392  Biso   1.000  H
  H111     1.0000 0.52131  0.65968  0.47608  Biso   1.000  H
  C102     1.0000 0.52961  0.77068  0.50700  Biso   1.000  C
  H112     1.0000 0.44920  0.77150  0.52668  Biso   1.000  H
  C103     1.0000 0.45461  0.81929  0.45831  Biso   1.000  C
  H113     1.0000 0.61901  0.53331  0.66318  Biso   1.000  H
  C104     1.0000 0.57122  0.59741  0.64952  Biso   1.000  C
  H114     1.0000 0.66318  0.61901  0.53331  Biso   1.000  H
  C105     1.0000 0.59741  0.64952  0.57122  Biso   1.000  C
  H115     1.0000 0.46669  0.33682  0.61901  Biso   1.000  H
  C106     1.0000 0.42878  0.40259  0.64952  Biso   1.000  C
  H116     1.0000 0.33682  0.38099  0.53331  Biso   1.000  H
  C107     1.0000 0.35048  0.42878  0.59741  Biso   1.000  C
  C108     1.0000 0.30269  0.46710  0.59152  Biso   1.000  C
  H117     1.0000 0.22850  0.52668  0.55080  Biso   1.000  H
  C109     1.0000 0.18071  0.45831  0.54539  Biso   1.000  C
  H118     1.0000 0.18100  0.54942  0.41589  Biso   1.000  H
  H119     1.0000 0.18079  0.57582  0.47442  Biso   1.000  H
  C110     1.0000 0.13060  0.50700  0.47010  Biso   1.000  C
  C111     1.0000 0.59152  0.69731  0.53290  Biso   1.000  C
  H120     1.0000 0.55080  0.77150  0.47332  Biso   1.000  H
  C112     1.0000 0.54539  0.81929  0.54169  Biso   1.000  C
  H121     1.0000 0.41589  0.81900  0.45058  Biso   1.000  H
  H122     1.0000 0.47442  0.81921  0.42418  Biso   1.000  H
  C113     1.0000 0.47010  0.86940  0.49300  Biso   1.000  C
  C114     1.0000 0.56288  0.64020  0.61380  Biso   1.000  C
  C115     1.0000 0.53290  0.59152  0.69731  Biso   1.000  C
  C116     1.0000 0.38620  0.43712  0.64020  Biso   1.000  C
  C117     1.0000 0.46710  0.40848  0.69731  Biso   1.000  C
  H123     1.0000 0.27381  0.45591  0.61600  Biso   1.000  H
  H124     1.0000 0.31380  0.50350  0.60168  Biso   1.000  H
  H125     1.0000 0.18100  0.45058  0.58411  Biso   1.000  H
  H126     1.0000 0.18079  0.42418  0.52558  Biso   1.000  H
  C118     1.0000 0.13060  0.49300  0.52990  Biso   1.000  C
  H127     1.0000 0.09770  0.52689  0.46140  Biso   1.000  H
  H128     1.0000 0.13068  0.47368  0.44891  Biso   1.000  H
  H129     1.0000 0.61600  0.72619  0.54409  Biso   1.000  H
  H130     1.0000 0.60168  0.68620  0.49650  Biso   1.000  H
  H131     1.0000 0.58411  0.81900  0.54942  Biso   1.000  H
  H132     1.0000 0.52558  0.81921  0.57582  Biso   1.000  H
  C119     1.0000 0.52990  0.86940  0.50700  Biso   1.000  C
  H133     1.0000 0.46140  0.90230  0.47311  Biso   1.000  H
  H134     1.0000 0.44891  0.86932  0.52632  Biso   1.000  H
  H135     1.0000 0.53331  0.66318  0.61901  Biso   1.000  H
  N23      1.0000 0.53221  0.53620  0.71789  Biso   1.000  N
  H136     1.0000 0.54409  0.61600  0.72619  Biso   1.000  H
  H137     1.0000 0.49650  0.60168  0.68620  Biso   1.000  H
  H138     1.0000 0.38099  0.46669  0.66318  Biso   1.000  H
  N24      1.0000 0.46779  0.46380  0.71789  Biso   1.000  N
  H139     1.0000 0.45591  0.38400  0.72619  Biso   1.000  H
  H140     1.0000 0.50350  0.39832  0.68620  Biso   1.000  H
  H141     1.0000 0.09770  0.47311  0.53860  Biso   1.000  H
  H142     1.0000 0.13068  0.52632  0.55109  Biso   1.000  H
  H143     1.0000 0.53860  0.90230  0.52689  Biso   1.000  H
  H144     1.0000 0.55109  0.86932  0.47368  Biso   1.000  H
  C120     1.0000 0.50000  0.50000  0.68271  Biso   1.000  C
  C121     1.0000 0.50700  0.52961  0.77068  Biso   1.000  C
  C122     1.0000 0.49300  0.47039  0.77068  Biso   1.000  C
  H145     1.0000 0.52392  0.47869  0.65968  Biso   1.000  H
  H146     1.0000 0.47608  0.52131  0.65968  Biso   1.000  H
  H147     1.0000 0.47332  0.55080  0.77150  Biso   1.000  H
  C123     1.0000 0.54169  0.54539  0.81929  Biso   1.000  C
  H148     1.0000 0.52668  0.44920  0.77150  Biso   1.000  H
  C124     1.0000 0.45831  0.45461  0.81929  Biso   1.000  C
  H149     1.0000 0.54942  0.58411  0.81900  Biso   1.000  H
  H150     1.0000 0.57582  0.52558  0.81921  Biso   1.000  H
  C125     1.0000 0.50700  0.52990  0.86940  Biso   1.000  C
  H151     1.0000 0.45058  0.41589  0.81900  Biso   1.000  H
  H152     1.0000 0.42418  0.47442  0.81921  Biso   1.000  H
  C126     1.0000 0.49300  0.47010  0.86940  Biso   1.000  C
  H153     1.0000 0.52689  0.53860  0.90230  Biso   1.000  H
  H154     1.0000 0.47368  0.55109  0.86932  Biso   1.000  H
  H155     1.0000 0.47311  0.46140  0.90230  Biso   1.000  H
  H156     1.0000 0.52632  0.44891  0.86932  Biso   1.000  H
  C127     1.0000 0.53290  0.09152  0.19731  Biso   1.000  C
  N25      1.0000 0.53221  0.03620  0.21789  Biso   1.000  N
  C128     1.0000 0.57122  0.09741  0.14952  Biso   1.000  C
  H157     1.0000 0.54409  0.11600  0.22619  Biso   1.000  H
  H158     1.0000 0.49650  0.10168  0.18620  Biso   1.000  H
  C129     1.0000 0.50000  0.00000  0.18271  Biso   1.000  C
  C130     1.0000 0.50700  0.02961  0.27068  Biso   1.000  C
  C131     1.0000 0.61380  0.06288  0.14020  Biso   1.000  C
  C132     1.0000 0.56288  0.14020  0.11380  Biso   1.000  C
  H159     1.0000 0.47608  0.02131  0.15968  Biso   1.000  H
  N26      1.0000 0.46779  0.96380  0.21789  Biso   1.000  N
  H160     1.0000 0.52392  0.97869  0.15968  Biso   1.000  H
  H161     1.0000 0.47332  0.05080  0.27150  Biso   1.000  H
  C133     1.0000 0.54169  0.04539  0.31929  Biso   1.000  C
  C134     1.0000 0.49300  0.97039  0.27068  Biso   1.000  C
  H162     1.0000 0.61901  0.03331  0.16318  Biso   1.000  H
  C135     1.0000 0.64952  0.07122  0.09741  Biso   1.000  C
  H163     1.0000 0.53331  0.16318  0.11901  Biso   1.000  H
  C136     1.0000 0.59741  0.14952  0.07122  Biso   1.000  C
  C137     1.0000 0.46710  0.90848  0.19731  Biso   1.000  C
  H164     1.0000 0.54942  0.08411  0.31900  Biso   1.000  H
  H165     1.0000 0.57582  0.02558  0.31921  Biso   1.000  H
  C138     1.0000 0.50700  0.02990  0.36940  Biso   1.000  C
  H166     1.0000 0.52668  0.94920  0.27150  Biso   1.000  H
  C139     1.0000 0.45831  0.95461  0.31929  Biso   1.000  C
  C140     1.0000 0.64020  0.11380  0.06288  Biso   1.000  C
  C141     1.0000 0.69731  0.03290  0.09152  Biso   1.000  C
  C142     1.0000 0.59152  0.19731  0.03290  Biso   1.000  C
  C143     1.0000 0.42878  0.90259  0.14952  Biso   1.000  C
  H167     1.0000 0.45591  0.88400  0.22619  Biso   1.000  H
  H168     1.0000 0.50350  0.89832  0.18620  Biso   1.000  H
  H169     1.0000 0.52689  0.03860  0.40230  Biso   1.000  H
  H170     1.0000 0.47368  0.05109  0.36932  Biso   1.000  H
  C144     1.0000 0.49300  0.97010  0.36940  Biso   1.000  C
  H171     1.0000 0.45058  0.91589  0.31900  Biso   1.000  H
  H172     1.0000 0.42418  0.97442  0.31921  Biso   1.000  H
  H173     1.0000 0.66318  0.11901  0.03331  Biso   1.000  H
  N27      1.0000 0.71789  0.03221  0.03620  Biso   1.000  N
  H174     1.0000 0.72619  0.04409  0.11600  Biso   1.000  H
  H175     1.0000 0.68620  0.99650  0.10168  Biso   1.000  H
  N28      1.0000 0.53620  0.21789  0.03221  Biso   1.000  N
  H176     1.0000 0.61600  0.22619  0.04409  Biso   1.000  H
  H177     1.0000 0.60168  0.18620  0.99650  Biso   1.000  H
  C145     1.0000 0.43712  0.85980  0.11380  Biso   1.000  C
  C146     1.0000 0.38620  0.93712  0.14020  Biso   1.000  C
  H178     1.0000 0.47311  0.96140  0.40230  Biso   1.000  H
  H179     1.0000 0.52632  0.94891  0.36932  Biso   1.000  H
  C147     1.0000 0.68271  0.00000  0.00000  Biso   1.000  C
  C148     1.0000 0.77068  0.00700  0.02961  Biso   1.000  C
  C149     1.0000 0.50000  0.18271  0.00000  Biso   1.000  C
  C150     1.0000 0.52961  0.27068  0.00700  Biso   1.000  C
  H180     1.0000 0.46669  0.83682  0.11901  Biso   1.000  H
  C151     1.0000 0.40259  0.85048  0.07122  Biso   1.000  C
  H181     1.0000 0.38099  0.96669  0.16318  Biso   1.000  H
  C152     1.0000 0.35048  0.92878  0.09741  Biso   1.000  C
  N29      1.0000 0.71789  0.96779  0.96380  Biso   1.000  N
  H182     1.0000 0.65968  0.97608  0.02131  Biso   1.000  H
  H183     1.0000 0.65968  0.02392  0.97869  Biso   1.000  H
  C153     1.0000 0.81929  0.04169  0.04539  Biso   1.000  C
  C154     1.0000 0.77068  0.99300  0.97039  Biso   1.000  C
  H184     1.0000 0.77150  0.97332  0.05080  Biso   1.000  H
  H185     1.0000 0.47869  0.15968  0.02392  Biso   1.000  H
  N30      1.0000 0.46380  0.21789  0.96779  Biso   1.000  N
  H186     1.0000 0.52131  0.15968  0.97608  Biso   1.000  H
  C155     1.0000 0.54539  0.31929  0.04169  Biso   1.000  C
  C156     1.0000 0.47039  0.27068  0.99300  Biso   1.000  C
  H187     1.0000 0.55080  0.27150  0.97332  Biso   1.000  H
  C157     1.0000 0.35980  0.88620  0.06288  Biso   1.000  C
  C158     1.0000 0.40848  0.80269  0.03290  Biso   1.000  C
  C159     1.0000 0.30269  0.96710  0.09152  Biso   1.000  C
  C160     1.0000 0.69731  0.96710  0.90848  Biso   1.000  C
  H188     1.0000 0.81900  0.04942  0.08411  Biso   1.000  H
  H189     1.0000 0.81921  0.07582  0.02558  Biso   1.000  H
  C161     1.0000 0.86940  0.00700  0.02990  Biso   1.000  C
  C162     1.0000 0.81929  0.95831  0.95461  Biso   1.000  C
  H190     1.0000 0.77150  0.02668  0.94920  Biso   1.000  H
  C163     1.0000 0.40848  0.19731  0.96710  Biso   1.000  C
  H191     1.0000 0.58411  0.31900  0.04942  Biso   1.000  H
  H192     1.0000 0.52558  0.31921  0.07582  Biso   1.000  H
  C164     1.0000 0.52990  0.36940  0.00700  Biso   1.000  C
  H193     1.0000 0.44920  0.27150  0.02668  Biso   1.000  H
  C165     1.0000 0.45461  0.31929  0.95831  Biso   1.000  C
  H194     1.0000 0.33682  0.88099  0.03331  Biso   1.000  H
  H195     1.0000 0.39832  0.81380  0.99650  Biso   1.000  H
  N31      1.0000 0.46380  0.78211  0.03221  Biso   1.000  N
  H196     1.0000 0.38400  0.77381  0.04409  Biso   1.000  H
  H197     1.0000 0.31380  0.00350  0.10168  Biso   1.000  H
  N32      1.0000 0.28211  0.96779  0.03620  Biso   1.000  N
  H198     1.0000 0.27381  0.95591  0.11600  Biso   1.000  H
  C166     1.0000 0.64952  0.92878  0.90259  Biso   1.000  C
  H199     1.0000 0.72619  0.95591  0.88400  Biso   1.000  H
  H200     1.0000 0.68620  0.00350  0.89832  Biso   1.000  H
  H201     1.0000 0.90230  0.02689  0.03860  Biso   1.000  H
  C167     1.0000 0.86940  0.99300  0.97010  Biso   1.000  C
  H202     1.0000 0.86932  0.97368  0.05109  Biso   1.000  H
  H203     1.0000 0.81900  0.95058  0.91589  Biso   1.000  H
  H204     1.0000 0.81921  0.92418  0.97442  Biso   1.000  H
  H205     1.0000 0.39832  0.18620  0.00350  Biso   1.000  H
  C168     1.0000 0.40259  0.14952  0.92878  Biso   1.000  C
  H206     1.0000 0.38400  0.22619  0.95591  Biso   1.000  H
  H207     1.0000 0.53860  0.40230  0.02689  Biso   1.000  H
  C169     1.0000 0.47010  0.36940  0.99300  Biso   1.000  C
  H208     1.0000 0.55109  0.36932  0.97368  Biso   1.000  H
  H209     1.0000 0.41589  0.31900  0.95058  Biso   1.000  H
  H210     1.0000 0.47442  0.31921  0.92418  Biso   1.000  H
  C170     1.0000 0.50000  0.81729  0.00000  Biso   1.000  C
  C171     1.0000 0.47039  0.72932  0.00700  Biso   1.000  C
  C172     1.0000 0.31729  0.00000  0.00000  Biso   1.000  C
  C173     1.0000 0.22932  0.99300  0.02961  Biso   1.000  C
  C174     1.0000 0.61380  0.93712  0.85980  Biso   1.000  C
  C175     1.0000 0.64020  0.88620  0.93712  Biso   1.000  C
  H211     1.0000 0.90230  0.97311  0.96140  Biso   1.000  H
  H212     1.0000 0.86932  0.02632  0.94891  Biso   1.000  H
  C176     1.0000 0.35980  0.11380  0.93712  Biso   1.000  C
  C177     1.0000 0.43712  0.14020  0.88620  Biso   1.000  C
  H213     1.0000 0.44891  0.36932  0.02632  Biso   1.000  H
  H214     1.0000 0.46140  0.40230  0.97311  Biso   1.000  H
  N33      1.0000 0.53620  0.78211  0.96779  Biso   1.000  N
  H215     1.0000 0.47869  0.84032  0.97608  Biso   1.000  H
  H216     1.0000 0.52131  0.84032  0.02392  Biso   1.000  H
  C178     1.0000 0.52961  0.72932  0.99300  Biso   1.000  C
  H217     1.0000 0.44920  0.72850  0.97332  Biso   1.000  H
  C179     1.0000 0.45461  0.68071  0.04169  Biso   1.000  C
  H218     1.0000 0.34032  0.02392  0.02131  Biso   1.000  H
  H219     1.0000 0.34032  0.97608  0.97869  Biso   1.000  H
  N34      1.0000 0.28211  0.03221  0.96380  Biso   1.000  N
  H220     1.0000 0.22850  0.02668  0.05080  Biso   1.000  H
  C180     1.0000 0.18071  0.95831  0.04539  Biso   1.000  C
  C181     1.0000 0.22932  0.00700  0.97039  Biso   1.000  C
  H221     1.0000 0.61901  0.96669  0.83682  Biso   1.000  H
  C182     1.0000 0.57122  0.90259  0.85048  Biso   1.000  C
  H222     1.0000 0.66318  0.88099  0.96669  Biso   1.000  H
  C183     1.0000 0.59741  0.85048  0.92878  Biso   1.000  C
  H223     1.0000 0.33682  0.11901  0.96669  Biso   1.000  H
  C184     1.0000 0.35048  0.07122  0.90259  Biso   1.000  C
  H224     1.0000 0.46669  0.16318  0.88099  Biso   1.000  H
  C185     1.0000 0.42878  0.09741  0.85048  Biso   1.000  C
  C186     1.0000 0.59152  0.80269  0.96710  Biso   1.000  C
  C187     1.0000 0.54539  0.68071  0.95831  Biso   1.000  C
  H225     1.0000 0.55080  0.72850  0.02668  Biso   1.000  H
  H226     1.0000 0.41589  0.68100  0.04942  Biso   1.000  H
  H227     1.0000 0.47442  0.68079  0.07582  Biso   1.000  H
  C188     1.0000 0.47010  0.63060  0.00700  Biso   1.000  C
  C189     1.0000 0.30269  0.03290  0.90848  Biso   1.000  C
  H228     1.0000 0.18100  0.95058  0.08411  Biso   1.000  H
  H229     1.0000 0.18079  0.92418  0.02558  Biso   1.000  H
  C190     1.0000 0.13060  0.99300  0.02990  Biso   1.000  C
  H230     1.0000 0.22850  0.97332  0.94920  Biso   1.000  H
  C191     1.0000 0.18071  0.04169  0.95461  Biso   1.000  C
  C192     1.0000 0.56288  0.85980  0.88620  Biso   1.000  C
  C193     1.0000 0.53290  0.90848  0.80269  Biso   1.000  C
  C194     1.0000 0.38620  0.06288  0.85980  Biso   1.000  C
  C195     1.0000 0.46710  0.09152  0.80269  Biso   1.000  C
  H231     1.0000 0.61600  0.77381  0.95591  Biso   1.000  H
  H232     1.0000 0.60168  0.81380  0.00350  Biso   1.000  H
  H233     1.0000 0.58411  0.68100  0.95058  Biso   1.000  H
  H234     1.0000 0.52558  0.68079  0.92418  Biso   1.000  H
  C196     1.0000 0.52990  0.63060  0.99300  Biso   1.000  C
  H235     1.0000 0.44891  0.63068  0.97368  Biso   1.000  H
  H236     1.0000 0.46140  0.59770  0.02689  Biso   1.000  H
  H237     1.0000 0.31380  0.99650  0.89832  Biso   1.000  H
  H238     1.0000 0.27381  0.04409  0.88400  Biso   1.000  H
  H239     1.0000 0.13068  0.02632  0.05109  Biso   1.000  H
  H240     1.0000 0.09770  0.97311  0.03860  Biso   1.000  H
  C197     1.0000 0.13060  0.00700  0.97010  Biso   1.000  C
  H241     1.0000 0.18100  0.04942  0.91589  Biso   1.000  H
  H242     1.0000 0.18079  0.07582  0.97442  Biso   1.000  H
  H243     1.0000 0.53331  0.83682  0.88099  Biso   1.000  H
  N35      1.0000 0.53221  0.96380  0.78211  Biso   1.000  N
  H244     1.0000 0.54409  0.88400  0.77381  Biso   1.000  H
  H245     1.0000 0.49650  0.89832  0.81380  Biso   1.000  H
  H246     1.0000 0.38099  0.03331  0.83682  Biso   1.000  H
  N36      1.0000 0.46779  0.03620  0.78211  Biso   1.000  N
  H247     1.0000 0.45591  0.11600  0.77381  Biso   1.000  H
  H248     1.0000 0.50350  0.10168  0.81380  Biso   1.000  H
  H249     1.0000 0.53860  0.59770  0.97311  Biso   1.000  H
  H250     1.0000 0.55109  0.63068  0.02632  Biso   1.000  H
  H251     1.0000 0.13068  0.97368  0.94891  Biso   1.000  H
  H252     1.0000 0.09770  0.02689  0.96140  Biso   1.000  H
  C198     1.0000 0.50700  0.97039  0.72932  Biso   1.000  C
  C199     1.0000 0.50000  0.00000  0.81729  Biso   1.000  C
  C200     1.0000 0.49300  0.02961  0.72932  Biso   1.000  C
  H253     1.0000 0.47332  0.94920  0.72850  Biso   1.000  H
  C201     1.0000 0.54169  0.95461  0.68071  Biso   1.000  C
  H254     1.0000 0.47608  0.97869  0.84032  Biso   1.000  H
  H255     1.0000 0.52392  0.02131  0.84032  Biso   1.000  H
  H256     1.0000 0.52668  0.05080  0.72850  Biso   1.000  H
  C202     1.0000 0.45831  0.04539  0.68071  Biso   1.000  C
  H257     1.0000 0.54942  0.91589  0.68100  Biso   1.000  H
  H258     1.0000 0.57582  0.97442  0.68079  Biso   1.000  H
  C203     1.0000 0.50700  0.97010  0.63060  Biso   1.000  C
  H259     1.0000 0.45058  0.08411  0.68100  Biso   1.000  H
  H260     1.0000 0.42418  0.02558  0.68079  Biso   1.000  H
  C204     1.0000 0.49300  0.02990  0.63060  Biso   1.000  C
  H261     1.0000 0.52689  0.96140  0.59770  Biso   1.000  H
  H262     1.0000 0.47368  0.94891  0.63068  Biso   1.000  H
  H263     1.0000 0.47311  0.03860  0.59770  Biso   1.000  H
  H264     1.0000 0.52632  0.05109  0.63068  Biso   1.000  H
  C205     1.0000 0.19731  0.53290  0.09152  Biso   1.000  C
  N37      1.0000 0.21789  0.53221  0.03620  Biso   1.000  N
  C206     1.0000 0.14952  0.57122  0.09741  Biso   1.000  C
  H265     1.0000 0.22619  0.54409  0.11600  Biso   1.000  H
  H266     1.0000 0.18620  0.49650  0.10168  Biso   1.000  H
  C207     1.0000 0.18271  0.50000  0.00000  Biso   1.000  C
  C208     1.0000 0.27068  0.50700  0.02961  Biso   1.000  C
  C209     1.0000 0.11380  0.56288  0.14020  Biso   1.000  C
  C210     1.0000 0.14020  0.61380  0.06288  Biso   1.000  C
  H267     1.0000 0.15968  0.47608  0.02131  Biso   1.000  H
  N38      1.0000 0.21789  0.46779  0.96380  Biso   1.000  N
  H268     1.0000 0.15968  0.52392  0.97869  Biso   1.000  H
  H269     1.0000 0.27150  0.47332  0.05080  Biso   1.000  H
  C211     1.0000 0.31929  0.54169  0.04539  Biso   1.000  C
  C212     1.0000 0.27068  0.49300  0.97039  Biso   1.000  C
  H270     1.0000 0.11901  0.53331  0.16318  Biso   1.000  H
  C213     1.0000 0.07122  0.59741  0.14952  Biso   1.000  C
  H271     1.0000 0.16318  0.61901  0.03331  Biso   1.000  H
  C214     1.0000 0.09741  0.64952  0.07122  Biso   1.000  C
  C215     1.0000 0.19731  0.46710  0.90848  Biso   1.000  C
  H272     1.0000 0.31900  0.54942  0.08411  Biso   1.000  H
  H273     1.0000 0.31921  0.57582  0.02558  Biso   1.000  H
  C216     1.0000 0.36940  0.50700  0.02990  Biso   1.000  C
  H274     1.0000 0.27150  0.52668  0.94920  Biso   1.000  H
  C217     1.0000 0.31929  0.45831  0.95461  Biso   1.000  C
  C218     1.0000 0.06288  0.64020  0.11380  Biso   1.000  C
  C219     1.0000 0.03290  0.59152  0.19731  Biso   1.000  C
  C220     1.0000 0.09152  0.69731  0.03290  Biso   1.000  C
  C221     1.0000 0.14952  0.42878  0.90259  Biso   1.000  C
  H275     1.0000 0.22619  0.45591  0.88400  Biso   1.000  H
  H276     1.0000 0.18620  0.50350  0.89832  Biso   1.000  H
  H277     1.0000 0.40230  0.52689  0.03860  Biso   1.000  H
  H278     1.0000 0.36932  0.47368  0.05109  Biso   1.000  H
  C222     1.0000 0.36940  0.49300  0.97010  Biso   1.000  C
  H279     1.0000 0.31900  0.45058  0.91589  Biso   1.000  H
  H280     1.0000 0.31921  0.42418  0.97442  Biso   1.000  H
  H281     1.0000 0.03331  0.66318  0.11901  Biso   1.000  H
  N39      1.0000 0.03221  0.53620  0.21789  Biso   1.000  N
  H282     1.0000 0.04409  0.61600  0.22619  Biso   1.000  H
  H283     1.0000 0.99650  0.60168  0.18620  Biso   1.000  H
  N40      1.0000 0.03620  0.71789  0.03221  Biso   1.000  N
  H284     1.0000 0.11600  0.72619  0.04409  Biso   1.000  H
  H285     1.0000 0.10168  0.68620  0.99650  Biso   1.000  H
  C223     1.0000 0.11380  0.43712  0.85980  Biso   1.000  C
  C224     1.0000 0.14020  0.38620  0.93712  Biso   1.000  C
  H286     1.0000 0.40230  0.47311  0.96140  Biso   1.000  H
  H287     1.0000 0.36932  0.52632  0.94891  Biso   1.000  H
  C225     1.0000 0.00000  0.50000  0.18271  Biso   1.000  C
  C226     1.0000 0.00700  0.52961  0.27068  Biso   1.000  C
  C227     1.0000 0.00000  0.68271  0.00000  Biso   1.000  C
  C228     1.0000 0.02961  0.77068  0.00700  Biso   1.000  C
  H288     1.0000 0.11901  0.46669  0.83682  Biso   1.000  H
  C229     1.0000 0.07122  0.40259  0.85048  Biso   1.000  C
  H289     1.0000 0.16318  0.38099  0.96669  Biso   1.000  H
  C230     1.0000 0.09741  0.35048  0.92878  Biso   1.000  C
  H290     1.0000 0.02392  0.47869  0.15968  Biso   1.000  H
  N41      1.0000 0.96779  0.46380  0.21789  Biso   1.000  N
  H291     1.0000 0.97608  0.52131  0.15968  Biso   1.000  H
  C231     1.0000 0.04169  0.54539  0.31929  Biso   1.000  C
  C232     1.0000 0.99300  0.47039  0.27068  Biso   1.000  C
  H292     1.0000 0.97332  0.55080  0.27150  Biso   1.000  H
  N42      1.0000 0.96380  0.71789  0.96779  Biso   1.000  N
  H293     1.0000 0.97869  0.65968  0.02392  Biso   1.000  H
  H294     1.0000 0.02131  0.65968  0.97608  Biso   1.000  H
  C233     1.0000 0.04539  0.81929  0.04169  Biso   1.000  C
  C234     1.0000 0.97039  0.77068  0.99300  Biso   1.000  C
  H295     1.0000 0.05080  0.77150  0.97332  Biso   1.000  H
  C235     1.0000 0.06288  0.35980  0.88620  Biso   1.000  C
  C236     1.0000 0.03290  0.40848  0.80269  Biso   1.000  C
  C237     1.0000 0.09152  0.30269  0.96710  Biso   1.000  C
  C238     1.0000 0.96710  0.40848  0.19731  Biso   1.000  C
  H296     1.0000 0.04942  0.58411  0.31900  Biso   1.000  H
  H297     1.0000 0.07582  0.52558  0.31921  Biso   1.000  H
  C239     1.0000 0.00700  0.52990  0.36940  Biso   1.000  C
  H298     1.0000 0.02668  0.44920  0.27150  Biso   1.000  H
  C240     1.0000 0.95831  0.45461  0.31929  Biso   1.000  C
  C241     1.0000 0.90848  0.69731  0.96710  Biso   1.000  C
  H299     1.0000 0.08411  0.81900  0.04942  Biso   1.000  H
  H300     1.0000 0.02558  0.81921  0.07582  Biso   1.000  H
  C242     1.0000 0.02990  0.86940  0.00700  Biso   1.000  C
  C243     1.0000 0.95461  0.81929  0.95831  Biso   1.000  C
  H301     1.0000 0.94920  0.77150  0.02668  Biso   1.000  H
  H302     1.0000 0.03331  0.33682  0.88099  Biso   1.000  H
  H303     1.0000 0.99650  0.39832  0.81380  Biso   1.000  H
  N43      1.0000 0.03221  0.46380  0.78211  Biso   1.000  N
  H304     1.0000 0.04409  0.38400  0.77381  Biso   1.000  H
  H305     1.0000 0.10168  0.31380  0.00350  Biso   1.000  H
  N44      1.0000 0.03620  0.28211  0.96779  Biso   1.000  N
  H306     1.0000 0.11600  0.27381  0.95591  Biso   1.000  H
  H307     1.0000 0.00350  0.39832  0.18620  Biso   1.000  H
  C244     1.0000 0.92878  0.40259  0.14952  Biso   1.000  C
  H308     1.0000 0.95591  0.38400  0.22619  Biso   1.000  H
  H309     1.0000 0.02689  0.53860  0.40230  Biso   1.000  H
  C245     1.0000 0.99300  0.47010  0.36940  Biso   1.000  C
  H310     1.0000 0.97368  0.55109  0.36932  Biso   1.000  H
  H311     1.0000 0.95058  0.41589  0.31900  Biso   1.000  H
  H312     1.0000 0.92418  0.47442  0.31921  Biso   1.000  H
  C246     1.0000 0.90259  0.64952  0.92878  Biso   1.000  C
  H313     1.0000 0.88400  0.72619  0.95591  Biso   1.000  H
  H314     1.0000 0.89832  0.68620  0.00350  Biso   1.000  H
  H315     1.0000 0.03860  0.90230  0.02689  Biso   1.000  H
  C247     1.0000 0.97010  0.86940  0.99300  Biso   1.000  C
  H316     1.0000 0.05109  0.86932  0.97368  Biso   1.000  H
  H317     1.0000 0.91589  0.81900  0.95058  Biso   1.000  H
  H318     1.0000 0.97442  0.81921  0.92418  Biso   1.000  H
  C248     1.0000 0.00000  0.50000  0.81729  Biso   1.000  C
  C249     1.0000 0.00700  0.47039  0.72932  Biso   1.000  C
  C250     1.0000 0.00000  0.31729  0.00000  Biso   1.000  C
  C251     1.0000 0.02961  0.22932  0.99300  Biso   1.000  C
  C252     1.0000 0.93712  0.35980  0.11380  Biso   1.000  C
  C253     1.0000 0.88620  0.43712  0.14020  Biso   1.000  C
  H319     1.0000 0.02632  0.44891  0.36932  Biso   1.000  H
  H320     1.0000 0.97311  0.46140  0.40230  Biso   1.000  H
  C254     1.0000 0.85980  0.61380  0.93712  Biso   1.000  C
  C255     1.0000 0.93712  0.64020  0.88620  Biso   1.000  C
  H321     1.0000 0.96140  0.90230  0.97311  Biso   1.000  H
  H322     1.0000 0.94891  0.86932  0.02632  Biso   1.000  H
  N45      1.0000 0.96779  0.53620  0.78211  Biso   1.000  N
  H323     1.0000 0.97608  0.47869  0.84032  Biso   1.000  H
  H324     1.0000 0.02392  0.52131  0.84032  Biso   1.000  H
  C256     1.0000 0.99300  0.52961  0.72932  Biso   1.000  C
  H325     1.0000 0.97332  0.44920  0.72850  Biso   1.000  H
  C257     1.0000 0.04169  0.45461  0.68071  Biso   1.000  C
  H326     1.0000 0.02131  0.34032  0.02392  Biso   1.000  H
  H327     1.0000 0.97869  0.34032  0.97608  Biso   1.000  H
  N46      1.0000 0.96380  0.28211  0.03221  Biso   1.000  N
  H328     1.0000 0.05080  0.22850  0.02668  Biso   1.000  H
  C258     1.0000 0.97039  0.22932  0.00700  Biso   1.000  C
  C259     1.0000 0.04539  0.18071  0.95831  Biso   1.000  C
  H329     1.0000 0.96669  0.33682  0.11901  Biso   1.000  H
  C260     1.0000 0.90259  0.35048  0.07122  Biso   1.000  C
  H330     1.0000 0.88099  0.46669  0.16318  Biso   1.000  H
  C261     1.0000 0.85048  0.42878  0.09741  Biso   1.000  C
  H331     1.0000 0.83682  0.61901  0.96669  Biso   1.000  H
  C262     1.0000 0.85048  0.57122  0.90259  Biso   1.000  C
  H332     1.0000 0.96669  0.66318  0.88099  Biso   1.000  H
  C263     1.0000 0.92878  0.59741  0.85048  Biso   1.000  C
  C264     1.0000 0.96710  0.59152  0.80269  Biso   1.000  C
  C265     1.0000 0.95831  0.54539  0.68071  Biso   1.000  C
  H333     1.0000 0.02668  0.55080  0.72850  Biso   1.000  H
  H334     1.0000 0.04942  0.41589  0.68100  Biso   1.000  H
  H335     1.0000 0.07582  0.47442  0.68079  Biso   1.000  H
  C266     1.0000 0.00700  0.47010  0.63060  Biso   1.000  C
  C267     1.0000 0.90848  0.30269  0.03290  Biso   1.000  C
  H336     1.0000 0.94920  0.22850  0.97332  Biso   1.000  H
  C268     1.0000 0.95461  0.18071  0.04169  Biso   1.000  C
  H337     1.0000 0.08411  0.18100  0.95058  Biso   1.000  H
  H338     1.0000 0.02558  0.18079  0.92418  Biso   1.000  H
  C269     1.0000 0.02990  0.13060  0.99300  Biso   1.000  C
  C270     1.0000 0.85980  0.38620  0.06288  Biso   1.000  C
  C271     1.0000 0.80269  0.46710  0.09152  Biso   1.000  C
  C272     1.0000 0.88620  0.56288  0.85980  Biso   1.000  C
  C273     1.0000 0.80269  0.53290  0.90848  Biso   1.000  C
  H339     1.0000 0.95591  0.61600  0.77381  Biso   1.000  H
  H340     1.0000 0.00350  0.60168  0.81380  Biso   1.000  H
  H341     1.0000 0.95058  0.58411  0.68100  Biso   1.000  H
  H342     1.0000 0.92418  0.52558  0.68079  Biso   1.000  H
  C274     1.0000 0.99300  0.52990  0.63060  Biso   1.000  C
  H343     1.0000 0.97368  0.44891  0.63068  Biso   1.000  H
  H344     1.0000 0.02689  0.46140  0.59770  Biso   1.000  H
  H345     1.0000 0.89832  0.31380  0.99650  Biso   1.000  H
  H346     1.0000 0.88400  0.27381  0.04409  Biso   1.000  H
  H347     1.0000 0.91589  0.18100  0.04942  Biso   1.000  H
  H348     1.0000 0.97442  0.18079  0.07582  Biso   1.000  H
  C275     1.0000 0.97010  0.13060  0.00700  Biso   1.000  C
  H349     1.0000 0.05109  0.13068  0.02632  Biso   1.000  H
  H350     1.0000 0.03860  0.09770  0.97311  Biso   1.000  H
  H351     1.0000 0.83682  0.38099  0.03331  Biso   1.000  H
  N47      1.0000 0.78211  0.46779  0.03620  Biso   1.000  N
  H352     1.0000 0.77381  0.45591  0.11600  Biso   1.000  H
  H353     1.0000 0.81380  0.50350  0.10168  Biso   1.000  H
  H354     1.0000 0.88099  0.53331  0.83682  Biso   1.000  H
  N48      1.0000 0.78211  0.53221  0.96380  Biso   1.000  N
  H355     1.0000 0.77381  0.54409  0.88400  Biso   1.000  H
  H356     1.0000 0.81380  0.49650  0.89832  Biso   1.000  H
  H357     1.0000 0.97311  0.53860  0.59770  Biso   1.000  H
  H358     1.0000 0.02632  0.55109  0.63068  Biso   1.000  H
  H359     1.0000 0.94891  0.13068  0.97368  Biso   1.000  H
  H360     1.0000 0.96140  0.09770  0.02689  Biso   1.000  H
  C276     1.0000 0.81729  0.50000  0.00000  Biso   1.000  C
  C277     1.0000 0.72932  0.49300  0.02961  Biso   1.000  C
  C278     1.0000 0.72932  0.50700  0.97039  Biso   1.000  C
  H361     1.0000 0.84032  0.47608  0.97869  Biso   1.000  H
  H362     1.0000 0.84032  0.52392  0.02131  Biso   1.000  H
  H363     1.0000 0.72850  0.52668  0.05080  Biso   1.000  H
  C279     1.0000 0.68071  0.45831  0.04539  Biso   1.000  C
  H364     1.0000 0.72850  0.47332  0.94920  Biso   1.000  H
  C280     1.0000 0.68071  0.54169  0.95461  Biso   1.000  C
  H365     1.0000 0.68100  0.45058  0.08411  Biso   1.000  H
  H366     1.0000 0.68079  0.42418  0.02558  Biso   1.000  H
  C281     1.0000 0.63060  0.49300  0.02990  Biso   1.000  C
  H367     1.0000 0.68100  0.54942  0.91589  Biso   1.000  H
  H368     1.0000 0.68079  0.57582  0.97442  Biso   1.000  H
  C282     1.0000 0.63060  0.50700  0.97010  Biso   1.000  C
  H369     1.0000 0.59770  0.47311  0.03860  Biso   1.000  H
  H370     1.0000 0.63068  0.52632  0.05109  Biso   1.000  H
  H371     1.0000 0.59770  0.52689  0.96140  Biso   1.000  H
  H372     1.0000 0.63068  0.47368  0.94891  Biso   1.000  H
  C283     1.0000 0.09152  0.19731  0.53290  Biso   1.000  C
  N49      1.0000 0.03620  0.21789  0.53221  Biso   1.000  N
  C284     1.0000 0.09741  0.14952  0.57122  Biso   1.000  C
  H373     1.0000 0.11600  0.22619  0.54409  Biso   1.000  H
  H374     1.0000 0.10168  0.18620  0.49650  Biso   1.000  H
  C285     1.0000 0.00000  0.18271  0.50000  Biso   1.000  C
  C286     1.0000 0.02961  0.27068  0.50700  Biso   1.000  C
  C287     1.0000 0.14020  0.11380  0.56288  Biso   1.000  C
  C288     1.0000 0.06288  0.14020  0.61380  Biso   1.000  C
  H375     1.0000 0.02131  0.15968  0.47608  Biso   1.000  H
  N50      1.0000 0.96380  0.21789  0.46779  Biso   1.000  N
  H376     1.0000 0.97869  0.15968  0.52392  Biso   1.000  H
  H377     1.0000 0.05080  0.27150  0.47332  Biso   1.000  H
  C289     1.0000 0.04539  0.31929  0.54169  Biso   1.000  C
  C290     1.0000 0.97039  0.27068  0.49300  Biso   1.000  C
  H378     1.0000 0.16318  0.11901  0.53331  Biso   1.000  H
  C291     1.0000 0.14952  0.07122  0.59741  Biso   1.000  C
  H379     1.0000 0.03331  0.16318  0.61901  Biso   1.000  H
  C292     1.0000 0.07122  0.09741  0.64952  Biso   1.000  C
  C293     1.0000 0.90848  0.19731  0.46710  Biso   1.000  C
  H380     1.0000 0.08411  0.31900  0.54942  Biso   1.000  H
  H381     1.0000 0.02558  0.31921  0.57582  Biso   1.000  H
  C294     1.0000 0.02990  0.36940  0.50700  Biso   1.000  C
  H382     1.0000 0.94920  0.27150  0.52668  Biso   1.000  H
  C295     1.0000 0.95461  0.31929  0.45831  Biso   1.000  C
  C296     1.0000 0.11380  0.06288  0.64020  Biso   1.000  C
  C297     1.0000 0.19731  0.03290  0.59152  Biso   1.000  C
  C298     1.0000 0.03290  0.09152  0.69731  Biso   1.000  C
  C299     1.0000 0.90259  0.14952  0.42878  Biso   1.000  C
  H383     1.0000 0.88400  0.22619  0.45591  Biso   1.000  H
  H384     1.0000 0.89832  0.18620  0.50350  Biso   1.000  H
  H385     1.0000 0.03860  0.40230  0.52689  Biso   1.000  H
  H386     1.0000 0.05109  0.36932  0.47368  Biso   1.000  H
  C300     1.0000 0.97010  0.36940  0.49300  Biso   1.000  C
  H387     1.0000 0.91589  0.31900  0.45058  Biso   1.000  H
  H388     1.0000 0.97442  0.31921  0.42418  Biso   1.000  H
  H389     1.0000 0.11901  0.03331  0.66318  Biso   1.000  H
  N51      1.0000 0.21789  0.03221  0.53620  Biso   1.000  N
  H390     1.0000 0.22619  0.04409  0.61600  Biso   1.000  H
  H391     1.0000 0.18620  0.99650  0.60168  Biso   1.000  H
  N52      1.0000 0.03221  0.03620  0.71789  Biso   1.000  N
  H392     1.0000 0.04409  0.11600  0.72619  Biso   1.000  H
  H393     1.0000 0.99650  0.10168  0.68620  Biso   1.000  H
  C301     1.0000 0.85980  0.11380  0.43712  Biso   1.000  C
  C302     1.0000 0.93712  0.14020  0.38620  Biso   1.000  C
  H394     1.0000 0.96140  0.40230  0.47311  Biso   1.000  H
  H395     1.0000 0.94891  0.36932  0.52632  Biso   1.000  H
  C303     1.0000 0.18271  0.00000  0.50000  Biso   1.000  C
  C304     1.0000 0.27068  0.00700  0.52961  Biso   1.000  C
  C305     1.0000 0.00000  0.00000  0.68271  Biso   1.000  C
  C306     1.0000 0.00700  0.02961  0.77068  Biso   1.000  C
  H396     1.0000 0.83682  0.11901  0.46669  Biso   1.000  H
  C307     1.0000 0.85048  0.07122  0.40259  Biso   1.000  C
  H397     1.0000 0.96669  0.16318  0.38099  Biso   1.000  H
  C308     1.0000 0.92878  0.09741  0.35048  Biso   1.000  C
  H398     1.0000 0.15968  0.02392  0.47869  Biso   1.000  H
  N53      1.0000 0.21789  0.96779  0.46380  Biso   1.000  N
  H399     1.0000 0.15968  0.97608  0.52131  Biso   1.000  H
  C309     1.0000 0.31929  0.04169  0.54539  Biso   1.000  C
  C310     1.0000 0.27068  0.99300  0.47039  Biso   1.000  C
  H400     1.0000 0.27150  0.97332  0.55080  Biso   1.000  H
  N54      1.0000 0.96779  0.96380  0.71789  Biso   1.000  N
  H401     1.0000 0.97608  0.02131  0.65968  Biso   1.000  H
  H402     1.0000 0.02392  0.97869  0.65968  Biso   1.000  H
  C311     1.0000 0.04169  0.04539  0.81929  Biso   1.000  C
  C312     1.0000 0.99300  0.97039  0.77068  Biso   1.000  C
  H403     1.0000 0.97332  0.05080  0.77150  Biso   1.000  H
  C313     1.0000 0.88620  0.06288  0.35980  Biso   1.000  C
  C314     1.0000 0.80269  0.03290  0.40848  Biso   1.000  C
  C315     1.0000 0.96710  0.09152  0.30269  Biso   1.000  C
  C316     1.0000 0.19731  0.96710  0.40848  Biso   1.000  C
  H404     1.0000 0.31900  0.04942  0.58411  Biso   1.000  H
  H405     1.0000 0.31921  0.07582  0.52558  Biso   1.000  H
  C317     1.0000 0.36940  0.00700  0.52990  Biso   1.000  C
  H406     1.0000 0.27150  0.02668  0.44920  Biso   1.000  H
  C318     1.0000 0.31929  0.95831  0.45461  Biso   1.000  C
  C319     1.0000 0.96710  0.90848  0.69731  Biso   1.000  C
  H407     1.0000 0.04942  0.08411  0.81900  Biso   1.000  H
  H408     1.0000 0.07582  0.02558  0.81921  Biso   1.000  H
  C320     1.0000 0.00700  0.02990  0.86940  Biso   1.000  C
  C321     1.0000 0.95831  0.95461  0.81929  Biso   1.000  C
  H409     1.0000 0.02668  0.94920  0.77150  Biso   1.000  H
  H410     1.0000 0.88099  0.03331  0.33682  Biso   1.000  H
  H411     1.0000 0.81380  0.99650  0.39832  Biso   1.000  H
  N55      1.0000 0.78211  0.03221  0.46380  Biso   1.000  N
  H412     1.0000 0.77381  0.04409  0.38400  Biso   1.000  H
  H413     1.0000 0.00350  0.10168  0.31380  Biso   1.000  H
  N56      1.0000 0.96779  0.03620  0.28211  Biso   1.000  N
  H414     1.0000 0.95591  0.11600  0.27381  Biso   1.000  H
  H415     1.0000 0.18620  0.00350  0.39832  Biso   1.000  H
  C322     1.0000 0.14952  0.92878  0.40259  Biso   1.000  C
  H416     1.0000 0.22619  0.95591  0.38400  Biso   1.000  H
  H417     1.0000 0.40230  0.02689  0.53860  Biso   1.000  H
  C323     1.0000 0.36940  0.99300  0.47010  Biso   1.000  C
  H418     1.0000 0.36932  0.97368  0.55109  Biso   1.000  H
  H419     1.0000 0.31900  0.95058  0.41589  Biso   1.000  H
  H420     1.0000 0.31921  0.92418  0.47442  Biso   1.000  H
  C324     1.0000 0.92878  0.90259  0.64952  Biso   1.000  C
  H421     1.0000 0.95591  0.88400  0.72619  Biso   1.000  H
  H422     1.0000 0.00350  0.89832  0.68620  Biso   1.000  H
  H423     1.0000 0.02689  0.03860  0.90230  Biso   1.000  H
  C325     1.0000 0.99300  0.97010  0.86940  Biso   1.000  C
  H424     1.0000 0.97368  0.05109  0.86932  Biso   1.000  H
  H425     1.0000 0.95058  0.91589  0.81900  Biso   1.000  H
  H426     1.0000 0.92418  0.97442  0.81921  Biso   1.000  H
  C326     1.0000 0.81729  0.00000  0.50000  Biso   1.000  C
  C327     1.0000 0.72932  0.00700  0.47039  Biso   1.000  C
  C328     1.0000 0.00000  0.00000  0.31729  Biso   1.000  C
  C329     1.0000 0.99300  0.02961  0.22932  Biso   1.000  C
  C330     1.0000 0.11380  0.93712  0.35980  Biso   1.000  C
  C331     1.0000 0.14020  0.88620  0.43712  Biso   1.000  C
  H427     1.0000 0.36932  0.02632  0.44891  Biso   1.000  H
  H428     1.0000 0.40230  0.97311  0.46140  Biso   1.000  H
  C332     1.0000 0.93712  0.85980  0.61380  Biso   1.000  C
  C333     1.0000 0.88620  0.93712  0.64020  Biso   1.000  C
  H429     1.0000 0.97311  0.96140  0.90230  Biso   1.000  H
  H430     1.0000 0.02632  0.94891  0.86932  Biso   1.000  H
  N57      1.0000 0.78211  0.96779  0.53620  Biso   1.000  N
  H431     1.0000 0.84032  0.97608  0.47869  Biso   1.000  H
  H432     1.0000 0.84032  0.02392  0.52131  Biso   1.000  H
  C334     1.0000 0.72932  0.99300  0.52961  Biso   1.000  C
  H433     1.0000 0.72850  0.97332  0.44920  Biso   1.000  H
  C335     1.0000 0.68071  0.04169  0.45461  Biso   1.000  C
  H434     1.0000 0.02392  0.02131  0.34032  Biso   1.000  H
  H435     1.0000 0.97608  0.97869  0.34032  Biso   1.000  H
  N58      1.0000 0.03221  0.96380  0.28211  Biso   1.000  N
  H436     1.0000 0.02668  0.05080  0.22850  Biso   1.000  H
  C336     1.0000 0.95831  0.04539  0.18071  Biso   1.000  C
  C337     1.0000 0.00700  0.97039  0.22932  Biso   1.000  C
  H437     1.0000 0.11901  0.96669  0.33682  Biso   1.000  H
  C338     1.0000 0.07122  0.90259  0.35048  Biso   1.000  C
  H438     1.0000 0.16318  0.88099  0.46669  Biso   1.000  H
  C339     1.0000 0.09741  0.85048  0.42878  Biso   1.000  C
  H439     1.0000 0.96669  0.83682  0.61901  Biso   1.000  H
  C340     1.0000 0.90259  0.85048  0.57122  Biso   1.000  C
  H440     1.0000 0.88099  0.96669  0.66318  Biso   1.000  H
  C341     1.0000 0.85048  0.92878  0.59741  Biso   1.000  C
  C342     1.0000 0.80269  0.96710  0.59152  Biso   1.000  C
  C343     1.0000 0.68071  0.95831  0.54539  Biso   1.000  C
  H441     1.0000 0.72850  0.02668  0.55080  Biso   1.000  H
  H442     1.0000 0.68100  0.04942  0.41589  Biso   1.000  H
  H443     1.0000 0.68079  0.07582  0.47442  Biso   1.000  H
  C344     1.0000 0.63060  0.00700  0.47010  Biso   1.000  C
  C345     1.0000 0.03290  0.90848  0.30269  Biso   1.000  C
  H444     1.0000 0.95058  0.08411  0.18100  Biso   1.000  H
  H445     1.0000 0.92418  0.02558  0.18079  Biso   1.000  H
  C346     1.0000 0.99300  0.02990  0.13060  Biso   1.000  C
  H446     1.0000 0.97332  0.94920  0.22850  Biso   1.000  H
  C347     1.0000 0.04169  0.95461  0.18071  Biso   1.000  C
  C348     1.0000 0.06288  0.85980  0.38620  Biso   1.000  C
  C349     1.0000 0.09152  0.80269  0.46710  Biso   1.000  C
  C350     1.0000 0.85980  0.88620  0.56288  Biso   1.000  C
  C351     1.0000 0.90848  0.80269  0.53290  Biso   1.000  C
  H447     1.0000 0.77381  0.95591  0.61600  Biso   1.000  H
  H448     1.0000 0.81380  0.00350  0.60168  Biso   1.000  H
  H449     1.0000 0.68100  0.95058  0.58411  Biso   1.000  H
  H450     1.0000 0.68079  0.92418  0.52558  Biso   1.000  H
  C352     1.0000 0.63060  0.99300  0.52990  Biso   1.000  C
  H451     1.0000 0.63068  0.97368  0.44891  Biso   1.000  H
  H452     1.0000 0.59770  0.02689  0.46140  Biso   1.000  H
  H453     1.0000 0.99650  0.89832  0.31380  Biso   1.000  H
  H454     1.0000 0.04409  0.88400  0.27381  Biso   1.000  H
  H455     1.0000 0.02632  0.05109  0.13068  Biso   1.000  H
  H456     1.0000 0.97311  0.03860  0.09770  Biso   1.000  H
  C353     1.0000 0.00700  0.97010  0.13060  Biso   1.000  C
  H457     1.0000 0.04942  0.91589  0.18100  Biso   1.000  H
  H458     1.0000 0.07582  0.97442  0.18079  Biso   1.000  H
  H459     1.0000 0.03331  0.83682  0.38099  Biso   1.000  H
  N59      1.0000 0.03620  0.78211  0.46779  Biso   1.000  N
  H460     1.0000 0.11600  0.77381  0.45591  Biso   1.000  H
  H461     1.0000 0.10168  0.81380  0.50350  Biso   1.000  H
  H462     1.0000 0.83682  0.88099  0.53331  Biso   1.000  H
  N60      1.0000 0.96380  0.78211  0.53221  Biso   1.000  N
  H463     1.0000 0.88400  0.77381  0.54409  Biso   1.000  H
  H464     1.0000 0.89832  0.81380  0.49650  Biso   1.000  H
  H465     1.0000 0.59770  0.97311  0.53860  Biso   1.000  H
  H466     1.0000 0.63068  0.02632  0.55109  Biso   1.000  H
  H467     1.0000 0.97368  0.94891  0.13068  Biso   1.000  H
  H468     1.0000 0.02689  0.96140  0.09770  Biso   1.000  H
  C354     1.0000 0.00000  0.81729  0.50000  Biso   1.000  C
  C355     1.0000 0.02961  0.72932  0.49300  Biso   1.000  C
  C356     1.0000 0.97039  0.72932  0.50700  Biso   1.000  C
  H469     1.0000 0.97869  0.84032  0.47608  Biso   1.000  H
  H470     1.0000 0.02131  0.84032  0.52392  Biso   1.000  H
  H471     1.0000 0.05080  0.72850  0.52668  Biso   1.000  H
  C357     1.0000 0.04539  0.68071  0.45831  Biso   1.000  C
  H472     1.0000 0.94920  0.72850  0.47332  Biso   1.000  H
  C358     1.0000 0.95461  0.68071  0.54169  Biso   1.000  C
  H473     1.0000 0.08411  0.68100  0.45058  Biso   1.000  H
  H474     1.0000 0.02558  0.68079  0.42418  Biso   1.000  H
  C359     1.0000 0.02990  0.63060  0.49300  Biso   1.000  C
  H475     1.0000 0.91589  0.68100  0.54942  Biso   1.000  H
  H476     1.0000 0.97442  0.68079  0.57582  Biso   1.000  H
  C360     1.0000 0.97010  0.63060  0.50700  Biso   1.000  C
  H477     1.0000 0.03860  0.59770  0.47311  Biso   1.000  H
  H478     1.0000 0.05109  0.63068  0.52632  Biso   1.000  H
  H479     1.0000 0.96140  0.59770  0.52689  Biso   1.000  H
  H480     1.0000 0.94891  0.63068  0.47368  Biso   1.000  H
  C361     1.0000 0.72179  0.47828  0.23879  Biso   1.000  C
  N61      1.0000 0.71329  0.52449  0.20308  Biso   1.000  N
  C362     1.0000 0.77821  0.47828  0.26121  Biso   1.000  C
  H481     1.0000 0.71561  0.44489  0.21870  Biso   1.000  H
  H482     1.0000 0.69580  0.47970  0.26849  Biso   1.000  H
  C363     1.0000 0.67599  0.55698  0.21472  Biso   1.000  C
  N62      1.0000 0.78671  0.52449  0.29692  Biso   1.000  N
  H483     1.0000 0.78439  0.44489  0.28130  Biso   1.000  H
  H484     1.0000 0.80420  0.47970  0.23151  Biso   1.000  H
  H485     1.0000 0.65521  0.55019  0.24551  Biso   1.000  H
  C364     1.0000 0.66330  0.60559  0.18210  Biso   1.000  C
  C365     1.0000 0.82401  0.55698  0.28528  Biso   1.000  C
  C366     1.0000 0.61881  0.63691  0.19470  Biso   1.000  C
  C367     1.0000 0.69470  0.61881  0.13691  Biso   1.000  C
  H486     1.0000 0.84479  0.55019  0.25449  Biso   1.000  H
  C368     1.0000 0.83670  0.60559  0.31790  Biso   1.000  C
  C369     1.0000 0.60559  0.68210  0.16330  Biso   1.000  C
  H487     1.0000 0.59721  0.62771  0.22440  Biso   1.000  H
  C370     1.0000 0.68210  0.66330  0.10559  Biso   1.000  C
  H488     1.0000 0.72440  0.59721  0.12771  Biso   1.000  H
  C371     1.0000 0.80530  0.61881  0.36309  Biso   1.000  C
  C372     1.0000 0.88119  0.63691  0.30530  Biso   1.000  C
  C373     1.0000 0.55698  0.71472  0.17599  Biso   1.000  C
  C374     1.0000 0.63691  0.69470  0.11881  Biso   1.000  C
  C375     1.0000 0.71472  0.67599  0.05698  Biso   1.000  C
  C376     1.0000 0.81790  0.66330  0.39441  Biso   1.000  C
  H489     1.0000 0.77560  0.59721  0.37229  Biso   1.000  H
  C377     1.0000 0.89441  0.68210  0.33670  Biso   1.000  C
  H490     1.0000 0.90279  0.62771  0.27560  Biso   1.000  H
  N63      1.0000 0.52449  0.70308  0.21329  Biso   1.000  N
  H491     1.0000 0.55019  0.74551  0.15521  Biso   1.000  H
  H492     1.0000 0.62771  0.72440  0.09721  Biso   1.000  H
  N64      1.0000 0.70308  0.71329  0.02449  Biso   1.000  N
  H493     1.0000 0.74551  0.65521  0.05019  Biso   1.000  H
  C378     1.0000 0.78528  0.67599  0.44302  Biso   1.000  C
  C379     1.0000 0.86309  0.69470  0.38119  Biso   1.000  C
  C380     1.0000 0.94302  0.71472  0.32401  Biso   1.000  C
  C381     1.0000 0.47828  0.73879  0.22179  Biso   1.000  C
  C382     1.0000 0.73879  0.72179  0.97828  Biso   1.000  C
  N65      1.0000 0.79692  0.71329  0.47551  Biso   1.000  N
  H494     1.0000 0.75449  0.65521  0.44981  Biso   1.000  H
  H495     1.0000 0.87229  0.72440  0.40279  Biso   1.000  H
  N66      1.0000 0.97551  0.70308  0.28671  Biso   1.000  N
  H496     1.0000 0.94981  0.74551  0.34479  Biso   1.000  H
  C383     1.0000 0.47828  0.76121  0.27821  Biso   1.000  C
  H497     1.0000 0.44489  0.71870  0.21561  Biso   1.000  H
  H498     1.0000 0.47970  0.76849  0.19580  Biso   1.000  H
  C384     1.0000 0.76121  0.77821  0.97828  Biso   1.000  C
  H499     1.0000 0.71870  0.71561  0.94489  Biso   1.000  H
  H500     1.0000 0.76849  0.69580  0.97970  Biso   1.000  H
  C385     1.0000 0.76121  0.72179  0.52172  Biso   1.000  C
  C386     1.0000 0.02172  0.73879  0.27821  Biso   1.000  C
  N67      1.0000 0.52449  0.79692  0.28671  Biso   1.000  N
  H501     1.0000 0.44489  0.78130  0.28439  Biso   1.000  H
  H502     1.0000 0.47970  0.73151  0.30420  Biso   1.000  H
  N68      1.0000 0.79692  0.78671  0.02449  Biso   1.000  N
  H503     1.0000 0.78130  0.78439  0.94489  Biso   1.000  H
  H504     1.0000 0.73151  0.80420  0.97970  Biso   1.000  H
  C387     1.0000 0.73879  0.77821  0.52172  Biso   1.000  C
  H505     1.0000 0.78130  0.71561  0.55511  Biso   1.000  H
  H506     1.0000 0.73151  0.69580  0.52030  Biso   1.000  H
  C388     1.0000 0.02172  0.76121  0.22179  Biso   1.000  C
  H507     1.0000 0.05511  0.71870  0.28439  Biso   1.000  H
  H508     1.0000 0.02030  0.76849  0.30420  Biso   1.000  H
  C389     1.0000 0.55698  0.78528  0.32401  Biso   1.000  C
  C390     1.0000 0.78528  0.82401  0.05698  Biso   1.000  C
  N69      1.0000 0.70308  0.78671  0.47551  Biso   1.000  N
  H509     1.0000 0.71870  0.78439  0.55511  Biso   1.000  H
  H510     1.0000 0.76849  0.80420  0.52030  Biso   1.000  H
  N70      1.0000 0.97551  0.79692  0.21329  Biso   1.000  N
  H511     1.0000 0.05511  0.78130  0.21561  Biso   1.000  H
  H512     1.0000 0.02030  0.73151  0.19580  Biso   1.000  H
  H513     1.0000 0.55019  0.75449  0.34479  Biso   1.000  H
  C391     1.0000 0.60559  0.81790  0.33670  Biso   1.000  C
  H514     1.0000 0.75449  0.84479  0.05019  Biso   1.000  H
  C392     1.0000 0.81790  0.83670  0.10559  Biso   1.000  C
  C393     1.0000 0.71472  0.82401  0.44302  Biso   1.000  C
  C394     1.0000 0.94302  0.78528  0.17599  Biso   1.000  C
  C395     1.0000 0.63691  0.80530  0.38119  Biso   1.000  C
  C396     1.0000 0.61881  0.86309  0.30530  Biso   1.000  C
  C397     1.0000 0.80530  0.88119  0.13691  Biso   1.000  C
  C398     1.0000 0.86309  0.80530  0.11881  Biso   1.000  C
  H515     1.0000 0.74551  0.84479  0.44981  Biso   1.000  H
  C399     1.0000 0.68210  0.83670  0.39441  Biso   1.000  C
  H516     1.0000 0.94981  0.75449  0.15521  Biso   1.000  H
  C400     1.0000 0.89441  0.81790  0.16330  Biso   1.000  C
  H517     1.0000 0.62771  0.77560  0.40279  Biso   1.000  H
  C401     1.0000 0.66330  0.89441  0.31790  Biso   1.000  C
  H518     1.0000 0.59721  0.87229  0.27560  Biso   1.000  H
  C402     1.0000 0.83670  0.89441  0.18210  Biso   1.000  C
  H519     1.0000 0.77560  0.90279  0.12771  Biso   1.000  H
  H520     1.0000 0.87229  0.77560  0.09721  Biso   1.000  H
  C403     1.0000 0.69470  0.88119  0.36309  Biso   1.000  C
  C404     1.0000 0.88119  0.86309  0.19470  Biso   1.000  C
  C405     1.0000 0.67599  0.94302  0.28528  Biso   1.000  C
  C406     1.0000 0.82401  0.94302  0.21472  Biso   1.000  C
  H521     1.0000 0.72440  0.90279  0.37229  Biso   1.000  H
  H522     1.0000 0.90279  0.87229  0.22440  Biso   1.000  H
  N71      1.0000 0.71329  0.97551  0.29692  Biso   1.000  N
  H523     1.0000 0.65521  0.94981  0.25449  Biso   1.000  H
  N72      1.0000 0.78671  0.97551  0.20308  Biso   1.000  N
  H524     1.0000 0.84479  0.94981  0.24551  Biso   1.000  H
  C407     1.0000 0.72179  0.02172  0.26121  Biso   1.000  C
  C408     1.0000 0.77821  0.02172  0.23879  Biso   1.000  C
  H525     1.0000 0.71561  0.05511  0.28130  Biso   1.000  H
  H526     1.0000 0.69580  0.02030  0.23151  Biso   1.000  H
  H527     1.0000 0.78439  0.05511  0.21870  Biso   1.000  H
  H528     1.0000 0.80420  0.02030  0.26849  Biso   1.000  H
  C409     1.0000 0.47828  0.23879  0.72179  Biso   1.000  C
  N73      1.0000 0.52449  0.20308  0.71329  Biso   1.000  N
  C410     1.0000 0.47828  0.26121  0.77821  Biso   1.000  C
  H529     1.0000 0.44489  0.21870  0.71561  Biso   1.000  H
  H530     1.0000 0.47970  0.26849  0.69580  Biso   1.000  H
  C411     1.0000 0.55698  0.21472  0.67599  Biso   1.000  C
  N74      1.0000 0.52449  0.29692  0.78671  Biso   1.000  N
  H531     1.0000 0.44489  0.28130  0.78439  Biso   1.000  H
  H532     1.0000 0.47970  0.23151  0.80420  Biso   1.000  H
  H533     1.0000 0.55019  0.24551  0.65521  Biso   1.000  H
  C412     1.0000 0.60559  0.18210  0.66330  Biso   1.000  C
  C413     1.0000 0.55698  0.28528  0.82401  Biso   1.000  C
  C414     1.0000 0.63691  0.19470  0.61881  Biso   1.000  C
  C415     1.0000 0.61881  0.13691  0.69470  Biso   1.000  C
  H534     1.0000 0.55019  0.25449  0.84479  Biso   1.000  H
  C416     1.0000 0.60559  0.31790  0.83670  Biso   1.000  C
  C417     1.0000 0.68210  0.16330  0.60559  Biso   1.000  C
  H535     1.0000 0.62771  0.22440  0.59721  Biso   1.000  H
  C418     1.0000 0.66330  0.10559  0.68210  Biso   1.000  C
  H536     1.0000 0.59721  0.12771  0.72440  Biso   1.000  H
  C419     1.0000 0.61881  0.36309  0.80530  Biso   1.000  C
  C420     1.0000 0.63691  0.30530  0.88119  Biso   1.000  C
  C421     1.0000 0.71472  0.17599  0.55698  Biso   1.000  C
  C422     1.0000 0.69470  0.11881  0.63691  Biso   1.000  C
  C423     1.0000 0.67599  0.05698  0.71472  Biso   1.000  C
  C424     1.0000 0.66330  0.39441  0.81790  Biso   1.000  C
  H537     1.0000 0.59721  0.37229  0.77560  Biso   1.000  H
  C425     1.0000 0.68210  0.33670  0.89441  Biso   1.000  C
  H538     1.0000 0.62771  0.27560  0.90279  Biso   1.000  H
  N75      1.0000 0.70308  0.21329  0.52449  Biso   1.000  N
  H539     1.0000 0.74551  0.15521  0.55019  Biso   1.000  H
  H540     1.0000 0.72440  0.09721  0.62771  Biso   1.000  H
  N76      1.0000 0.71329  0.02449  0.70308  Biso   1.000  N
  H541     1.0000 0.65521  0.05019  0.74551  Biso   1.000  H
  C426     1.0000 0.67599  0.44302  0.78528  Biso   1.000  C
  C427     1.0000 0.69470  0.38119  0.86309  Biso   1.000  C
  C428     1.0000 0.71472  0.32401  0.94302  Biso   1.000  C
  C429     1.0000 0.73879  0.22179  0.47828  Biso   1.000  C
  C430     1.0000 0.72179  0.97828  0.73879  Biso   1.000  C
  N77      1.0000 0.71329  0.47551  0.79692  Biso   1.000  N
  H542     1.0000 0.65521  0.44981  0.75449  Biso   1.000  H
  H543     1.0000 0.72440  0.40279  0.87229  Biso   1.000  H
  N78      1.0000 0.70308  0.28671  0.97551  Biso   1.000  N
  H544     1.0000 0.74551  0.34479  0.94981  Biso   1.000  H
  C431     1.0000 0.76121  0.27821  0.47828  Biso   1.000  C
  H545     1.0000 0.71870  0.21561  0.44489  Biso   1.000  H
  H546     1.0000 0.76849  0.19580  0.47970  Biso   1.000  H
  C432     1.0000 0.77821  0.97828  0.76121  Biso   1.000  C
  H547     1.0000 0.71561  0.94489  0.71870  Biso   1.000  H
  H548     1.0000 0.69580  0.97970  0.76849  Biso   1.000  H
  C433     1.0000 0.72179  0.52172  0.76121  Biso   1.000  C
  C434     1.0000 0.73879  0.27821  0.02172  Biso   1.000  C
  N79      1.0000 0.79692  0.28671  0.52449  Biso   1.000  N
  H549     1.0000 0.78130  0.28439  0.44489  Biso   1.000  H
  H550     1.0000 0.73151  0.30420  0.47970  Biso   1.000  H
  N80      1.0000 0.78671  0.02449  0.79692  Biso   1.000  N
  H551     1.0000 0.78439  0.94489  0.78130  Biso   1.000  H
  H552     1.0000 0.80420  0.97970  0.73151  Biso   1.000  H
  C435     1.0000 0.77821  0.52172  0.73879  Biso   1.000  C
  H553     1.0000 0.71561  0.55511  0.78130  Biso   1.000  H
  H554     1.0000 0.69580  0.52030  0.73151  Biso   1.000  H
  C436     1.0000 0.76121  0.22179  0.02172  Biso   1.000  C
  H555     1.0000 0.71870  0.28439  0.05511  Biso   1.000  H
  H556     1.0000 0.76849  0.30420  0.02030  Biso   1.000  H
  C437     1.0000 0.78528  0.32401  0.55698  Biso   1.000  C
  C438     1.0000 0.82401  0.05698  0.78528  Biso   1.000  C
  N81      1.0000 0.78671  0.47551  0.70308  Biso   1.000  N
  H557     1.0000 0.78439  0.55511  0.71870  Biso   1.000  H
  H558     1.0000 0.80420  0.52030  0.76849  Biso   1.000  H
  N82      1.0000 0.79692  0.21329  0.97551  Biso   1.000  N
  H559     1.0000 0.78130  0.21561  0.05511  Biso   1.000  H
  H560     1.0000 0.73151  0.19580  0.02030  Biso   1.000  H
  H561     1.0000 0.75449  0.34479  0.55019  Biso   1.000  H
  C439     1.0000 0.81790  0.33670  0.60559  Biso   1.000  C
  H562     1.0000 0.84479  0.05019  0.75449  Biso   1.000  H
  C440     1.0000 0.83670  0.10559  0.81790  Biso   1.000  C
  C441     1.0000 0.82401  0.44302  0.71472  Biso   1.000  C
  C442     1.0000 0.78528  0.17599  0.94302  Biso   1.000  C
  C443     1.0000 0.80530  0.38119  0.63691  Biso   1.000  C
  C444     1.0000 0.86309  0.30530  0.61881  Biso   1.000  C
  C445     1.0000 0.80530  0.11881  0.86309  Biso   1.000  C
  C446     1.0000 0.88119  0.13691  0.80530  Biso   1.000  C
  H563     1.0000 0.84479  0.44981  0.74551  Biso   1.000  H
  C447     1.0000 0.83670  0.39441  0.68210  Biso   1.000  C
  H564     1.0000 0.75449  0.15521  0.94981  Biso   1.000  H
  C448     1.0000 0.81790  0.16330  0.89441  Biso   1.000  C
  H565     1.0000 0.77560  0.40279  0.62771  Biso   1.000  H
  C449     1.0000 0.89441  0.31790  0.66330  Biso   1.000  C
  H566     1.0000 0.87229  0.27560  0.59721  Biso   1.000  H
  H567     1.0000 0.77560  0.09721  0.87229  Biso   1.000  H
  C450     1.0000 0.89441  0.18210  0.83670  Biso   1.000  C
  H568     1.0000 0.90279  0.12771  0.77560  Biso   1.000  H
  C451     1.0000 0.88119  0.36309  0.69470  Biso   1.000  C
  C452     1.0000 0.86309  0.19470  0.88119  Biso   1.000  C
  C453     1.0000 0.94302  0.28528  0.67599  Biso   1.000  C
  C454     1.0000 0.94302  0.21472  0.82401  Biso   1.000  C
  H569     1.0000 0.90279  0.37229  0.72440  Biso   1.000  H
  H570     1.0000 0.87229  0.22440  0.90279  Biso   1.000  H
  N83      1.0000 0.97551  0.29692  0.71329  Biso   1.000  N
  H571     1.0000 0.94981  0.25449  0.65521  Biso   1.000  H
  N84      1.0000 0.97551  0.20308  0.78671  Biso   1.000  N
  H572     1.0000 0.94981  0.24551  0.84479  Biso   1.000  H
  C455     1.0000 0.02172  0.26121  0.72179  Biso   1.000  C
  C456     1.0000 0.02172  0.23879  0.77821  Biso   1.000  C
  H573     1.0000 0.05511  0.28130  0.71561  Biso   1.000  H
  H574     1.0000 0.02030  0.23151  0.69580  Biso   1.000  H
  H575     1.0000 0.05511  0.21870  0.78439  Biso   1.000  H
  H576     1.0000 0.02030  0.26849  0.80420  Biso   1.000  H
  C457     1.0000 0.23879  0.72179  0.47828  Biso   1.000  C
  N85      1.0000 0.20308  0.71329  0.52449  Biso   1.000  N
  C458     1.0000 0.26121  0.77821  0.47828  Biso   1.000  C
  H577     1.0000 0.21870  0.71561  0.44489  Biso   1.000  H
  H578     1.0000 0.26849  0.69580  0.47970  Biso   1.000  H
  C459     1.0000 0.21472  0.67599  0.55698  Biso   1.000  C
  N86      1.0000 0.29692  0.78671  0.52449  Biso   1.000  N
  H579     1.0000 0.28130  0.78439  0.44489  Biso   1.000  H
  H580     1.0000 0.23151  0.80420  0.47970  Biso   1.000  H
  H581     1.0000 0.24551  0.65521  0.55019  Biso   1.000  H
  C460     1.0000 0.18210  0.66330  0.60559  Biso   1.000  C
  C461     1.0000 0.28528  0.82401  0.55698  Biso   1.000  C
  C462     1.0000 0.19470  0.61881  0.63691  Biso   1.000  C
  C463     1.0000 0.13691  0.69470  0.61881  Biso   1.000  C
  H582     1.0000 0.25449  0.84479  0.55019  Biso   1.000  H
  C464     1.0000 0.31790  0.83670  0.60559  Biso   1.000  C
  C465     1.0000 0.16330  0.60559  0.68210  Biso   1.000  C
  H583     1.0000 0.22440  0.59721  0.62771  Biso   1.000  H
  C466     1.0000 0.10559  0.68210  0.66330  Biso   1.000  C
  H584     1.0000 0.12771  0.72440  0.59721  Biso   1.000  H
  C467     1.0000 0.36309  0.80530  0.61881  Biso   1.000  C
  C468     1.0000 0.30530  0.88119  0.63691  Biso   1.000  C
  C469     1.0000 0.17599  0.55698  0.71472  Biso   1.000  C
  C470     1.0000 0.11881  0.63691  0.69470  Biso   1.000  C
  C471     1.0000 0.05698  0.71472  0.67599  Biso   1.000  C
  C472     1.0000 0.39441  0.81790  0.66330  Biso   1.000  C
  H585     1.0000 0.37229  0.77560  0.59721  Biso   1.000  H
  C473     1.0000 0.33670  0.89441  0.68210  Biso   1.000  C
  H586     1.0000 0.27560  0.90279  0.62771  Biso   1.000  H
  N87      1.0000 0.21329  0.52449  0.70308  Biso   1.000  N
  H587     1.0000 0.15521  0.55019  0.74551  Biso   1.000  H
  H588     1.0000 0.09721  0.62771  0.72440  Biso   1.000  H
  N88      1.0000 0.02449  0.70308  0.71329  Biso   1.000  N
  H589     1.0000 0.05019  0.74551  0.65521  Biso   1.000  H
  C474     1.0000 0.44302  0.78528  0.67599  Biso   1.000  C
  C475     1.0000 0.38119  0.86309  0.69470  Biso   1.000  C
  C476     1.0000 0.32401  0.94302  0.71472  Biso   1.000  C
  C477     1.0000 0.22179  0.47828  0.73879  Biso   1.000  C
  C478     1.0000 0.97828  0.73879  0.72179  Biso   1.000  C
  N89      1.0000 0.47551  0.79692  0.71329  Biso   1.000  N
  H590     1.0000 0.44981  0.75449  0.65521  Biso   1.000  H
  H591     1.0000 0.40279  0.87229  0.72440  Biso   1.000  H
  N90      1.0000 0.28671  0.97551  0.70308  Biso   1.000  N
  H592     1.0000 0.34479  0.94981  0.74551  Biso   1.000  H
  C479     1.0000 0.27821  0.47828  0.76121  Biso   1.000  C
  H593     1.0000 0.21561  0.44489  0.71870  Biso   1.000  H
  H594     1.0000 0.19580  0.47970  0.76849  Biso   1.000  H
  C480     1.0000 0.97828  0.76121  0.77821  Biso   1.000  C
  H595     1.0000 0.94489  0.71870  0.71561  Biso   1.000  H
  H596     1.0000 0.97970  0.76849  0.69580  Biso   1.000  H
  C481     1.0000 0.52172  0.76121  0.72179  Biso   1.000  C
  C482     1.0000 0.27821  0.02172  0.73879  Biso   1.000  C
  N91      1.0000 0.28671  0.52449  0.79692  Biso   1.000  N
  H597     1.0000 0.28439  0.44489  0.78130  Biso   1.000  H
  H598     1.0000 0.30420  0.47970  0.73151  Biso   1.000  H
  N92      1.0000 0.02449  0.79692  0.78671  Biso   1.000  N
  H599     1.0000 0.94489  0.78130  0.78439  Biso   1.000  H
  H600     1.0000 0.97970  0.73151  0.80420  Biso   1.000  H
  C483     1.0000 0.52172  0.73879  0.77821  Biso   1.000  C
  H601     1.0000 0.55511  0.78130  0.71561  Biso   1.000  H
  H602     1.0000 0.52030  0.73151  0.69580  Biso   1.000  H
  C484     1.0000 0.22179  0.02172  0.76121  Biso   1.000  C
  H603     1.0000 0.28439  0.05511  0.71870  Biso   1.000  H
  H604     1.0000 0.30420  0.02030  0.76849  Biso   1.000  H
  C485     1.0000 0.32401  0.55698  0.78528  Biso   1.000  C
  C486     1.0000 0.05698  0.78528  0.82401  Biso   1.000  C
  N93      1.0000 0.47551  0.70308  0.78671  Biso   1.000  N
  H605     1.0000 0.55511  0.71870  0.78439  Biso   1.000  H
  H606     1.0000 0.52030  0.76849  0.80420  Biso   1.000  H
  N94      1.0000 0.21329  0.97551  0.79692  Biso   1.000  N
  H607     1.0000 0.21561  0.05511  0.78130  Biso   1.000  H
  H608     1.0000 0.19580  0.02030  0.73151  Biso   1.000  H
  H609     1.0000 0.34479  0.55019  0.75449  Biso   1.000  H
  C487     1.0000 0.33670  0.60559  0.81790  Biso   1.000  C
  H610     1.0000 0.05019  0.75449  0.84479  Biso   1.000  H
  C488     1.0000 0.10559  0.81790  0.83670  Biso   1.000  C
  C489     1.0000 0.44302  0.71472  0.82401  Biso   1.000  C
  C490     1.0000 0.17599  0.94302  0.78528  Biso   1.000  C
  C491     1.0000 0.38119  0.63691  0.80530  Biso   1.000  C
  C492     1.0000 0.30530  0.61881  0.86309  Biso   1.000  C
  C493     1.0000 0.13691  0.80530  0.88119  Biso   1.000  C
  C494     1.0000 0.11881  0.86309  0.80530  Biso   1.000  C
  H611     1.0000 0.44981  0.74551  0.84479  Biso   1.000  H
  C495     1.0000 0.39441  0.68210  0.83670  Biso   1.000  C
  H612     1.0000 0.15521  0.94981  0.75449  Biso   1.000  H
  C496     1.0000 0.16330  0.89441  0.81790  Biso   1.000  C
  H613     1.0000 0.40279  0.62771  0.77560  Biso   1.000  H
  C497     1.0000 0.31790  0.66330  0.89441  Biso   1.000  C
  H614     1.0000 0.27560  0.59721  0.87229  Biso   1.000  H
  C498     1.0000 0.18210  0.83670  0.89441  Biso   1.000  C
  H615     1.0000 0.12771  0.77560  0.90279  Biso   1.000  H
  H616     1.0000 0.09721  0.87229  0.77560  Biso   1.000  H
  C499     1.0000 0.36309  0.69470  0.88119  Biso   1.000  C
  C500     1.0000 0.19470  0.88119  0.86309  Biso   1.000  C
  C501     1.0000 0.28528  0.67599  0.94302  Biso   1.000  C
  C502     1.0000 0.21472  0.82401  0.94302  Biso   1.000  C
  H617     1.0000 0.37229  0.72440  0.90279  Biso   1.000  H
  H618     1.0000 0.22440  0.90279  0.87229  Biso   1.000  H
  N95      1.0000 0.29692  0.71329  0.97551  Biso   1.000  N
  H619     1.0000 0.25449  0.65521  0.94981  Biso   1.000  H
  N96      1.0000 0.20308  0.78671  0.97551  Biso   1.000  N
  H620     1.0000 0.24551  0.84479  0.94981  Biso   1.000  H
  C503     1.0000 0.26121  0.72179  0.02172  Biso   1.000  C
  C504     1.0000 0.23879  0.77821  0.02172  Biso   1.000  C
  H621     1.0000 0.28130  0.71561  0.05511  Biso   1.000  H
  H622     1.0000 0.23151  0.69580  0.02030  Biso   1.000  H
  H623     1.0000 0.21870  0.78439  0.05511  Biso   1.000  H
  H624     1.0000 0.26849  0.80420  0.02030  Biso   1.000  H
  Ne1      1.0000 0.25000  0.25000  0.25000  Biso   1.000  Ne
  He1      1.0000 0.18349  0.18349  0.31651  Biso   1.000  He
  He2      1.0000 0.31621  0.31621  0.31621  Biso   1.000  He
  He3      1.0000 0.31601  0.18399  0.18399  Biso   1.000  He
  He4      1.0000 0.18118  0.31882  0.18118  Biso   1.000  He
  Ar1      1.0000 0.25000  0.25000  0.25000  Biso   1.000  Ar
  Ne2      1.0000 0.50000  0.50000  0.50000  Biso   1.000  Ne
  He5      1.0000 0.42971  0.57030  0.57029  Biso   1.000  He
  He6      1.0000 0.56948  0.43053  0.56947  Biso   1.000  He
  He7      1.0000 0.57215  0.57214  0.42785  Biso   1.000  He
  He8      1.0000 0.42809  0.42809  0.42809  Biso   1.000  He
  Ar2      1.0000 0.50000  0.50000  0.50000  Biso   1.000  Ar
  Ne3      1.0000 0.50000  0.00000  0.00000  Biso   1.000  Ne
  He9      1.0000 0.42971  0.07030  0.07029  Biso   1.000  He
  He10     1.0000 0.56948  0.93053  0.06947  Biso   1.000  He
  He11     1.0000 0.57215  0.07214  0.92785  Biso   1.000  He
  He12     1.0000 0.42809  0.92809  0.92809  Biso   1.000  He
  Ar3      1.0000 0.50000  0.00000  0.00000  Biso   1.000  Ar
  Ne4      1.0000 0.00000  0.50000  0.00000  Biso   1.000  Ne
  He13     1.0000 0.92971  0.57030  0.07029  Biso   1.000  He
  He14     1.0000 0.06948  0.43053  0.06947  Biso   1.000  He
  He15     1.0000 0.07215  0.57214  0.92785  Biso   1.000  He
  He16     1.0000 0.92809  0.42809  0.92809  Biso   1.000  He
  Ar4      1.0000 0.00000  0.50000  0.00000  Biso   1.000  Ar
  Ne5      1.0000 0.00000  0.00000  0.50000  Biso   1.000  Ne
  He17     1.0000 0.92971  0.07030  0.57029  Biso   1.000  He
  He18     1.0000 0.06948  0.93053  0.56947  Biso   1.000  He
  He19     1.0000 0.07215  0.07214  0.42785  Biso   1.000  He
  He20     1.0000 0.92809  0.92809  0.42809  Biso   1.000  He
  Ar5      1.0000 0.00000  0.00000  0.50000  Biso   1.000  Ar
  Ne6      1.0000 0.75000  0.75000  0.25000  Biso   1.000  Ne
  He21     1.0000 0.68349  0.68349  0.31651  Biso   1.000  He
  He22     1.0000 0.81621  0.81621  0.31621  Biso   1.000  He
  He23     1.0000 0.81601  0.68399  0.18399  Biso   1.000  He
  He24     1.0000 0.68118  0.81882  0.18118  Biso   1.000  He
  Ar6      1.0000 0.75000  0.75000  0.25000  Biso   1.000  Ar
  Ne7      1.0000 0.75000  0.25000  0.75000  Biso   1.000  Ne
  He25     1.0000 0.68349  0.18349  0.81651  Biso   1.000  He
  He26     1.0000 0.81621  0.31621  0.81621  Biso   1.000  He
  He27     1.0000 0.81601  0.18399  0.68399  Biso   1.000  He
  He28     1.0000 0.68118  0.31882  0.68118  Biso   1.000  He
  Ar7      1.0000 0.75000  0.25000  0.75000  Biso   1.000  Ar
  Ne8      1.0000 0.25000  0.75000  0.75000  Biso   1.000  Ne
  He29     1.0000 0.18349  0.68349  0.81651  Biso   1.000  He
  He30     1.0000 0.31621  0.81621  0.81621  Biso   1.000  He
  He31     1.0000 0.31601  0.68399  0.68399  Biso   1.000  He
  He32     1.0000 0.18118  0.81882  0.68118  Biso   1.000  He
  Ar8      1.0000 0.25000  0.75000  0.75000  Biso   1.000  Ar
