data_image0
_cell_length_a       24.586
_cell_length_b       24.586
_cell_length_c       24.586
_cell_angle_alpha    90
_cell_angle_beta     90
_cell_angle_gamma    90

_symmetry_space_group_name_H-M    "P 1"
_symmetry_int_tables_number       1

loop_
  _symmetry_equiv_pos_as_xyz
  'x, y, z'

loop_
  _atom_site_label
  _atom_site_occupancy
  _atom_site_fract_x
  _atom_site_fract_y
  _atom_site_fract_z
  _atom_site_thermal_displace_type
  _atom_site_B_iso_or_equiv
  _atom_site_type_symbol
  C1       1.0000 0.18210  0.16330  0.10559  Biso   1.000  C
  C2       1.0000 0.21472  0.17599  0.05698  Biso   1.000  C
  C3       1.0000 0.19470  0.11881  0.13691  Biso   1.000  C
  C4       1.0000 0.13691  0.19470  0.11881  Biso   1.000  C
  N1       1.0000 0.20308  0.21329  0.02449  Biso   1.000  N
  H1       1.0000 0.24551  0.15521  0.05019  Biso   1.000  H
  C5       1.0000 0.16330  0.10559  0.18210  Biso   1.000  C
  H2       1.0000 0.22440  0.09721  0.12771  Biso   1.000  H
  C6       1.0000 0.10559  0.18210  0.16330  Biso   1.000  C
  H3       1.0000 0.12771  0.22440  0.09721  Biso   1.000  H
  C7       1.0000 0.23879  0.22179  0.97828  Biso   1.000  C
  C8       1.0000 0.17599  0.05698  0.21472  Biso   1.000  C
  C9       1.0000 0.11881  0.13691  0.19470  Biso   1.000  C
  C10      1.0000 0.05698  0.21472  0.17599  Biso   1.000  C
  C11      1.0000 0.26121  0.27821  0.97828  Biso   1.000  C
  H4       1.0000 0.21870  0.21561  0.94489  Biso   1.000  H
  H5       1.0000 0.26849  0.19580  0.97970  Biso   1.000  H
  N2       1.0000 0.21329  0.02449  0.20308  Biso   1.000  N
  H6       1.0000 0.15521  0.05019  0.24551  Biso   1.000  H
  H7       1.0000 0.09721  0.12771  0.22440  Biso   1.000  H
  N3       1.0000 0.02449  0.20308  0.21329  Biso   1.000  N
  H8       1.0000 0.05019  0.24551  0.15521  Biso   1.000  H
  N4       1.0000 0.29692  0.28671  0.02449  Biso   1.000  N
  H9       1.0000 0.28130  0.28439  0.94489  Biso   1.000  H
  H10      1.0000 0.23151  0.30420  0.97970  Biso   1.000  H
  C12      1.0000 0.22179  0.97828  0.23879  Biso   1.000  C
  C13      1.0000 0.97828  0.23879  0.22179  Biso   1.000  C
  C14      1.0000 0.28528  0.32401  0.05698  Biso   1.000  C
  C15      1.0000 0.27821  0.97828  0.26121  Biso   1.000  C
  H11      1.0000 0.21561  0.94489  0.21870  Biso   1.000  H
  H12      1.0000 0.19580  0.97970  0.26849  Biso   1.000  H
  C16      1.0000 0.97828  0.26121  0.27821  Biso   1.000  C
  H13      1.0000 0.94489  0.21870  0.21561  Biso   1.000  H
  H14      1.0000 0.97970  0.26849  0.19580  Biso   1.000  H
  C17      1.0000 0.31790  0.33670  0.10559  Biso   1.000  C
  H15      1.0000 0.25449  0.34479  0.05019  Biso   1.000  H
  N5       1.0000 0.28671  0.02449  0.29692  Biso   1.000  N
  H16      1.0000 0.28439  0.94489  0.28130  Biso   1.000  H
  H17      1.0000 0.30420  0.97970  0.23151  Biso   1.000  H
  N6       1.0000 0.02449  0.29692  0.28671  Biso   1.000  N
  H18      1.0000 0.94489  0.28130  0.28439  Biso   1.000  H
  H19      1.0000 0.97970  0.23151  0.30420  Biso   1.000  H
  C18      1.0000 0.36309  0.30530  0.11881  Biso   1.000  C
  C19      1.0000 0.30530  0.38119  0.13691  Biso   1.000  C
  C20      1.0000 0.32401  0.05698  0.28528  Biso   1.000  C
  C21      1.0000 0.05698  0.28528  0.32401  Biso   1.000  C
  C22      1.0000 0.39441  0.31790  0.16330  Biso   1.000  C
  H20      1.0000 0.37229  0.27560  0.09721  Biso   1.000  H
  C23      1.0000 0.33670  0.39441  0.18210  Biso   1.000  C
  H21      1.0000 0.27560  0.40279  0.12771  Biso   1.000  H
  C24      1.0000 0.33670  0.10559  0.31790  Biso   1.000  C
  H22      1.0000 0.34479  0.05019  0.25449  Biso   1.000  H
  C25      1.0000 0.10559  0.31790  0.33670  Biso   1.000  C
  H23      1.0000 0.05019  0.25449  0.34479  Biso   1.000  H
  C26      1.0000 0.44302  0.28528  0.17599  Biso   1.000  C
  C27      1.0000 0.38119  0.36309  0.19470  Biso   1.000  C
  C28      1.0000 0.32401  0.44302  0.21472  Biso   1.000  C
  C29      1.0000 0.38119  0.13691  0.30530  Biso   1.000  C
  C30      1.0000 0.30530  0.11881  0.36309  Biso   1.000  C
  C31      1.0000 0.11881  0.36309  0.30530  Biso   1.000  C
  C32      1.0000 0.13691  0.30530  0.38119  Biso   1.000  C
  N7       1.0000 0.47551  0.29692  0.21329  Biso   1.000  N
  H24      1.0000 0.44981  0.25449  0.15521  Biso   1.000  H
  H25      1.0000 0.40279  0.37229  0.22440  Biso   1.000  H
  N8       1.0000 0.28671  0.47551  0.20308  Biso   1.000  N
  H26      1.0000 0.34479  0.44981  0.24551  Biso   1.000  H
  C33      1.0000 0.39441  0.18210  0.33670  Biso   1.000  C
  H27      1.0000 0.40279  0.12771  0.27560  Biso   1.000  H
  C34      1.0000 0.31790  0.16330  0.39441  Biso   1.000  C
  H28      1.0000 0.27560  0.09721  0.37229  Biso   1.000  H
  C35      1.0000 0.16330  0.39441  0.31790  Biso   1.000  C
  H29      1.0000 0.09721  0.37229  0.27560  Biso   1.000  H
  C36      1.0000 0.18210  0.33670  0.39441  Biso   1.000  C
  H30      1.0000 0.12771  0.27560  0.40279  Biso   1.000  H
  C37      1.0000 0.52172  0.26121  0.22179  Biso   1.000  C
  C38      1.0000 0.27821  0.52172  0.23879  Biso   1.000  C
  C39      1.0000 0.44302  0.21472  0.32401  Biso   1.000  C
  C40      1.0000 0.36309  0.19470  0.38119  Biso   1.000  C
  C41      1.0000 0.28528  0.17599  0.44302  Biso   1.000  C
  C42      1.0000 0.17599  0.44302  0.28528  Biso   1.000  C
  C43      1.0000 0.19470  0.38119  0.36309  Biso   1.000  C
  C44      1.0000 0.21472  0.32401  0.44302  Biso   1.000  C
  C45      1.0000 0.52172  0.23879  0.27821  Biso   1.000  C
  H31      1.0000 0.55511  0.28130  0.21561  Biso   1.000  H
  H32      1.0000 0.52030  0.23151  0.19580  Biso   1.000  H
  C46      1.0000 0.22179  0.52172  0.26121  Biso   1.000  C
  H33      1.0000 0.28439  0.55511  0.21870  Biso   1.000  H
  H34      1.0000 0.30420  0.52030  0.26849  Biso   1.000  H
  N9       1.0000 0.47551  0.20308  0.28671  Biso   1.000  N
  H35      1.0000 0.44981  0.24551  0.34479  Biso   1.000  H
  H36      1.0000 0.37229  0.22440  0.40279  Biso   1.000  H
  N10      1.0000 0.29692  0.21329  0.47551  Biso   1.000  N
  H37      1.0000 0.25449  0.15521  0.44981  Biso   1.000  H
  N11      1.0000 0.21329  0.47551  0.29692  Biso   1.000  N
  H38      1.0000 0.15521  0.44981  0.25449  Biso   1.000  H
  H39      1.0000 0.22440  0.40279  0.37229  Biso   1.000  H
  N12      1.0000 0.20308  0.28671  0.47551  Biso   1.000  N
  H40      1.0000 0.24551  0.34479  0.44981  Biso   1.000  H
  H41      1.0000 0.55511  0.21870  0.28439  Biso   1.000  H
  H42      1.0000 0.52030  0.26849  0.30420  Biso   1.000  H
  H43      1.0000 0.21561  0.55511  0.28130  Biso   1.000  H
  H44      1.0000 0.19580  0.52030  0.23151  Biso   1.000  H
  C47      1.0000 0.26121  0.22179  0.52172  Biso   1.000  C
  C48      1.0000 0.23879  0.27821  0.52172  Biso   1.000  C
  H45      1.0000 0.28130  0.21561  0.55511  Biso   1.000  H
  H46      1.0000 0.23151  0.19580  0.52030  Biso   1.000  H
  H47      1.0000 0.21870  0.28439  0.55511  Biso   1.000  H
  H48      1.0000 0.26849  0.30420  0.52030  Biso   1.000  H
  C49      1.0000 0.30269  0.96710  0.09152  Biso   1.000  C
  C50      1.0000 0.35048  0.92878  0.09741  Biso   1.000  C
  H49      1.0000 0.31380  0.00350  0.10168  Biso   1.000  H
  N13      1.0000 0.28211  0.96779  0.03620  Biso   1.000  N
  H50      1.0000 0.27381  0.95591  0.11600  Biso   1.000  H
  C51      1.0000 0.38620  0.93712  0.14020  Biso   1.000  C
  C52      1.0000 0.35980  0.88620  0.06288  Biso   1.000  C
  C53      1.0000 0.31729  0.00000  0.00000  Biso   1.000  C
  C54      1.0000 0.22932  0.99300  0.02961  Biso   1.000  C
  C55      1.0000 0.42878  0.90259  0.14952  Biso   1.000  C
  H51      1.0000 0.38099  0.96669  0.16318  Biso   1.000  H
  C56      1.0000 0.40259  0.85048  0.07122  Biso   1.000  C
  H52      1.0000 0.33682  0.88099  0.03331  Biso   1.000  H
  H53      1.0000 0.34032  0.02392  0.02131  Biso   1.000  H
  H54      1.0000 0.34032  0.97608  0.97869  Biso   1.000  H
  N14      1.0000 0.28211  0.03221  0.96380  Biso   1.000  N
  H55      1.0000 0.22850  0.02668  0.05080  Biso   1.000  H
  C57      1.0000 0.18071  0.95831  0.04539  Biso   1.000  C
  C58      1.0000 0.22932  0.00700  0.97039  Biso   1.000  C
  C59      1.0000 0.46710  0.90848  0.19731  Biso   1.000  C
  C60      1.0000 0.43712  0.85980  0.11380  Biso   1.000  C
  C61      1.0000 0.40848  0.80269  0.03290  Biso   1.000  C
  C62      1.0000 0.30269  0.03290  0.90848  Biso   1.000  C
  H56      1.0000 0.18100  0.95058  0.08411  Biso   1.000  H
  H57      1.0000 0.18079  0.92418  0.02558  Biso   1.000  H
  C63      1.0000 0.13060  0.99300  0.02990  Biso   1.000  C
  H58      1.0000 0.22850  0.97332  0.94920  Biso   1.000  H
  C64      1.0000 0.18071  0.04169  0.95461  Biso   1.000  C
  N15      1.0000 0.46779  0.96380  0.21789  Biso   1.000  N
  H59      1.0000 0.45591  0.88400  0.22619  Biso   1.000  H
  H60      1.0000 0.50350  0.89832  0.18620  Biso   1.000  H
  H61      1.0000 0.46669  0.83682  0.11901  Biso   1.000  H
  H62      1.0000 0.39832  0.81380  0.99650  Biso   1.000  H
  N16      1.0000 0.46380  0.78211  0.03221  Biso   1.000  N
  H63      1.0000 0.38400  0.77381  0.04409  Biso   1.000  H
  C65      1.0000 0.35048  0.07122  0.90259  Biso   1.000  C
  H64      1.0000 0.31380  0.99650  0.89832  Biso   1.000  H
  H65      1.0000 0.27381  0.04409  0.88400  Biso   1.000  H
  H66      1.0000 0.13068  0.02632  0.05109  Biso   1.000  H
  H67      1.0000 0.09770  0.97311  0.03860  Biso   1.000  H
  C66      1.0000 0.13060  0.00700  0.97010  Biso   1.000  C
  H68      1.0000 0.18100  0.04942  0.91589  Biso   1.000  H
  H69      1.0000 0.18079  0.07582  0.97442  Biso   1.000  H
  C67      1.0000 0.50000  0.00000  0.18271  Biso   1.000  C
  C68      1.0000 0.49300  0.97039  0.27068  Biso   1.000  C
  C69      1.0000 0.50000  0.81729  0.00000  Biso   1.000  C
  C70      1.0000 0.47039  0.72932  0.00700  Biso   1.000  C
  C71      1.0000 0.35980  0.11380  0.93712  Biso   1.000  C
  C72      1.0000 0.38620  0.06288  0.85980  Biso   1.000  C
  H70      1.0000 0.13068  0.97368  0.94891  Biso   1.000  H
  H71      1.0000 0.09770  0.02689  0.96140  Biso   1.000  H
  N17      1.0000 0.53221  0.03620  0.21789  Biso   1.000  N
  H72      1.0000 0.47608  0.02131  0.15968  Biso   1.000  H
  H73      1.0000 0.52392  0.97869  0.15968  Biso   1.000  H
  C73      1.0000 0.50700  0.02961  0.27068  Biso   1.000  C
  H74      1.0000 0.52668  0.94920  0.27150  Biso   1.000  H
  C74      1.0000 0.45831  0.95461  0.31929  Biso   1.000  C
  N18      1.0000 0.53620  0.78211  0.96779  Biso   1.000  N
  H75      1.0000 0.47869  0.84032  0.97608  Biso   1.000  H
  H76      1.0000 0.52131  0.84032  0.02392  Biso   1.000  H
  H77      1.0000 0.44920  0.72850  0.97332  Biso   1.000  H
  C75      1.0000 0.52961  0.72932  0.99300  Biso   1.000  C
  C76      1.0000 0.45461  0.68071  0.04169  Biso   1.000  C
  C77      1.0000 0.40259  0.14952  0.92878  Biso   1.000  C
  H78      1.0000 0.33682  0.11901  0.96669  Biso   1.000  H
  C78      1.0000 0.42878  0.09741  0.85048  Biso   1.000  C
  H79      1.0000 0.38099  0.03331  0.83682  Biso   1.000  H
  C79      1.0000 0.53290  0.09152  0.19731  Biso   1.000  C
  H80      1.0000 0.47332  0.05080  0.27150  Biso   1.000  H
  C80      1.0000 0.54169  0.04539  0.31929  Biso   1.000  C
  C81      1.0000 0.49300  0.97010  0.36940  Biso   1.000  C
  H81      1.0000 0.45058  0.91589  0.31900  Biso   1.000  H
  H82      1.0000 0.42418  0.97442  0.31921  Biso   1.000  H
  C82      1.0000 0.59152  0.80269  0.96710  Biso   1.000  C
  C83      1.0000 0.54539  0.68071  0.95831  Biso   1.000  C
  H83      1.0000 0.55080  0.72850  0.02668  Biso   1.000  H
  H84      1.0000 0.41589  0.68100  0.04942  Biso   1.000  H
  H85      1.0000 0.47442  0.68079  0.07582  Biso   1.000  H
  C84      1.0000 0.47010  0.63060  0.00700  Biso   1.000  C
  C85      1.0000 0.40848  0.19731  0.96710  Biso   1.000  C
  C86      1.0000 0.43712  0.14020  0.88620  Biso   1.000  C
  C87      1.0000 0.46710  0.09152  0.80269  Biso   1.000  C
  C88      1.0000 0.57122  0.09741  0.14952  Biso   1.000  C
  H86      1.0000 0.54409  0.11600  0.22619  Biso   1.000  H
  H87      1.0000 0.49650  0.10168  0.18620  Biso   1.000  H
  H88      1.0000 0.54942  0.08411  0.31900  Biso   1.000  H
  H89      1.0000 0.57582  0.02558  0.31921  Biso   1.000  H
  C89      1.0000 0.50700  0.02990  0.36940  Biso   1.000  C
  H90      1.0000 0.47311  0.96140  0.40230  Biso   1.000  H
  H91      1.0000 0.52632  0.94891  0.36932  Biso   1.000  H
  C90      1.0000 0.59741  0.85048  0.92878  Biso   1.000  C
  H92      1.0000 0.61600  0.77381  0.95591  Biso   1.000  H
  H93      1.0000 0.60168  0.81380  0.00350  Biso   1.000  H
  H94      1.0000 0.58411  0.68100  0.95058  Biso   1.000  H
  H95      1.0000 0.52558  0.68079  0.92418  Biso   1.000  H
  C91      1.0000 0.52990  0.63060  0.99300  Biso   1.000  C
  H96      1.0000 0.44891  0.63068  0.97368  Biso   1.000  H
  H97      1.0000 0.46140  0.59770  0.02689  Biso   1.000  H
  N19      1.0000 0.46380  0.21789  0.96779  Biso   1.000  N
  H98      1.0000 0.39832  0.18620  0.00350  Biso   1.000  H
  H99      1.0000 0.38400  0.22619  0.95591  Biso   1.000  H
  H100     1.0000 0.46669  0.16318  0.88099  Biso   1.000  H
  N20      1.0000 0.46779  0.03620  0.78211  Biso   1.000  N
  H101     1.0000 0.45591  0.11600  0.77381  Biso   1.000  H
  H102     1.0000 0.50350  0.10168  0.81380  Biso   1.000  H
  C92      1.0000 0.61380  0.06288  0.14020  Biso   1.000  C
  C93      1.0000 0.56288  0.14020  0.11380  Biso   1.000  C
  H103     1.0000 0.52689  0.03860  0.40230  Biso   1.000  H
  H104     1.0000 0.47368  0.05109  0.36932  Biso   1.000  H
  C94      1.0000 0.64020  0.88620  0.93712  Biso   1.000  C
  C95      1.0000 0.56288  0.85980  0.88620  Biso   1.000  C
  H105     1.0000 0.53860  0.59770  0.97311  Biso   1.000  H
  H106     1.0000 0.55109  0.63068  0.02632  Biso   1.000  H
  C96      1.0000 0.50000  0.18271  0.00000  Biso   1.000  C
  C97      1.0000 0.47039  0.27068  0.99300  Biso   1.000  C
  C98      1.0000 0.50000  0.00000  0.81729  Biso   1.000  C
  C99      1.0000 0.49300  0.02961  0.72932  Biso   1.000  C
  H107     1.0000 0.61901  0.03331  0.16318  Biso   1.000  H
  C100     1.0000 0.64952  0.07122  0.09741  Biso   1.000  C
  H108     1.0000 0.53331  0.16318  0.11901  Biso   1.000  H
  C101     1.0000 0.59741  0.14952  0.07122  Biso   1.000  C
  C102     1.0000 0.64952  0.92878  0.90259  Biso   1.000  C
  H109     1.0000 0.66318  0.88099  0.96669  Biso   1.000  H
  C103     1.0000 0.57122  0.90259  0.85048  Biso   1.000  C
  H110     1.0000 0.53331  0.83682  0.88099  Biso   1.000  H
  N21      1.0000 0.53620  0.21789  0.03221  Biso   1.000  N
  H111     1.0000 0.47869  0.15968  0.02392  Biso   1.000  H
  H112     1.0000 0.52131  0.15968  0.97608  Biso   1.000  H
  C104     1.0000 0.52961  0.27068  0.00700  Biso   1.000  C
  H113     1.0000 0.44920  0.27150  0.02668  Biso   1.000  H
  C105     1.0000 0.45461  0.31929  0.95831  Biso   1.000  C
  N22      1.0000 0.53221  0.96380  0.78211  Biso   1.000  N
  H114     1.0000 0.47608  0.97869  0.84032  Biso   1.000  H
  H115     1.0000 0.52392  0.02131  0.84032  Biso   1.000  H
  C106     1.0000 0.50700  0.97039  0.72932  Biso   1.000  C
  H116     1.0000 0.52668  0.05080  0.72850  Biso   1.000  H
  C107     1.0000 0.45831  0.04539  0.68071  Biso   1.000  C
  C108     1.0000 0.64020  0.11380  0.06288  Biso   1.000  C
  C109     1.0000 0.69731  0.03290  0.09152  Biso   1.000  C
  C110     1.0000 0.59152  0.19731  0.03290  Biso   1.000  C
  C111     1.0000 0.69731  0.96710  0.90848  Biso   1.000  C
  C112     1.0000 0.61380  0.93712  0.85980  Biso   1.000  C
  C113     1.0000 0.53290  0.90848  0.80269  Biso   1.000  C
  C114     1.0000 0.54539  0.31929  0.04169  Biso   1.000  C
  H117     1.0000 0.55080  0.27150  0.97332  Biso   1.000  H
  C115     1.0000 0.47010  0.36940  0.99300  Biso   1.000  C
  H118     1.0000 0.41589  0.31900  0.95058  Biso   1.000  H
  H119     1.0000 0.47442  0.31921  0.92418  Biso   1.000  H
  H120     1.0000 0.47332  0.94920  0.72850  Biso   1.000  H
  C116     1.0000 0.54169  0.95461  0.68071  Biso   1.000  C
  H121     1.0000 0.45058  0.08411  0.68100  Biso   1.000  H
  H122     1.0000 0.42418  0.02558  0.68079  Biso   1.000  H
  C117     1.0000 0.49300  0.02990  0.63060  Biso   1.000  C
  H123     1.0000 0.66318  0.11901  0.03331  Biso   1.000  H
  N23      1.0000 0.71789  0.03221  0.03620  Biso   1.000  N
  H124     1.0000 0.72619  0.04409  0.11600  Biso   1.000  H
  H125     1.0000 0.68620  0.99650  0.10168  Biso   1.000  H
  H126     1.0000 0.61600  0.22619  0.04409  Biso   1.000  H
  H127     1.0000 0.60168  0.18620  0.99650  Biso   1.000  H
  N24      1.0000 0.71789  0.96779  0.96380  Biso   1.000  N
  H128     1.0000 0.72619  0.95591  0.88400  Biso   1.000  H
  H129     1.0000 0.68620  0.00350  0.89832  Biso   1.000  H
  H130     1.0000 0.61901  0.96669  0.83682  Biso   1.000  H
  H131     1.0000 0.54409  0.88400  0.77381  Biso   1.000  H
  H132     1.0000 0.49650  0.89832  0.81380  Biso   1.000  H
  H133     1.0000 0.58411  0.31900  0.04942  Biso   1.000  H
  H134     1.0000 0.52558  0.31921  0.07582  Biso   1.000  H
  C118     1.0000 0.52990  0.36940  0.00700  Biso   1.000  C
  H135     1.0000 0.44891  0.36932  0.02632  Biso   1.000  H
  H136     1.0000 0.46140  0.40230  0.97311  Biso   1.000  H
  H137     1.0000 0.54942  0.91589  0.68100  Biso   1.000  H
  H138     1.0000 0.57582  0.97442  0.68079  Biso   1.000  H
  C119     1.0000 0.50700  0.97010  0.63060  Biso   1.000  C
  H139     1.0000 0.47311  0.03860  0.59770  Biso   1.000  H
  H140     1.0000 0.52632  0.05109  0.63068  Biso   1.000  H
  C120     1.0000 0.68271  0.00000  0.00000  Biso   1.000  C
  C121     1.0000 0.77068  0.00700  0.02961  Biso   1.000  C
  C122     1.0000 0.77068  0.99300  0.97039  Biso   1.000  C
  H141     1.0000 0.53860  0.40230  0.02689  Biso   1.000  H
  H142     1.0000 0.55109  0.36932  0.97368  Biso   1.000  H
  H143     1.0000 0.52689  0.96140  0.59770  Biso   1.000  H
  H144     1.0000 0.47368  0.94891  0.63068  Biso   1.000  H
  H145     1.0000 0.65968  0.97608  0.02131  Biso   1.000  H
  H146     1.0000 0.65968  0.02392  0.97869  Biso   1.000  H
  C123     1.0000 0.81929  0.04169  0.04539  Biso   1.000  C
  H147     1.0000 0.77150  0.97332  0.05080  Biso   1.000  H
  C124     1.0000 0.81929  0.95831  0.95461  Biso   1.000  C
  H148     1.0000 0.77150  0.02668  0.94920  Biso   1.000  H
  H149     1.0000 0.81900  0.04942  0.08411  Biso   1.000  H
  H150     1.0000 0.81921  0.07582  0.02558  Biso   1.000  H
  C125     1.0000 0.86940  0.00700  0.02990  Biso   1.000  C
  C126     1.0000 0.86940  0.99300  0.97010  Biso   1.000  C
  H151     1.0000 0.81900  0.95058  0.91589  Biso   1.000  H
  H152     1.0000 0.81921  0.92418  0.97442  Biso   1.000  H
  H153     1.0000 0.90230  0.02689  0.03860  Biso   1.000  H
  H154     1.0000 0.86932  0.97368  0.05109  Biso   1.000  H
  H155     1.0000 0.90230  0.97311  0.96140  Biso   1.000  H
  H156     1.0000 0.86932  0.02632  0.94891  Biso   1.000  H
  C127     1.0000 0.30269  0.96710  0.09152  Biso   1.000  C
  C128     1.0000 0.35048  0.92878  0.09741  Biso   1.000  C
  H157     1.0000 0.31380  0.00350  0.10168  Biso   1.000  H
  N25      1.0000 0.28211  0.96779  0.03620  Biso   1.000  N
  H158     1.0000 0.27381  0.95591  0.11600  Biso   1.000  H
  C129     1.0000 0.38620  0.93712  0.14020  Biso   1.000  C
  C130     1.0000 0.35980  0.88620  0.06288  Biso   1.000  C
  C131     1.0000 0.31729  0.00000  0.00000  Biso   1.000  C
  C132     1.0000 0.22932  0.99300  0.02961  Biso   1.000  C
  C133     1.0000 0.42878  0.90259  0.14952  Biso   1.000  C
  H159     1.0000 0.38099  0.96669  0.16318  Biso   1.000  H
  C134     1.0000 0.40259  0.85048  0.07122  Biso   1.000  C
  H160     1.0000 0.33682  0.88099  0.03331  Biso   1.000  H
  H161     1.0000 0.34032  0.02392  0.02131  Biso   1.000  H
  H162     1.0000 0.34032  0.97608  0.97869  Biso   1.000  H
  N26      1.0000 0.28211  0.03221  0.96380  Biso   1.000  N
  H163     1.0000 0.22850  0.02668  0.05080  Biso   1.000  H
  C135     1.0000 0.18071  0.95831  0.04539  Biso   1.000  C
  C136     1.0000 0.22932  0.00700  0.97039  Biso   1.000  C
  C137     1.0000 0.46710  0.90848  0.19731  Biso   1.000  C
  C138     1.0000 0.43712  0.85980  0.11380  Biso   1.000  C
  C139     1.0000 0.40848  0.80269  0.03290  Biso   1.000  C
  C140     1.0000 0.30269  0.03290  0.90848  Biso   1.000  C
  H164     1.0000 0.18100  0.95058  0.08411  Biso   1.000  H
  H165     1.0000 0.18079  0.92418  0.02558  Biso   1.000  H
  C141     1.0000 0.13060  0.99300  0.02990  Biso   1.000  C
  H166     1.0000 0.22850  0.97332  0.94920  Biso   1.000  H
  C142     1.0000 0.18071  0.04169  0.95461  Biso   1.000  C
  N27      1.0000 0.46779  0.96380  0.21789  Biso   1.000  N
  H167     1.0000 0.45591  0.88400  0.22619  Biso   1.000  H
  H168     1.0000 0.50350  0.89832  0.18620  Biso   1.000  H
  H169     1.0000 0.46669  0.83682  0.11901  Biso   1.000  H
  H170     1.0000 0.39832  0.81380  0.99650  Biso   1.000  H
  N28      1.0000 0.46380  0.78211  0.03221  Biso   1.000  N
  H171     1.0000 0.38400  0.77381  0.04409  Biso   1.000  H
  C143     1.0000 0.35048  0.07122  0.90259  Biso   1.000  C
  H172     1.0000 0.31380  0.99650  0.89832  Biso   1.000  H
  H173     1.0000 0.27381  0.04409  0.88400  Biso   1.000  H
  H174     1.0000 0.13068  0.02632  0.05109  Biso   1.000  H
  H175     1.0000 0.09770  0.97311  0.03860  Biso   1.000  H
  C144     1.0000 0.13060  0.00700  0.97010  Biso   1.000  C
  H176     1.0000 0.18100  0.04942  0.91589  Biso   1.000  H
  H177     1.0000 0.18079  0.07582  0.97442  Biso   1.000  H
  C145     1.0000 0.50000  0.00000  0.18271  Biso   1.000  C
  C146     1.0000 0.49300  0.97039  0.27068  Biso   1.000  C
  C147     1.0000 0.50000  0.81729  0.00000  Biso   1.000  C
  C148     1.0000 0.47039  0.72932  0.00700  Biso   1.000  C
  C149     1.0000 0.35980  0.11380  0.93712  Biso   1.000  C
  C150     1.0000 0.38620  0.06288  0.85980  Biso   1.000  C
  H178     1.0000 0.13068  0.97368  0.94891  Biso   1.000  H
  H179     1.0000 0.09770  0.02689  0.96140  Biso   1.000  H
  N29      1.0000 0.53221  0.03620  0.21789  Biso   1.000  N
  H180     1.0000 0.47608  0.02131  0.15968  Biso   1.000  H
  H181     1.0000 0.52392  0.97869  0.15968  Biso   1.000  H
  C151     1.0000 0.50700  0.02961  0.27068  Biso   1.000  C
  H182     1.0000 0.52668  0.94920  0.27150  Biso   1.000  H
  C152     1.0000 0.45831  0.95461  0.31929  Biso   1.000  C
  N30      1.0000 0.53620  0.78211  0.96779  Biso   1.000  N
  H183     1.0000 0.47869  0.84032  0.97608  Biso   1.000  H
  H184     1.0000 0.52131  0.84032  0.02392  Biso   1.000  H
  H185     1.0000 0.44920  0.72850  0.97332  Biso   1.000  H
  C153     1.0000 0.52961  0.72932  0.99300  Biso   1.000  C
  C154     1.0000 0.45461  0.68071  0.04169  Biso   1.000  C
  C155     1.0000 0.40259  0.14952  0.92878  Biso   1.000  C
  H186     1.0000 0.33682  0.11901  0.96669  Biso   1.000  H
  C156     1.0000 0.42878  0.09741  0.85048  Biso   1.000  C
  H187     1.0000 0.38099  0.03331  0.83682  Biso   1.000  H
  C157     1.0000 0.53290  0.09152  0.19731  Biso   1.000  C
  H188     1.0000 0.47332  0.05080  0.27150  Biso   1.000  H
  C158     1.0000 0.54169  0.04539  0.31929  Biso   1.000  C
  C159     1.0000 0.49300  0.97010  0.36940  Biso   1.000  C
  H189     1.0000 0.45058  0.91589  0.31900  Biso   1.000  H
  H190     1.0000 0.42418  0.97442  0.31921  Biso   1.000  H
  C160     1.0000 0.59152  0.80269  0.96710  Biso   1.000  C
  C161     1.0000 0.54539  0.68071  0.95831  Biso   1.000  C
  H191     1.0000 0.55080  0.72850  0.02668  Biso   1.000  H
  H192     1.0000 0.41589  0.68100  0.04942  Biso   1.000  H
  H193     1.0000 0.47442  0.68079  0.07582  Biso   1.000  H
  C162     1.0000 0.47010  0.63060  0.00700  Biso   1.000  C
  C163     1.0000 0.40848  0.19731  0.96710  Biso   1.000  C
  C164     1.0000 0.43712  0.14020  0.88620  Biso   1.000  C
  C165     1.0000 0.46710  0.09152  0.80269  Biso   1.000  C
  C166     1.0000 0.57122  0.09741  0.14952  Biso   1.000  C
  H194     1.0000 0.54409  0.11600  0.22619  Biso   1.000  H
  H195     1.0000 0.49650  0.10168  0.18620  Biso   1.000  H
  H196     1.0000 0.54942  0.08411  0.31900  Biso   1.000  H
  H197     1.0000 0.57582  0.02558  0.31921  Biso   1.000  H
  C167     1.0000 0.50700  0.02990  0.36940  Biso   1.000  C
  H198     1.0000 0.47311  0.96140  0.40230  Biso   1.000  H
  H199     1.0000 0.52632  0.94891  0.36932  Biso   1.000  H
  C168     1.0000 0.59741  0.85048  0.92878  Biso   1.000  C
  H200     1.0000 0.61600  0.77381  0.95591  Biso   1.000  H
  H201     1.0000 0.60168  0.81380  0.00350  Biso   1.000  H
  H202     1.0000 0.58411  0.68100  0.95058  Biso   1.000  H
  H203     1.0000 0.52558  0.68079  0.92418  Biso   1.000  H
  C169     1.0000 0.52990  0.63060  0.99300  Biso   1.000  C
  H204     1.0000 0.44891  0.63068  0.97368  Biso   1.000  H
  H205     1.0000 0.46140  0.59770  0.02689  Biso   1.000  H
  N31      1.0000 0.46380  0.21789  0.96779  Biso   1.000  N
  H206     1.0000 0.39832  0.18620  0.00350  Biso   1.000  H
  H207     1.0000 0.38400  0.22619  0.95591  Biso   1.000  H
  H208     1.0000 0.46669  0.16318  0.88099  Biso   1.000  H
  N32      1.0000 0.46779  0.03620  0.78211  Biso   1.000  N
  H209     1.0000 0.45591  0.11600  0.77381  Biso   1.000  H
  H210     1.0000 0.50350  0.10168  0.81380  Biso   1.000  H
  C170     1.0000 0.61380  0.06288  0.14020  Biso   1.000  C
  C171     1.0000 0.56288  0.14020  0.11380  Biso   1.000  C
  H211     1.0000 0.52689  0.03860  0.40230  Biso   1.000  H
  H212     1.0000 0.47368  0.05109  0.36932  Biso   1.000  H
  C172     1.0000 0.64020  0.88620  0.93712  Biso   1.000  C
  C173     1.0000 0.56288  0.85980  0.88620  Biso   1.000  C
  H213     1.0000 0.53860  0.59770  0.97311  Biso   1.000  H
  H214     1.0000 0.55109  0.63068  0.02632  Biso   1.000  H
  C174     1.0000 0.50000  0.18271  0.00000  Biso   1.000  C
  C175     1.0000 0.47039  0.27068  0.99300  Biso   1.000  C
  C176     1.0000 0.50000  0.00000  0.81729  Biso   1.000  C
  C177     1.0000 0.49300  0.02961  0.72932  Biso   1.000  C
  H215     1.0000 0.61901  0.03331  0.16318  Biso   1.000  H
  C178     1.0000 0.64952  0.07122  0.09741  Biso   1.000  C
  H216     1.0000 0.53331  0.16318  0.11901  Biso   1.000  H
  C179     1.0000 0.59741  0.14952  0.07122  Biso   1.000  C
  C180     1.0000 0.64952  0.92878  0.90259  Biso   1.000  C
  H217     1.0000 0.66318  0.88099  0.96669  Biso   1.000  H
  C181     1.0000 0.57122  0.90259  0.85048  Biso   1.000  C
  H218     1.0000 0.53331  0.83682  0.88099  Biso   1.000  H
  N33      1.0000 0.53620  0.21789  0.03221  Biso   1.000  N
  H219     1.0000 0.47869  0.15968  0.02392  Biso   1.000  H
  H220     1.0000 0.52131  0.15968  0.97608  Biso   1.000  H
  C182     1.0000 0.52961  0.27068  0.00700  Biso   1.000  C
  H221     1.0000 0.44920  0.27150  0.02668  Biso   1.000  H
  C183     1.0000 0.45461  0.31929  0.95831  Biso   1.000  C
  N34      1.0000 0.53221  0.96380  0.78211  Biso   1.000  N
  H222     1.0000 0.47608  0.97869  0.84032  Biso   1.000  H
  H223     1.0000 0.52392  0.02131  0.84032  Biso   1.000  H
  C184     1.0000 0.50700  0.97039  0.72932  Biso   1.000  C
  H224     1.0000 0.52668  0.05080  0.72850  Biso   1.000  H
  C185     1.0000 0.45831  0.04539  0.68071  Biso   1.000  C
  C186     1.0000 0.64020  0.11380  0.06288  Biso   1.000  C
  C187     1.0000 0.69731  0.03290  0.09152  Biso   1.000  C
  C188     1.0000 0.59152  0.19731  0.03290  Biso   1.000  C
  C189     1.0000 0.69731  0.96710  0.90848  Biso   1.000  C
  C190     1.0000 0.61380  0.93712  0.85980  Biso   1.000  C
  C191     1.0000 0.53290  0.90848  0.80269  Biso   1.000  C
  C192     1.0000 0.54539  0.31929  0.04169  Biso   1.000  C
  H225     1.0000 0.55080  0.27150  0.97332  Biso   1.000  H
  C193     1.0000 0.47010  0.36940  0.99300  Biso   1.000  C
  H226     1.0000 0.41589  0.31900  0.95058  Biso   1.000  H
  H227     1.0000 0.47442  0.31921  0.92418  Biso   1.000  H
  H228     1.0000 0.47332  0.94920  0.72850  Biso   1.000  H
  C194     1.0000 0.54169  0.95461  0.68071  Biso   1.000  C
  H229     1.0000 0.45058  0.08411  0.68100  Biso   1.000  H
  H230     1.0000 0.42418  0.02558  0.68079  Biso   1.000  H
  C195     1.0000 0.49300  0.02990  0.63060  Biso   1.000  C
  H231     1.0000 0.66318  0.11901  0.03331  Biso   1.000  H
  N35      1.0000 0.71789  0.03221  0.03620  Biso   1.000  N
  H232     1.0000 0.72619  0.04409  0.11600  Biso   1.000  H
  H233     1.0000 0.68620  0.99650  0.10168  Biso   1.000  H
  H234     1.0000 0.61600  0.22619  0.04409  Biso   1.000  H
  H235     1.0000 0.60168  0.18620  0.99650  Biso   1.000  H
  N36      1.0000 0.71789  0.96779  0.96380  Biso   1.000  N
  H236     1.0000 0.72619  0.95591  0.88400  Biso   1.000  H
  H237     1.0000 0.68620  0.00350  0.89832  Biso   1.000  H
  H238     1.0000 0.61901  0.96669  0.83682  Biso   1.000  H
  H239     1.0000 0.54409  0.88400  0.77381  Biso   1.000  H
  H240     1.0000 0.49650  0.89832  0.81380  Biso   1.000  H
  H241     1.0000 0.58411  0.31900  0.04942  Biso   1.000  H
  H242     1.0000 0.52558  0.31921  0.07582  Biso   1.000  H
  C196     1.0000 0.52990  0.36940  0.00700  Biso   1.000  C
  H243     1.0000 0.44891  0.36932  0.02632  Biso   1.000  H
  H244     1.0000 0.46140  0.40230  0.97311  Biso   1.000  H
  H245     1.0000 0.54942  0.91589  0.68100  Biso   1.000  H
  H246     1.0000 0.57582  0.97442  0.68079  Biso   1.000  H
  C197     1.0000 0.50700  0.97010  0.63060  Biso   1.000  C
  H247     1.0000 0.47311  0.03860  0.59770  Biso   1.000  H
  H248     1.0000 0.52632  0.05109  0.63068  Biso   1.000  H
  C198     1.0000 0.68271  0.00000  0.00000  Biso   1.000  C
  C199     1.0000 0.77068  0.00700  0.02961  Biso   1.000  C
  C200     1.0000 0.77068  0.99300  0.97039  Biso   1.000  C
  H249     1.0000 0.53860  0.40230  0.02689  Biso   1.000  H
  H250     1.0000 0.55109  0.36932  0.97368  Biso   1.000  H
  H251     1.0000 0.52689  0.96140  0.59770  Biso   1.000  H
  H252     1.0000 0.47368  0.94891  0.63068  Biso   1.000  H
  H253     1.0000 0.65968  0.97608  0.02131  Biso   1.000  H
  H254     1.0000 0.65968  0.02392  0.97869  Biso   1.000  H
  C201     1.0000 0.81929  0.04169  0.04539  Biso   1.000  C
  H255     1.0000 0.77150  0.97332  0.05080  Biso   1.000  H
  C202     1.0000 0.81929  0.95831  0.95461  Biso   1.000  C
  H256     1.0000 0.77150  0.02668  0.94920  Biso   1.000  H
  H257     1.0000 0.81900  0.04942  0.08411  Biso   1.000  H
  H258     1.0000 0.81921  0.07582  0.02558  Biso   1.000  H
  C203     1.0000 0.86940  0.00700  0.02990  Biso   1.000  C
  C204     1.0000 0.86940  0.99300  0.97010  Biso   1.000  C
  H259     1.0000 0.81900  0.95058  0.91589  Biso   1.000  H
  H260     1.0000 0.81921  0.92418  0.97442  Biso   1.000  H
  H261     1.0000 0.90230  0.02689  0.03860  Biso   1.000  H
  H262     1.0000 0.86932  0.97368  0.05109  Biso   1.000  H
  H263     1.0000 0.90230  0.97311  0.96140  Biso   1.000  H
  H264     1.0000 0.86932  0.02632  0.94891  Biso   1.000  H
  C205     1.0000 0.30269  0.96710  0.09152  Biso   1.000  C
  C206     1.0000 0.35048  0.92878  0.09741  Biso   1.000  C
  H265     1.0000 0.31380  0.00350  0.10168  Biso   1.000  H
  N37      1.0000 0.28211  0.96779  0.03620  Biso   1.000  N
  H266     1.0000 0.27381  0.95591  0.11600  Biso   1.000  H
  C207     1.0000 0.38620  0.93712  0.14020  Biso   1.000  C
  C208     1.0000 0.35980  0.88620  0.06288  Biso   1.000  C
  C209     1.0000 0.31729  0.00000  0.00000  Biso   1.000  C
  C210     1.0000 0.22932  0.99300  0.02961  Biso   1.000  C
  C211     1.0000 0.42878  0.90259  0.14952  Biso   1.000  C
  H267     1.0000 0.38099  0.96669  0.16318  Biso   1.000  H
  C212     1.0000 0.40259  0.85048  0.07122  Biso   1.000  C
  H268     1.0000 0.33682  0.88099  0.03331  Biso   1.000  H
  H269     1.0000 0.34032  0.02392  0.02131  Biso   1.000  H
  H270     1.0000 0.34032  0.97608  0.97869  Biso   1.000  H
  N38      1.0000 0.28211  0.03221  0.96380  Biso   1.000  N
  H271     1.0000 0.22850  0.02668  0.05080  Biso   1.000  H
  C213     1.0000 0.18071  0.95831  0.04539  Biso   1.000  C
  C214     1.0000 0.22932  0.00700  0.97039  Biso   1.000  C
  C215     1.0000 0.46710  0.90848  0.19731  Biso   1.000  C
  C216     1.0000 0.43712  0.85980  0.11380  Biso   1.000  C
  C217     1.0000 0.40848  0.80269  0.03290  Biso   1.000  C
  C218     1.0000 0.30269  0.03290  0.90848  Biso   1.000  C
  H272     1.0000 0.18100  0.95058  0.08411  Biso   1.000  H
  H273     1.0000 0.18079  0.92418  0.02558  Biso   1.000  H
  C219     1.0000 0.13060  0.99300  0.02990  Biso   1.000  C
  H274     1.0000 0.22850  0.97332  0.94920  Biso   1.000  H
  C220     1.0000 0.18071  0.04169  0.95461  Biso   1.000  C
  N39      1.0000 0.46779  0.96380  0.21789  Biso   1.000  N
  H275     1.0000 0.45591  0.88400  0.22619  Biso   1.000  H
  H276     1.0000 0.50350  0.89832  0.18620  Biso   1.000  H
  H277     1.0000 0.46669  0.83682  0.11901  Biso   1.000  H
  H278     1.0000 0.39832  0.81380  0.99650  Biso   1.000  H
  N40      1.0000 0.46380  0.78211  0.03221  Biso   1.000  N
  H279     1.0000 0.38400  0.77381  0.04409  Biso   1.000  H
  C221     1.0000 0.35048  0.07122  0.90259  Biso   1.000  C
  H280     1.0000 0.31380  0.99650  0.89832  Biso   1.000  H
  H281     1.0000 0.27381  0.04409  0.88400  Biso   1.000  H
  H282     1.0000 0.13068  0.02632  0.05109  Biso   1.000  H
  H283     1.0000 0.09770  0.97311  0.03860  Biso   1.000  H
  C222     1.0000 0.13060  0.00700  0.97010  Biso   1.000  C
  H284     1.0000 0.18100  0.04942  0.91589  Biso   1.000  H
  H285     1.0000 0.18079  0.07582  0.97442  Biso   1.000  H
  C223     1.0000 0.50000  0.00000  0.18271  Biso   1.000  C
  C224     1.0000 0.49300  0.97039  0.27068  Biso   1.000  C
  C225     1.0000 0.50000  0.81729  0.00000  Biso   1.000  C
  C226     1.0000 0.47039  0.72932  0.00700  Biso   1.000  C
  C227     1.0000 0.35980  0.11380  0.93712  Biso   1.000  C
  C228     1.0000 0.38620  0.06288  0.85980  Biso   1.000  C
  H286     1.0000 0.13068  0.97368  0.94891  Biso   1.000  H
  H287     1.0000 0.09770  0.02689  0.96140  Biso   1.000  H
  N41      1.0000 0.53221  0.03620  0.21789  Biso   1.000  N
  H288     1.0000 0.47608  0.02131  0.15968  Biso   1.000  H
  H289     1.0000 0.52392  0.97869  0.15968  Biso   1.000  H
  C229     1.0000 0.50700  0.02961  0.27068  Biso   1.000  C
  H290     1.0000 0.52668  0.94920  0.27150  Biso   1.000  H
  C230     1.0000 0.45831  0.95461  0.31929  Biso   1.000  C
  N42      1.0000 0.53620  0.78211  0.96779  Biso   1.000  N
  H291     1.0000 0.47869  0.84032  0.97608  Biso   1.000  H
  H292     1.0000 0.52131  0.84032  0.02392  Biso   1.000  H
  H293     1.0000 0.44920  0.72850  0.97332  Biso   1.000  H
  C231     1.0000 0.52961  0.72932  0.99300  Biso   1.000  C
  C232     1.0000 0.45461  0.68071  0.04169  Biso   1.000  C
  C233     1.0000 0.40259  0.14952  0.92878  Biso   1.000  C
  H294     1.0000 0.33682  0.11901  0.96669  Biso   1.000  H
  C234     1.0000 0.42878  0.09741  0.85048  Biso   1.000  C
  H295     1.0000 0.38099  0.03331  0.83682  Biso   1.000  H
  C235     1.0000 0.53290  0.09152  0.19731  Biso   1.000  C
  H296     1.0000 0.47332  0.05080  0.27150  Biso   1.000  H
  C236     1.0000 0.54169  0.04539  0.31929  Biso   1.000  C
  C237     1.0000 0.49300  0.97010  0.36940  Biso   1.000  C
  H297     1.0000 0.45058  0.91589  0.31900  Biso   1.000  H
  H298     1.0000 0.42418  0.97442  0.31921  Biso   1.000  H
  C238     1.0000 0.59152  0.80269  0.96710  Biso   1.000  C
  C239     1.0000 0.54539  0.68071  0.95831  Biso   1.000  C
  H299     1.0000 0.55080  0.72850  0.02668  Biso   1.000  H
  H300     1.0000 0.41589  0.68100  0.04942  Biso   1.000  H
  H301     1.0000 0.47442  0.68079  0.07582  Biso   1.000  H
  C240     1.0000 0.47010  0.63060  0.00700  Biso   1.000  C
  C241     1.0000 0.40848  0.19731  0.96710  Biso   1.000  C
  C242     1.0000 0.43712  0.14020  0.88620  Biso   1.000  C
  C243     1.0000 0.46710  0.09152  0.80269  Biso   1.000  C
  C244     1.0000 0.57122  0.09741  0.14952  Biso   1.000  C
  H302     1.0000 0.54409  0.11600  0.22619  Biso   1.000  H
  H303     1.0000 0.49650  0.10168  0.18620  Biso   1.000  H
  H304     1.0000 0.54942  0.08411  0.31900  Biso   1.000  H
  H305     1.0000 0.57582  0.02558  0.31921  Biso   1.000  H
  C245     1.0000 0.50700  0.02990  0.36940  Biso   1.000  C
  H306     1.0000 0.47311  0.96140  0.40230  Biso   1.000  H
  H307     1.0000 0.52632  0.94891  0.36932  Biso   1.000  H
  C246     1.0000 0.59741  0.85048  0.92878  Biso   1.000  C
  H308     1.0000 0.61600  0.77381  0.95591  Biso   1.000  H
  H309     1.0000 0.60168  0.81380  0.00350  Biso   1.000  H
  H310     1.0000 0.58411  0.68100  0.95058  Biso   1.000  H
  H311     1.0000 0.52558  0.68079  0.92418  Biso   1.000  H
  C247     1.0000 0.52990  0.63060  0.99300  Biso   1.000  C
  H312     1.0000 0.44891  0.63068  0.97368  Biso   1.000  H
  H313     1.0000 0.46140  0.59770  0.02689  Biso   1.000  H
  N43      1.0000 0.46380  0.21789  0.96779  Biso   1.000  N
  H314     1.0000 0.39832  0.18620  0.00350  Biso   1.000  H
  H315     1.0000 0.38400  0.22619  0.95591  Biso   1.000  H
  H316     1.0000 0.46669  0.16318  0.88099  Biso   1.000  H
  N44      1.0000 0.46779  0.03620  0.78211  Biso   1.000  N
  H317     1.0000 0.45591  0.11600  0.77381  Biso   1.000  H
  H318     1.0000 0.50350  0.10168  0.81380  Biso   1.000  H
  C248     1.0000 0.61380  0.06288  0.14020  Biso   1.000  C
  C249     1.0000 0.56288  0.14020  0.11380  Biso   1.000  C
  H319     1.0000 0.52689  0.03860  0.40230  Biso   1.000  H
  H320     1.0000 0.47368  0.05109  0.36932  Biso   1.000  H
  C250     1.0000 0.64020  0.88620  0.93712  Biso   1.000  C
  C251     1.0000 0.56288  0.85980  0.88620  Biso   1.000  C
  H321     1.0000 0.53860  0.59770  0.97311  Biso   1.000  H
  H322     1.0000 0.55109  0.63068  0.02632  Biso   1.000  H
  C252     1.0000 0.50000  0.18271  0.00000  Biso   1.000  C
  C253     1.0000 0.47039  0.27068  0.99300  Biso   1.000  C
  C254     1.0000 0.50000  0.00000  0.81729  Biso   1.000  C
  C255     1.0000 0.49300  0.02961  0.72932  Biso   1.000  C
  H323     1.0000 0.61901  0.03331  0.16318  Biso   1.000  H
  C256     1.0000 0.64952  0.07122  0.09741  Biso   1.000  C
  H324     1.0000 0.53331  0.16318  0.11901  Biso   1.000  H
  C257     1.0000 0.59741  0.14952  0.07122  Biso   1.000  C
  C258     1.0000 0.64952  0.92878  0.90259  Biso   1.000  C
  H325     1.0000 0.66318  0.88099  0.96669  Biso   1.000  H
  C259     1.0000 0.57122  0.90259  0.85048  Biso   1.000  C
  H326     1.0000 0.53331  0.83682  0.88099  Biso   1.000  H
  N45      1.0000 0.53620  0.21789  0.03221  Biso   1.000  N
  H327     1.0000 0.47869  0.15968  0.02392  Biso   1.000  H
  H328     1.0000 0.52131  0.15968  0.97608  Biso   1.000  H
  C260     1.0000 0.52961  0.27068  0.00700  Biso   1.000  C
  H329     1.0000 0.44920  0.27150  0.02668  Biso   1.000  H
  C261     1.0000 0.45461  0.31929  0.95831  Biso   1.000  C
  N46      1.0000 0.53221  0.96380  0.78211  Biso   1.000  N
  H330     1.0000 0.47608  0.97869  0.84032  Biso   1.000  H
  H331     1.0000 0.52392  0.02131  0.84032  Biso   1.000  H
  C262     1.0000 0.50700  0.97039  0.72932  Biso   1.000  C
  H332     1.0000 0.52668  0.05080  0.72850  Biso   1.000  H
  C263     1.0000 0.45831  0.04539  0.68071  Biso   1.000  C
  C264     1.0000 0.64020  0.11380  0.06288  Biso   1.000  C
  C265     1.0000 0.69731  0.03290  0.09152  Biso   1.000  C
  C266     1.0000 0.59152  0.19731  0.03290  Biso   1.000  C
  C267     1.0000 0.69731  0.96710  0.90848  Biso   1.000  C
  C268     1.0000 0.61380  0.93712  0.85980  Biso   1.000  C
  C269     1.0000 0.53290  0.90848  0.80269  Biso   1.000  C
  C270     1.0000 0.54539  0.31929  0.04169  Biso   1.000  C
  H333     1.0000 0.55080  0.27150  0.97332  Biso   1.000  H
  C271     1.0000 0.47010  0.36940  0.99300  Biso   1.000  C
  H334     1.0000 0.41589  0.31900  0.95058  Biso   1.000  H
  H335     1.0000 0.47442  0.31921  0.92418  Biso   1.000  H
  H336     1.0000 0.47332  0.94920  0.72850  Biso   1.000  H
  C272     1.0000 0.54169  0.95461  0.68071  Biso   1.000  C
  H337     1.0000 0.45058  0.08411  0.68100  Biso   1.000  H
  H338     1.0000 0.42418  0.02558  0.68079  Biso   1.000  H
  C273     1.0000 0.49300  0.02990  0.63060  Biso   1.000  C
  H339     1.0000 0.66318  0.11901  0.03331  Biso   1.000  H
  N47      1.0000 0.71789  0.03221  0.03620  Biso   1.000  N
  H340     1.0000 0.72619  0.04409  0.11600  Biso   1.000  H
  H341     1.0000 0.68620  0.99650  0.10168  Biso   1.000  H
  H342     1.0000 0.61600  0.22619  0.04409  Biso   1.000  H
  H343     1.0000 0.60168  0.18620  0.99650  Biso   1.000  H
  N48      1.0000 0.71789  0.96779  0.96380  Biso   1.000  N
  H344     1.0000 0.72619  0.95591  0.88400  Biso   1.000  H
  H345     1.0000 0.68620  0.00350  0.89832  Biso   1.000  H
  H346     1.0000 0.61901  0.96669  0.83682  Biso   1.000  H
  H347     1.0000 0.54409  0.88400  0.77381  Biso   1.000  H
  H348     1.0000 0.49650  0.89832  0.81380  Biso   1.000  H
  H349     1.0000 0.58411  0.31900  0.04942  Biso   1.000  H
  H350     1.0000 0.52558  0.31921  0.07582  Biso   1.000  H
  C274     1.0000 0.52990  0.36940  0.00700  Biso   1.000  C
  H351     1.0000 0.44891  0.36932  0.02632  Biso   1.000  H
  H352     1.0000 0.46140  0.40230  0.97311  Biso   1.000  H
  H353     1.0000 0.54942  0.91589  0.68100  Biso   1.000  H
  H354     1.0000 0.57582  0.97442  0.68079  Biso   1.000  H
  C275     1.0000 0.50700  0.97010  0.63060  Biso   1.000  C
  H355     1.0000 0.47311  0.03860  0.59770  Biso   1.000  H
  H356     1.0000 0.52632  0.05109  0.63068  Biso   1.000  H
  C276     1.0000 0.68271  0.00000  0.00000  Biso   1.000  C
  C277     1.0000 0.77068  0.00700  0.02961  Biso   1.000  C
  C278     1.0000 0.77068  0.99300  0.97039  Biso   1.000  C
  H357     1.0000 0.53860  0.40230  0.02689  Biso   1.000  H
  H358     1.0000 0.55109  0.36932  0.97368  Biso   1.000  H
  H359     1.0000 0.52689  0.96140  0.59770  Biso   1.000  H
  H360     1.0000 0.47368  0.94891  0.63068  Biso   1.000  H
  H361     1.0000 0.65968  0.97608  0.02131  Biso   1.000  H
  H362     1.0000 0.65968  0.02392  0.97869  Biso   1.000  H
  C279     1.0000 0.81929  0.04169  0.04539  Biso   1.000  C
  H363     1.0000 0.77150  0.97332  0.05080  Biso   1.000  H
  C280     1.0000 0.81929  0.95831  0.95461  Biso   1.000  C
  H364     1.0000 0.77150  0.02668  0.94920  Biso   1.000  H
  H365     1.0000 0.81900  0.04942  0.08411  Biso   1.000  H
  H366     1.0000 0.81921  0.07582  0.02558  Biso   1.000  H
  C281     1.0000 0.86940  0.00700  0.02990  Biso   1.000  C
  C282     1.0000 0.86940  0.99300  0.97010  Biso   1.000  C
  H367     1.0000 0.81900  0.95058  0.91589  Biso   1.000  H
  H368     1.0000 0.81921  0.92418  0.97442  Biso   1.000  H
  H369     1.0000 0.90230  0.02689  0.03860  Biso   1.000  H
  H370     1.0000 0.86932  0.97368  0.05109  Biso   1.000  H
  H371     1.0000 0.90230  0.97311  0.96140  Biso   1.000  H
  H372     1.0000 0.86932  0.02632  0.94891  Biso   1.000  H
  C283     1.0000 0.30269  0.96710  0.09152  Biso   1.000  C
  C284     1.0000 0.35048  0.92878  0.09741  Biso   1.000  C
  H373     1.0000 0.31380  0.00350  0.10168  Biso   1.000  H
  N49      1.0000 0.28211  0.96779  0.03620  Biso   1.000  N
  H374     1.0000 0.27381  0.95591  0.11600  Biso   1.000  H
  C285     1.0000 0.38620  0.93712  0.14020  Biso   1.000  C
  C286     1.0000 0.35980  0.88620  0.06288  Biso   1.000  C
  C287     1.0000 0.31729  0.00000  0.00000  Biso   1.000  C
  C288     1.0000 0.22932  0.99300  0.02961  Biso   1.000  C
  C289     1.0000 0.42878  0.90259  0.14952  Biso   1.000  C
  H375     1.0000 0.38099  0.96669  0.16318  Biso   1.000  H
  C290     1.0000 0.40259  0.85048  0.07122  Biso   1.000  C
  H376     1.0000 0.33682  0.88099  0.03331  Biso   1.000  H
  H377     1.0000 0.34032  0.02392  0.02131  Biso   1.000  H
  H378     1.0000 0.34032  0.97608  0.97869  Biso   1.000  H
  N50      1.0000 0.28211  0.03221  0.96380  Biso   1.000  N
  H379     1.0000 0.22850  0.02668  0.05080  Biso   1.000  H
  C291     1.0000 0.18071  0.95831  0.04539  Biso   1.000  C
  C292     1.0000 0.22932  0.00700  0.97039  Biso   1.000  C
  C293     1.0000 0.46710  0.90848  0.19731  Biso   1.000  C
  C294     1.0000 0.43712  0.85980  0.11380  Biso   1.000  C
  C295     1.0000 0.40848  0.80269  0.03290  Biso   1.000  C
  C296     1.0000 0.30269  0.03290  0.90848  Biso   1.000  C
  H380     1.0000 0.18100  0.95058  0.08411  Biso   1.000  H
  H381     1.0000 0.18079  0.92418  0.02558  Biso   1.000  H
  C297     1.0000 0.13060  0.99300  0.02990  Biso   1.000  C
  H382     1.0000 0.22850  0.97332  0.94920  Biso   1.000  H
  C298     1.0000 0.18071  0.04169  0.95461  Biso   1.000  C
  N51      1.0000 0.46779  0.96380  0.21789  Biso   1.000  N
  H383     1.0000 0.45591  0.88400  0.22619  Biso   1.000  H
  H384     1.0000 0.50350  0.89832  0.18620  Biso   1.000  H
  H385     1.0000 0.46669  0.83682  0.11901  Biso   1.000  H
  H386     1.0000 0.39832  0.81380  0.99650  Biso   1.000  H
  N52      1.0000 0.46380  0.78211  0.03221  Biso   1.000  N
  H387     1.0000 0.38400  0.77381  0.04409  Biso   1.000  H
  C299     1.0000 0.35048  0.07122  0.90259  Biso   1.000  C
  H388     1.0000 0.31380  0.99650  0.89832  Biso   1.000  H
  H389     1.0000 0.27381  0.04409  0.88400  Biso   1.000  H
  H390     1.0000 0.13068  0.02632  0.05109  Biso   1.000  H
  H391     1.0000 0.09770  0.97311  0.03860  Biso   1.000  H
  C300     1.0000 0.13060  0.00700  0.97010  Biso   1.000  C
  H392     1.0000 0.18100  0.04942  0.91589  Biso   1.000  H
  H393     1.0000 0.18079  0.07582  0.97442  Biso   1.000  H
  C301     1.0000 0.50000  0.00000  0.18271  Biso   1.000  C
  C302     1.0000 0.49300  0.97039  0.27068  Biso   1.000  C
  C303     1.0000 0.50000  0.81729  0.00000  Biso   1.000  C
  C304     1.0000 0.47039  0.72932  0.00700  Biso   1.000  C
  C305     1.0000 0.35980  0.11380  0.93712  Biso   1.000  C
  C306     1.0000 0.38620  0.06288  0.85980  Biso   1.000  C
  H394     1.0000 0.13068  0.97368  0.94891  Biso   1.000  H
  H395     1.0000 0.09770  0.02689  0.96140  Biso   1.000  H
  N53      1.0000 0.53221  0.03620  0.21789  Biso   1.000  N
  H396     1.0000 0.47608  0.02131  0.15968  Biso   1.000  H
  H397     1.0000 0.52392  0.97869  0.15968  Biso   1.000  H
  C307     1.0000 0.50700  0.02961  0.27068  Biso   1.000  C
  H398     1.0000 0.52668  0.94920  0.27150  Biso   1.000  H
  C308     1.0000 0.45831  0.95461  0.31929  Biso   1.000  C
  N54      1.0000 0.53620  0.78211  0.96779  Biso   1.000  N
  H399     1.0000 0.47869  0.84032  0.97608  Biso   1.000  H
  H400     1.0000 0.52131  0.84032  0.02392  Biso   1.000  H
  H401     1.0000 0.44920  0.72850  0.97332  Biso   1.000  H
  C309     1.0000 0.52961  0.72932  0.99300  Biso   1.000  C
  C310     1.0000 0.45461  0.68071  0.04169  Biso   1.000  C
  C311     1.0000 0.40259  0.14952  0.92878  Biso   1.000  C
  H402     1.0000 0.33682  0.11901  0.96669  Biso   1.000  H
  C312     1.0000 0.42878  0.09741  0.85048  Biso   1.000  C
  H403     1.0000 0.38099  0.03331  0.83682  Biso   1.000  H
  C313     1.0000 0.53290  0.09152  0.19731  Biso   1.000  C
  H404     1.0000 0.47332  0.05080  0.27150  Biso   1.000  H
  C314     1.0000 0.54169  0.04539  0.31929  Biso   1.000  C
  C315     1.0000 0.49300  0.97010  0.36940  Biso   1.000  C
  H405     1.0000 0.45058  0.91589  0.31900  Biso   1.000  H
  H406     1.0000 0.42418  0.97442  0.31921  Biso   1.000  H
  C316     1.0000 0.59152  0.80269  0.96710  Biso   1.000  C
  C317     1.0000 0.54539  0.68071  0.95831  Biso   1.000  C
  H407     1.0000 0.55080  0.72850  0.02668  Biso   1.000  H
  H408     1.0000 0.41589  0.68100  0.04942  Biso   1.000  H
  H409     1.0000 0.47442  0.68079  0.07582  Biso   1.000  H
  C318     1.0000 0.47010  0.63060  0.00700  Biso   1.000  C
  C319     1.0000 0.40848  0.19731  0.96710  Biso   1.000  C
  C320     1.0000 0.43712  0.14020  0.88620  Biso   1.000  C
  C321     1.0000 0.46710  0.09152  0.80269  Biso   1.000  C
  C322     1.0000 0.57122  0.09741  0.14952  Biso   1.000  C
  H410     1.0000 0.54409  0.11600  0.22619  Biso   1.000  H
  H411     1.0000 0.49650  0.10168  0.18620  Biso   1.000  H
  H412     1.0000 0.54942  0.08411  0.31900  Biso   1.000  H
  H413     1.0000 0.57582  0.02558  0.31921  Biso   1.000  H
  C323     1.0000 0.50700  0.02990  0.36940  Biso   1.000  C
  H414     1.0000 0.47311  0.96140  0.40230  Biso   1.000  H
  H415     1.0000 0.52632  0.94891  0.36932  Biso   1.000  H
  C324     1.0000 0.59741  0.85048  0.92878  Biso   1.000  C
  H416     1.0000 0.61600  0.77381  0.95591  Biso   1.000  H
  H417     1.0000 0.60168  0.81380  0.00350  Biso   1.000  H
  H418     1.0000 0.58411  0.68100  0.95058  Biso   1.000  H
  H419     1.0000 0.52558  0.68079  0.92418  Biso   1.000  H
  C325     1.0000 0.52990  0.63060  0.99300  Biso   1.000  C
  H420     1.0000 0.44891  0.63068  0.97368  Biso   1.000  H
  H421     1.0000 0.46140  0.59770  0.02689  Biso   1.000  H
  N55      1.0000 0.46380  0.21789  0.96779  Biso   1.000  N
  H422     1.0000 0.39832  0.18620  0.00350  Biso   1.000  H
  H423     1.0000 0.38400  0.22619  0.95591  Biso   1.000  H
  H424     1.0000 0.46669  0.16318  0.88099  Biso   1.000  H
  N56      1.0000 0.46779  0.03620  0.78211  Biso   1.000  N
  H425     1.0000 0.45591  0.11600  0.77381  Biso   1.000  H
  H426     1.0000 0.50350  0.10168  0.81380  Biso   1.000  H
  C326     1.0000 0.61380  0.06288  0.14020  Biso   1.000  C
  C327     1.0000 0.56288  0.14020  0.11380  Biso   1.000  C
  H427     1.0000 0.52689  0.03860  0.40230  Biso   1.000  H
  H428     1.0000 0.47368  0.05109  0.36932  Biso   1.000  H
  C328     1.0000 0.64020  0.88620  0.93712  Biso   1.000  C
  C329     1.0000 0.56288  0.85980  0.88620  Biso   1.000  C
  H429     1.0000 0.53860  0.59770  0.97311  Biso   1.000  H
  H430     1.0000 0.55109  0.63068  0.02632  Biso   1.000  H
  C330     1.0000 0.50000  0.18271  0.00000  Biso   1.000  C
  C331     1.0000 0.47039  0.27068  0.99300  Biso   1.000  C
  C332     1.0000 0.50000  0.00000  0.81729  Biso   1.000  C
  C333     1.0000 0.49300  0.02961  0.72932  Biso   1.000  C
  H431     1.0000 0.61901  0.03331  0.16318  Biso   1.000  H
  C334     1.0000 0.64952  0.07122  0.09741  Biso   1.000  C
  H432     1.0000 0.53331  0.16318  0.11901  Biso   1.000  H
  C335     1.0000 0.59741  0.14952  0.07122  Biso   1.000  C
  C336     1.0000 0.64952  0.92878  0.90259  Biso   1.000  C
  H433     1.0000 0.66318  0.88099  0.96669  Biso   1.000  H
  C337     1.0000 0.57122  0.90259  0.85048  Biso   1.000  C
  H434     1.0000 0.53331  0.83682  0.88099  Biso   1.000  H
  N57      1.0000 0.53620  0.21789  0.03221  Biso   1.000  N
  H435     1.0000 0.47869  0.15968  0.02392  Biso   1.000  H
  H436     1.0000 0.52131  0.15968  0.97608  Biso   1.000  H
  C338     1.0000 0.52961  0.27068  0.00700  Biso   1.000  C
  H437     1.0000 0.44920  0.27150  0.02668  Biso   1.000  H
  C339     1.0000 0.45461  0.31929  0.95831  Biso   1.000  C
  N58      1.0000 0.53221  0.96380  0.78211  Biso   1.000  N
  H438     1.0000 0.47608  0.97869  0.84032  Biso   1.000  H
  H439     1.0000 0.52392  0.02131  0.84032  Biso   1.000  H
  C340     1.0000 0.50700  0.97039  0.72932  Biso   1.000  C
  H440     1.0000 0.52668  0.05080  0.72850  Biso   1.000  H
  C341     1.0000 0.45831  0.04539  0.68071  Biso   1.000  C
  C342     1.0000 0.64020  0.11380  0.06288  Biso   1.000  C
  C343     1.0000 0.69731  0.03290  0.09152  Biso   1.000  C
  C344     1.0000 0.59152  0.19731  0.03290  Biso   1.000  C
  C345     1.0000 0.69731  0.96710  0.90848  Biso   1.000  C
  C346     1.0000 0.61380  0.93712  0.85980  Biso   1.000  C
  C347     1.0000 0.53290  0.90848  0.80269  Biso   1.000  C
  C348     1.0000 0.54539  0.31929  0.04169  Biso   1.000  C
  H441     1.0000 0.55080  0.27150  0.97332  Biso   1.000  H
  C349     1.0000 0.47010  0.36940  0.99300  Biso   1.000  C
  H442     1.0000 0.41589  0.31900  0.95058  Biso   1.000  H
  H443     1.0000 0.47442  0.31921  0.92418  Biso   1.000  H
  H444     1.0000 0.47332  0.94920  0.72850  Biso   1.000  H
  C350     1.0000 0.54169  0.95461  0.68071  Biso   1.000  C
  H445     1.0000 0.45058  0.08411  0.68100  Biso   1.000  H
  H446     1.0000 0.42418  0.02558  0.68079  Biso   1.000  H
  C351     1.0000 0.49300  0.02990  0.63060  Biso   1.000  C
  H447     1.0000 0.66318  0.11901  0.03331  Biso   1.000  H
  N59      1.0000 0.71789  0.03221  0.03620  Biso   1.000  N
  H448     1.0000 0.72619  0.04409  0.11600  Biso   1.000  H
  H449     1.0000 0.68620  0.99650  0.10168  Biso   1.000  H
  H450     1.0000 0.61600  0.22619  0.04409  Biso   1.000  H
  H451     1.0000 0.60168  0.18620  0.99650  Biso   1.000  H
  N60      1.0000 0.71789  0.96779  0.96380  Biso   1.000  N
  H452     1.0000 0.72619  0.95591  0.88400  Biso   1.000  H
  H453     1.0000 0.68620  0.00350  0.89832  Biso   1.000  H
  H454     1.0000 0.61901  0.96669  0.83682  Biso   1.000  H
  H455     1.0000 0.54409  0.88400  0.77381  Biso   1.000  H
  H456     1.0000 0.49650  0.89832  0.81380  Biso   1.000  H
  H457     1.0000 0.58411  0.31900  0.04942  Biso   1.000  H
  H458     1.0000 0.52558  0.31921  0.07582  Biso   1.000  H
  C352     1.0000 0.52990  0.36940  0.00700  Biso   1.000  C
  H459     1.0000 0.44891  0.36932  0.02632  Biso   1.000  H
  H460     1.0000 0.46140  0.40230  0.97311  Biso   1.000  H
  H461     1.0000 0.54942  0.91589  0.68100  Biso   1.000  H
  H462     1.0000 0.57582  0.97442  0.68079  Biso   1.000  H
  C353     1.0000 0.50700  0.97010  0.63060  Biso   1.000  C
  H463     1.0000 0.47311  0.03860  0.59770  Biso   1.000  H
  H464     1.0000 0.52632  0.05109  0.63068  Biso   1.000  H
  C354     1.0000 0.68271  0.00000  0.00000  Biso   1.000  C
  C355     1.0000 0.77068  0.00700  0.02961  Biso   1.000  C
  C356     1.0000 0.77068  0.99300  0.97039  Biso   1.000  C
  H465     1.0000 0.53860  0.40230  0.02689  Biso   1.000  H
  H466     1.0000 0.55109  0.36932  0.97368  Biso   1.000  H
  H467     1.0000 0.52689  0.96140  0.59770  Biso   1.000  H
  H468     1.0000 0.47368  0.94891  0.63068  Biso   1.000  H
  H469     1.0000 0.65968  0.97608  0.02131  Biso   1.000  H
  H470     1.0000 0.65968  0.02392  0.97869  Biso   1.000  H
  C357     1.0000 0.81929  0.04169  0.04539  Biso   1.000  C
  H471     1.0000 0.77150  0.97332  0.05080  Biso   1.000  H
  C358     1.0000 0.81929  0.95831  0.95461  Biso   1.000  C
  H472     1.0000 0.77150  0.02668  0.94920  Biso   1.000  H
  H473     1.0000 0.81900  0.04942  0.08411  Biso   1.000  H
  H474     1.0000 0.81921  0.07582  0.02558  Biso   1.000  H
  C359     1.0000 0.86940  0.00700  0.02990  Biso   1.000  C
  C360     1.0000 0.86940  0.99300  0.97010  Biso   1.000  C
  H475     1.0000 0.81900  0.95058  0.91589  Biso   1.000  H
  H476     1.0000 0.81921  0.92418  0.97442  Biso   1.000  H
  H477     1.0000 0.90230  0.02689  0.03860  Biso   1.000  H
  H478     1.0000 0.86932  0.97368  0.05109  Biso   1.000  H
  H479     1.0000 0.90230  0.97311  0.96140  Biso   1.000  H
  H480     1.0000 0.86932  0.02632  0.94891  Biso   1.000  H
  C361     1.0000 0.09152  0.30269  0.96710  Biso   1.000  C
  C362     1.0000 0.09741  0.35048  0.92878  Biso   1.000  C
  H481     1.0000 0.10168  0.31380  0.00350  Biso   1.000  H
  N61      1.0000 0.03620  0.28211  0.96779  Biso   1.000  N
  H482     1.0000 0.11600  0.27381  0.95591  Biso   1.000  H
  C363     1.0000 0.14020  0.38620  0.93712  Biso   1.000  C
  C364     1.0000 0.06288  0.35980  0.88620  Biso   1.000  C
  C365     1.0000 0.00000  0.31729  0.00000  Biso   1.000  C
  C366     1.0000 0.02961  0.22932  0.99300  Biso   1.000  C
  C367     1.0000 0.14952  0.42878  0.90259  Biso   1.000  C
  H483     1.0000 0.16318  0.38099  0.96669  Biso   1.000  H
  C368     1.0000 0.07122  0.40259  0.85048  Biso   1.000  C
  H484     1.0000 0.03331  0.33682  0.88099  Biso   1.000  H
  H485     1.0000 0.02131  0.34032  0.02392  Biso   1.000  H
  H486     1.0000 0.97869  0.34032  0.97608  Biso   1.000  H
  N62      1.0000 0.96380  0.28211  0.03221  Biso   1.000  N
  H487     1.0000 0.05080  0.22850  0.02668  Biso   1.000  H
  C369     1.0000 0.97039  0.22932  0.00700  Biso   1.000  C
  C370     1.0000 0.04539  0.18071  0.95831  Biso   1.000  C
  C371     1.0000 0.19731  0.46710  0.90848  Biso   1.000  C
  C372     1.0000 0.11380  0.43712  0.85980  Biso   1.000  C
  C373     1.0000 0.03290  0.40848  0.80269  Biso   1.000  C
  C374     1.0000 0.90848  0.30269  0.03290  Biso   1.000  C
  H488     1.0000 0.94920  0.22850  0.97332  Biso   1.000  H
  C375     1.0000 0.95461  0.18071  0.04169  Biso   1.000  C
  H489     1.0000 0.08411  0.18100  0.95058  Biso   1.000  H
  H490     1.0000 0.02558  0.18079  0.92418  Biso   1.000  H
  C376     1.0000 0.02990  0.13060  0.99300  Biso   1.000  C
  N63      1.0000 0.21789  0.46779  0.96380  Biso   1.000  N
  H491     1.0000 0.22619  0.45591  0.88400  Biso   1.000  H
  H492     1.0000 0.18620  0.50350  0.89832  Biso   1.000  H
  H493     1.0000 0.11901  0.46669  0.83682  Biso   1.000  H
  H494     1.0000 0.99650  0.39832  0.81380  Biso   1.000  H
  N64      1.0000 0.03221  0.46380  0.78211  Biso   1.000  N
  H495     1.0000 0.04409  0.38400  0.77381  Biso   1.000  H
  C377     1.0000 0.90259  0.35048  0.07122  Biso   1.000  C
  H496     1.0000 0.89832  0.31380  0.99650  Biso   1.000  H
  H497     1.0000 0.88400  0.27381  0.04409  Biso   1.000  H
  H498     1.0000 0.91589  0.18100  0.04942  Biso   1.000  H
  H499     1.0000 0.97442  0.18079  0.07582  Biso   1.000  H
  C378     1.0000 0.97010  0.13060  0.00700  Biso   1.000  C
  H500     1.0000 0.05109  0.13068  0.02632  Biso   1.000  H
  H501     1.0000 0.03860  0.09770  0.97311  Biso   1.000  H
  C379     1.0000 0.18271  0.50000  0.00000  Biso   1.000  C
  C380     1.0000 0.27068  0.49300  0.97039  Biso   1.000  C
  C381     1.0000 0.00000  0.50000  0.81729  Biso   1.000  C
  C382     1.0000 0.00700  0.47039  0.72932  Biso   1.000  C
  C383     1.0000 0.93712  0.35980  0.11380  Biso   1.000  C
  C384     1.0000 0.85980  0.38620  0.06288  Biso   1.000  C
  H502     1.0000 0.94891  0.13068  0.97368  Biso   1.000  H
  H503     1.0000 0.96140  0.09770  0.02689  Biso   1.000  H
  N65      1.0000 0.21789  0.53221  0.03620  Biso   1.000  N
  H504     1.0000 0.15968  0.47608  0.02131  Biso   1.000  H
  H505     1.0000 0.15968  0.52392  0.97869  Biso   1.000  H
  C385     1.0000 0.27068  0.50700  0.02961  Biso   1.000  C
  H506     1.0000 0.27150  0.52668  0.94920  Biso   1.000  H
  C386     1.0000 0.31929  0.45831  0.95461  Biso   1.000  C
  N66      1.0000 0.96779  0.53620  0.78211  Biso   1.000  N
  H507     1.0000 0.97608  0.47869  0.84032  Biso   1.000  H
  H508     1.0000 0.02392  0.52131  0.84032  Biso   1.000  H
  H509     1.0000 0.97332  0.44920  0.72850  Biso   1.000  H
  C387     1.0000 0.99300  0.52961  0.72932  Biso   1.000  C
  C388     1.0000 0.04169  0.45461  0.68071  Biso   1.000  C
  C389     1.0000 0.92878  0.40259  0.14952  Biso   1.000  C
  H510     1.0000 0.96669  0.33682  0.11901  Biso   1.000  H
  C390     1.0000 0.85048  0.42878  0.09741  Biso   1.000  C
  H511     1.0000 0.83682  0.38099  0.03331  Biso   1.000  H
  C391     1.0000 0.19731  0.53290  0.09152  Biso   1.000  C
  H512     1.0000 0.27150  0.47332  0.05080  Biso   1.000  H
  C392     1.0000 0.31929  0.54169  0.04539  Biso   1.000  C
  C393     1.0000 0.36940  0.49300  0.97010  Biso   1.000  C
  H513     1.0000 0.31900  0.45058  0.91589  Biso   1.000  H
  H514     1.0000 0.31921  0.42418  0.97442  Biso   1.000  H
  C394     1.0000 0.96710  0.59152  0.80269  Biso   1.000  C
  C395     1.0000 0.95831  0.54539  0.68071  Biso   1.000  C
  H515     1.0000 0.02668  0.55080  0.72850  Biso   1.000  H
  H516     1.0000 0.04942  0.41589  0.68100  Biso   1.000  H
  H517     1.0000 0.07582  0.47442  0.68079  Biso   1.000  H
  C396     1.0000 0.00700  0.47010  0.63060  Biso   1.000  C
  C397     1.0000 0.96710  0.40848  0.19731  Biso   1.000  C
  C398     1.0000 0.88620  0.43712  0.14020  Biso   1.000  C
  C399     1.0000 0.80269  0.46710  0.09152  Biso   1.000  C
  C400     1.0000 0.14952  0.57122  0.09741  Biso   1.000  C
  H518     1.0000 0.22619  0.54409  0.11600  Biso   1.000  H
  H519     1.0000 0.18620  0.49650  0.10168  Biso   1.000  H
  H520     1.0000 0.31900  0.54942  0.08411  Biso   1.000  H
  H521     1.0000 0.31921  0.57582  0.02558  Biso   1.000  H
  C401     1.0000 0.36940  0.50700  0.02990  Biso   1.000  C
  H522     1.0000 0.40230  0.47311  0.96140  Biso   1.000  H
  H523     1.0000 0.36932  0.52632  0.94891  Biso   1.000  H
  C402     1.0000 0.92878  0.59741  0.85048  Biso   1.000  C
  H524     1.0000 0.95591  0.61600  0.77381  Biso   1.000  H
  H525     1.0000 0.00350  0.60168  0.81380  Biso   1.000  H
  H526     1.0000 0.95058  0.58411  0.68100  Biso   1.000  H
  H527     1.0000 0.92418  0.52558  0.68079  Biso   1.000  H
  C403     1.0000 0.99300  0.52990  0.63060  Biso   1.000  C
  H528     1.0000 0.97368  0.44891  0.63068  Biso   1.000  H
  H529     1.0000 0.02689  0.46140  0.59770  Biso   1.000  H
  N67      1.0000 0.96779  0.46380  0.21789  Biso   1.000  N
  H530     1.0000 0.00350  0.39832  0.18620  Biso   1.000  H
  H531     1.0000 0.95591  0.38400  0.22619  Biso   1.000  H
  H532     1.0000 0.88099  0.46669  0.16318  Biso   1.000  H
  N68      1.0000 0.78211  0.46779  0.03620  Biso   1.000  N
  H533     1.0000 0.77381  0.45591  0.11600  Biso   1.000  H
  H534     1.0000 0.81380  0.50350  0.10168  Biso   1.000  H
  C404     1.0000 0.11380  0.56288  0.14020  Biso   1.000  C
  C405     1.0000 0.14020  0.61380  0.06288  Biso   1.000  C
  H535     1.0000 0.40230  0.52689  0.03860  Biso   1.000  H
  H536     1.0000 0.36932  0.47368  0.05109  Biso   1.000  H
  C406     1.0000 0.93712  0.64020  0.88620  Biso   1.000  C
  C407     1.0000 0.88620  0.56288  0.85980  Biso   1.000  C
  H537     1.0000 0.97311  0.53860  0.59770  Biso   1.000  H
  H538     1.0000 0.02632  0.55109  0.63068  Biso   1.000  H
  C408     1.0000 0.00000  0.50000  0.18271  Biso   1.000  C
  C409     1.0000 0.99300  0.47039  0.27068  Biso   1.000  C
  C410     1.0000 0.81729  0.50000  0.00000  Biso   1.000  C
  C411     1.0000 0.72932  0.49300  0.02961  Biso   1.000  C
  H539     1.0000 0.11901  0.53331  0.16318  Biso   1.000  H
  C412     1.0000 0.07122  0.59741  0.14952  Biso   1.000  C
  H540     1.0000 0.16318  0.61901  0.03331  Biso   1.000  H
  C413     1.0000 0.09741  0.64952  0.07122  Biso   1.000  C
  C414     1.0000 0.90259  0.64952  0.92878  Biso   1.000  C
  H541     1.0000 0.96669  0.66318  0.88099  Biso   1.000  H
  C415     1.0000 0.85048  0.57122  0.90259  Biso   1.000  C
  H542     1.0000 0.88099  0.53331  0.83682  Biso   1.000  H
  N69      1.0000 0.03221  0.53620  0.21789  Biso   1.000  N
  H543     1.0000 0.02392  0.47869  0.15968  Biso   1.000  H
  H544     1.0000 0.97608  0.52131  0.15968  Biso   1.000  H
  C416     1.0000 0.00700  0.52961  0.27068  Biso   1.000  C
  H545     1.0000 0.02668  0.44920  0.27150  Biso   1.000  H
  C417     1.0000 0.95831  0.45461  0.31929  Biso   1.000  C
  N70      1.0000 0.78211  0.53221  0.96380  Biso   1.000  N
  H546     1.0000 0.84032  0.47608  0.97869  Biso   1.000  H
  H547     1.0000 0.84032  0.52392  0.02131  Biso   1.000  H
  C418     1.0000 0.72932  0.50700  0.97039  Biso   1.000  C
  H548     1.0000 0.72850  0.52668  0.05080  Biso   1.000  H
  C419     1.0000 0.68071  0.45831  0.04539  Biso   1.000  C
  C420     1.0000 0.03290  0.59152  0.19731  Biso   1.000  C
  C421     1.0000 0.06288  0.64020  0.11380  Biso   1.000  C
  C422     1.0000 0.09152  0.69731  0.03290  Biso   1.000  C
  C423     1.0000 0.90848  0.69731  0.96710  Biso   1.000  C
  C424     1.0000 0.85980  0.61380  0.93712  Biso   1.000  C
  C425     1.0000 0.80269  0.53290  0.90848  Biso   1.000  C
  C426     1.0000 0.04169  0.54539  0.31929  Biso   1.000  C
  H549     1.0000 0.97332  0.55080  0.27150  Biso   1.000  H
  C427     1.0000 0.99300  0.47010  0.36940  Biso   1.000  C
  H550     1.0000 0.95058  0.41589  0.31900  Biso   1.000  H
  H551     1.0000 0.92418  0.47442  0.31921  Biso   1.000  H
  H552     1.0000 0.72850  0.47332  0.94920  Biso   1.000  H
  C428     1.0000 0.68071  0.54169  0.95461  Biso   1.000  C
  H553     1.0000 0.68100  0.45058  0.08411  Biso   1.000  H
  H554     1.0000 0.68079  0.42418  0.02558  Biso   1.000  H
  C429     1.0000 0.63060  0.49300  0.02990  Biso   1.000  C
  H555     1.0000 0.04409  0.61600  0.22619  Biso   1.000  H
  H556     1.0000 0.99650  0.60168  0.18620  Biso   1.000  H
  H557     1.0000 0.03331  0.66318  0.11901  Biso   1.000  H
  N71      1.0000 0.03620  0.71789  0.03221  Biso   1.000  N
  H558     1.0000 0.11600  0.72619  0.04409  Biso   1.000  H
  H559     1.0000 0.10168  0.68620  0.99650  Biso   1.000  H
  N72      1.0000 0.96380  0.71789  0.96779  Biso   1.000  N
  H560     1.0000 0.88400  0.72619  0.95591  Biso   1.000  H
  H561     1.0000 0.89832  0.68620  0.00350  Biso   1.000  H
  H562     1.0000 0.83682  0.61901  0.96669  Biso   1.000  H
  H563     1.0000 0.77381  0.54409  0.88400  Biso   1.000  H
  H564     1.0000 0.81380  0.49650  0.89832  Biso   1.000  H
  H565     1.0000 0.04942  0.58411  0.31900  Biso   1.000  H
  H566     1.0000 0.07582  0.52558  0.31921  Biso   1.000  H
  C430     1.0000 0.00700  0.52990  0.36940  Biso   1.000  C
  H567     1.0000 0.02632  0.44891  0.36932  Biso   1.000  H
  H568     1.0000 0.97311  0.46140  0.40230  Biso   1.000  H
  H569     1.0000 0.68100  0.54942  0.91589  Biso   1.000  H
  H570     1.0000 0.68079  0.57582  0.97442  Biso   1.000  H
  C431     1.0000 0.63060  0.50700  0.97010  Biso   1.000  C
  H571     1.0000 0.59770  0.47311  0.03860  Biso   1.000  H
  H572     1.0000 0.63068  0.52632  0.05109  Biso   1.000  H
  C432     1.0000 0.00000  0.68271  0.00000  Biso   1.000  C
  C433     1.0000 0.02961  0.77068  0.00700  Biso   1.000  C
  C434     1.0000 0.97039  0.77068  0.99300  Biso   1.000  C
  H573     1.0000 0.02689  0.53860  0.40230  Biso   1.000  H
  H574     1.0000 0.97368  0.55109  0.36932  Biso   1.000  H
  H575     1.0000 0.59770  0.52689  0.96140  Biso   1.000  H
  H576     1.0000 0.63068  0.47368  0.94891  Biso   1.000  H
  H577     1.0000 0.97869  0.65968  0.02392  Biso   1.000  H
  H578     1.0000 0.02131  0.65968  0.97608  Biso   1.000  H
  C435     1.0000 0.04539  0.81929  0.04169  Biso   1.000  C
  H579     1.0000 0.05080  0.77150  0.97332  Biso   1.000  H
  C436     1.0000 0.95461  0.81929  0.95831  Biso   1.000  C
  H580     1.0000 0.94920  0.77150  0.02668  Biso   1.000  H
  H581     1.0000 0.08411  0.81900  0.04942  Biso   1.000  H
  H582     1.0000 0.02558  0.81921  0.07582  Biso   1.000  H
  C437     1.0000 0.02990  0.86940  0.00700  Biso   1.000  C
  C438     1.0000 0.97010  0.86940  0.99300  Biso   1.000  C
  H583     1.0000 0.91589  0.81900  0.95058  Biso   1.000  H
  H584     1.0000 0.97442  0.81921  0.92418  Biso   1.000  H
  H585     1.0000 0.03860  0.90230  0.02689  Biso   1.000  H
  H586     1.0000 0.05109  0.86932  0.97368  Biso   1.000  H
  H587     1.0000 0.96140  0.90230  0.97311  Biso   1.000  H
  H588     1.0000 0.94891  0.86932  0.02632  Biso   1.000  H
  C439     1.0000 0.09152  0.30269  0.96710  Biso   1.000  C
  C440     1.0000 0.09741  0.35048  0.92878  Biso   1.000  C
  H589     1.0000 0.10168  0.31380  0.00350  Biso   1.000  H
  N73      1.0000 0.03620  0.28211  0.96779  Biso   1.000  N
  H590     1.0000 0.11600  0.27381  0.95591  Biso   1.000  H
  C441     1.0000 0.14020  0.38620  0.93712  Biso   1.000  C
  C442     1.0000 0.06288  0.35980  0.88620  Biso   1.000  C
  C443     1.0000 0.00000  0.31729  0.00000  Biso   1.000  C
  C444     1.0000 0.02961  0.22932  0.99300  Biso   1.000  C
  C445     1.0000 0.14952  0.42878  0.90259  Biso   1.000  C
  H591     1.0000 0.16318  0.38099  0.96669  Biso   1.000  H
  C446     1.0000 0.07122  0.40259  0.85048  Biso   1.000  C
  H592     1.0000 0.03331  0.33682  0.88099  Biso   1.000  H
  H593     1.0000 0.02131  0.34032  0.02392  Biso   1.000  H
  H594     1.0000 0.97869  0.34032  0.97608  Biso   1.000  H
  N74      1.0000 0.96380  0.28211  0.03221  Biso   1.000  N
  H595     1.0000 0.05080  0.22850  0.02668  Biso   1.000  H
  C447     1.0000 0.97039  0.22932  0.00700  Biso   1.000  C
  C448     1.0000 0.04539  0.18071  0.95831  Biso   1.000  C
  C449     1.0000 0.19731  0.46710  0.90848  Biso   1.000  C
  C450     1.0000 0.11380  0.43712  0.85980  Biso   1.000  C
  C451     1.0000 0.03290  0.40848  0.80269  Biso   1.000  C
  C452     1.0000 0.90848  0.30269  0.03290  Biso   1.000  C
  H596     1.0000 0.94920  0.22850  0.97332  Biso   1.000  H
  C453     1.0000 0.95461  0.18071  0.04169  Biso   1.000  C
  H597     1.0000 0.08411  0.18100  0.95058  Biso   1.000  H
  H598     1.0000 0.02558  0.18079  0.92418  Biso   1.000  H
  C454     1.0000 0.02990  0.13060  0.99300  Biso   1.000  C
  N75      1.0000 0.21789  0.46779  0.96380  Biso   1.000  N
  H599     1.0000 0.22619  0.45591  0.88400  Biso   1.000  H
  H600     1.0000 0.18620  0.50350  0.89832  Biso   1.000  H
  H601     1.0000 0.11901  0.46669  0.83682  Biso   1.000  H
  H602     1.0000 0.99650  0.39832  0.81380  Biso   1.000  H
  N76      1.0000 0.03221  0.46380  0.78211  Biso   1.000  N
  H603     1.0000 0.04409  0.38400  0.77381  Biso   1.000  H
  C455     1.0000 0.90259  0.35048  0.07122  Biso   1.000  C
  H604     1.0000 0.89832  0.31380  0.99650  Biso   1.000  H
  H605     1.0000 0.88400  0.27381  0.04409  Biso   1.000  H
  H606     1.0000 0.91589  0.18100  0.04942  Biso   1.000  H
  H607     1.0000 0.97442  0.18079  0.07582  Biso   1.000  H
  C456     1.0000 0.97010  0.13060  0.00700  Biso   1.000  C
  H608     1.0000 0.05109  0.13068  0.02632  Biso   1.000  H
  H609     1.0000 0.03860  0.09770  0.97311  Biso   1.000  H
  C457     1.0000 0.18271  0.50000  0.00000  Biso   1.000  C
  C458     1.0000 0.27068  0.49300  0.97039  Biso   1.000  C
  C459     1.0000 0.00000  0.50000  0.81729  Biso   1.000  C
  C460     1.0000 0.00700  0.47039  0.72932  Biso   1.000  C
  C461     1.0000 0.93712  0.35980  0.11380  Biso   1.000  C
  C462     1.0000 0.85980  0.38620  0.06288  Biso   1.000  C
  H610     1.0000 0.94891  0.13068  0.97368  Biso   1.000  H
  H611     1.0000 0.96140  0.09770  0.02689  Biso   1.000  H
  N77      1.0000 0.21789  0.53221  0.03620  Biso   1.000  N
  H612     1.0000 0.15968  0.47608  0.02131  Biso   1.000  H
  H613     1.0000 0.15968  0.52392  0.97869  Biso   1.000  H
  C463     1.0000 0.27068  0.50700  0.02961  Biso   1.000  C
  H614     1.0000 0.27150  0.52668  0.94920  Biso   1.000  H
  C464     1.0000 0.31929  0.45831  0.95461  Biso   1.000  C
  N78      1.0000 0.96779  0.53620  0.78211  Biso   1.000  N
  H615     1.0000 0.97608  0.47869  0.84032  Biso   1.000  H
  H616     1.0000 0.02392  0.52131  0.84032  Biso   1.000  H
  H617     1.0000 0.97332  0.44920  0.72850  Biso   1.000  H
  C465     1.0000 0.99300  0.52961  0.72932  Biso   1.000  C
  C466     1.0000 0.04169  0.45461  0.68071  Biso   1.000  C
  C467     1.0000 0.92878  0.40259  0.14952  Biso   1.000  C
  H618     1.0000 0.96669  0.33682  0.11901  Biso   1.000  H
  C468     1.0000 0.85048  0.42878  0.09741  Biso   1.000  C
  H619     1.0000 0.83682  0.38099  0.03331  Biso   1.000  H
  C469     1.0000 0.19731  0.53290  0.09152  Biso   1.000  C
  H620     1.0000 0.27150  0.47332  0.05080  Biso   1.000  H
  C470     1.0000 0.31929  0.54169  0.04539  Biso   1.000  C
  C471     1.0000 0.36940  0.49300  0.97010  Biso   1.000  C
  H621     1.0000 0.31900  0.45058  0.91589  Biso   1.000  H
  H622     1.0000 0.31921  0.42418  0.97442  Biso   1.000  H
  C472     1.0000 0.96710  0.59152  0.80269  Biso   1.000  C
  C473     1.0000 0.95831  0.54539  0.68071  Biso   1.000  C
  H623     1.0000 0.02668  0.55080  0.72850  Biso   1.000  H
  H624     1.0000 0.04942  0.41589  0.68100  Biso   1.000  H
  H625     1.0000 0.07582  0.47442  0.68079  Biso   1.000  H
  C474     1.0000 0.00700  0.47010  0.63060  Biso   1.000  C
  C475     1.0000 0.96710  0.40848  0.19731  Biso   1.000  C
  C476     1.0000 0.88620  0.43712  0.14020  Biso   1.000  C
  C477     1.0000 0.80269  0.46710  0.09152  Biso   1.000  C
  C478     1.0000 0.14952  0.57122  0.09741  Biso   1.000  C
  H626     1.0000 0.22619  0.54409  0.11600  Biso   1.000  H
  H627     1.0000 0.18620  0.49650  0.10168  Biso   1.000  H
  H628     1.0000 0.31900  0.54942  0.08411  Biso   1.000  H
  H629     1.0000 0.31921  0.57582  0.02558  Biso   1.000  H
  C479     1.0000 0.36940  0.50700  0.02990  Biso   1.000  C
  H630     1.0000 0.40230  0.47311  0.96140  Biso   1.000  H
  H631     1.0000 0.36932  0.52632  0.94891  Biso   1.000  H
  C480     1.0000 0.92878  0.59741  0.85048  Biso   1.000  C
  H632     1.0000 0.95591  0.61600  0.77381  Biso   1.000  H
  H633     1.0000 0.00350  0.60168  0.81380  Biso   1.000  H
  H634     1.0000 0.95058  0.58411  0.68100  Biso   1.000  H
  H635     1.0000 0.92418  0.52558  0.68079  Biso   1.000  H
  C481     1.0000 0.99300  0.52990  0.63060  Biso   1.000  C
  H636     1.0000 0.97368  0.44891  0.63068  Biso   1.000  H
  H637     1.0000 0.02689  0.46140  0.59770  Biso   1.000  H
  N79      1.0000 0.96779  0.46380  0.21789  Biso   1.000  N
  H638     1.0000 0.00350  0.39832  0.18620  Biso   1.000  H
  H639     1.0000 0.95591  0.38400  0.22619  Biso   1.000  H
  H640     1.0000 0.88099  0.46669  0.16318  Biso   1.000  H
  N80      1.0000 0.78211  0.46779  0.03620  Biso   1.000  N
  H641     1.0000 0.77381  0.45591  0.11600  Biso   1.000  H
  H642     1.0000 0.81380  0.50350  0.10168  Biso   1.000  H
  C482     1.0000 0.11380  0.56288  0.14020  Biso   1.000  C
  C483     1.0000 0.14020  0.61380  0.06288  Biso   1.000  C
  H643     1.0000 0.40230  0.52689  0.03860  Biso   1.000  H
  H644     1.0000 0.36932  0.47368  0.05109  Biso   1.000  H
  C484     1.0000 0.93712  0.64020  0.88620  Biso   1.000  C
  C485     1.0000 0.88620  0.56288  0.85980  Biso   1.000  C
  H645     1.0000 0.97311  0.53860  0.59770  Biso   1.000  H
  H646     1.0000 0.02632  0.55109  0.63068  Biso   1.000  H
  C486     1.0000 0.00000  0.50000  0.18271  Biso   1.000  C
  C487     1.0000 0.99300  0.47039  0.27068  Biso   1.000  C
  C488     1.0000 0.81729  0.50000  0.00000  Biso   1.000  C
  C489     1.0000 0.72932  0.49300  0.02961  Biso   1.000  C
  H647     1.0000 0.11901  0.53331  0.16318  Biso   1.000  H
  C490     1.0000 0.07122  0.59741  0.14952  Biso   1.000  C
  H648     1.0000 0.16318  0.61901  0.03331  Biso   1.000  H
  C491     1.0000 0.09741  0.64952  0.07122  Biso   1.000  C
  C492     1.0000 0.90259  0.64952  0.92878  Biso   1.000  C
  H649     1.0000 0.96669  0.66318  0.88099  Biso   1.000  H
  C493     1.0000 0.85048  0.57122  0.90259  Biso   1.000  C
  H650     1.0000 0.88099  0.53331  0.83682  Biso   1.000  H
  N81      1.0000 0.03221  0.53620  0.21789  Biso   1.000  N
  H651     1.0000 0.02392  0.47869  0.15968  Biso   1.000  H
  H652     1.0000 0.97608  0.52131  0.15968  Biso   1.000  H
  C494     1.0000 0.00700  0.52961  0.27068  Biso   1.000  C
  H653     1.0000 0.02668  0.44920  0.27150  Biso   1.000  H
  C495     1.0000 0.95831  0.45461  0.31929  Biso   1.000  C
  N82      1.0000 0.78211  0.53221  0.96380  Biso   1.000  N
  H654     1.0000 0.84032  0.47608  0.97869  Biso   1.000  H
  H655     1.0000 0.84032  0.52392  0.02131  Biso   1.000  H
  C496     1.0000 0.72932  0.50700  0.97039  Biso   1.000  C
  H656     1.0000 0.72850  0.52668  0.05080  Biso   1.000  H
  C497     1.0000 0.68071  0.45831  0.04539  Biso   1.000  C
  C498     1.0000 0.03290  0.59152  0.19731  Biso   1.000  C
  C499     1.0000 0.06288  0.64020  0.11380  Biso   1.000  C
  C500     1.0000 0.09152  0.69731  0.03290  Biso   1.000  C
  C501     1.0000 0.90848  0.69731  0.96710  Biso   1.000  C
  C502     1.0000 0.85980  0.61380  0.93712  Biso   1.000  C
  C503     1.0000 0.80269  0.53290  0.90848  Biso   1.000  C
  C504     1.0000 0.04169  0.54539  0.31929  Biso   1.000  C
  H657     1.0000 0.97332  0.55080  0.27150  Biso   1.000  H
  C505     1.0000 0.99300  0.47010  0.36940  Biso   1.000  C
  H658     1.0000 0.95058  0.41589  0.31900  Biso   1.000  H
  H659     1.0000 0.92418  0.47442  0.31921  Biso   1.000  H
  H660     1.0000 0.72850  0.47332  0.94920  Biso   1.000  H
  C506     1.0000 0.68071  0.54169  0.95461  Biso   1.000  C
  H661     1.0000 0.68100  0.45058  0.08411  Biso   1.000  H
  H662     1.0000 0.68079  0.42418  0.02558  Biso   1.000  H
  C507     1.0000 0.63060  0.49300  0.02990  Biso   1.000  C
  H663     1.0000 0.04409  0.61600  0.22619  Biso   1.000  H
  H664     1.0000 0.99650  0.60168  0.18620  Biso   1.000  H
  H665     1.0000 0.03331  0.66318  0.11901  Biso   1.000  H
  N83      1.0000 0.03620  0.71789  0.03221  Biso   1.000  N
  H666     1.0000 0.11600  0.72619  0.04409  Biso   1.000  H
  H667     1.0000 0.10168  0.68620  0.99650  Biso   1.000  H
  N84      1.0000 0.96380  0.71789  0.96779  Biso   1.000  N
  H668     1.0000 0.88400  0.72619  0.95591  Biso   1.000  H
  H669     1.0000 0.89832  0.68620  0.00350  Biso   1.000  H
  H670     1.0000 0.83682  0.61901  0.96669  Biso   1.000  H
  H671     1.0000 0.77381  0.54409  0.88400  Biso   1.000  H
  H672     1.0000 0.81380  0.49650  0.89832  Biso   1.000  H
  H673     1.0000 0.04942  0.58411  0.31900  Biso   1.000  H
  H674     1.0000 0.07582  0.52558  0.31921  Biso   1.000  H
  C508     1.0000 0.00700  0.52990  0.36940  Biso   1.000  C
  H675     1.0000 0.02632  0.44891  0.36932  Biso   1.000  H
  H676     1.0000 0.97311  0.46140  0.40230  Biso   1.000  H
  H677     1.0000 0.68100  0.54942  0.91589  Biso   1.000  H
  H678     1.0000 0.68079  0.57582  0.97442  Biso   1.000  H
  C509     1.0000 0.63060  0.50700  0.97010  Biso   1.000  C
  H679     1.0000 0.59770  0.47311  0.03860  Biso   1.000  H
  H680     1.0000 0.63068  0.52632  0.05109  Biso   1.000  H
  C510     1.0000 0.00000  0.68271  0.00000  Biso   1.000  C
  C511     1.0000 0.02961  0.77068  0.00700  Biso   1.000  C
  C512     1.0000 0.97039  0.77068  0.99300  Biso   1.000  C
  H681     1.0000 0.02689  0.53860  0.40230  Biso   1.000  H
  H682     1.0000 0.97368  0.55109  0.36932  Biso   1.000  H
  H683     1.0000 0.59770  0.52689  0.96140  Biso   1.000  H
  H684     1.0000 0.63068  0.47368  0.94891  Biso   1.000  H
  H685     1.0000 0.97869  0.65968  0.02392  Biso   1.000  H
  H686     1.0000 0.02131  0.65968  0.97608  Biso   1.000  H
  C513     1.0000 0.04539  0.81929  0.04169  Biso   1.000  C
  H687     1.0000 0.05080  0.77150  0.97332  Biso   1.000  H
  C514     1.0000 0.95461  0.81929  0.95831  Biso   1.000  C
  H688     1.0000 0.94920  0.77150  0.02668  Biso   1.000  H
  H689     1.0000 0.08411  0.81900  0.04942  Biso   1.000  H
  H690     1.0000 0.02558  0.81921  0.07582  Biso   1.000  H
  C515     1.0000 0.02990  0.86940  0.00700  Biso   1.000  C
  C516     1.0000 0.97010  0.86940  0.99300  Biso   1.000  C
  H691     1.0000 0.91589  0.81900  0.95058  Biso   1.000  H
  H692     1.0000 0.97442  0.81921  0.92418  Biso   1.000  H
  H693     1.0000 0.03860  0.90230  0.02689  Biso   1.000  H
  H694     1.0000 0.05109  0.86932  0.97368  Biso   1.000  H
  H695     1.0000 0.96140  0.90230  0.97311  Biso   1.000  H
  H696     1.0000 0.94891  0.86932  0.02632  Biso   1.000  H
  C517     1.0000 0.09152  0.30269  0.96710  Biso   1.000  C
  C518     1.0000 0.09741  0.35048  0.92878  Biso   1.000  C
  H697     1.0000 0.10168  0.31380  0.00350  Biso   1.000  H
  N85      1.0000 0.03620  0.28211  0.96779  Biso   1.000  N
  H698     1.0000 0.11600  0.27381  0.95591  Biso   1.000  H
  C519     1.0000 0.14020  0.38620  0.93712  Biso   1.000  C
  C520     1.0000 0.06288  0.35980  0.88620  Biso   1.000  C
  C521     1.0000 0.00000  0.31729  0.00000  Biso   1.000  C
  C522     1.0000 0.02961  0.22932  0.99300  Biso   1.000  C
  C523     1.0000 0.14952  0.42878  0.90259  Biso   1.000  C
  H699     1.0000 0.16318  0.38099  0.96669  Biso   1.000  H
  C524     1.0000 0.07122  0.40259  0.85048  Biso   1.000  C
  H700     1.0000 0.03331  0.33682  0.88099  Biso   1.000  H
  H701     1.0000 0.02131  0.34032  0.02392  Biso   1.000  H
  H702     1.0000 0.97869  0.34032  0.97608  Biso   1.000  H
  N86      1.0000 0.96380  0.28211  0.03221  Biso   1.000  N
  H703     1.0000 0.05080  0.22850  0.02668  Biso   1.000  H
  C525     1.0000 0.97039  0.22932  0.00700  Biso   1.000  C
  C526     1.0000 0.04539  0.18071  0.95831  Biso   1.000  C
  C527     1.0000 0.19731  0.46710  0.90848  Biso   1.000  C
  C528     1.0000 0.11380  0.43712  0.85980  Biso   1.000  C
  C529     1.0000 0.03290  0.40848  0.80269  Biso   1.000  C
  C530     1.0000 0.90848  0.30269  0.03290  Biso   1.000  C
  H704     1.0000 0.94920  0.22850  0.97332  Biso   1.000  H
  C531     1.0000 0.95461  0.18071  0.04169  Biso   1.000  C
  H705     1.0000 0.08411  0.18100  0.95058  Biso   1.000  H
  H706     1.0000 0.02558  0.18079  0.92418  Biso   1.000  H
  C532     1.0000 0.02990  0.13060  0.99300  Biso   1.000  C
  N87      1.0000 0.21789  0.46779  0.96380  Biso   1.000  N
  H707     1.0000 0.22619  0.45591  0.88400  Biso   1.000  H
  H708     1.0000 0.18620  0.50350  0.89832  Biso   1.000  H
  H709     1.0000 0.11901  0.46669  0.83682  Biso   1.000  H
  H710     1.0000 0.99650  0.39832  0.81380  Biso   1.000  H
  N88      1.0000 0.03221  0.46380  0.78211  Biso   1.000  N
  H711     1.0000 0.04409  0.38400  0.77381  Biso   1.000  H
  C533     1.0000 0.90259  0.35048  0.07122  Biso   1.000  C
  H712     1.0000 0.89832  0.31380  0.99650  Biso   1.000  H
  H713     1.0000 0.88400  0.27381  0.04409  Biso   1.000  H
  H714     1.0000 0.91589  0.18100  0.04942  Biso   1.000  H
  H715     1.0000 0.97442  0.18079  0.07582  Biso   1.000  H
  C534     1.0000 0.97010  0.13060  0.00700  Biso   1.000  C
  H716     1.0000 0.05109  0.13068  0.02632  Biso   1.000  H
  H717     1.0000 0.03860  0.09770  0.97311  Biso   1.000  H
  C535     1.0000 0.18271  0.50000  0.00000  Biso   1.000  C
  C536     1.0000 0.27068  0.49300  0.97039  Biso   1.000  C
  C537     1.0000 0.00000  0.50000  0.81729  Biso   1.000  C
  C538     1.0000 0.00700  0.47039  0.72932  Biso   1.000  C
  C539     1.0000 0.93712  0.35980  0.11380  Biso   1.000  C
  C540     1.0000 0.85980  0.38620  0.06288  Biso   1.000  C
  H718     1.0000 0.94891  0.13068  0.97368  Biso   1.000  H
  H719     1.0000 0.96140  0.09770  0.02689  Biso   1.000  H
  N89      1.0000 0.21789  0.53221  0.03620  Biso   1.000  N
  H720     1.0000 0.15968  0.47608  0.02131  Biso   1.000  H
  H721     1.0000 0.15968  0.52392  0.97869  Biso   1.000  H
  C541     1.0000 0.27068  0.50700  0.02961  Biso   1.000  C
  H722     1.0000 0.27150  0.52668  0.94920  Biso   1.000  H
  C542     1.0000 0.31929  0.45831  0.95461  Biso   1.000  C
  N90      1.0000 0.96779  0.53620  0.78211  Biso   1.000  N
  H723     1.0000 0.97608  0.47869  0.84032  Biso   1.000  H
  H724     1.0000 0.02392  0.52131  0.84032  Biso   1.000  H
  H725     1.0000 0.97332  0.44920  0.72850  Biso   1.000  H
  C543     1.0000 0.99300  0.52961  0.72932  Biso   1.000  C
  C544     1.0000 0.04169  0.45461  0.68071  Biso   1.000  C
  C545     1.0000 0.92878  0.40259  0.14952  Biso   1.000  C
  H726     1.0000 0.96669  0.33682  0.11901  Biso   1.000  H
  C546     1.0000 0.85048  0.42878  0.09741  Biso   1.000  C
  H727     1.0000 0.83682  0.38099  0.03331  Biso   1.000  H
  C547     1.0000 0.19731  0.53290  0.09152  Biso   1.000  C
  H728     1.0000 0.27150  0.47332  0.05080  Biso   1.000  H
  C548     1.0000 0.31929  0.54169  0.04539  Biso   1.000  C
  C549     1.0000 0.36940  0.49300  0.97010  Biso   1.000  C
  H729     1.0000 0.31900  0.45058  0.91589  Biso   1.000  H
  H730     1.0000 0.31921  0.42418  0.97442  Biso   1.000  H
  C550     1.0000 0.96710  0.59152  0.80269  Biso   1.000  C
  C551     1.0000 0.95831  0.54539  0.68071  Biso   1.000  C
  H731     1.0000 0.02668  0.55080  0.72850  Biso   1.000  H
  H732     1.0000 0.04942  0.41589  0.68100  Biso   1.000  H
  H733     1.0000 0.07582  0.47442  0.68079  Biso   1.000  H
  C552     1.0000 0.00700  0.47010  0.63060  Biso   1.000  C
  C553     1.0000 0.96710  0.40848  0.19731  Biso   1.000  C
  C554     1.0000 0.88620  0.43712  0.14020  Biso   1.000  C
  C555     1.0000 0.80269  0.46710  0.09152  Biso   1.000  C
  C556     1.0000 0.14952  0.57122  0.09741  Biso   1.000  C
  H734     1.0000 0.22619  0.54409  0.11600  Biso   1.000  H
  H735     1.0000 0.18620  0.49650  0.10168  Biso   1.000  H
  H736     1.0000 0.31900  0.54942  0.08411  Biso   1.000  H
  H737     1.0000 0.31921  0.57582  0.02558  Biso   1.000  H
  C557     1.0000 0.36940  0.50700  0.02990  Biso   1.000  C
  H738     1.0000 0.40230  0.47311  0.96140  Biso   1.000  H
  H739     1.0000 0.36932  0.52632  0.94891  Biso   1.000  H
  C558     1.0000 0.92878  0.59741  0.85048  Biso   1.000  C
  H740     1.0000 0.95591  0.61600  0.77381  Biso   1.000  H
  H741     1.0000 0.00350  0.60168  0.81380  Biso   1.000  H
  H742     1.0000 0.95058  0.58411  0.68100  Biso   1.000  H
  H743     1.0000 0.92418  0.52558  0.68079  Biso   1.000  H
  C559     1.0000 0.99300  0.52990  0.63060  Biso   1.000  C
  H744     1.0000 0.97368  0.44891  0.63068  Biso   1.000  H
  H745     1.0000 0.02689  0.46140  0.59770  Biso   1.000  H
  N91      1.0000 0.96779  0.46380  0.21789  Biso   1.000  N
  H746     1.0000 0.00350  0.39832  0.18620  Biso   1.000  H
  H747     1.0000 0.95591  0.38400  0.22619  Biso   1.000  H
  H748     1.0000 0.88099  0.46669  0.16318  Biso   1.000  H
  N92      1.0000 0.78211  0.46779  0.03620  Biso   1.000  N
  H749     1.0000 0.77381  0.45591  0.11600  Biso   1.000  H
  H750     1.0000 0.81380  0.50350  0.10168  Biso   1.000  H
  C560     1.0000 0.11380  0.56288  0.14020  Biso   1.000  C
  C561     1.0000 0.14020  0.61380  0.06288  Biso   1.000  C
  H751     1.0000 0.40230  0.52689  0.03860  Biso   1.000  H
  H752     1.0000 0.36932  0.47368  0.05109  Biso   1.000  H
  C562     1.0000 0.93712  0.64020  0.88620  Biso   1.000  C
  C563     1.0000 0.88620  0.56288  0.85980  Biso   1.000  C
  H753     1.0000 0.97311  0.53860  0.59770  Biso   1.000  H
  H754     1.0000 0.02632  0.55109  0.63068  Biso   1.000  H
  C564     1.0000 0.00000  0.50000  0.18271  Biso   1.000  C
  C565     1.0000 0.99300  0.47039  0.27068  Biso   1.000  C
  C566     1.0000 0.81729  0.50000  0.00000  Biso   1.000  C
  C567     1.0000 0.72932  0.49300  0.02961  Biso   1.000  C
  H755     1.0000 0.11901  0.53331  0.16318  Biso   1.000  H
  C568     1.0000 0.07122  0.59741  0.14952  Biso   1.000  C
  H756     1.0000 0.16318  0.61901  0.03331  Biso   1.000  H
  C569     1.0000 0.09741  0.64952  0.07122  Biso   1.000  C
  C570     1.0000 0.90259  0.64952  0.92878  Biso   1.000  C
  H757     1.0000 0.96669  0.66318  0.88099  Biso   1.000  H
  C571     1.0000 0.85048  0.57122  0.90259  Biso   1.000  C
  H758     1.0000 0.88099  0.53331  0.83682  Biso   1.000  H
  N93      1.0000 0.03221  0.53620  0.21789  Biso   1.000  N
  H759     1.0000 0.02392  0.47869  0.15968  Biso   1.000  H
  H760     1.0000 0.97608  0.52131  0.15968  Biso   1.000  H
  C572     1.0000 0.00700  0.52961  0.27068  Biso   1.000  C
  H761     1.0000 0.02668  0.44920  0.27150  Biso   1.000  H
  C573     1.0000 0.95831  0.45461  0.31929  Biso   1.000  C
  N94      1.0000 0.78211  0.53221  0.96380  Biso   1.000  N
  H762     1.0000 0.84032  0.47608  0.97869  Biso   1.000  H
  H763     1.0000 0.84032  0.52392  0.02131  Biso   1.000  H
  C574     1.0000 0.72932  0.50700  0.97039  Biso   1.000  C
  H764     1.0000 0.72850  0.52668  0.05080  Biso   1.000  H
  C575     1.0000 0.68071  0.45831  0.04539  Biso   1.000  C
  C576     1.0000 0.03290  0.59152  0.19731  Biso   1.000  C
  C577     1.0000 0.06288  0.64020  0.11380  Biso   1.000  C
  C578     1.0000 0.09152  0.69731  0.03290  Biso   1.000  C
  C579     1.0000 0.90848  0.69731  0.96710  Biso   1.000  C
  C580     1.0000 0.85980  0.61380  0.93712  Biso   1.000  C
  C581     1.0000 0.80269  0.53290  0.90848  Biso   1.000  C
  C582     1.0000 0.04169  0.54539  0.31929  Biso   1.000  C
  H765     1.0000 0.97332  0.55080  0.27150  Biso   1.000  H
  C583     1.0000 0.99300  0.47010  0.36940  Biso   1.000  C
  H766     1.0000 0.95058  0.41589  0.31900  Biso   1.000  H
  H767     1.0000 0.92418  0.47442  0.31921  Biso   1.000  H
  H768     1.0000 0.72850  0.47332  0.94920  Biso   1.000  H
  C584     1.0000 0.68071  0.54169  0.95461  Biso   1.000  C
  H769     1.0000 0.68100  0.45058  0.08411  Biso   1.000  H
  H770     1.0000 0.68079  0.42418  0.02558  Biso   1.000  H
  C585     1.0000 0.63060  0.49300  0.02990  Biso   1.000  C
  H771     1.0000 0.04409  0.61600  0.22619  Biso   1.000  H
  H772     1.0000 0.99650  0.60168  0.18620  Biso   1.000  H
  H773     1.0000 0.03331  0.66318  0.11901  Biso   1.000  H
  N95      1.0000 0.03620  0.71789  0.03221  Biso   1.000  N
  H774     1.0000 0.11600  0.72619  0.04409  Biso   1.000  H
  H775     1.0000 0.10168  0.68620  0.99650  Biso   1.000  H
  N96      1.0000 0.96380  0.71789  0.96779  Biso   1.000  N
  H776     1.0000 0.88400  0.72619  0.95591  Biso   1.000  H
  H777     1.0000 0.89832  0.68620  0.00350  Biso   1.000  H
  H778     1.0000 0.83682  0.61901  0.96669  Biso   1.000  H
  H779     1.0000 0.77381  0.54409  0.88400  Biso   1.000  H
  H780     1.0000 0.81380  0.49650  0.89832  Biso   1.000  H
  H781     1.0000 0.04942  0.58411  0.31900  Biso   1.000  H
  H782     1.0000 0.07582  0.52558  0.31921  Biso   1.000  H
  C586     1.0000 0.00700  0.52990  0.36940  Biso   1.000  C
  H783     1.0000 0.02632  0.44891  0.36932  Biso   1.000  H
  H784     1.0000 0.97311  0.46140  0.40230  Biso   1.000  H
  H785     1.0000 0.68100  0.54942  0.91589  Biso   1.000  H
  H786     1.0000 0.68079  0.57582  0.97442  Biso   1.000  H
  C587     1.0000 0.63060  0.50700  0.97010  Biso   1.000  C
  H787     1.0000 0.59770  0.47311  0.03860  Biso   1.000  H
  H788     1.0000 0.63068  0.52632  0.05109  Biso   1.000  H
  C588     1.0000 0.00000  0.68271  0.00000  Biso   1.000  C
  C589     1.0000 0.02961  0.77068  0.00700  Biso   1.000  C
  C590     1.0000 0.97039  0.77068  0.99300  Biso   1.000  C
  H789     1.0000 0.02689  0.53860  0.40230  Biso   1.000  H
  H790     1.0000 0.97368  0.55109  0.36932  Biso   1.000  H
  H791     1.0000 0.59770  0.52689  0.96140  Biso   1.000  H
  H792     1.0000 0.63068  0.47368  0.94891  Biso   1.000  H
  H793     1.0000 0.97869  0.65968  0.02392  Biso   1.000  H
  H794     1.0000 0.02131  0.65968  0.97608  Biso   1.000  H
  C591     1.0000 0.04539  0.81929  0.04169  Biso   1.000  C
  H795     1.0000 0.05080  0.77150  0.97332  Biso   1.000  H
  C592     1.0000 0.95461  0.81929  0.95831  Biso   1.000  C
  H796     1.0000 0.94920  0.77150  0.02668  Biso   1.000  H
  H797     1.0000 0.08411  0.81900  0.04942  Biso   1.000  H
  H798     1.0000 0.02558  0.81921  0.07582  Biso   1.000  H
  C593     1.0000 0.02990  0.86940  0.00700  Biso   1.000  C
  C594     1.0000 0.97010  0.86940  0.99300  Biso   1.000  C
  H799     1.0000 0.91589  0.81900  0.95058  Biso   1.000  H
  H800     1.0000 0.97442  0.81921  0.92418  Biso   1.000  H
  H801     1.0000 0.03860  0.90230  0.02689  Biso   1.000  H
  H802     1.0000 0.05109  0.86932  0.97368  Biso   1.000  H
  H803     1.0000 0.96140  0.90230  0.97311  Biso   1.000  H
  H804     1.0000 0.94891  0.86932  0.02632  Biso   1.000  H
  C595     1.0000 0.09152  0.30269  0.96710  Biso   1.000  C
  C596     1.0000 0.09741  0.35048  0.92878  Biso   1.000  C
  H805     1.0000 0.10168  0.31380  0.00350  Biso   1.000  H
  N97      1.0000 0.03620  0.28211  0.96779  Biso   1.000  N
  H806     1.0000 0.11600  0.27381  0.95591  Biso   1.000  H
  C597     1.0000 0.14020  0.38620  0.93712  Biso   1.000  C
  C598     1.0000 0.06288  0.35980  0.88620  Biso   1.000  C
  C599     1.0000 0.00000  0.31729  0.00000  Biso   1.000  C
  C600     1.0000 0.02961  0.22932  0.99300  Biso   1.000  C
  C601     1.0000 0.14952  0.42878  0.90259  Biso   1.000  C
  H807     1.0000 0.16318  0.38099  0.96669  Biso   1.000  H
  C602     1.0000 0.07122  0.40259  0.85048  Biso   1.000  C
  H808     1.0000 0.03331  0.33682  0.88099  Biso   1.000  H
  H809     1.0000 0.02131  0.34032  0.02392  Biso   1.000  H
  H810     1.0000 0.97869  0.34032  0.97608  Biso   1.000  H
  N98      1.0000 0.96380  0.28211  0.03221  Biso   1.000  N
  H811     1.0000 0.05080  0.22850  0.02668  Biso   1.000  H
  C603     1.0000 0.97039  0.22932  0.00700  Biso   1.000  C
  C604     1.0000 0.04539  0.18071  0.95831  Biso   1.000  C
  C605     1.0000 0.19731  0.46710  0.90848  Biso   1.000  C
  C606     1.0000 0.11380  0.43712  0.85980  Biso   1.000  C
  C607     1.0000 0.03290  0.40848  0.80269  Biso   1.000  C
  C608     1.0000 0.90848  0.30269  0.03290  Biso   1.000  C
  H812     1.0000 0.94920  0.22850  0.97332  Biso   1.000  H
  C609     1.0000 0.95461  0.18071  0.04169  Biso   1.000  C
  H813     1.0000 0.08411  0.18100  0.95058  Biso   1.000  H
  H814     1.0000 0.02558  0.18079  0.92418  Biso   1.000  H
  C610     1.0000 0.02990  0.13060  0.99300  Biso   1.000  C
  N99      1.0000 0.21789  0.46779  0.96380  Biso   1.000  N
  H815     1.0000 0.22619  0.45591  0.88400  Biso   1.000  H
  H816     1.0000 0.18620  0.50350  0.89832  Biso   1.000  H
  H817     1.0000 0.11901  0.46669  0.83682  Biso   1.000  H
  H818     1.0000 0.99650  0.39832  0.81380  Biso   1.000  H
  N100     1.0000 0.03221  0.46380  0.78211  Biso   1.000  N
  H819     1.0000 0.04409  0.38400  0.77381  Biso   1.000  H
  C611     1.0000 0.90259  0.35048  0.07122  Biso   1.000  C
  H820     1.0000 0.89832  0.31380  0.99650  Biso   1.000  H
  H821     1.0000 0.88400  0.27381  0.04409  Biso   1.000  H
  H822     1.0000 0.91589  0.18100  0.04942  Biso   1.000  H
  H823     1.0000 0.97442  0.18079  0.07582  Biso   1.000  H
  C612     1.0000 0.97010  0.13060  0.00700  Biso   1.000  C
  H824     1.0000 0.05109  0.13068  0.02632  Biso   1.000  H
  H825     1.0000 0.03860  0.09770  0.97311  Biso   1.000  H
  C613     1.0000 0.18271  0.50000  0.00000  Biso   1.000  C
  C614     1.0000 0.27068  0.49300  0.97039  Biso   1.000  C
  C615     1.0000 0.00000  0.50000  0.81729  Biso   1.000  C
  C616     1.0000 0.00700  0.47039  0.72932  Biso   1.000  C
  C617     1.0000 0.93712  0.35980  0.11380  Biso   1.000  C
  C618     1.0000 0.85980  0.38620  0.06288  Biso   1.000  C
  H826     1.0000 0.94891  0.13068  0.97368  Biso   1.000  H
  H827     1.0000 0.96140  0.09770  0.02689  Biso   1.000  H
  N101     1.0000 0.21789  0.53221  0.03620  Biso   1.000  N
  H828     1.0000 0.15968  0.47608  0.02131  Biso   1.000  H
  H829     1.0000 0.15968  0.52392  0.97869  Biso   1.000  H
  C619     1.0000 0.27068  0.50700  0.02961  Biso   1.000  C
  H830     1.0000 0.27150  0.52668  0.94920  Biso   1.000  H
  C620     1.0000 0.31929  0.45831  0.95461  Biso   1.000  C
  N102     1.0000 0.96779  0.53620  0.78211  Biso   1.000  N
  H831     1.0000 0.97608  0.47869  0.84032  Biso   1.000  H
  H832     1.0000 0.02392  0.52131  0.84032  Biso   1.000  H
  H833     1.0000 0.97332  0.44920  0.72850  Biso   1.000  H
  C621     1.0000 0.99300  0.52961  0.72932  Biso   1.000  C
  C622     1.0000 0.04169  0.45461  0.68071  Biso   1.000  C
  C623     1.0000 0.92878  0.40259  0.14952  Biso   1.000  C
  H834     1.0000 0.96669  0.33682  0.11901  Biso   1.000  H
  C624     1.0000 0.85048  0.42878  0.09741  Biso   1.000  C
  H835     1.0000 0.83682  0.38099  0.03331  Biso   1.000  H
  C625     1.0000 0.19731  0.53290  0.09152  Biso   1.000  C
  H836     1.0000 0.27150  0.47332  0.05080  Biso   1.000  H
  C626     1.0000 0.31929  0.54169  0.04539  Biso   1.000  C
  C627     1.0000 0.36940  0.49300  0.97010  Biso   1.000  C
  H837     1.0000 0.31900  0.45058  0.91589  Biso   1.000  H
  H838     1.0000 0.31921  0.42418  0.97442  Biso   1.000  H
  C628     1.0000 0.96710  0.59152  0.80269  Biso   1.000  C
  C629     1.0000 0.95831  0.54539  0.68071  Biso   1.000  C
  H839     1.0000 0.02668  0.55080  0.72850  Biso   1.000  H
  H840     1.0000 0.04942  0.41589  0.68100  Biso   1.000  H
  H841     1.0000 0.07582  0.47442  0.68079  Biso   1.000  H
  C630     1.0000 0.00700  0.47010  0.63060  Biso   1.000  C
  C631     1.0000 0.96710  0.40848  0.19731  Biso   1.000  C
  C632     1.0000 0.88620  0.43712  0.14020  Biso   1.000  C
  C633     1.0000 0.80269  0.46710  0.09152  Biso   1.000  C
  C634     1.0000 0.14952  0.57122  0.09741  Biso   1.000  C
  H842     1.0000 0.22619  0.54409  0.11600  Biso   1.000  H
  H843     1.0000 0.18620  0.49650  0.10168  Biso   1.000  H
  H844     1.0000 0.31900  0.54942  0.08411  Biso   1.000  H
  H845     1.0000 0.31921  0.57582  0.02558  Biso   1.000  H
  C635     1.0000 0.36940  0.50700  0.02990  Biso   1.000  C
  H846     1.0000 0.40230  0.47311  0.96140  Biso   1.000  H
  H847     1.0000 0.36932  0.52632  0.94891  Biso   1.000  H
  C636     1.0000 0.92878  0.59741  0.85048  Biso   1.000  C
  H848     1.0000 0.95591  0.61600  0.77381  Biso   1.000  H
  H849     1.0000 0.00350  0.60168  0.81380  Biso   1.000  H
  H850     1.0000 0.95058  0.58411  0.68100  Biso   1.000  H
  H851     1.0000 0.92418  0.52558  0.68079  Biso   1.000  H
  C637     1.0000 0.99300  0.52990  0.63060  Biso   1.000  C
  H852     1.0000 0.97368  0.44891  0.63068  Biso   1.000  H
  H853     1.0000 0.02689  0.46140  0.59770  Biso   1.000  H
  N103     1.0000 0.96779  0.46380  0.21789  Biso   1.000  N
  H854     1.0000 0.00350  0.39832  0.18620  Biso   1.000  H
  H855     1.0000 0.95591  0.38400  0.22619  Biso   1.000  H
  H856     1.0000 0.88099  0.46669  0.16318  Biso   1.000  H
  N104     1.0000 0.78211  0.46779  0.03620  Biso   1.000  N
  H857     1.0000 0.77381  0.45591  0.11600  Biso   1.000  H
  H858     1.0000 0.81380  0.50350  0.10168  Biso   1.000  H
  C638     1.0000 0.11380  0.56288  0.14020  Biso   1.000  C
  C639     1.0000 0.14020  0.61380  0.06288  Biso   1.000  C
  H859     1.0000 0.40230  0.52689  0.03860  Biso   1.000  H
  H860     1.0000 0.36932  0.47368  0.05109  Biso   1.000  H
  C640     1.0000 0.93712  0.64020  0.88620  Biso   1.000  C
  C641     1.0000 0.88620  0.56288  0.85980  Biso   1.000  C
  H861     1.0000 0.97311  0.53860  0.59770  Biso   1.000  H
  H862     1.0000 0.02632  0.55109  0.63068  Biso   1.000  H
  C642     1.0000 0.00000  0.50000  0.18271  Biso   1.000  C
  C643     1.0000 0.99300  0.47039  0.27068  Biso   1.000  C
  C644     1.0000 0.81729  0.50000  0.00000  Biso   1.000  C
  C645     1.0000 0.72932  0.49300  0.02961  Biso   1.000  C
  H863     1.0000 0.11901  0.53331  0.16318  Biso   1.000  H
  C646     1.0000 0.07122  0.59741  0.14952  Biso   1.000  C
  H864     1.0000 0.16318  0.61901  0.03331  Biso   1.000  H
  C647     1.0000 0.09741  0.64952  0.07122  Biso   1.000  C
  C648     1.0000 0.90259  0.64952  0.92878  Biso   1.000  C
  H865     1.0000 0.96669  0.66318  0.88099  Biso   1.000  H
  C649     1.0000 0.85048  0.57122  0.90259  Biso   1.000  C
  H866     1.0000 0.88099  0.53331  0.83682  Biso   1.000  H
  N105     1.0000 0.03221  0.53620  0.21789  Biso   1.000  N
  H867     1.0000 0.02392  0.47869  0.15968  Biso   1.000  H
  H868     1.0000 0.97608  0.52131  0.15968  Biso   1.000  H
  C650     1.0000 0.00700  0.52961  0.27068  Biso   1.000  C
  H869     1.0000 0.02668  0.44920  0.27150  Biso   1.000  H
  C651     1.0000 0.95831  0.45461  0.31929  Biso   1.000  C
  N106     1.0000 0.78211  0.53221  0.96380  Biso   1.000  N
  H870     1.0000 0.84032  0.47608  0.97869  Biso   1.000  H
  H871     1.0000 0.84032  0.52392  0.02131  Biso   1.000  H
  C652     1.0000 0.72932  0.50700  0.97039  Biso   1.000  C
  H872     1.0000 0.72850  0.52668  0.05080  Biso   1.000  H
  C653     1.0000 0.68071  0.45831  0.04539  Biso   1.000  C
  C654     1.0000 0.03290  0.59152  0.19731  Biso   1.000  C
  C655     1.0000 0.06288  0.64020  0.11380  Biso   1.000  C
  C656     1.0000 0.09152  0.69731  0.03290  Biso   1.000  C
  C657     1.0000 0.90848  0.69731  0.96710  Biso   1.000  C
  C658     1.0000 0.85980  0.61380  0.93712  Biso   1.000  C
  C659     1.0000 0.80269  0.53290  0.90848  Biso   1.000  C
  C660     1.0000 0.04169  0.54539  0.31929  Biso   1.000  C
  H873     1.0000 0.97332  0.55080  0.27150  Biso   1.000  H
  C661     1.0000 0.99300  0.47010  0.36940  Biso   1.000  C
  H874     1.0000 0.95058  0.41589  0.31900  Biso   1.000  H
  H875     1.0000 0.92418  0.47442  0.31921  Biso   1.000  H
  H876     1.0000 0.72850  0.47332  0.94920  Biso   1.000  H
  C662     1.0000 0.68071  0.54169  0.95461  Biso   1.000  C
  H877     1.0000 0.68100  0.45058  0.08411  Biso   1.000  H
  H878     1.0000 0.68079  0.42418  0.02558  Biso   1.000  H
  C663     1.0000 0.63060  0.49300  0.02990  Biso   1.000  C
  H879     1.0000 0.04409  0.61600  0.22619  Biso   1.000  H
  H880     1.0000 0.99650  0.60168  0.18620  Biso   1.000  H
  H881     1.0000 0.03331  0.66318  0.11901  Biso   1.000  H
  N107     1.0000 0.03620  0.71789  0.03221  Biso   1.000  N
  H882     1.0000 0.11600  0.72619  0.04409  Biso   1.000  H
  H883     1.0000 0.10168  0.68620  0.99650  Biso   1.000  H
  N108     1.0000 0.96380  0.71789  0.96779  Biso   1.000  N
  H884     1.0000 0.88400  0.72619  0.95591  Biso   1.000  H
  H885     1.0000 0.89832  0.68620  0.00350  Biso   1.000  H
  H886     1.0000 0.83682  0.61901  0.96669  Biso   1.000  H
  H887     1.0000 0.77381  0.54409  0.88400  Biso   1.000  H
  H888     1.0000 0.81380  0.49650  0.89832  Biso   1.000  H
  H889     1.0000 0.04942  0.58411  0.31900  Biso   1.000  H
  H890     1.0000 0.07582  0.52558  0.31921  Biso   1.000  H
  C664     1.0000 0.00700  0.52990  0.36940  Biso   1.000  C
  H891     1.0000 0.02632  0.44891  0.36932  Biso   1.000  H
  H892     1.0000 0.97311  0.46140  0.40230  Biso   1.000  H
  H893     1.0000 0.68100  0.54942  0.91589  Biso   1.000  H
  H894     1.0000 0.68079  0.57582  0.97442  Biso   1.000  H
  C665     1.0000 0.63060  0.50700  0.97010  Biso   1.000  C
  H895     1.0000 0.59770  0.47311  0.03860  Biso   1.000  H
  H896     1.0000 0.63068  0.52632  0.05109  Biso   1.000  H
  C666     1.0000 0.00000  0.68271  0.00000  Biso   1.000  C
  C667     1.0000 0.02961  0.77068  0.00700  Biso   1.000  C
  C668     1.0000 0.97039  0.77068  0.99300  Biso   1.000  C
  H897     1.0000 0.02689  0.53860  0.40230  Biso   1.000  H
  H898     1.0000 0.97368  0.55109  0.36932  Biso   1.000  H
  H899     1.0000 0.59770  0.52689  0.96140  Biso   1.000  H
  H900     1.0000 0.63068  0.47368  0.94891  Biso   1.000  H
  H901     1.0000 0.97869  0.65968  0.02392  Biso   1.000  H
  H902     1.0000 0.02131  0.65968  0.97608  Biso   1.000  H
  C669     1.0000 0.04539  0.81929  0.04169  Biso   1.000  C
  H903     1.0000 0.05080  0.77150  0.97332  Biso   1.000  H
  C670     1.0000 0.95461  0.81929  0.95831  Biso   1.000  C
  H904     1.0000 0.94920  0.77150  0.02668  Biso   1.000  H
  H905     1.0000 0.08411  0.81900  0.04942  Biso   1.000  H
  H906     1.0000 0.02558  0.81921  0.07582  Biso   1.000  H
  C671     1.0000 0.02990  0.86940  0.00700  Biso   1.000  C
  C672     1.0000 0.97010  0.86940  0.99300  Biso   1.000  C
  H907     1.0000 0.91589  0.81900  0.95058  Biso   1.000  H
  H908     1.0000 0.97442  0.81921  0.92418  Biso   1.000  H
  H909     1.0000 0.03860  0.90230  0.02689  Biso   1.000  H
  H910     1.0000 0.05109  0.86932  0.97368  Biso   1.000  H
  H911     1.0000 0.96140  0.90230  0.97311  Biso   1.000  H
  H912     1.0000 0.94891  0.86932  0.02632  Biso   1.000  H
  C673     1.0000 0.96710  0.09152  0.30269  Biso   1.000  C
  C674     1.0000 0.92878  0.09741  0.35048  Biso   1.000  C
  H913     1.0000 0.00350  0.10168  0.31380  Biso   1.000  H
  N109     1.0000 0.96779  0.03620  0.28211  Biso   1.000  N
  H914     1.0000 0.95591  0.11600  0.27381  Biso   1.000  H
  C675     1.0000 0.93712  0.14020  0.38620  Biso   1.000  C
  C676     1.0000 0.88620  0.06288  0.35980  Biso   1.000  C
  C677     1.0000 0.00000  0.00000  0.31729  Biso   1.000  C
  C678     1.0000 0.99300  0.02961  0.22932  Biso   1.000  C
  C679     1.0000 0.90259  0.14952  0.42878  Biso   1.000  C
  H915     1.0000 0.96669  0.16318  0.38099  Biso   1.000  H
  C680     1.0000 0.85048  0.07122  0.40259  Biso   1.000  C
  H916     1.0000 0.88099  0.03331  0.33682  Biso   1.000  H
  H917     1.0000 0.02392  0.02131  0.34032  Biso   1.000  H
  H918     1.0000 0.97608  0.97869  0.34032  Biso   1.000  H
  N110     1.0000 0.03221  0.96380  0.28211  Biso   1.000  N
  H919     1.0000 0.02668  0.05080  0.22850  Biso   1.000  H
  C681     1.0000 0.95831  0.04539  0.18071  Biso   1.000  C
  C682     1.0000 0.00700  0.97039  0.22932  Biso   1.000  C
  C683     1.0000 0.90848  0.19731  0.46710  Biso   1.000  C
  C684     1.0000 0.85980  0.11380  0.43712  Biso   1.000  C
  C685     1.0000 0.80269  0.03290  0.40848  Biso   1.000  C
  C686     1.0000 0.03290  0.90848  0.30269  Biso   1.000  C
  H920     1.0000 0.95058  0.08411  0.18100  Biso   1.000  H
  H921     1.0000 0.92418  0.02558  0.18079  Biso   1.000  H
  C687     1.0000 0.99300  0.02990  0.13060  Biso   1.000  C
  H922     1.0000 0.97332  0.94920  0.22850  Biso   1.000  H
  C688     1.0000 0.04169  0.95461  0.18071  Biso   1.000  C
  N111     1.0000 0.96380  0.21789  0.46779  Biso   1.000  N
  H923     1.0000 0.88400  0.22619  0.45591  Biso   1.000  H
  H924     1.0000 0.89832  0.18620  0.50350  Biso   1.000  H
  H925     1.0000 0.83682  0.11901  0.46669  Biso   1.000  H
  H926     1.0000 0.81380  0.99650  0.39832  Biso   1.000  H
  N112     1.0000 0.78211  0.03221  0.46380  Biso   1.000  N
  H927     1.0000 0.77381  0.04409  0.38400  Biso   1.000  H
  C689     1.0000 0.07122  0.90259  0.35048  Biso   1.000  C
  H928     1.0000 0.99650  0.89832  0.31380  Biso   1.000  H
  H929     1.0000 0.04409  0.88400  0.27381  Biso   1.000  H
  H930     1.0000 0.02632  0.05109  0.13068  Biso   1.000  H
  H931     1.0000 0.97311  0.03860  0.09770  Biso   1.000  H
  C690     1.0000 0.00700  0.97010  0.13060  Biso   1.000  C
  H932     1.0000 0.04942  0.91589  0.18100  Biso   1.000  H
  H933     1.0000 0.07582  0.97442  0.18079  Biso   1.000  H
  C691     1.0000 0.00000  0.18271  0.50000  Biso   1.000  C
  C692     1.0000 0.97039  0.27068  0.49300  Biso   1.000  C
  C693     1.0000 0.81729  0.00000  0.50000  Biso   1.000  C
  C694     1.0000 0.72932  0.00700  0.47039  Biso   1.000  C
  C695     1.0000 0.11380  0.93712  0.35980  Biso   1.000  C
  C696     1.0000 0.06288  0.85980  0.38620  Biso   1.000  C
  H934     1.0000 0.97368  0.94891  0.13068  Biso   1.000  H
  H935     1.0000 0.02689  0.96140  0.09770  Biso   1.000  H
  N113     1.0000 0.03620  0.21789  0.53221  Biso   1.000  N
  H936     1.0000 0.02131  0.15968  0.47608  Biso   1.000  H
  H937     1.0000 0.97869  0.15968  0.52392  Biso   1.000  H
  C697     1.0000 0.02961  0.27068  0.50700  Biso   1.000  C
  H938     1.0000 0.94920  0.27150  0.52668  Biso   1.000  H
  C698     1.0000 0.95461  0.31929  0.45831  Biso   1.000  C
  N114     1.0000 0.78211  0.96779  0.53620  Biso   1.000  N
  H939     1.0000 0.84032  0.97608  0.47869  Biso   1.000  H
  H940     1.0000 0.84032  0.02392  0.52131  Biso   1.000  H
  C699     1.0000 0.72932  0.99300  0.52961  Biso   1.000  C
  H941     1.0000 0.72850  0.97332  0.44920  Biso   1.000  H
  C700     1.0000 0.68071  0.04169  0.45461  Biso   1.000  C
  C701     1.0000 0.14952  0.92878  0.40259  Biso   1.000  C
  H942     1.0000 0.11901  0.96669  0.33682  Biso   1.000  H
  C702     1.0000 0.09741  0.85048  0.42878  Biso   1.000  C
  H943     1.0000 0.03331  0.83682  0.38099  Biso   1.000  H
  C703     1.0000 0.09152  0.19731  0.53290  Biso   1.000  C
  H944     1.0000 0.05080  0.27150  0.47332  Biso   1.000  H
  C704     1.0000 0.04539  0.31929  0.54169  Biso   1.000  C
  C705     1.0000 0.97010  0.36940  0.49300  Biso   1.000  C
  H945     1.0000 0.91589  0.31900  0.45058  Biso   1.000  H
  H946     1.0000 0.97442  0.31921  0.42418  Biso   1.000  H
  C706     1.0000 0.80269  0.96710  0.59152  Biso   1.000  C
  C707     1.0000 0.68071  0.95831  0.54539  Biso   1.000  C
  H947     1.0000 0.72850  0.02668  0.55080  Biso   1.000  H
  H948     1.0000 0.68100  0.04942  0.41589  Biso   1.000  H
  H949     1.0000 0.68079  0.07582  0.47442  Biso   1.000  H
  C708     1.0000 0.63060  0.00700  0.47010  Biso   1.000  C
  C709     1.0000 0.19731  0.96710  0.40848  Biso   1.000  C
  C710     1.0000 0.14020  0.88620  0.43712  Biso   1.000  C
  C711     1.0000 0.09152  0.80269  0.46710  Biso   1.000  C
  C712     1.0000 0.09741  0.14952  0.57122  Biso   1.000  C
  H950     1.0000 0.11600  0.22619  0.54409  Biso   1.000  H
  H951     1.0000 0.10168  0.18620  0.49650  Biso   1.000  H
  H952     1.0000 0.08411  0.31900  0.54942  Biso   1.000  H
  H953     1.0000 0.02558  0.31921  0.57582  Biso   1.000  H
  C713     1.0000 0.02990  0.36940  0.50700  Biso   1.000  C
  H954     1.0000 0.96140  0.40230  0.47311  Biso   1.000  H
  H955     1.0000 0.94891  0.36932  0.52632  Biso   1.000  H
  C714     1.0000 0.85048  0.92878  0.59741  Biso   1.000  C
  H956     1.0000 0.77381  0.95591  0.61600  Biso   1.000  H
  H957     1.0000 0.81380  0.00350  0.60168  Biso   1.000  H
  H958     1.0000 0.68100  0.95058  0.58411  Biso   1.000  H
  H959     1.0000 0.68079  0.92418  0.52558  Biso   1.000  H
  C715     1.0000 0.63060  0.99300  0.52990  Biso   1.000  C
  H960     1.0000 0.63068  0.97368  0.44891  Biso   1.000  H
  H961     1.0000 0.59770  0.02689  0.46140  Biso   1.000  H
  N115     1.0000 0.21789  0.96779  0.46380  Biso   1.000  N
  H962     1.0000 0.18620  0.00350  0.39832  Biso   1.000  H
  H963     1.0000 0.22619  0.95591  0.38400  Biso   1.000  H
  H964     1.0000 0.16318  0.88099  0.46669  Biso   1.000  H
  N116     1.0000 0.03620  0.78211  0.46779  Biso   1.000  N
  H965     1.0000 0.11600  0.77381  0.45591  Biso   1.000  H
  H966     1.0000 0.10168  0.81380  0.50350  Biso   1.000  H
  C716     1.0000 0.14020  0.11380  0.56288  Biso   1.000  C
  C717     1.0000 0.06288  0.14020  0.61380  Biso   1.000  C
  H967     1.0000 0.03860  0.40230  0.52689  Biso   1.000  H
  H968     1.0000 0.05109  0.36932  0.47368  Biso   1.000  H
  C718     1.0000 0.88620  0.93712  0.64020  Biso   1.000  C
  C719     1.0000 0.85980  0.88620  0.56288  Biso   1.000  C
  H969     1.0000 0.59770  0.97311  0.53860  Biso   1.000  H
  H970     1.0000 0.63068  0.02632  0.55109  Biso   1.000  H
  C720     1.0000 0.18271  0.00000  0.50000  Biso   1.000  C
  C721     1.0000 0.27068  0.99300  0.47039  Biso   1.000  C
  C722     1.0000 0.00000  0.81729  0.50000  Biso   1.000  C
  C723     1.0000 0.02961  0.72932  0.49300  Biso   1.000  C
  H971     1.0000 0.16318  0.11901  0.53331  Biso   1.000  H
  C724     1.0000 0.14952  0.07122  0.59741  Biso   1.000  C
  C725     1.0000 0.07122  0.09741  0.64952  Biso   1.000  C
  H972     1.0000 0.03331  0.16318  0.61901  Biso   1.000  H
  C726     1.0000 0.92878  0.90259  0.64952  Biso   1.000  C
  H973     1.0000 0.88099  0.96669  0.66318  Biso   1.000  H
  C727     1.0000 0.90259  0.85048  0.57122  Biso   1.000  C
  H974     1.0000 0.83682  0.88099  0.53331  Biso   1.000  H
  N117     1.0000 0.21789  0.03221  0.53620  Biso   1.000  N
  H975     1.0000 0.15968  0.02392  0.47869  Biso   1.000  H
  H976     1.0000 0.15968  0.97608  0.52131  Biso   1.000  H
  C728     1.0000 0.27068  0.00700  0.52961  Biso   1.000  C
  H977     1.0000 0.27150  0.02668  0.44920  Biso   1.000  H
  C729     1.0000 0.31929  0.95831  0.45461  Biso   1.000  C
  N118     1.0000 0.96380  0.78211  0.53221  Biso   1.000  N
  H978     1.0000 0.97869  0.84032  0.47608  Biso   1.000  H
  H979     1.0000 0.02131  0.84032  0.52392  Biso   1.000  H
  C730     1.0000 0.97039  0.72932  0.50700  Biso   1.000  C
  H980     1.0000 0.05080  0.72850  0.52668  Biso   1.000  H
  C731     1.0000 0.04539  0.68071  0.45831  Biso   1.000  C
  C732     1.0000 0.11380  0.06288  0.64020  Biso   1.000  C
  C733     1.0000 0.19731  0.03290  0.59152  Biso   1.000  C
  C734     1.0000 0.03290  0.09152  0.69731  Biso   1.000  C
  C735     1.0000 0.96710  0.90848  0.69731  Biso   1.000  C
  C736     1.0000 0.93712  0.85980  0.61380  Biso   1.000  C
  C737     1.0000 0.90848  0.80269  0.53290  Biso   1.000  C
  C738     1.0000 0.31929  0.04169  0.54539  Biso   1.000  C
  H981     1.0000 0.27150  0.97332  0.55080  Biso   1.000  H
  C739     1.0000 0.36940  0.99300  0.47010  Biso   1.000  C
  H982     1.0000 0.31900  0.95058  0.41589  Biso   1.000  H
  H983     1.0000 0.31921  0.92418  0.47442  Biso   1.000  H
  H984     1.0000 0.94920  0.72850  0.47332  Biso   1.000  H
  C740     1.0000 0.95461  0.68071  0.54169  Biso   1.000  C
  H985     1.0000 0.08411  0.68100  0.45058  Biso   1.000  H
  H986     1.0000 0.02558  0.68079  0.42418  Biso   1.000  H
  C741     1.0000 0.02990  0.63060  0.49300  Biso   1.000  C
  H987     1.0000 0.11901  0.03331  0.66318  Biso   1.000  H
  H988     1.0000 0.22619  0.04409  0.61600  Biso   1.000  H
  H989     1.0000 0.18620  0.99650  0.60168  Biso   1.000  H
  N119     1.0000 0.03221  0.03620  0.71789  Biso   1.000  N
  H990     1.0000 0.04409  0.11600  0.72619  Biso   1.000  H
  H991     1.0000 0.99650  0.10168  0.68620  Biso   1.000  H
  N120     1.0000 0.96779  0.96380  0.71789  Biso   1.000  N
  H992     1.0000 0.95591  0.88400  0.72619  Biso   1.000  H
  H993     1.0000 0.00350  0.89832  0.68620  Biso   1.000  H
  H994     1.0000 0.96669  0.83682  0.61901  Biso   1.000  H
  H995     1.0000 0.88400  0.77381  0.54409  Biso   1.000  H
  H996     1.0000 0.89832  0.81380  0.49650  Biso   1.000  H
  H997     1.0000 0.31900  0.04942  0.58411  Biso   1.000  H
  H998     1.0000 0.31921  0.07582  0.52558  Biso   1.000  H
  C742     1.0000 0.36940  0.00700  0.52990  Biso   1.000  C
  H999     1.0000 0.36932  0.02632  0.44891  Biso   1.000  H
  H1000    1.0000 0.40230  0.97311  0.46140  Biso   1.000  H
  H1001    1.0000 0.91589  0.68100  0.54942  Biso   1.000  H
  H1002    1.0000 0.97442  0.68079  0.57582  Biso   1.000  H
  C743     1.0000 0.97010  0.63060  0.50700  Biso   1.000  C
  H1003    1.0000 0.03860  0.59770  0.47311  Biso   1.000  H
  H1004    1.0000 0.05109  0.63068  0.52632  Biso   1.000  H
  C744     1.0000 0.00000  0.00000  0.68271  Biso   1.000  C
  C745     1.0000 0.00700  0.02961  0.77068  Biso   1.000  C
  C746     1.0000 0.99300  0.97039  0.77068  Biso   1.000  C
  H1005    1.0000 0.40230  0.02689  0.53860  Biso   1.000  H
  H1006    1.0000 0.36932  0.97368  0.55109  Biso   1.000  H
  H1007    1.0000 0.96140  0.59770  0.52689  Biso   1.000  H
  H1008    1.0000 0.94891  0.63068  0.47368  Biso   1.000  H
  H1009    1.0000 0.97608  0.02131  0.65968  Biso   1.000  H
  H1010    1.0000 0.02392  0.97869  0.65968  Biso   1.000  H
  C747     1.0000 0.04169  0.04539  0.81929  Biso   1.000  C
  H1011    1.0000 0.97332  0.05080  0.77150  Biso   1.000  H
  C748     1.0000 0.95831  0.95461  0.81929  Biso   1.000  C
  H1012    1.0000 0.02668  0.94920  0.77150  Biso   1.000  H
  H1013    1.0000 0.04942  0.08411  0.81900  Biso   1.000  H
  H1014    1.0000 0.07582  0.02558  0.81921  Biso   1.000  H
  C749     1.0000 0.00700  0.02990  0.86940  Biso   1.000  C
  C750     1.0000 0.99300  0.97010  0.86940  Biso   1.000  C
  H1015    1.0000 0.95058  0.91589  0.81900  Biso   1.000  H
  H1016    1.0000 0.92418  0.97442  0.81921  Biso   1.000  H
  H1017    1.0000 0.02689  0.03860  0.90230  Biso   1.000  H
  H1018    1.0000 0.97368  0.05109  0.86932  Biso   1.000  H
  H1019    1.0000 0.97311  0.96140  0.90230  Biso   1.000  H
  H1020    1.0000 0.02632  0.94891  0.86932  Biso   1.000  H
  C751     1.0000 0.96710  0.09152  0.30269  Biso   1.000  C
  C752     1.0000 0.92878  0.09741  0.35048  Biso   1.000  C
  H1021    1.0000 0.00350  0.10168  0.31380  Biso   1.000  H
  N121     1.0000 0.96779  0.03620  0.28211  Biso   1.000  N
  H1022    1.0000 0.95591  0.11600  0.27381  Biso   1.000  H
  C753     1.0000 0.93712  0.14020  0.38620  Biso   1.000  C
  C754     1.0000 0.88620  0.06288  0.35980  Biso   1.000  C
  C755     1.0000 0.00000  0.00000  0.31729  Biso   1.000  C
  C756     1.0000 0.99300  0.02961  0.22932  Biso   1.000  C
  C757     1.0000 0.90259  0.14952  0.42878  Biso   1.000  C
  H1023    1.0000 0.96669  0.16318  0.38099  Biso   1.000  H
  C758     1.0000 0.85048  0.07122  0.40259  Biso   1.000  C
  H1024    1.0000 0.88099  0.03331  0.33682  Biso   1.000  H
  H1025    1.0000 0.02392  0.02131  0.34032  Biso   1.000  H
  H1026    1.0000 0.97608  0.97869  0.34032  Biso   1.000  H
  N122     1.0000 0.03221  0.96380  0.28211  Biso   1.000  N
  H1027    1.0000 0.02668  0.05080  0.22850  Biso   1.000  H
  C759     1.0000 0.95831  0.04539  0.18071  Biso   1.000  C
  C760     1.0000 0.00700  0.97039  0.22932  Biso   1.000  C
  C761     1.0000 0.90848  0.19731  0.46710  Biso   1.000  C
  C762     1.0000 0.85980  0.11380  0.43712  Biso   1.000  C
  C763     1.0000 0.80269  0.03290  0.40848  Biso   1.000  C
  C764     1.0000 0.03290  0.90848  0.30269  Biso   1.000  C
  H1028    1.0000 0.95058  0.08411  0.18100  Biso   1.000  H
  H1029    1.0000 0.92418  0.02558  0.18079  Biso   1.000  H
  C765     1.0000 0.99300  0.02990  0.13060  Biso   1.000  C
  H1030    1.0000 0.97332  0.94920  0.22850  Biso   1.000  H
  C766     1.0000 0.04169  0.95461  0.18071  Biso   1.000  C
  N123     1.0000 0.96380  0.21789  0.46779  Biso   1.000  N
  H1031    1.0000 0.88400  0.22619  0.45591  Biso   1.000  H
  H1032    1.0000 0.89832  0.18620  0.50350  Biso   1.000  H
  H1033    1.0000 0.83682  0.11901  0.46669  Biso   1.000  H
  H1034    1.0000 0.81380  0.99650  0.39832  Biso   1.000  H
  N124     1.0000 0.78211  0.03221  0.46380  Biso   1.000  N
  H1035    1.0000 0.77381  0.04409  0.38400  Biso   1.000  H
  C767     1.0000 0.07122  0.90259  0.35048  Biso   1.000  C
  H1036    1.0000 0.99650  0.89832  0.31380  Biso   1.000  H
  H1037    1.0000 0.04409  0.88400  0.27381  Biso   1.000  H
  H1038    1.0000 0.02632  0.05109  0.13068  Biso   1.000  H
  H1039    1.0000 0.97311  0.03860  0.09770  Biso   1.000  H
  C768     1.0000 0.00700  0.97010  0.13060  Biso   1.000  C
  H1040    1.0000 0.04942  0.91589  0.18100  Biso   1.000  H
  H1041    1.0000 0.07582  0.97442  0.18079  Biso   1.000  H
  C769     1.0000 0.00000  0.18271  0.50000  Biso   1.000  C
  C770     1.0000 0.97039  0.27068  0.49300  Biso   1.000  C
  C771     1.0000 0.81729  0.00000  0.50000  Biso   1.000  C
  C772     1.0000 0.72932  0.00700  0.47039  Biso   1.000  C
  C773     1.0000 0.11380  0.93712  0.35980  Biso   1.000  C
  C774     1.0000 0.06288  0.85980  0.38620  Biso   1.000  C
  H1042    1.0000 0.97368  0.94891  0.13068  Biso   1.000  H
  H1043    1.0000 0.02689  0.96140  0.09770  Biso   1.000  H
  N125     1.0000 0.03620  0.21789  0.53221  Biso   1.000  N
  H1044    1.0000 0.02131  0.15968  0.47608  Biso   1.000  H
  H1045    1.0000 0.97869  0.15968  0.52392  Biso   1.000  H
  C775     1.0000 0.02961  0.27068  0.50700  Biso   1.000  C
  H1046    1.0000 0.94920  0.27150  0.52668  Biso   1.000  H
  C776     1.0000 0.95461  0.31929  0.45831  Biso   1.000  C
  N126     1.0000 0.78211  0.96779  0.53620  Biso   1.000  N
  H1047    1.0000 0.84032  0.97608  0.47869  Biso   1.000  H
  H1048    1.0000 0.84032  0.02392  0.52131  Biso   1.000  H
  C777     1.0000 0.72932  0.99300  0.52961  Biso   1.000  C
  H1049    1.0000 0.72850  0.97332  0.44920  Biso   1.000  H
  C778     1.0000 0.68071  0.04169  0.45461  Biso   1.000  C
  C779     1.0000 0.14952  0.92878  0.40259  Biso   1.000  C
  H1050    1.0000 0.11901  0.96669  0.33682  Biso   1.000  H
  C780     1.0000 0.09741  0.85048  0.42878  Biso   1.000  C
  H1051    1.0000 0.03331  0.83682  0.38099  Biso   1.000  H
  C781     1.0000 0.09152  0.19731  0.53290  Biso   1.000  C
  H1052    1.0000 0.05080  0.27150  0.47332  Biso   1.000  H
  C782     1.0000 0.04539  0.31929  0.54169  Biso   1.000  C
  C783     1.0000 0.97010  0.36940  0.49300  Biso   1.000  C
  H1053    1.0000 0.91589  0.31900  0.45058  Biso   1.000  H
  H1054    1.0000 0.97442  0.31921  0.42418  Biso   1.000  H
  C784     1.0000 0.80269  0.96710  0.59152  Biso   1.000  C
  C785     1.0000 0.68071  0.95831  0.54539  Biso   1.000  C
  H1055    1.0000 0.72850  0.02668  0.55080  Biso   1.000  H
  H1056    1.0000 0.68100  0.04942  0.41589  Biso   1.000  H
  H1057    1.0000 0.68079  0.07582  0.47442  Biso   1.000  H
  C786     1.0000 0.63060  0.00700  0.47010  Biso   1.000  C
  C787     1.0000 0.19731  0.96710  0.40848  Biso   1.000  C
  C788     1.0000 0.14020  0.88620  0.43712  Biso   1.000  C
  C789     1.0000 0.09152  0.80269  0.46710  Biso   1.000  C
  C790     1.0000 0.09741  0.14952  0.57122  Biso   1.000  C
  H1058    1.0000 0.11600  0.22619  0.54409  Biso   1.000  H
  H1059    1.0000 0.10168  0.18620  0.49650  Biso   1.000  H
  H1060    1.0000 0.08411  0.31900  0.54942  Biso   1.000  H
  H1061    1.0000 0.02558  0.31921  0.57582  Biso   1.000  H
  C791     1.0000 0.02990  0.36940  0.50700  Biso   1.000  C
  H1062    1.0000 0.96140  0.40230  0.47311  Biso   1.000  H
  H1063    1.0000 0.94891  0.36932  0.52632  Biso   1.000  H
  C792     1.0000 0.85048  0.92878  0.59741  Biso   1.000  C
  H1064    1.0000 0.77381  0.95591  0.61600  Biso   1.000  H
  H1065    1.0000 0.81380  0.00350  0.60168  Biso   1.000  H
  H1066    1.0000 0.68100  0.95058  0.58411  Biso   1.000  H
  H1067    1.0000 0.68079  0.92418  0.52558  Biso   1.000  H
  C793     1.0000 0.63060  0.99300  0.52990  Biso   1.000  C
  H1068    1.0000 0.63068  0.97368  0.44891  Biso   1.000  H
  H1069    1.0000 0.59770  0.02689  0.46140  Biso   1.000  H
  N127     1.0000 0.21789  0.96779  0.46380  Biso   1.000  N
  H1070    1.0000 0.18620  0.00350  0.39832  Biso   1.000  H
  H1071    1.0000 0.22619  0.95591  0.38400  Biso   1.000  H
  H1072    1.0000 0.16318  0.88099  0.46669  Biso   1.000  H
  N128     1.0000 0.03620  0.78211  0.46779  Biso   1.000  N
  H1073    1.0000 0.11600  0.77381  0.45591  Biso   1.000  H
  H1074    1.0000 0.10168  0.81380  0.50350  Biso   1.000  H
  C794     1.0000 0.14020  0.11380  0.56288  Biso   1.000  C
  C795     1.0000 0.06288  0.14020  0.61380  Biso   1.000  C
  H1075    1.0000 0.03860  0.40230  0.52689  Biso   1.000  H
  H1076    1.0000 0.05109  0.36932  0.47368  Biso   1.000  H
  C796     1.0000 0.88620  0.93712  0.64020  Biso   1.000  C
  C797     1.0000 0.85980  0.88620  0.56288  Biso   1.000  C
  H1077    1.0000 0.59770  0.97311  0.53860  Biso   1.000  H
  H1078    1.0000 0.63068  0.02632  0.55109  Biso   1.000  H
  C798     1.0000 0.18271  0.00000  0.50000  Biso   1.000  C
  C799     1.0000 0.27068  0.99300  0.47039  Biso   1.000  C
  C800     1.0000 0.00000  0.81729  0.50000  Biso   1.000  C
  C801     1.0000 0.02961  0.72932  0.49300  Biso   1.000  C
  H1079    1.0000 0.16318  0.11901  0.53331  Biso   1.000  H
  C802     1.0000 0.14952  0.07122  0.59741  Biso   1.000  C
  C803     1.0000 0.07122  0.09741  0.64952  Biso   1.000  C
  H1080    1.0000 0.03331  0.16318  0.61901  Biso   1.000  H
  C804     1.0000 0.92878  0.90259  0.64952  Biso   1.000  C
  H1081    1.0000 0.88099  0.96669  0.66318  Biso   1.000  H
  C805     1.0000 0.90259  0.85048  0.57122  Biso   1.000  C
  H1082    1.0000 0.83682  0.88099  0.53331  Biso   1.000  H
  N129     1.0000 0.21789  0.03221  0.53620  Biso   1.000  N
  H1083    1.0000 0.15968  0.02392  0.47869  Biso   1.000  H
  H1084    1.0000 0.15968  0.97608  0.52131  Biso   1.000  H
  C806     1.0000 0.27068  0.00700  0.52961  Biso   1.000  C
  H1085    1.0000 0.27150  0.02668  0.44920  Biso   1.000  H
  C807     1.0000 0.31929  0.95831  0.45461  Biso   1.000  C
  N130     1.0000 0.96380  0.78211  0.53221  Biso   1.000  N
  H1086    1.0000 0.97869  0.84032  0.47608  Biso   1.000  H
  H1087    1.0000 0.02131  0.84032  0.52392  Biso   1.000  H
  C808     1.0000 0.97039  0.72932  0.50700  Biso   1.000  C
  H1088    1.0000 0.05080  0.72850  0.52668  Biso   1.000  H
  C809     1.0000 0.04539  0.68071  0.45831  Biso   1.000  C
  C810     1.0000 0.11380  0.06288  0.64020  Biso   1.000  C
  C811     1.0000 0.19731  0.03290  0.59152  Biso   1.000  C
  C812     1.0000 0.03290  0.09152  0.69731  Biso   1.000  C
  C813     1.0000 0.96710  0.90848  0.69731  Biso   1.000  C
  C814     1.0000 0.93712  0.85980  0.61380  Biso   1.000  C
  C815     1.0000 0.90848  0.80269  0.53290  Biso   1.000  C
  C816     1.0000 0.31929  0.04169  0.54539  Biso   1.000  C
  H1089    1.0000 0.27150  0.97332  0.55080  Biso   1.000  H
  C817     1.0000 0.36940  0.99300  0.47010  Biso   1.000  C
  H1090    1.0000 0.31900  0.95058  0.41589  Biso   1.000  H
  H1091    1.0000 0.31921  0.92418  0.47442  Biso   1.000  H
  H1092    1.0000 0.94920  0.72850  0.47332  Biso   1.000  H
  C818     1.0000 0.95461  0.68071  0.54169  Biso   1.000  C
  H1093    1.0000 0.08411  0.68100  0.45058  Biso   1.000  H
  H1094    1.0000 0.02558  0.68079  0.42418  Biso   1.000  H
  C819     1.0000 0.02990  0.63060  0.49300  Biso   1.000  C
  H1095    1.0000 0.11901  0.03331  0.66318  Biso   1.000  H
  H1096    1.0000 0.22619  0.04409  0.61600  Biso   1.000  H
  H1097    1.0000 0.18620  0.99650  0.60168  Biso   1.000  H
  N131     1.0000 0.03221  0.03620  0.71789  Biso   1.000  N
  H1098    1.0000 0.04409  0.11600  0.72619  Biso   1.000  H
  H1099    1.0000 0.99650  0.10168  0.68620  Biso   1.000  H
  N132     1.0000 0.96779  0.96380  0.71789  Biso   1.000  N
  H1100    1.0000 0.95591  0.88400  0.72619  Biso   1.000  H
  H1101    1.0000 0.00350  0.89832  0.68620  Biso   1.000  H
  H1102    1.0000 0.96669  0.83682  0.61901  Biso   1.000  H
  H1103    1.0000 0.88400  0.77381  0.54409  Biso   1.000  H
  H1104    1.0000 0.89832  0.81380  0.49650  Biso   1.000  H
  H1105    1.0000 0.31900  0.04942  0.58411  Biso   1.000  H
  H1106    1.0000 0.31921  0.07582  0.52558  Biso   1.000  H
  C820     1.0000 0.36940  0.00700  0.52990  Biso   1.000  C
  H1107    1.0000 0.36932  0.02632  0.44891  Biso   1.000  H
  H1108    1.0000 0.40230  0.97311  0.46140  Biso   1.000  H
  H1109    1.0000 0.91589  0.68100  0.54942  Biso   1.000  H
  H1110    1.0000 0.97442  0.68079  0.57582  Biso   1.000  H
  C821     1.0000 0.97010  0.63060  0.50700  Biso   1.000  C
  H1111    1.0000 0.03860  0.59770  0.47311  Biso   1.000  H
  H1112    1.0000 0.05109  0.63068  0.52632  Biso   1.000  H
  C822     1.0000 0.00000  0.00000  0.68271  Biso   1.000  C
  C823     1.0000 0.00700  0.02961  0.77068  Biso   1.000  C
  C824     1.0000 0.99300  0.97039  0.77068  Biso   1.000  C
  H1113    1.0000 0.40230  0.02689  0.53860  Biso   1.000  H
  H1114    1.0000 0.36932  0.97368  0.55109  Biso   1.000  H
  H1115    1.0000 0.96140  0.59770  0.52689  Biso   1.000  H
  H1116    1.0000 0.94891  0.63068  0.47368  Biso   1.000  H
  H1117    1.0000 0.97608  0.02131  0.65968  Biso   1.000  H
  H1118    1.0000 0.02392  0.97869  0.65968  Biso   1.000  H
  C825     1.0000 0.04169  0.04539  0.81929  Biso   1.000  C
  H1119    1.0000 0.97332  0.05080  0.77150  Biso   1.000  H
  C826     1.0000 0.95831  0.95461  0.81929  Biso   1.000  C
  H1120    1.0000 0.02668  0.94920  0.77150  Biso   1.000  H
  H1121    1.0000 0.04942  0.08411  0.81900  Biso   1.000  H
  H1122    1.0000 0.07582  0.02558  0.81921  Biso   1.000  H
  C827     1.0000 0.00700  0.02990  0.86940  Biso   1.000  C
  C828     1.0000 0.99300  0.97010  0.86940  Biso   1.000  C
  H1123    1.0000 0.95058  0.91589  0.81900  Biso   1.000  H
  H1124    1.0000 0.92418  0.97442  0.81921  Biso   1.000  H
  H1125    1.0000 0.02689  0.03860  0.90230  Biso   1.000  H
  H1126    1.0000 0.97368  0.05109  0.86932  Biso   1.000  H
  H1127    1.0000 0.97311  0.96140  0.90230  Biso   1.000  H
  H1128    1.0000 0.02632  0.94891  0.86932  Biso   1.000  H
  C829     1.0000 0.96710  0.09152  0.30269  Biso   1.000  C
  C830     1.0000 0.92878  0.09741  0.35048  Biso   1.000  C
  H1129    1.0000 0.00350  0.10168  0.31380  Biso   1.000  H
  N133     1.0000 0.96779  0.03620  0.28211  Biso   1.000  N
  H1130    1.0000 0.95591  0.11600  0.27381  Biso   1.000  H
  C831     1.0000 0.93712  0.14020  0.38620  Biso   1.000  C
  C832     1.0000 0.88620  0.06288  0.35980  Biso   1.000  C
  C833     1.0000 0.00000  0.00000  0.31729  Biso   1.000  C
  C834     1.0000 0.99300  0.02961  0.22932  Biso   1.000  C
  C835     1.0000 0.90259  0.14952  0.42878  Biso   1.000  C
  H1131    1.0000 0.96669  0.16318  0.38099  Biso   1.000  H
  C836     1.0000 0.85048  0.07122  0.40259  Biso   1.000  C
  H1132    1.0000 0.88099  0.03331  0.33682  Biso   1.000  H
  H1133    1.0000 0.02392  0.02131  0.34032  Biso   1.000  H
  H1134    1.0000 0.97608  0.97869  0.34032  Biso   1.000  H
  N134     1.0000 0.03221  0.96380  0.28211  Biso   1.000  N
  H1135    1.0000 0.02668  0.05080  0.22850  Biso   1.000  H
  C837     1.0000 0.95831  0.04539  0.18071  Biso   1.000  C
  C838     1.0000 0.00700  0.97039  0.22932  Biso   1.000  C
  C839     1.0000 0.90848  0.19731  0.46710  Biso   1.000  C
  C840     1.0000 0.85980  0.11380  0.43712  Biso   1.000  C
  C841     1.0000 0.80269  0.03290  0.40848  Biso   1.000  C
  C842     1.0000 0.03290  0.90848  0.30269  Biso   1.000  C
  H1136    1.0000 0.95058  0.08411  0.18100  Biso   1.000  H
  H1137    1.0000 0.92418  0.02558  0.18079  Biso   1.000  H
  C843     1.0000 0.99300  0.02990  0.13060  Biso   1.000  C
  H1138    1.0000 0.97332  0.94920  0.22850  Biso   1.000  H
  C844     1.0000 0.04169  0.95461  0.18071  Biso   1.000  C
  N135     1.0000 0.96380  0.21789  0.46779  Biso   1.000  N
  H1139    1.0000 0.88400  0.22619  0.45591  Biso   1.000  H
  H1140    1.0000 0.89832  0.18620  0.50350  Biso   1.000  H
  H1141    1.0000 0.83682  0.11901  0.46669  Biso   1.000  H
  H1142    1.0000 0.81380  0.99650  0.39832  Biso   1.000  H
  N136     1.0000 0.78211  0.03221  0.46380  Biso   1.000  N
  H1143    1.0000 0.77381  0.04409  0.38400  Biso   1.000  H
  C845     1.0000 0.07122  0.90259  0.35048  Biso   1.000  C
  H1144    1.0000 0.99650  0.89832  0.31380  Biso   1.000  H
  H1145    1.0000 0.04409  0.88400  0.27381  Biso   1.000  H
  H1146    1.0000 0.02632  0.05109  0.13068  Biso   1.000  H
  H1147    1.0000 0.97311  0.03860  0.09770  Biso   1.000  H
  C846     1.0000 0.00700  0.97010  0.13060  Biso   1.000  C
  H1148    1.0000 0.04942  0.91589  0.18100  Biso   1.000  H
  H1149    1.0000 0.07582  0.97442  0.18079  Biso   1.000  H
  C847     1.0000 0.00000  0.18271  0.50000  Biso   1.000  C
  C848     1.0000 0.97039  0.27068  0.49300  Biso   1.000  C
  C849     1.0000 0.81729  0.00000  0.50000  Biso   1.000  C
  C850     1.0000 0.72932  0.00700  0.47039  Biso   1.000  C
  C851     1.0000 0.11380  0.93712  0.35980  Biso   1.000  C
  C852     1.0000 0.06288  0.85980  0.38620  Biso   1.000  C
  H1150    1.0000 0.97368  0.94891  0.13068  Biso   1.000  H
  H1151    1.0000 0.02689  0.96140  0.09770  Biso   1.000  H
  N137     1.0000 0.03620  0.21789  0.53221  Biso   1.000  N
  H1152    1.0000 0.02131  0.15968  0.47608  Biso   1.000  H
  H1153    1.0000 0.97869  0.15968  0.52392  Biso   1.000  H
  C853     1.0000 0.02961  0.27068  0.50700  Biso   1.000  C
  H1154    1.0000 0.94920  0.27150  0.52668  Biso   1.000  H
  C854     1.0000 0.95461  0.31929  0.45831  Biso   1.000  C
  N138     1.0000 0.78211  0.96779  0.53620  Biso   1.000  N
  H1155    1.0000 0.84032  0.97608  0.47869  Biso   1.000  H
  H1156    1.0000 0.84032  0.02392  0.52131  Biso   1.000  H
  C855     1.0000 0.72932  0.99300  0.52961  Biso   1.000  C
  H1157    1.0000 0.72850  0.97332  0.44920  Biso   1.000  H
  C856     1.0000 0.68071  0.04169  0.45461  Biso   1.000  C
  C857     1.0000 0.14952  0.92878  0.40259  Biso   1.000  C
  H1158    1.0000 0.11901  0.96669  0.33682  Biso   1.000  H
  C858     1.0000 0.09741  0.85048  0.42878  Biso   1.000  C
  H1159    1.0000 0.03331  0.83682  0.38099  Biso   1.000  H
  C859     1.0000 0.09152  0.19731  0.53290  Biso   1.000  C
  H1160    1.0000 0.05080  0.27150  0.47332  Biso   1.000  H
  C860     1.0000 0.04539  0.31929  0.54169  Biso   1.000  C
  C861     1.0000 0.97010  0.36940  0.49300  Biso   1.000  C
  H1161    1.0000 0.91589  0.31900  0.45058  Biso   1.000  H
  H1162    1.0000 0.97442  0.31921  0.42418  Biso   1.000  H
  C862     1.0000 0.80269  0.96710  0.59152  Biso   1.000  C
  C863     1.0000 0.68071  0.95831  0.54539  Biso   1.000  C
  H1163    1.0000 0.72850  0.02668  0.55080  Biso   1.000  H
  H1164    1.0000 0.68100  0.04942  0.41589  Biso   1.000  H
  H1165    1.0000 0.68079  0.07582  0.47442  Biso   1.000  H
  C864     1.0000 0.63060  0.00700  0.47010  Biso   1.000  C
  C865     1.0000 0.19731  0.96710  0.40848  Biso   1.000  C
  C866     1.0000 0.14020  0.88620  0.43712  Biso   1.000  C
  C867     1.0000 0.09152  0.80269  0.46710  Biso   1.000  C
  C868     1.0000 0.09741  0.14952  0.57122  Biso   1.000  C
  H1166    1.0000 0.11600  0.22619  0.54409  Biso   1.000  H
  H1167    1.0000 0.10168  0.18620  0.49650  Biso   1.000  H
  H1168    1.0000 0.08411  0.31900  0.54942  Biso   1.000  H
  H1169    1.0000 0.02558  0.31921  0.57582  Biso   1.000  H
  C869     1.0000 0.02990  0.36940  0.50700  Biso   1.000  C
  H1170    1.0000 0.96140  0.40230  0.47311  Biso   1.000  H
  H1171    1.0000 0.94891  0.36932  0.52632  Biso   1.000  H
  C870     1.0000 0.85048  0.92878  0.59741  Biso   1.000  C
  H1172    1.0000 0.77381  0.95591  0.61600  Biso   1.000  H
  H1173    1.0000 0.81380  0.00350  0.60168  Biso   1.000  H
  H1174    1.0000 0.68100  0.95058  0.58411  Biso   1.000  H
  H1175    1.0000 0.68079  0.92418  0.52558  Biso   1.000  H
  C871     1.0000 0.63060  0.99300  0.52990  Biso   1.000  C
  H1176    1.0000 0.63068  0.97368  0.44891  Biso   1.000  H
  H1177    1.0000 0.59770  0.02689  0.46140  Biso   1.000  H
  N139     1.0000 0.21789  0.96779  0.46380  Biso   1.000  N
  H1178    1.0000 0.18620  0.00350  0.39832  Biso   1.000  H
  H1179    1.0000 0.22619  0.95591  0.38400  Biso   1.000  H
  H1180    1.0000 0.16318  0.88099  0.46669  Biso   1.000  H
  N140     1.0000 0.03620  0.78211  0.46779  Biso   1.000  N
  H1181    1.0000 0.11600  0.77381  0.45591  Biso   1.000  H
  H1182    1.0000 0.10168  0.81380  0.50350  Biso   1.000  H
  C872     1.0000 0.14020  0.11380  0.56288  Biso   1.000  C
  C873     1.0000 0.06288  0.14020  0.61380  Biso   1.000  C
  H1183    1.0000 0.03860  0.40230  0.52689  Biso   1.000  H
  H1184    1.0000 0.05109  0.36932  0.47368  Biso   1.000  H
  C874     1.0000 0.88620  0.93712  0.64020  Biso   1.000  C
  C875     1.0000 0.85980  0.88620  0.56288  Biso   1.000  C
  H1185    1.0000 0.59770  0.97311  0.53860  Biso   1.000  H
  H1186    1.0000 0.63068  0.02632  0.55109  Biso   1.000  H
  C876     1.0000 0.18271  0.00000  0.50000  Biso   1.000  C
  C877     1.0000 0.27068  0.99300  0.47039  Biso   1.000  C
  C878     1.0000 0.00000  0.81729  0.50000  Biso   1.000  C
  C879     1.0000 0.02961  0.72932  0.49300  Biso   1.000  C
  H1187    1.0000 0.16318  0.11901  0.53331  Biso   1.000  H
  C880     1.0000 0.14952  0.07122  0.59741  Biso   1.000  C
  C881     1.0000 0.07122  0.09741  0.64952  Biso   1.000  C
  H1188    1.0000 0.03331  0.16318  0.61901  Biso   1.000  H
  C882     1.0000 0.92878  0.90259  0.64952  Biso   1.000  C
  H1189    1.0000 0.88099  0.96669  0.66318  Biso   1.000  H
  C883     1.0000 0.90259  0.85048  0.57122  Biso   1.000  C
  H1190    1.0000 0.83682  0.88099  0.53331  Biso   1.000  H
  N141     1.0000 0.21789  0.03221  0.53620  Biso   1.000  N
  H1191    1.0000 0.15968  0.02392  0.47869  Biso   1.000  H
  H1192    1.0000 0.15968  0.97608  0.52131  Biso   1.000  H
  C884     1.0000 0.27068  0.00700  0.52961  Biso   1.000  C
  H1193    1.0000 0.27150  0.02668  0.44920  Biso   1.000  H
  C885     1.0000 0.31929  0.95831  0.45461  Biso   1.000  C
  N142     1.0000 0.96380  0.78211  0.53221  Biso   1.000  N
  H1194    1.0000 0.97869  0.84032  0.47608  Biso   1.000  H
  H1195    1.0000 0.02131  0.84032  0.52392  Biso   1.000  H
  C886     1.0000 0.97039  0.72932  0.50700  Biso   1.000  C
  H1196    1.0000 0.05080  0.72850  0.52668  Biso   1.000  H
  C887     1.0000 0.04539  0.68071  0.45831  Biso   1.000  C
  C888     1.0000 0.11380  0.06288  0.64020  Biso   1.000  C
  C889     1.0000 0.19731  0.03290  0.59152  Biso   1.000  C
  C890     1.0000 0.03290  0.09152  0.69731  Biso   1.000  C
  C891     1.0000 0.96710  0.90848  0.69731  Biso   1.000  C
  C892     1.0000 0.93712  0.85980  0.61380  Biso   1.000  C
  C893     1.0000 0.90848  0.80269  0.53290  Biso   1.000  C
  C894     1.0000 0.31929  0.04169  0.54539  Biso   1.000  C
  H1197    1.0000 0.27150  0.97332  0.55080  Biso   1.000  H
  C895     1.0000 0.36940  0.99300  0.47010  Biso   1.000  C
  H1198    1.0000 0.31900  0.95058  0.41589  Biso   1.000  H
  H1199    1.0000 0.31921  0.92418  0.47442  Biso   1.000  H
  H1200    1.0000 0.94920  0.72850  0.47332  Biso   1.000  H
  C896     1.0000 0.95461  0.68071  0.54169  Biso   1.000  C
  H1201    1.0000 0.08411  0.68100  0.45058  Biso   1.000  H
  H1202    1.0000 0.02558  0.68079  0.42418  Biso   1.000  H
  C897     1.0000 0.02990  0.63060  0.49300  Biso   1.000  C
  H1203    1.0000 0.11901  0.03331  0.66318  Biso   1.000  H
  H1204    1.0000 0.22619  0.04409  0.61600  Biso   1.000  H
  H1205    1.0000 0.18620  0.99650  0.60168  Biso   1.000  H
  N143     1.0000 0.03221  0.03620  0.71789  Biso   1.000  N
  H1206    1.0000 0.04409  0.11600  0.72619  Biso   1.000  H
  H1207    1.0000 0.99650  0.10168  0.68620  Biso   1.000  H
  N144     1.0000 0.96779  0.96380  0.71789  Biso   1.000  N
  H1208    1.0000 0.95591  0.88400  0.72619  Biso   1.000  H
  H1209    1.0000 0.00350  0.89832  0.68620  Biso   1.000  H
  H1210    1.0000 0.96669  0.83682  0.61901  Biso   1.000  H
  H1211    1.0000 0.88400  0.77381  0.54409  Biso   1.000  H
  H1212    1.0000 0.89832  0.81380  0.49650  Biso   1.000  H
  H1213    1.0000 0.31900  0.04942  0.58411  Biso   1.000  H
  H1214    1.0000 0.31921  0.07582  0.52558  Biso   1.000  H
  C898     1.0000 0.36940  0.00700  0.52990  Biso   1.000  C
  H1215    1.0000 0.36932  0.02632  0.44891  Biso   1.000  H
  H1216    1.0000 0.40230  0.97311  0.46140  Biso   1.000  H
  H1217    1.0000 0.91589  0.68100  0.54942  Biso   1.000  H
  H1218    1.0000 0.97442  0.68079  0.57582  Biso   1.000  H
  C899     1.0000 0.97010  0.63060  0.50700  Biso   1.000  C
  H1219    1.0000 0.03860  0.59770  0.47311  Biso   1.000  H
  H1220    1.0000 0.05109  0.63068  0.52632  Biso   1.000  H
  C900     1.0000 0.00000  0.00000  0.68271  Biso   1.000  C
  C901     1.0000 0.00700  0.02961  0.77068  Biso   1.000  C
  C902     1.0000 0.99300  0.97039  0.77068  Biso   1.000  C
  H1221    1.0000 0.40230  0.02689  0.53860  Biso   1.000  H
  H1222    1.0000 0.36932  0.97368  0.55109  Biso   1.000  H
  H1223    1.0000 0.96140  0.59770  0.52689  Biso   1.000  H
  H1224    1.0000 0.94891  0.63068  0.47368  Biso   1.000  H
  H1225    1.0000 0.97608  0.02131  0.65968  Biso   1.000  H
  H1226    1.0000 0.02392  0.97869  0.65968  Biso   1.000  H
  C903     1.0000 0.04169  0.04539  0.81929  Biso   1.000  C
  H1227    1.0000 0.97332  0.05080  0.77150  Biso   1.000  H
  C904     1.0000 0.95831  0.95461  0.81929  Biso   1.000  C
  H1228    1.0000 0.02668  0.94920  0.77150  Biso   1.000  H
  H1229    1.0000 0.04942  0.08411  0.81900  Biso   1.000  H
  H1230    1.0000 0.07582  0.02558  0.81921  Biso   1.000  H
  C905     1.0000 0.00700  0.02990  0.86940  Biso   1.000  C
  C906     1.0000 0.99300  0.97010  0.86940  Biso   1.000  C
  H1231    1.0000 0.95058  0.91589  0.81900  Biso   1.000  H
  H1232    1.0000 0.92418  0.97442  0.81921  Biso   1.000  H
  H1233    1.0000 0.02689  0.03860  0.90230  Biso   1.000  H
  H1234    1.0000 0.97368  0.05109  0.86932  Biso   1.000  H
  H1235    1.0000 0.97311  0.96140  0.90230  Biso   1.000  H
  H1236    1.0000 0.02632  0.94891  0.86932  Biso   1.000  H
  C907     1.0000 0.96710  0.09152  0.30269  Biso   1.000  C
  C908     1.0000 0.92878  0.09741  0.35048  Biso   1.000  C
  H1237    1.0000 0.00350  0.10168  0.31380  Biso   1.000  H
  N145     1.0000 0.96779  0.03620  0.28211  Biso   1.000  N
  H1238    1.0000 0.95591  0.11600  0.27381  Biso   1.000  H
  C909     1.0000 0.93712  0.14020  0.38620  Biso   1.000  C
  C910     1.0000 0.88620  0.06288  0.35980  Biso   1.000  C
  C911     1.0000 0.00000  0.00000  0.31729  Biso   1.000  C
  C912     1.0000 0.99300  0.02961  0.22932  Biso   1.000  C
  C913     1.0000 0.90259  0.14952  0.42878  Biso   1.000  C
  H1239    1.0000 0.96669  0.16318  0.38099  Biso   1.000  H
  C914     1.0000 0.85048  0.07122  0.40259  Biso   1.000  C
  H1240    1.0000 0.88099  0.03331  0.33682  Biso   1.000  H
  H1241    1.0000 0.02392  0.02131  0.34032  Biso   1.000  H
  H1242    1.0000 0.97608  0.97869  0.34032  Biso   1.000  H
  N146     1.0000 0.03221  0.96380  0.28211  Biso   1.000  N
  H1243    1.0000 0.02668  0.05080  0.22850  Biso   1.000  H
  C915     1.0000 0.95831  0.04539  0.18071  Biso   1.000  C
  C916     1.0000 0.00700  0.97039  0.22932  Biso   1.000  C
  C917     1.0000 0.90848  0.19731  0.46710  Biso   1.000  C
  C918     1.0000 0.85980  0.11380  0.43712  Biso   1.000  C
  C919     1.0000 0.80269  0.03290  0.40848  Biso   1.000  C
  C920     1.0000 0.03290  0.90848  0.30269  Biso   1.000  C
  H1244    1.0000 0.95058  0.08411  0.18100  Biso   1.000  H
  H1245    1.0000 0.92418  0.02558  0.18079  Biso   1.000  H
  C921     1.0000 0.99300  0.02990  0.13060  Biso   1.000  C
  H1246    1.0000 0.97332  0.94920  0.22850  Biso   1.000  H
  C922     1.0000 0.04169  0.95461  0.18071  Biso   1.000  C
  N147     1.0000 0.96380  0.21789  0.46779  Biso   1.000  N
  H1247    1.0000 0.88400  0.22619  0.45591  Biso   1.000  H
  H1248    1.0000 0.89832  0.18620  0.50350  Biso   1.000  H
  H1249    1.0000 0.83682  0.11901  0.46669  Biso   1.000  H
  H1250    1.0000 0.81380  0.99650  0.39832  Biso   1.000  H
  N148     1.0000 0.78211  0.03221  0.46380  Biso   1.000  N
  H1251    1.0000 0.77381  0.04409  0.38400  Biso   1.000  H
  C923     1.0000 0.07122  0.90259  0.35048  Biso   1.000  C
  H1252    1.0000 0.99650  0.89832  0.31380  Biso   1.000  H
  H1253    1.0000 0.04409  0.88400  0.27381  Biso   1.000  H
  H1254    1.0000 0.02632  0.05109  0.13068  Biso   1.000  H
  H1255    1.0000 0.97311  0.03860  0.09770  Biso   1.000  H
  C924     1.0000 0.00700  0.97010  0.13060  Biso   1.000  C
  H1256    1.0000 0.04942  0.91589  0.18100  Biso   1.000  H
  H1257    1.0000 0.07582  0.97442  0.18079  Biso   1.000  H
  C925     1.0000 0.00000  0.18271  0.50000  Biso   1.000  C
  C926     1.0000 0.97039  0.27068  0.49300  Biso   1.000  C
  C927     1.0000 0.81729  0.00000  0.50000  Biso   1.000  C
  C928     1.0000 0.72932  0.00700  0.47039  Biso   1.000  C
  C929     1.0000 0.11380  0.93712  0.35980  Biso   1.000  C
  C930     1.0000 0.06288  0.85980  0.38620  Biso   1.000  C
  H1258    1.0000 0.97368  0.94891  0.13068  Biso   1.000  H
  H1259    1.0000 0.02689  0.96140  0.09770  Biso   1.000  H
  N149     1.0000 0.03620  0.21789  0.53221  Biso   1.000  N
  H1260    1.0000 0.02131  0.15968  0.47608  Biso   1.000  H
  H1261    1.0000 0.97869  0.15968  0.52392  Biso   1.000  H
  C931     1.0000 0.02961  0.27068  0.50700  Biso   1.000  C
  H1262    1.0000 0.94920  0.27150  0.52668  Biso   1.000  H
  C932     1.0000 0.95461  0.31929  0.45831  Biso   1.000  C
  N150     1.0000 0.78211  0.96779  0.53620  Biso   1.000  N
  H1263    1.0000 0.84032  0.97608  0.47869  Biso   1.000  H
  H1264    1.0000 0.84032  0.02392  0.52131  Biso   1.000  H
  C933     1.0000 0.72932  0.99300  0.52961  Biso   1.000  C
  H1265    1.0000 0.72850  0.97332  0.44920  Biso   1.000  H
  C934     1.0000 0.68071  0.04169  0.45461  Biso   1.000  C
  C935     1.0000 0.14952  0.92878  0.40259  Biso   1.000  C
  H1266    1.0000 0.11901  0.96669  0.33682  Biso   1.000  H
  C936     1.0000 0.09741  0.85048  0.42878  Biso   1.000  C
  H1267    1.0000 0.03331  0.83682  0.38099  Biso   1.000  H
  C937     1.0000 0.09152  0.19731  0.53290  Biso   1.000  C
  H1268    1.0000 0.05080  0.27150  0.47332  Biso   1.000  H
  C938     1.0000 0.04539  0.31929  0.54169  Biso   1.000  C
  C939     1.0000 0.97010  0.36940  0.49300  Biso   1.000  C
  H1269    1.0000 0.91589  0.31900  0.45058  Biso   1.000  H
  H1270    1.0000 0.97442  0.31921  0.42418  Biso   1.000  H
  C940     1.0000 0.80269  0.96710  0.59152  Biso   1.000  C
  C941     1.0000 0.68071  0.95831  0.54539  Biso   1.000  C
  H1271    1.0000 0.72850  0.02668  0.55080  Biso   1.000  H
  H1272    1.0000 0.68100  0.04942  0.41589  Biso   1.000  H
  H1273    1.0000 0.68079  0.07582  0.47442  Biso   1.000  H
  C942     1.0000 0.63060  0.00700  0.47010  Biso   1.000  C
  C943     1.0000 0.19731  0.96710  0.40848  Biso   1.000  C
  C944     1.0000 0.14020  0.88620  0.43712  Biso   1.000  C
  C945     1.0000 0.09152  0.80269  0.46710  Biso   1.000  C
  C946     1.0000 0.09741  0.14952  0.57122  Biso   1.000  C
  H1274    1.0000 0.11600  0.22619  0.54409  Biso   1.000  H
  H1275    1.0000 0.10168  0.18620  0.49650  Biso   1.000  H
  H1276    1.0000 0.08411  0.31900  0.54942  Biso   1.000  H
  H1277    1.0000 0.02558  0.31921  0.57582  Biso   1.000  H
  C947     1.0000 0.02990  0.36940  0.50700  Biso   1.000  C
  H1278    1.0000 0.96140  0.40230  0.47311  Biso   1.000  H
  H1279    1.0000 0.94891  0.36932  0.52632  Biso   1.000  H
  C948     1.0000 0.85048  0.92878  0.59741  Biso   1.000  C
  H1280    1.0000 0.77381  0.95591  0.61600  Biso   1.000  H
  H1281    1.0000 0.81380  0.00350  0.60168  Biso   1.000  H
  H1282    1.0000 0.68100  0.95058  0.58411  Biso   1.000  H
  H1283    1.0000 0.68079  0.92418  0.52558  Biso   1.000  H
  C949     1.0000 0.63060  0.99300  0.52990  Biso   1.000  C
  H1284    1.0000 0.63068  0.97368  0.44891  Biso   1.000  H
  H1285    1.0000 0.59770  0.02689  0.46140  Biso   1.000  H
  N151     1.0000 0.21789  0.96779  0.46380  Biso   1.000  N
  H1286    1.0000 0.18620  0.00350  0.39832  Biso   1.000  H
  H1287    1.0000 0.22619  0.95591  0.38400  Biso   1.000  H
  H1288    1.0000 0.16318  0.88099  0.46669  Biso   1.000  H
  N152     1.0000 0.03620  0.78211  0.46779  Biso   1.000  N
  H1289    1.0000 0.11600  0.77381  0.45591  Biso   1.000  H
  H1290    1.0000 0.10168  0.81380  0.50350  Biso   1.000  H
  C950     1.0000 0.14020  0.11380  0.56288  Biso   1.000  C
  C951     1.0000 0.06288  0.14020  0.61380  Biso   1.000  C
  H1291    1.0000 0.03860  0.40230  0.52689  Biso   1.000  H
  H1292    1.0000 0.05109  0.36932  0.47368  Biso   1.000  H
  C952     1.0000 0.88620  0.93712  0.64020  Biso   1.000  C
  C953     1.0000 0.85980  0.88620  0.56288  Biso   1.000  C
  H1293    1.0000 0.59770  0.97311  0.53860  Biso   1.000  H
  H1294    1.0000 0.63068  0.02632  0.55109  Biso   1.000  H
  C954     1.0000 0.18271  0.00000  0.50000  Biso   1.000  C
  C955     1.0000 0.27068  0.99300  0.47039  Biso   1.000  C
  C956     1.0000 0.00000  0.81729  0.50000  Biso   1.000  C
  C957     1.0000 0.02961  0.72932  0.49300  Biso   1.000  C
  H1295    1.0000 0.16318  0.11901  0.53331  Biso   1.000  H
  C958     1.0000 0.14952  0.07122  0.59741  Biso   1.000  C
  C959     1.0000 0.07122  0.09741  0.64952  Biso   1.000  C
  H1296    1.0000 0.03331  0.16318  0.61901  Biso   1.000  H
  C960     1.0000 0.92878  0.90259  0.64952  Biso   1.000  C
  H1297    1.0000 0.88099  0.96669  0.66318  Biso   1.000  H
  C961     1.0000 0.90259  0.85048  0.57122  Biso   1.000  C
  H1298    1.0000 0.83682  0.88099  0.53331  Biso   1.000  H
  N153     1.0000 0.21789  0.03221  0.53620  Biso   1.000  N
  H1299    1.0000 0.15968  0.02392  0.47869  Biso   1.000  H
  H1300    1.0000 0.15968  0.97608  0.52131  Biso   1.000  H
  C962     1.0000 0.27068  0.00700  0.52961  Biso   1.000  C
  H1301    1.0000 0.27150  0.02668  0.44920  Biso   1.000  H
  C963     1.0000 0.31929  0.95831  0.45461  Biso   1.000  C
  N154     1.0000 0.96380  0.78211  0.53221  Biso   1.000  N
  H1302    1.0000 0.97869  0.84032  0.47608  Biso   1.000  H
  H1303    1.0000 0.02131  0.84032  0.52392  Biso   1.000  H
  C964     1.0000 0.97039  0.72932  0.50700  Biso   1.000  C
  H1304    1.0000 0.05080  0.72850  0.52668  Biso   1.000  H
  C965     1.0000 0.04539  0.68071  0.45831  Biso   1.000  C
  C966     1.0000 0.11380  0.06288  0.64020  Biso   1.000  C
  C967     1.0000 0.19731  0.03290  0.59152  Biso   1.000  C
  C968     1.0000 0.03290  0.09152  0.69731  Biso   1.000  C
  C969     1.0000 0.96710  0.90848  0.69731  Biso   1.000  C
  C970     1.0000 0.93712  0.85980  0.61380  Biso   1.000  C
  C971     1.0000 0.90848  0.80269  0.53290  Biso   1.000  C
  C972     1.0000 0.31929  0.04169  0.54539  Biso   1.000  C
  H1305    1.0000 0.27150  0.97332  0.55080  Biso   1.000  H
  C973     1.0000 0.36940  0.99300  0.47010  Biso   1.000  C
  H1306    1.0000 0.31900  0.95058  0.41589  Biso   1.000  H
  H1307    1.0000 0.31921  0.92418  0.47442  Biso   1.000  H
  H1308    1.0000 0.94920  0.72850  0.47332  Biso   1.000  H
  C974     1.0000 0.95461  0.68071  0.54169  Biso   1.000  C
  H1309    1.0000 0.08411  0.68100  0.45058  Biso   1.000  H
  H1310    1.0000 0.02558  0.68079  0.42418  Biso   1.000  H
  C975     1.0000 0.02990  0.63060  0.49300  Biso   1.000  C
  H1311    1.0000 0.11901  0.03331  0.66318  Biso   1.000  H
  H1312    1.0000 0.22619  0.04409  0.61600  Biso   1.000  H
  H1313    1.0000 0.18620  0.99650  0.60168  Biso   1.000  H
  N155     1.0000 0.03221  0.03620  0.71789  Biso   1.000  N
  H1314    1.0000 0.04409  0.11600  0.72619  Biso   1.000  H
  H1315    1.0000 0.99650  0.10168  0.68620  Biso   1.000  H
  N156     1.0000 0.96779  0.96380  0.71789  Biso   1.000  N
  H1316    1.0000 0.95591  0.88400  0.72619  Biso   1.000  H
  H1317    1.0000 0.00350  0.89832  0.68620  Biso   1.000  H
  H1318    1.0000 0.96669  0.83682  0.61901  Biso   1.000  H
  H1319    1.0000 0.88400  0.77381  0.54409  Biso   1.000  H
  H1320    1.0000 0.89832  0.81380  0.49650  Biso   1.000  H
  H1321    1.0000 0.31900  0.04942  0.58411  Biso   1.000  H
  H1322    1.0000 0.31921  0.07582  0.52558  Biso   1.000  H
  C976     1.0000 0.36940  0.00700  0.52990  Biso   1.000  C
  H1323    1.0000 0.36932  0.02632  0.44891  Biso   1.000  H
  H1324    1.0000 0.40230  0.97311  0.46140  Biso   1.000  H
  H1325    1.0000 0.91589  0.68100  0.54942  Biso   1.000  H
  H1326    1.0000 0.97442  0.68079  0.57582  Biso   1.000  H
  C977     1.0000 0.97010  0.63060  0.50700  Biso   1.000  C
  H1327    1.0000 0.03860  0.59770  0.47311  Biso   1.000  H
  H1328    1.0000 0.05109  0.63068  0.52632  Biso   1.000  H
  C978     1.0000 0.00000  0.00000  0.68271  Biso   1.000  C
  C979     1.0000 0.00700  0.02961  0.77068  Biso   1.000  C
  C980     1.0000 0.99300  0.97039  0.77068  Biso   1.000  C
  H1329    1.0000 0.40230  0.02689  0.53860  Biso   1.000  H
  H1330    1.0000 0.36932  0.97368  0.55109  Biso   1.000  H
  H1331    1.0000 0.96140  0.59770  0.52689  Biso   1.000  H
  H1332    1.0000 0.94891  0.63068  0.47368  Biso   1.000  H
  H1333    1.0000 0.97608  0.02131  0.65968  Biso   1.000  H
  H1334    1.0000 0.02392  0.97869  0.65968  Biso   1.000  H
  C981     1.0000 0.04169  0.04539  0.81929  Biso   1.000  C
  H1335    1.0000 0.97332  0.05080  0.77150  Biso   1.000  H
  C982     1.0000 0.95831  0.95461  0.81929  Biso   1.000  C
  H1336    1.0000 0.02668  0.94920  0.77150  Biso   1.000  H
  H1337    1.0000 0.04942  0.08411  0.81900  Biso   1.000  H
  H1338    1.0000 0.07582  0.02558  0.81921  Biso   1.000  H
  C983     1.0000 0.00700  0.02990  0.86940  Biso   1.000  C
  C984     1.0000 0.99300  0.97010  0.86940  Biso   1.000  C
  H1339    1.0000 0.95058  0.91589  0.81900  Biso   1.000  H
  H1340    1.0000 0.92418  0.97442  0.81921  Biso   1.000  H
  H1341    1.0000 0.02689  0.03860  0.90230  Biso   1.000  H
  H1342    1.0000 0.97368  0.05109  0.86932  Biso   1.000  H
  H1343    1.0000 0.97311  0.96140  0.90230  Biso   1.000  H
  H1344    1.0000 0.02632  0.94891  0.86932  Biso   1.000  H
  C985     1.0000 0.53290  0.40848  0.30269  Biso   1.000  C
  N157     1.0000 0.53221  0.46380  0.28211  Biso   1.000  N
  C986     1.0000 0.57122  0.40259  0.35048  Biso   1.000  C
  H1345    1.0000 0.54409  0.38400  0.27381  Biso   1.000  H
  H1346    1.0000 0.49650  0.39832  0.31380  Biso   1.000  H
  C987     1.0000 0.50000  0.50000  0.31729  Biso   1.000  C
  C988     1.0000 0.50700  0.47039  0.22932  Biso   1.000  C
  C989     1.0000 0.56288  0.35980  0.38620  Biso   1.000  C
  C990     1.0000 0.61380  0.43712  0.35980  Biso   1.000  C
  H1347    1.0000 0.52392  0.52131  0.34032  Biso   1.000  H
  N158     1.0000 0.46779  0.53620  0.28211  Biso   1.000  N
  H1348    1.0000 0.47608  0.47869  0.34032  Biso   1.000  H
  H1349    1.0000 0.47332  0.44920  0.22850  Biso   1.000  H
  C991     1.0000 0.54169  0.45461  0.18071  Biso   1.000  C
  C992     1.0000 0.49300  0.52961  0.22932  Biso   1.000  C
  H1350    1.0000 0.53331  0.33682  0.38099  Biso   1.000  H
  C993     1.0000 0.59741  0.35048  0.42878  Biso   1.000  C
  H1351    1.0000 0.61901  0.46669  0.33682  Biso   1.000  H
  C994     1.0000 0.64952  0.42878  0.40259  Biso   1.000  C
  C995     1.0000 0.46710  0.59152  0.30269  Biso   1.000  C
  H1352    1.0000 0.54942  0.41589  0.18100  Biso   1.000  H
  H1353    1.0000 0.57582  0.47442  0.18079  Biso   1.000  H
  C996     1.0000 0.50700  0.47010  0.13060  Biso   1.000  C
  H1354    1.0000 0.52668  0.55080  0.22850  Biso   1.000  H
  C997     1.0000 0.45831  0.54539  0.18071  Biso   1.000  C
  C998     1.0000 0.59152  0.30269  0.46710  Biso   1.000  C
  C999     1.0000 0.64020  0.38620  0.43712  Biso   1.000  C
  C1000    1.0000 0.69731  0.46710  0.40848  Biso   1.000  C
  C1001    1.0000 0.42878  0.59741  0.35048  Biso   1.000  C
  H1355    1.0000 0.45591  0.61600  0.27381  Biso   1.000  H
  H1356    1.0000 0.50350  0.60168  0.31380  Biso   1.000  H
  H1357    1.0000 0.52689  0.46140  0.09770  Biso   1.000  H
  H1358    1.0000 0.47368  0.44891  0.13068  Biso   1.000  H
  C1002    1.0000 0.49300  0.52990  0.13060  Biso   1.000  C
  H1359    1.0000 0.45058  0.58411  0.18100  Biso   1.000  H
  H1360    1.0000 0.42418  0.52558  0.18079  Biso   1.000  H
  N159     1.0000 0.53620  0.28211  0.46779  Biso   1.000  N
  H1361    1.0000 0.61600  0.27381  0.45591  Biso   1.000  H
  H1362    1.0000 0.60168  0.31380  0.50350  Biso   1.000  H
  H1363    1.0000 0.66318  0.38099  0.46669  Biso   1.000  H
  N160     1.0000 0.71789  0.46779  0.46380  Biso   1.000  N
  H1364    1.0000 0.72619  0.45591  0.38400  Biso   1.000  H
  H1365    1.0000 0.68620  0.50350  0.39832  Biso   1.000  H
  C1003    1.0000 0.38620  0.56288  0.35980  Biso   1.000  C
  C1004    1.0000 0.43712  0.64020  0.38620  Biso   1.000  C
  H1366    1.0000 0.47311  0.53860  0.09770  Biso   1.000  H
  H1367    1.0000 0.52632  0.55109  0.13068  Biso   1.000  H
  C1005    1.0000 0.50000  0.31729  0.50000  Biso   1.000  C
  C1006    1.0000 0.52961  0.22932  0.49300  Biso   1.000  C
  C1007    1.0000 0.68271  0.50000  0.50000  Biso   1.000  C
  C1008    1.0000 0.77068  0.49300  0.47039  Biso   1.000  C
  C1009    1.0000 0.35048  0.57122  0.40259  Biso   1.000  C
  H1368    1.0000 0.38099  0.53331  0.33682  Biso   1.000  H
  H1369    1.0000 0.46669  0.66318  0.38099  Biso   1.000  H
  C1010    1.0000 0.40259  0.64952  0.42878  Biso   1.000  C
  N161     1.0000 0.46380  0.28211  0.53221  Biso   1.000  N
  H1370    1.0000 0.52131  0.34032  0.52392  Biso   1.000  H
  H1371    1.0000 0.47869  0.34032  0.47608  Biso   1.000  H
  C1011    1.0000 0.47039  0.22932  0.50700  Biso   1.000  C
  H1372    1.0000 0.55080  0.22850  0.52668  Biso   1.000  H
  C1012    1.0000 0.54539  0.18071  0.45831  Biso   1.000  C
  H1373    1.0000 0.65968  0.47608  0.52131  Biso   1.000  H
  N162     1.0000 0.71789  0.53221  0.53620  Biso   1.000  N
  H1374    1.0000 0.65968  0.52392  0.47869  Biso   1.000  H
  H1375    1.0000 0.77150  0.52668  0.44920  Biso   1.000  H
  C1013    1.0000 0.81929  0.45831  0.45461  Biso   1.000  C
  C1014    1.0000 0.77068  0.50700  0.52961  Biso   1.000  C
  C1015    1.0000 0.35980  0.61380  0.43712  Biso   1.000  C
  C1016    1.0000 0.30269  0.53290  0.40848  Biso   1.000  C
  C1017    1.0000 0.40848  0.69731  0.46710  Biso   1.000  C
  C1018    1.0000 0.40848  0.30269  0.53290  Biso   1.000  C
  H1376    1.0000 0.44920  0.22850  0.47332  Biso   1.000  H
  C1019    1.0000 0.45461  0.18071  0.54169  Biso   1.000  C
  H1377    1.0000 0.58411  0.18100  0.45058  Biso   1.000  H
  H1378    1.0000 0.52558  0.18079  0.42418  Biso   1.000  H
  C1020    1.0000 0.52990  0.13060  0.49300  Biso   1.000  C
  C1021    1.0000 0.69731  0.53290  0.59152  Biso   1.000  C
  H1379    1.0000 0.81900  0.45058  0.41589  Biso   1.000  H
  H1380    1.0000 0.81921  0.42418  0.47442  Biso   1.000  H
  C1022    1.0000 0.86940  0.49300  0.47010  Biso   1.000  C
  H1381    1.0000 0.77150  0.47332  0.55080  Biso   1.000  H
  C1023    1.0000 0.81929  0.54169  0.54539  Biso   1.000  C
  H1382    1.0000 0.33682  0.61901  0.46669  Biso   1.000  H
  N163     1.0000 0.28211  0.53221  0.46380  Biso   1.000  N
  H1383    1.0000 0.27381  0.54409  0.38400  Biso   1.000  H
  H1384    1.0000 0.31380  0.49650  0.39832  Biso   1.000  H
  N164     1.0000 0.46380  0.71789  0.46779  Biso   1.000  N
  H1385    1.0000 0.38400  0.72619  0.45591  Biso   1.000  H
  H1386    1.0000 0.39832  0.68620  0.50350  Biso   1.000  H
  C1024    1.0000 0.40259  0.35048  0.57122  Biso   1.000  C
  H1387    1.0000 0.38400  0.27381  0.54409  Biso   1.000  H
  H1388    1.0000 0.39832  0.31380  0.49650  Biso   1.000  H
  H1389    1.0000 0.41589  0.18100  0.54942  Biso   1.000  H
  H1390    1.0000 0.47442  0.18079  0.57582  Biso   1.000  H
  C1025    1.0000 0.47010  0.13060  0.50700  Biso   1.000  C
  H1391    1.0000 0.53860  0.09770  0.47311  Biso   1.000  H
  H1392    1.0000 0.55109  0.13068  0.52632  Biso   1.000  H
  C1026    1.0000 0.64952  0.57122  0.59741  Biso   1.000  C
  H1393    1.0000 0.72619  0.54409  0.61600  Biso   1.000  H
  H1394    1.0000 0.68620  0.49650  0.60168  Biso   1.000  H
  H1395    1.0000 0.90230  0.47311  0.46140  Biso   1.000  H
  H1396    1.0000 0.86932  0.52632  0.44891  Biso   1.000  H
  C1027    1.0000 0.86940  0.50700  0.52990  Biso   1.000  C
  H1397    1.0000 0.81900  0.54942  0.58411  Biso   1.000  H
  H1398    1.0000 0.81921  0.57582  0.52558  Biso   1.000  H
  C1028    1.0000 0.31729  0.50000  0.50000  Biso   1.000  C
  C1029    1.0000 0.22932  0.50700  0.47039  Biso   1.000  C
  C1030    1.0000 0.50000  0.68271  0.50000  Biso   1.000  C
  C1031    1.0000 0.47039  0.77068  0.49300  Biso   1.000  C
  C1032    1.0000 0.43712  0.35980  0.61380  Biso   1.000  C
  C1033    1.0000 0.35980  0.38620  0.56288  Biso   1.000  C
  H1399    1.0000 0.46140  0.09770  0.52689  Biso   1.000  H
  H1400    1.0000 0.44891  0.13068  0.47368  Biso   1.000  H
  C1034    1.0000 0.61380  0.56288  0.64020  Biso   1.000  C
  C1035    1.0000 0.64020  0.61380  0.56288  Biso   1.000  C
  H1401    1.0000 0.90230  0.52689  0.53860  Biso   1.000  H
  H1402    1.0000 0.86932  0.47368  0.55109  Biso   1.000  H
  N165     1.0000 0.28211  0.46779  0.53620  Biso   1.000  N
  H1403    1.0000 0.34032  0.47608  0.47869  Biso   1.000  H
  H1404    1.0000 0.34032  0.52392  0.52131  Biso   1.000  H
  C1036    1.0000 0.22932  0.49300  0.52961  Biso   1.000  C
  H1405    1.0000 0.22850  0.47332  0.44920  Biso   1.000  H
  C1037    1.0000 0.18071  0.54169  0.45461  Biso   1.000  C
  N166     1.0000 0.53620  0.71789  0.53221  Biso   1.000  N
  H1406    1.0000 0.47869  0.65968  0.52392  Biso   1.000  H
  H1407    1.0000 0.52131  0.65968  0.47608  Biso   1.000  H
  C1038    1.0000 0.52961  0.77068  0.50700  Biso   1.000  C
  H1408    1.0000 0.44920  0.77150  0.52668  Biso   1.000  H
  C1039    1.0000 0.45461  0.81929  0.45831  Biso   1.000  C
  H1409    1.0000 0.46669  0.33682  0.61901  Biso   1.000  H
  C1040    1.0000 0.42878  0.40259  0.64952  Biso   1.000  C
  H1410    1.0000 0.33682  0.38099  0.53331  Biso   1.000  H
  C1041    1.0000 0.35048  0.42878  0.59741  Biso   1.000  C
  H1411    1.0000 0.61901  0.53331  0.66318  Biso   1.000  H
  C1042    1.0000 0.57122  0.59741  0.64952  Biso   1.000  C
  H1412    1.0000 0.66318  0.61901  0.53331  Biso   1.000  H
  C1043    1.0000 0.59741  0.64952  0.57122  Biso   1.000  C
  C1044    1.0000 0.30269  0.46710  0.59152  Biso   1.000  C
  H1413    1.0000 0.22850  0.52668  0.55080  Biso   1.000  H
  C1045    1.0000 0.18071  0.45831  0.54539  Biso   1.000  C
  H1414    1.0000 0.18100  0.54942  0.41589  Biso   1.000  H
  H1415    1.0000 0.18079  0.57582  0.47442  Biso   1.000  H
  C1046    1.0000 0.13060  0.50700  0.47010  Biso   1.000  C
  C1047    1.0000 0.59152  0.69731  0.53290  Biso   1.000  C
  H1416    1.0000 0.55080  0.77150  0.47332  Biso   1.000  H
  C1048    1.0000 0.54539  0.81929  0.54169  Biso   1.000  C
  H1417    1.0000 0.41589  0.81900  0.45058  Biso   1.000  H
  H1418    1.0000 0.47442  0.81921  0.42418  Biso   1.000  H
  C1049    1.0000 0.47010  0.86940  0.49300  Biso   1.000  C
  C1050    1.0000 0.38620  0.43712  0.64020  Biso   1.000  C
  C1051    1.0000 0.46710  0.40848  0.69731  Biso   1.000  C
  C1052    1.0000 0.53290  0.59152  0.69731  Biso   1.000  C
  C1053    1.0000 0.56288  0.64020  0.61380  Biso   1.000  C
  H1419    1.0000 0.27381  0.45591  0.61600  Biso   1.000  H
  H1420    1.0000 0.31380  0.50350  0.60168  Biso   1.000  H
  H1421    1.0000 0.18100  0.45058  0.58411  Biso   1.000  H
  H1422    1.0000 0.18079  0.42418  0.52558  Biso   1.000  H
  C1054    1.0000 0.13060  0.49300  0.52990  Biso   1.000  C
  H1423    1.0000 0.09770  0.52689  0.46140  Biso   1.000  H
  H1424    1.0000 0.13068  0.47368  0.44891  Biso   1.000  H
  H1425    1.0000 0.61600  0.72619  0.54409  Biso   1.000  H
  H1426    1.0000 0.60168  0.68620  0.49650  Biso   1.000  H
  H1427    1.0000 0.58411  0.81900  0.54942  Biso   1.000  H
  H1428    1.0000 0.52558  0.81921  0.57582  Biso   1.000  H
  C1055    1.0000 0.52990  0.86940  0.50700  Biso   1.000  C
  H1429    1.0000 0.46140  0.90230  0.47311  Biso   1.000  H
  H1430    1.0000 0.44891  0.86932  0.52632  Biso   1.000  H
  H1431    1.0000 0.38099  0.46669  0.66318  Biso   1.000  H
  N167     1.0000 0.46779  0.46380  0.71789  Biso   1.000  N
  H1432    1.0000 0.45591  0.38400  0.72619  Biso   1.000  H
  H1433    1.0000 0.50350  0.39832  0.68620  Biso   1.000  H
  N168     1.0000 0.53221  0.53620  0.71789  Biso   1.000  N
  H1434    1.0000 0.54409  0.61600  0.72619  Biso   1.000  H
  H1435    1.0000 0.49650  0.60168  0.68620  Biso   1.000  H
  H1436    1.0000 0.53331  0.66318  0.61901  Biso   1.000  H
  H1437    1.0000 0.09770  0.47311  0.53860  Biso   1.000  H
  H1438    1.0000 0.13068  0.52632  0.55109  Biso   1.000  H
  H1439    1.0000 0.53860  0.90230  0.52689  Biso   1.000  H
  H1440    1.0000 0.55109  0.86932  0.47368  Biso   1.000  H
  C1056    1.0000 0.50000  0.50000  0.68271  Biso   1.000  C
  C1057    1.0000 0.49300  0.47039  0.77068  Biso   1.000  C
  C1058    1.0000 0.50700  0.52961  0.77068  Biso   1.000  C
  H1441    1.0000 0.47608  0.52131  0.65968  Biso   1.000  H
  H1442    1.0000 0.52392  0.47869  0.65968  Biso   1.000  H
  H1443    1.0000 0.52668  0.44920  0.77150  Biso   1.000  H
  C1059    1.0000 0.45831  0.45461  0.81929  Biso   1.000  C
  H1444    1.0000 0.47332  0.55080  0.77150  Biso   1.000  H
  C1060    1.0000 0.54169  0.54539  0.81929  Biso   1.000  C
  H1445    1.0000 0.45058  0.41589  0.81900  Biso   1.000  H
  H1446    1.0000 0.42418  0.47442  0.81921  Biso   1.000  H
  C1061    1.0000 0.49300  0.47010  0.86940  Biso   1.000  C
  H1447    1.0000 0.54942  0.58411  0.81900  Biso   1.000  H
  H1448    1.0000 0.57582  0.52558  0.81921  Biso   1.000  H
  C1062    1.0000 0.50700  0.52990  0.86940  Biso   1.000  C
  H1449    1.0000 0.47311  0.46140  0.90230  Biso   1.000  H
  H1450    1.0000 0.52632  0.44891  0.86932  Biso   1.000  H
  H1451    1.0000 0.52689  0.53860  0.90230  Biso   1.000  H
  H1452    1.0000 0.47368  0.55109  0.86932  Biso   1.000  H
  C1063    1.0000 0.72179  0.47828  0.23879  Biso   1.000  C
  C1064    1.0000 0.77821  0.47828  0.26121  Biso   1.000  C
  N169     1.0000 0.71329  0.52449  0.20308  Biso   1.000  N
  H1453    1.0000 0.71561  0.44489  0.21870  Biso   1.000  H
  H1454    1.0000 0.69580  0.47970  0.26849  Biso   1.000  H
  N170     1.0000 0.78671  0.52449  0.29692  Biso   1.000  N
  H1455    1.0000 0.78439  0.44489  0.28130  Biso   1.000  H
  H1456    1.0000 0.80420  0.47970  0.23151  Biso   1.000  H
  C1065    1.0000 0.67599  0.55698  0.21472  Biso   1.000  C
  C1066    1.0000 0.82401  0.55698  0.28528  Biso   1.000  C
  H1457    1.0000 0.65521  0.55019  0.24551  Biso   1.000  H
  C1067    1.0000 0.66330  0.60559  0.18210  Biso   1.000  C
  H1458    1.0000 0.84479  0.55019  0.25449  Biso   1.000  H
  C1068    1.0000 0.83670  0.60559  0.31790  Biso   1.000  C
  C1069    1.0000 0.69470  0.61881  0.13691  Biso   1.000  C
  C1070    1.0000 0.61881  0.63691  0.19470  Biso   1.000  C
  C1071    1.0000 0.80530  0.61881  0.36309  Biso   1.000  C
  C1072    1.0000 0.88119  0.63691  0.30530  Biso   1.000  C
  H1459    1.0000 0.72440  0.59721  0.12771  Biso   1.000  H
  C1073    1.0000 0.68210  0.66330  0.10559  Biso   1.000  C
  C1074    1.0000 0.60559  0.68210  0.16330  Biso   1.000  C
  H1460    1.0000 0.59721  0.62771  0.22440  Biso   1.000  H
  H1461    1.0000 0.77560  0.59721  0.37229  Biso   1.000  H
  C1075    1.0000 0.81790  0.66330  0.39441  Biso   1.000  C
  C1076    1.0000 0.89441  0.68210  0.33670  Biso   1.000  C
  H1462    1.0000 0.90279  0.62771  0.27560  Biso   1.000  H
  C1077    1.0000 0.71472  0.67599  0.05698  Biso   1.000  C
  C1078    1.0000 0.63691  0.69470  0.11881  Biso   1.000  C
  C1079    1.0000 0.55698  0.71472  0.17599  Biso   1.000  C
  C1080    1.0000 0.78528  0.67599  0.44302  Biso   1.000  C
  C1081    1.0000 0.86309  0.69470  0.38119  Biso   1.000  C
  C1082    1.0000 0.94302  0.71472  0.32401  Biso   1.000  C
  N171     1.0000 0.70308  0.71329  0.02449  Biso   1.000  N
  H1463    1.0000 0.74551  0.65521  0.05019  Biso   1.000  H
  H1464    1.0000 0.62771  0.72440  0.09721  Biso   1.000  H
  N172     1.0000 0.52449  0.70308  0.21329  Biso   1.000  N
  H1465    1.0000 0.55019  0.74551  0.15521  Biso   1.000  H
  N173     1.0000 0.79692  0.71329  0.47551  Biso   1.000  N
  H1466    1.0000 0.75449  0.65521  0.44981  Biso   1.000  H
  H1467    1.0000 0.87229  0.72440  0.40279  Biso   1.000  H
  N174     1.0000 0.97551  0.70308  0.28671  Biso   1.000  N
  H1468    1.0000 0.94981  0.74551  0.34479  Biso   1.000  H
  C1083    1.0000 0.73879  0.72179  0.97828  Biso   1.000  C
  C1084    1.0000 0.47828  0.73879  0.22179  Biso   1.000  C
  C1085    1.0000 0.76121  0.72179  0.52172  Biso   1.000  C
  C1086    1.0000 0.02172  0.73879  0.27821  Biso   1.000  C
  H1469    1.0000 0.71870  0.71561  0.94489  Biso   1.000  H
  H1470    1.0000 0.76849  0.69580  0.97970  Biso   1.000  H
  C1087    1.0000 0.76121  0.77821  0.97828  Biso   1.000  C
  H1471    1.0000 0.44489  0.71870  0.21561  Biso   1.000  H
  H1472    1.0000 0.47970  0.76849  0.19580  Biso   1.000  H
  C1088    1.0000 0.47828  0.76121  0.27821  Biso   1.000  C
  H1473    1.0000 0.78130  0.71561  0.55511  Biso   1.000  H
  H1474    1.0000 0.73151  0.69580  0.52030  Biso   1.000  H
  C1089    1.0000 0.73879  0.77821  0.52172  Biso   1.000  C
  H1475    1.0000 0.05511  0.71870  0.28439  Biso   1.000  H
  H1476    1.0000 0.02030  0.76849  0.30420  Biso   1.000  H
  C1090    1.0000 0.02172  0.76121  0.22179  Biso   1.000  C
  N175     1.0000 0.79692  0.78671  0.02449  Biso   1.000  N
  H1477    1.0000 0.78130  0.78439  0.94489  Biso   1.000  H
  H1478    1.0000 0.73151  0.80420  0.97970  Biso   1.000  H
  N176     1.0000 0.52449  0.79692  0.28671  Biso   1.000  N
  H1479    1.0000 0.44489  0.78130  0.28439  Biso   1.000  H
  H1480    1.0000 0.47970  0.73151  0.30420  Biso   1.000  H
  N177     1.0000 0.70308  0.78671  0.47551  Biso   1.000  N
  H1481    1.0000 0.71870  0.78439  0.55511  Biso   1.000  H
  H1482    1.0000 0.76849  0.80420  0.52030  Biso   1.000  H
  N178     1.0000 0.97551  0.79692  0.21329  Biso   1.000  N
  H1483    1.0000 0.05511  0.78130  0.21561  Biso   1.000  H
  H1484    1.0000 0.02030  0.73151  0.19580  Biso   1.000  H
  C1091    1.0000 0.78528  0.82401  0.05698  Biso   1.000  C
  C1092    1.0000 0.55698  0.78528  0.32401  Biso   1.000  C
  C1093    1.0000 0.71472  0.82401  0.44302  Biso   1.000  C
  C1094    1.0000 0.94302  0.78528  0.17599  Biso   1.000  C
  H1485    1.0000 0.75449  0.84479  0.05019  Biso   1.000  H
  C1095    1.0000 0.81790  0.83670  0.10559  Biso   1.000  C
  H1486    1.0000 0.55019  0.75449  0.34479  Biso   1.000  H
  C1096    1.0000 0.60559  0.81790  0.33670  Biso   1.000  C
  H1487    1.0000 0.74551  0.84479  0.44981  Biso   1.000  H
  C1097    1.0000 0.68210  0.83670  0.39441  Biso   1.000  C
  H1488    1.0000 0.94981  0.75449  0.15521  Biso   1.000  H
  C1098    1.0000 0.89441  0.81790  0.16330  Biso   1.000  C
  C1099    1.0000 0.86309  0.80530  0.11881  Biso   1.000  C
  C1100    1.0000 0.80530  0.88119  0.13691  Biso   1.000  C
  C1101    1.0000 0.63691  0.80530  0.38119  Biso   1.000  C
  C1102    1.0000 0.61881  0.86309  0.30530  Biso   1.000  C
  C1103    1.0000 0.69470  0.88119  0.36309  Biso   1.000  C
  C1104    1.0000 0.88119  0.86309  0.19470  Biso   1.000  C
  H1489    1.0000 0.87229  0.77560  0.09721  Biso   1.000  H
  C1105    1.0000 0.83670  0.89441  0.18210  Biso   1.000  C
  H1490    1.0000 0.77560  0.90279  0.12771  Biso   1.000  H
  H1491    1.0000 0.62771  0.77560  0.40279  Biso   1.000  H
  H1492    1.0000 0.59721  0.87229  0.27560  Biso   1.000  H
  C1106    1.0000 0.66330  0.89441  0.31790  Biso   1.000  C
  H1493    1.0000 0.72440  0.90279  0.37229  Biso   1.000  H
  H1494    1.0000 0.90279  0.87229  0.22440  Biso   1.000  H
  C1107    1.0000 0.82401  0.94302  0.21472  Biso   1.000  C
  C1108    1.0000 0.67599  0.94302  0.28528  Biso   1.000  C
  N179     1.0000 0.78671  0.97551  0.20308  Biso   1.000  N
  H1495    1.0000 0.84479  0.94981  0.24551  Biso   1.000  H
  N180     1.0000 0.71329  0.97551  0.29692  Biso   1.000  N
  H1496    1.0000 0.65521  0.94981  0.25449  Biso   1.000  H
  C1109    1.0000 0.77821  0.02172  0.23879  Biso   1.000  C
  C1110    1.0000 0.72179  0.02172  0.26121  Biso   1.000  C
  H1497    1.0000 0.78439  0.05511  0.21870  Biso   1.000  H
  H1498    1.0000 0.80420  0.02030  0.26849  Biso   1.000  H
  H1499    1.0000 0.71561  0.05511  0.28130  Biso   1.000  H
  H1500    1.0000 0.69580  0.02030  0.23151  Biso   1.000  H
  C1111    1.0000 0.47828  0.23879  0.72179  Biso   1.000  C
  C1112    1.0000 0.47828  0.26121  0.77821  Biso   1.000  C
  N181     1.0000 0.52449  0.20308  0.71329  Biso   1.000  N
  H1501    1.0000 0.44489  0.21870  0.71561  Biso   1.000  H
  H1502    1.0000 0.47970  0.26849  0.69580  Biso   1.000  H
  N182     1.0000 0.52449  0.29692  0.78671  Biso   1.000  N
  H1503    1.0000 0.44489  0.28130  0.78439  Biso   1.000  H
  H1504    1.0000 0.47970  0.23151  0.80420  Biso   1.000  H
  C1113    1.0000 0.55698  0.21472  0.67599  Biso   1.000  C
  C1114    1.0000 0.55698  0.28528  0.82401  Biso   1.000  C
  H1505    1.0000 0.55019  0.24551  0.65521  Biso   1.000  H
  C1115    1.0000 0.60559  0.18210  0.66330  Biso   1.000  C
  H1506    1.0000 0.55019  0.25449  0.84479  Biso   1.000  H
  C1116    1.0000 0.60559  0.31790  0.83670  Biso   1.000  C
  C1117    1.0000 0.63691  0.19470  0.61881  Biso   1.000  C
  C1118    1.0000 0.61881  0.13691  0.69470  Biso   1.000  C
  C1119    1.0000 0.61881  0.36309  0.80530  Biso   1.000  C
  C1120    1.0000 0.63691  0.30530  0.88119  Biso   1.000  C
  C1121    1.0000 0.68210  0.16330  0.60559  Biso   1.000  C
  H1507    1.0000 0.62771  0.22440  0.59721  Biso   1.000  H
  H1508    1.0000 0.59721  0.12771  0.72440  Biso   1.000  H
  C1122    1.0000 0.66330  0.10559  0.68210  Biso   1.000  C
  C1123    1.0000 0.66330  0.39441  0.81790  Biso   1.000  C
  H1509    1.0000 0.59721  0.37229  0.77560  Biso   1.000  H
  C1124    1.0000 0.68210  0.33670  0.89441  Biso   1.000  C
  H1510    1.0000 0.62771  0.27560  0.90279  Biso   1.000  H
  C1125    1.0000 0.71472  0.17599  0.55698  Biso   1.000  C
  C1126    1.0000 0.69470  0.11881  0.63691  Biso   1.000  C
  C1127    1.0000 0.67599  0.05698  0.71472  Biso   1.000  C
  C1128    1.0000 0.67599  0.44302  0.78528  Biso   1.000  C
  C1129    1.0000 0.69470  0.38119  0.86309  Biso   1.000  C
  C1130    1.0000 0.71472  0.32401  0.94302  Biso   1.000  C
  N183     1.0000 0.70308  0.21329  0.52449  Biso   1.000  N
  H1511    1.0000 0.74551  0.15521  0.55019  Biso   1.000  H
  H1512    1.0000 0.72440  0.09721  0.62771  Biso   1.000  H
  N184     1.0000 0.71329  0.02449  0.70308  Biso   1.000  N
  H1513    1.0000 0.65521  0.05019  0.74551  Biso   1.000  H
  N185     1.0000 0.71329  0.47551  0.79692  Biso   1.000  N
  H1514    1.0000 0.65521  0.44981  0.75449  Biso   1.000  H
  H1515    1.0000 0.72440  0.40279  0.87229  Biso   1.000  H
  N186     1.0000 0.70308  0.28671  0.97551  Biso   1.000  N
  H1516    1.0000 0.74551  0.34479  0.94981  Biso   1.000  H
  C1131    1.0000 0.73879  0.22179  0.47828  Biso   1.000  C
  C1132    1.0000 0.72179  0.97828  0.73879  Biso   1.000  C
  C1133    1.0000 0.72179  0.52172  0.76121  Biso   1.000  C
  C1134    1.0000 0.73879  0.27821  0.02172  Biso   1.000  C
  C1135    1.0000 0.76121  0.27821  0.47828  Biso   1.000  C
  H1517    1.0000 0.71870  0.21561  0.44489  Biso   1.000  H
  H1518    1.0000 0.76849  0.19580  0.47970  Biso   1.000  H
  H1519    1.0000 0.71561  0.94489  0.71870  Biso   1.000  H
  H1520    1.0000 0.69580  0.97970  0.76849  Biso   1.000  H
  C1136    1.0000 0.77821  0.97828  0.76121  Biso   1.000  C
  C1137    1.0000 0.77821  0.52172  0.73879  Biso   1.000  C
  H1521    1.0000 0.71561  0.55511  0.78130  Biso   1.000  H
  H1522    1.0000 0.69580  0.52030  0.73151  Biso   1.000  H
  H1523    1.0000 0.71870  0.28439  0.05511  Biso   1.000  H
  H1524    1.0000 0.76849  0.30420  0.02030  Biso   1.000  H
  C1138    1.0000 0.76121  0.22179  0.02172  Biso   1.000  C
  N187     1.0000 0.79692  0.28671  0.52449  Biso   1.000  N
  H1525    1.0000 0.78130  0.28439  0.44489  Biso   1.000  H
  H1526    1.0000 0.73151  0.30420  0.47970  Biso   1.000  H
  N188     1.0000 0.78671  0.02449  0.79692  Biso   1.000  N
  H1527    1.0000 0.78439  0.94489  0.78130  Biso   1.000  H
  H1528    1.0000 0.80420  0.97970  0.73151  Biso   1.000  H
  N189     1.0000 0.78671  0.47551  0.70308  Biso   1.000  N
  H1529    1.0000 0.78439  0.55511  0.71870  Biso   1.000  H
  H1530    1.0000 0.80420  0.52030  0.76849  Biso   1.000  H
  N190     1.0000 0.79692  0.21329  0.97551  Biso   1.000  N
  H1531    1.0000 0.78130  0.21561  0.05511  Biso   1.000  H
  H1532    1.0000 0.73151  0.19580  0.02030  Biso   1.000  H
  C1139    1.0000 0.78528  0.32401  0.55698  Biso   1.000  C
  C1140    1.0000 0.82401  0.05698  0.78528  Biso   1.000  C
  C1141    1.0000 0.82401  0.44302  0.71472  Biso   1.000  C
  C1142    1.0000 0.78528  0.17599  0.94302  Biso   1.000  C
  H1533    1.0000 0.75449  0.34479  0.55019  Biso   1.000  H
  C1143    1.0000 0.81790  0.33670  0.60559  Biso   1.000  C
  H1534    1.0000 0.84479  0.05019  0.75449  Biso   1.000  H
  C1144    1.0000 0.83670  0.10559  0.81790  Biso   1.000  C
  H1535    1.0000 0.84479  0.44981  0.74551  Biso   1.000  H
  C1145    1.0000 0.83670  0.39441  0.68210  Biso   1.000  C
  H1536    1.0000 0.75449  0.15521  0.94981  Biso   1.000  H
  C1146    1.0000 0.81790  0.16330  0.89441  Biso   1.000  C
  C1147    1.0000 0.80530  0.38119  0.63691  Biso   1.000  C
  C1148    1.0000 0.86309  0.30530  0.61881  Biso   1.000  C
  C1149    1.0000 0.88119  0.13691  0.80530  Biso   1.000  C
  C1150    1.0000 0.80530  0.11881  0.86309  Biso   1.000  C
  C1151    1.0000 0.88119  0.36309  0.69470  Biso   1.000  C
  C1152    1.0000 0.86309  0.19470  0.88119  Biso   1.000  C
  H1537    1.0000 0.77560  0.40279  0.62771  Biso   1.000  H
  H1538    1.0000 0.87229  0.27560  0.59721  Biso   1.000  H
  C1153    1.0000 0.89441  0.31790  0.66330  Biso   1.000  C
  C1154    1.0000 0.89441  0.18210  0.83670  Biso   1.000  C
  H1539    1.0000 0.90279  0.12771  0.77560  Biso   1.000  H
  H1540    1.0000 0.77560  0.09721  0.87229  Biso   1.000  H
  H1541    1.0000 0.90279  0.37229  0.72440  Biso   1.000  H
  H1542    1.0000 0.87229  0.22440  0.90279  Biso   1.000  H
  C1155    1.0000 0.94302  0.28528  0.67599  Biso   1.000  C
  C1156    1.0000 0.94302  0.21472  0.82401  Biso   1.000  C
  N191     1.0000 0.97551  0.29692  0.71329  Biso   1.000  N
  H1543    1.0000 0.94981  0.25449  0.65521  Biso   1.000  H
  N192     1.0000 0.97551  0.20308  0.78671  Biso   1.000  N
  H1544    1.0000 0.94981  0.24551  0.84479  Biso   1.000  H
  C1157    1.0000 0.02172  0.26121  0.72179  Biso   1.000  C
  C1158    1.0000 0.02172  0.23879  0.77821  Biso   1.000  C
  H1545    1.0000 0.05511  0.28130  0.71561  Biso   1.000  H
  H1546    1.0000 0.02030  0.23151  0.69580  Biso   1.000  H
  H1547    1.0000 0.05511  0.21870  0.78439  Biso   1.000  H
  H1548    1.0000 0.02030  0.26849  0.80420  Biso   1.000  H
  C1159    1.0000 0.23879  0.72179  0.47828  Biso   1.000  C
  C1160    1.0000 0.26121  0.77821  0.47828  Biso   1.000  C
  N193     1.0000 0.20308  0.71329  0.52449  Biso   1.000  N
  H1549    1.0000 0.21870  0.71561  0.44489  Biso   1.000  H
  H1550    1.0000 0.26849  0.69580  0.47970  Biso   1.000  H
  N194     1.0000 0.29692  0.78671  0.52449  Biso   1.000  N
  H1551    1.0000 0.28130  0.78439  0.44489  Biso   1.000  H
  H1552    1.0000 0.23151  0.80420  0.47970  Biso   1.000  H
  C1161    1.0000 0.21472  0.67599  0.55698  Biso   1.000  C
  C1162    1.0000 0.28528  0.82401  0.55698  Biso   1.000  C
  H1553    1.0000 0.24551  0.65521  0.55019  Biso   1.000  H
  C1163    1.0000 0.18210  0.66330  0.60559  Biso   1.000  C
  H1554    1.0000 0.25449  0.84479  0.55019  Biso   1.000  H
  C1164    1.0000 0.31790  0.83670  0.60559  Biso   1.000  C
  C1165    1.0000 0.19470  0.61881  0.63691  Biso   1.000  C
  C1166    1.0000 0.13691  0.69470  0.61881  Biso   1.000  C
  C1167    1.0000 0.36309  0.80530  0.61881  Biso   1.000  C
  C1168    1.0000 0.30530  0.88119  0.63691  Biso   1.000  C
  C1169    1.0000 0.16330  0.60559  0.68210  Biso   1.000  C
  H1555    1.0000 0.22440  0.59721  0.62771  Biso   1.000  H
  H1556    1.0000 0.12771  0.72440  0.59721  Biso   1.000  H
  C1170    1.0000 0.10559  0.68210  0.66330  Biso   1.000  C
  C1171    1.0000 0.39441  0.81790  0.66330  Biso   1.000  C
  H1557    1.0000 0.37229  0.77560  0.59721  Biso   1.000  H
  C1172    1.0000 0.33670  0.89441  0.68210  Biso   1.000  C
  H1558    1.0000 0.27560  0.90279  0.62771  Biso   1.000  H
  C1173    1.0000 0.17599  0.55698  0.71472  Biso   1.000  C
  C1174    1.0000 0.11881  0.63691  0.69470  Biso   1.000  C
  C1175    1.0000 0.05698  0.71472  0.67599  Biso   1.000  C
  C1176    1.0000 0.44302  0.78528  0.67599  Biso   1.000  C
  C1177    1.0000 0.38119  0.86309  0.69470  Biso   1.000  C
  C1178    1.0000 0.32401  0.94302  0.71472  Biso   1.000  C
  N195     1.0000 0.21329  0.52449  0.70308  Biso   1.000  N
  H1559    1.0000 0.15521  0.55019  0.74551  Biso   1.000  H
  H1560    1.0000 0.09721  0.62771  0.72440  Biso   1.000  H
  N196     1.0000 0.02449  0.70308  0.71329  Biso   1.000  N
  H1561    1.0000 0.05019  0.74551  0.65521  Biso   1.000  H
  N197     1.0000 0.47551  0.79692  0.71329  Biso   1.000  N
  H1562    1.0000 0.44981  0.75449  0.65521  Biso   1.000  H
  H1563    1.0000 0.40279  0.87229  0.72440  Biso   1.000  H
  N198     1.0000 0.28671  0.97551  0.70308  Biso   1.000  N
  H1564    1.0000 0.34479  0.94981  0.74551  Biso   1.000  H
  C1179    1.0000 0.22179  0.47828  0.73879  Biso   1.000  C
  C1180    1.0000 0.97828  0.73879  0.72179  Biso   1.000  C
  C1181    1.0000 0.52172  0.76121  0.72179  Biso   1.000  C
  C1182    1.0000 0.27821  0.02172  0.73879  Biso   1.000  C
  C1183    1.0000 0.27821  0.47828  0.76121  Biso   1.000  C
  H1565    1.0000 0.21561  0.44489  0.71870  Biso   1.000  H
  H1566    1.0000 0.19580  0.47970  0.76849  Biso   1.000  H
  H1567    1.0000 0.94489  0.71870  0.71561  Biso   1.000  H
  H1568    1.0000 0.97970  0.76849  0.69580  Biso   1.000  H
  C1184    1.0000 0.97828  0.76121  0.77821  Biso   1.000  C
  C1185    1.0000 0.52172  0.73879  0.77821  Biso   1.000  C
  H1569    1.0000 0.55511  0.78130  0.71561  Biso   1.000  H
  H1570    1.0000 0.52030  0.73151  0.69580  Biso   1.000  H
  H1571    1.0000 0.28439  0.05511  0.71870  Biso   1.000  H
  H1572    1.0000 0.30420  0.02030  0.76849  Biso   1.000  H
  C1186    1.0000 0.22179  0.02172  0.76121  Biso   1.000  C
  N199     1.0000 0.28671  0.52449  0.79692  Biso   1.000  N
  H1573    1.0000 0.28439  0.44489  0.78130  Biso   1.000  H
  H1574    1.0000 0.30420  0.47970  0.73151  Biso   1.000  H
  N200     1.0000 0.02449  0.79692  0.78671  Biso   1.000  N
  H1575    1.0000 0.94489  0.78130  0.78439  Biso   1.000  H
  H1576    1.0000 0.97970  0.73151  0.80420  Biso   1.000  H
  N201     1.0000 0.47551  0.70308  0.78671  Biso   1.000  N
  H1577    1.0000 0.55511  0.71870  0.78439  Biso   1.000  H
  H1578    1.0000 0.52030  0.76849  0.80420  Biso   1.000  H
  N202     1.0000 0.21329  0.97551  0.79692  Biso   1.000  N
  H1579    1.0000 0.21561  0.05511  0.78130  Biso   1.000  H
  H1580    1.0000 0.19580  0.02030  0.73151  Biso   1.000  H
  C1187    1.0000 0.32401  0.55698  0.78528  Biso   1.000  C
  C1188    1.0000 0.05698  0.78528  0.82401  Biso   1.000  C
  C1189    1.0000 0.44302  0.71472  0.82401  Biso   1.000  C
  C1190    1.0000 0.17599  0.94302  0.78528  Biso   1.000  C
  H1581    1.0000 0.34479  0.55019  0.75449  Biso   1.000  H
  C1191    1.0000 0.33670  0.60559  0.81790  Biso   1.000  C
  H1582    1.0000 0.05019  0.75449  0.84479  Biso   1.000  H
  C1192    1.0000 0.10559  0.81790  0.83670  Biso   1.000  C
  H1583    1.0000 0.44981  0.74551  0.84479  Biso   1.000  H
  C1193    1.0000 0.39441  0.68210  0.83670  Biso   1.000  C
  H1584    1.0000 0.15521  0.94981  0.75449  Biso   1.000  H
  C1194    1.0000 0.16330  0.89441  0.81790  Biso   1.000  C
  C1195    1.0000 0.38119  0.63691  0.80530  Biso   1.000  C
  C1196    1.0000 0.30530  0.61881  0.86309  Biso   1.000  C
  C1197    1.0000 0.13691  0.80530  0.88119  Biso   1.000  C
  C1198    1.0000 0.11881  0.86309  0.80530  Biso   1.000  C
  C1199    1.0000 0.36309  0.69470  0.88119  Biso   1.000  C
  C1200    1.0000 0.19470  0.88119  0.86309  Biso   1.000  C
  H1585    1.0000 0.40279  0.62771  0.77560  Biso   1.000  H
  H1586    1.0000 0.27560  0.59721  0.87229  Biso   1.000  H
  C1201    1.0000 0.31790  0.66330  0.89441  Biso   1.000  C
  C1202    1.0000 0.18210  0.83670  0.89441  Biso   1.000  C
  H1587    1.0000 0.12771  0.77560  0.90279  Biso   1.000  H
  H1588    1.0000 0.09721  0.87229  0.77560  Biso   1.000  H
  H1589    1.0000 0.37229  0.72440  0.90279  Biso   1.000  H
  H1590    1.0000 0.22440  0.90279  0.87229  Biso   1.000  H
  C1203    1.0000 0.28528  0.67599  0.94302  Biso   1.000  C
  C1204    1.0000 0.21472  0.82401  0.94302  Biso   1.000  C
  N203     1.0000 0.29692  0.71329  0.97551  Biso   1.000  N
  H1591    1.0000 0.25449  0.65521  0.94981  Biso   1.000  H
  N204     1.0000 0.20308  0.78671  0.97551  Biso   1.000  N
  H1592    1.0000 0.24551  0.84479  0.94981  Biso   1.000  H
  C1205    1.0000 0.26121  0.72179  0.02172  Biso   1.000  C
  C1206    1.0000 0.23879  0.77821  0.02172  Biso   1.000  C
  H1593    1.0000 0.28130  0.71561  0.05511  Biso   1.000  H
  H1594    1.0000 0.23151  0.69580  0.02030  Biso   1.000  H
  H1595    1.0000 0.21870  0.78439  0.05511  Biso   1.000  H
  H1596    1.0000 0.26849  0.80420  0.02030  Biso   1.000  H
