data_image0
_cell_length_a       24.172
_cell_length_b       24.172
_cell_length_c       24.172
_cell_angle_alpha    90
_cell_angle_beta     90
_cell_angle_gamma    90

_symmetry_space_group_name_H-M    "P 1"
_symmetry_int_tables_number       1

loop_
  _symmetry_equiv_pos_as_xyz
  'x, y, z'

loop_
  _atom_site_label
  _atom_site_occupancy
  _atom_site_fract_x
  _atom_site_fract_y
  _atom_site_fract_z
  _atom_site_thermal_displace_type
  _atom_site_B_iso_or_equiv
  _atom_site_type_symbol
  C1       1.0000 0.53351  0.30568  0.42570  Biso   1.000  C
  N1       1.0000 0.54749  0.26998  0.46182  Biso   1.000  N
  H1       1.0000 0.49992  0.30060  0.40609  Biso   1.000  H
  C2       1.0000 0.56752  0.35442  0.41341  Biso   1.000  C
  C3       1.0000 0.51059  0.22369  0.47079  Biso   1.000  C
  C4       1.0000 0.61302  0.36749  0.44539  Biso   1.000  C
  C5       1.0000 0.55461  0.38702  0.36749  Biso   1.000  C
  H2       1.0000 0.47299  0.22898  0.44800  Biso   1.000  H
  C6       1.0000 0.54058  0.16730  0.46471  Biso   1.000  C
  C7       1.0000 0.48941  0.22369  0.52921  Biso   1.000  C
  C8       1.0000 0.64562  0.41341  0.43248  Biso   1.000  C
  H3       1.0000 0.62212  0.34519  0.47650  Biso   1.000  H
  H4       1.0000 0.52350  0.37792  0.34519  Biso   1.000  H
  C9       1.0000 0.58659  0.43248  0.35442  Biso   1.000  C
  H5       1.0000 0.55961  0.16639  0.42851  Biso   1.000  H
  H6       1.0000 0.56930  0.16449  0.49379  Biso   1.000  H
  C10      1.0000 0.50302  0.11762  0.46889  Biso   1.000  C
  H7       1.0000 0.57831  0.16829  0.48080  Biso   1.000  H
  H8       1.0000 0.54261  0.15530  0.42562  Biso   1.000  H
  C11      1.0000 0.50000  0.12912  0.50000  Biso   1.000  C
  N2       1.0000 0.45251  0.26998  0.53818  Biso   1.000  N
  H9       1.0000 0.52701  0.22898  0.55200  Biso   1.000  H
  C12      1.0000 0.45942  0.16730  0.53529  Biso   1.000  C
  C13      1.0000 0.69432  0.42570  0.46649  Biso   1.000  C
  C14      1.0000 0.63251  0.44539  0.38702  Biso   1.000  C
  C15      1.0000 0.57430  0.46649  0.30568  Biso   1.000  C
  H10      1.0000 0.52081  0.08340  0.45491  Biso   1.000  H
  H11      1.0000 0.46732  0.12349  0.44982  Biso   1.000  H
  C16      1.0000 0.49702  0.11762  0.53111  Biso   1.000  C
  H12      1.0000 0.47820  0.10508  0.47489  Biso   1.000  H
  H13      1.0000 0.52180  0.10508  0.52511  Biso   1.000  H
  C17      1.0000 0.46649  0.30568  0.57430  Biso   1.000  C
  H14      1.0000 0.44039  0.16639  0.57149  Biso   1.000  H
  H15      1.0000 0.43070  0.16449  0.50621  Biso   1.000  H
  H16      1.0000 0.42169  0.16829  0.51920  Biso   1.000  H
  H17      1.0000 0.45739  0.15530  0.57442  Biso   1.000  H
  N3       1.0000 0.73002  0.46182  0.45251  Biso   1.000  N
  H18      1.0000 0.69940  0.40609  0.50012  Biso   1.000  H
  H19      1.0000 0.65481  0.47650  0.37792  Biso   1.000  H
  N4       1.0000 0.53818  0.45251  0.26998  Biso   1.000  N
  H20      1.0000 0.59391  0.50012  0.30060  Biso   1.000  H
  H21      1.0000 0.47919  0.08340  0.54509  Biso   1.000  H
  H22      1.0000 0.53272  0.12349  0.55022  Biso   1.000  H
  H23      1.0000 0.50012  0.30060  0.59391  Biso   1.000  H
  C18      1.0000 0.43248  0.35442  0.58659  Biso   1.000  C
  C19      1.0000 0.77631  0.47079  0.48941  Biso   1.000  C
  C20      1.0000 0.52921  0.48941  0.22369  Biso   1.000  C
  C21      1.0000 0.38702  0.36749  0.55461  Biso   1.000  C
  C22      1.0000 0.44539  0.38702  0.63251  Biso   1.000  C
  C23      1.0000 0.77631  0.52921  0.51059  Biso   1.000  C
  H24      1.0000 0.77102  0.44800  0.52701  Biso   1.000  H
  C24      1.0000 0.83270  0.46471  0.45942  Biso   1.000  C
  C25      1.0000 0.47079  0.51059  0.22369  Biso   1.000  C
  H25      1.0000 0.55200  0.52701  0.22898  Biso   1.000  H
  C26      1.0000 0.53529  0.45942  0.16730  Biso   1.000  C
  H26      1.0000 0.37792  0.34519  0.52350  Biso   1.000  H
  C27      1.0000 0.35442  0.41341  0.56752  Biso   1.000  C
  H27      1.0000 0.47650  0.37792  0.65481  Biso   1.000  H
  C28      1.0000 0.41341  0.43248  0.64562  Biso   1.000  C
  N5       1.0000 0.73002  0.53818  0.54749  Biso   1.000  N
  H28      1.0000 0.77102  0.55200  0.47299  Biso   1.000  H
  C29      1.0000 0.83270  0.53529  0.54058  Biso   1.000  C
  H29      1.0000 0.83361  0.42851  0.44039  Biso   1.000  H
  H30      1.0000 0.83551  0.49379  0.43070  Biso   1.000  H
  C30      1.0000 0.88243  0.46889  0.49702  Biso   1.000  C
  C31      1.0000 0.87093  0.50000  0.50000  Biso   1.000  C
  H31      1.0000 0.83171  0.48080  0.42169  Biso   1.000  H
  H32      1.0000 0.84470  0.42562  0.45739  Biso   1.000  H
  N6       1.0000 0.46182  0.54749  0.26998  Biso   1.000  N
  H33      1.0000 0.44800  0.47299  0.22898  Biso   1.000  H
  C32      1.0000 0.46471  0.54058  0.16730  Biso   1.000  C
  H34      1.0000 0.57149  0.44039  0.16639  Biso   1.000  H
  H35      1.0000 0.50621  0.43070  0.16449  Biso   1.000  H
  C33      1.0000 0.53111  0.49702  0.11762  Biso   1.000  C
  C34      1.0000 0.50000  0.50000  0.12912  Biso   1.000  C
  H36      1.0000 0.51920  0.42169  0.16829  Biso   1.000  H
  H37      1.0000 0.57442  0.45739  0.15530  Biso   1.000  H
  C35      1.0000 0.30568  0.42570  0.53351  Biso   1.000  C
  C36      1.0000 0.36749  0.44539  0.61302  Biso   1.000  C
  C37      1.0000 0.42570  0.46649  0.69432  Biso   1.000  C
  C38      1.0000 0.69432  0.57430  0.53351  Biso   1.000  C
  H38      1.0000 0.83361  0.57149  0.55961  Biso   1.000  H
  H39      1.0000 0.83551  0.50621  0.56930  Biso   1.000  H
  C39      1.0000 0.88243  0.53111  0.50302  Biso   1.000  C
  H40      1.0000 0.83171  0.51920  0.57831  Biso   1.000  H
  H41      1.0000 0.84470  0.57442  0.54261  Biso   1.000  H
  H42      1.0000 0.91660  0.45491  0.47919  Biso   1.000  H
  H43      1.0000 0.87651  0.44982  0.53272  Biso   1.000  H
  H44      1.0000 0.89492  0.47489  0.52180  Biso   1.000  H
  H45      1.0000 0.89492  0.52511  0.47820  Biso   1.000  H
  C40      1.0000 0.42570  0.53351  0.30568  Biso   1.000  C
  H46      1.0000 0.42851  0.55961  0.16639  Biso   1.000  H
  H47      1.0000 0.49379  0.56930  0.16449  Biso   1.000  H
  C41      1.0000 0.46889  0.50302  0.11762  Biso   1.000  C
  H48      1.0000 0.48080  0.57831  0.16829  Biso   1.000  H
  H49      1.0000 0.42562  0.54261  0.15530  Biso   1.000  H
  H50      1.0000 0.54509  0.47919  0.08340  Biso   1.000  H
  H51      1.0000 0.55022  0.53272  0.12349  Biso   1.000  H
  H52      1.0000 0.52511  0.52180  0.10508  Biso   1.000  H
  H53      1.0000 0.47489  0.47820  0.10508  Biso   1.000  H
  N7       1.0000 0.26998  0.46182  0.54749  Biso   1.000  N
  H54      1.0000 0.30060  0.40609  0.49992  Biso   1.000  H
  H55      1.0000 0.34519  0.47650  0.62212  Biso   1.000  H
  N8       1.0000 0.46182  0.45251  0.73002  Biso   1.000  N
  H56      1.0000 0.40609  0.50012  0.69940  Biso   1.000  H
  H57      1.0000 0.69940  0.59391  0.49992  Biso   1.000  H
  C42      1.0000 0.64562  0.58659  0.56752  Biso   1.000  C
  H58      1.0000 0.91660  0.54509  0.52081  Biso   1.000  H
  H59      1.0000 0.87651  0.55022  0.46732  Biso   1.000  H
  H60      1.0000 0.40609  0.49992  0.30060  Biso   1.000  H
  C43      1.0000 0.41341  0.56752  0.35442  Biso   1.000  C
  H61      1.0000 0.45491  0.52081  0.08340  Biso   1.000  H
  H62      1.0000 0.44982  0.46732  0.12349  Biso   1.000  H
  C44      1.0000 0.22369  0.47079  0.51059  Biso   1.000  C
  C45      1.0000 0.47079  0.48941  0.77631  Biso   1.000  C
  C46      1.0000 0.63251  0.55461  0.61302  Biso   1.000  C
  C47      1.0000 0.61302  0.63251  0.55461  Biso   1.000  C
  C48      1.0000 0.44539  0.61302  0.36749  Biso   1.000  C
  C49      1.0000 0.36749  0.55461  0.38702  Biso   1.000  C
  H63      1.0000 0.22898  0.44800  0.47299  Biso   1.000  H
  C50      1.0000 0.16730  0.46471  0.54058  Biso   1.000  C
  C51      1.0000 0.22369  0.52921  0.48941  Biso   1.000  C
  C52      1.0000 0.52921  0.51059  0.77631  Biso   1.000  C
  H64      1.0000 0.44800  0.52701  0.77102  Biso   1.000  H
  C53      1.0000 0.46471  0.45942  0.83270  Biso   1.000  C
  H65      1.0000 0.65481  0.52350  0.62212  Biso   1.000  H
  C54      1.0000 0.58659  0.56752  0.64562  Biso   1.000  C
  H66      1.0000 0.62212  0.65481  0.52350  Biso   1.000  H
  C55      1.0000 0.56752  0.64562  0.58659  Biso   1.000  C
  C56      1.0000 0.43248  0.64562  0.41341  Biso   1.000  C
  H67      1.0000 0.47650  0.62212  0.34519  Biso   1.000  H
  H68      1.0000 0.34519  0.52350  0.37792  Biso   1.000  H
  C57      1.0000 0.35442  0.58659  0.43248  Biso   1.000  C
  H69      1.0000 0.16639  0.42851  0.55961  Biso   1.000  H
  H70      1.0000 0.16449  0.49379  0.56930  Biso   1.000  H
  C58      1.0000 0.11762  0.46889  0.50302  Biso   1.000  C
  H71      1.0000 0.16829  0.48080  0.57831  Biso   1.000  H
  H72      1.0000 0.15530  0.42562  0.54261  Biso   1.000  H
  C59      1.0000 0.12912  0.50000  0.50000  Biso   1.000  C
  N9       1.0000 0.26998  0.53818  0.45251  Biso   1.000  N
  H73      1.0000 0.22898  0.55200  0.52701  Biso   1.000  H
  C60      1.0000 0.16730  0.53529  0.45942  Biso   1.000  C
  N10      1.0000 0.53818  0.54749  0.73002  Biso   1.000  N
  H74      1.0000 0.55200  0.47299  0.77102  Biso   1.000  H
  C61      1.0000 0.53529  0.54058  0.83270  Biso   1.000  C
  H75      1.0000 0.42851  0.44039  0.83361  Biso   1.000  H
  H76      1.0000 0.49379  0.43070  0.83551  Biso   1.000  H
  C62      1.0000 0.46889  0.49702  0.88243  Biso   1.000  C
  C63      1.0000 0.50000  0.50000  0.87093  Biso   1.000  C
  H77      1.0000 0.48080  0.42169  0.83171  Biso   1.000  H
  H78      1.0000 0.42562  0.45739  0.84470  Biso   1.000  H
  C64      1.0000 0.57430  0.53351  0.69432  Biso   1.000  C
  C65      1.0000 0.55461  0.61302  0.63251  Biso   1.000  C
  C66      1.0000 0.53351  0.69432  0.57430  Biso   1.000  C
  C67      1.0000 0.46649  0.69432  0.42570  Biso   1.000  C
  C68      1.0000 0.38702  0.63251  0.44539  Biso   1.000  C
  C69      1.0000 0.30568  0.57430  0.46649  Biso   1.000  C
  H79      1.0000 0.08340  0.45491  0.52081  Biso   1.000  H
  H80      1.0000 0.12349  0.44982  0.46732  Biso   1.000  H
  C70      1.0000 0.11762  0.53111  0.49702  Biso   1.000  C
  H81      1.0000 0.10508  0.47489  0.47820  Biso   1.000  H
  H82      1.0000 0.10508  0.52511  0.52180  Biso   1.000  H
  H83      1.0000 0.16639  0.57149  0.44039  Biso   1.000  H
  H84      1.0000 0.16449  0.50621  0.43070  Biso   1.000  H
  H85      1.0000 0.16829  0.51920  0.42169  Biso   1.000  H
  H86      1.0000 0.15530  0.57442  0.45739  Biso   1.000  H
  H87      1.0000 0.57149  0.55961  0.83361  Biso   1.000  H
  H88      1.0000 0.50621  0.56930  0.83551  Biso   1.000  H
  C71      1.0000 0.53111  0.50302  0.88243  Biso   1.000  C
  H89      1.0000 0.51920  0.57831  0.83171  Biso   1.000  H
  H90      1.0000 0.57442  0.54261  0.84470  Biso   1.000  H
  H91      1.0000 0.45491  0.47919  0.91660  Biso   1.000  H
  H92      1.0000 0.44982  0.53272  0.87651  Biso   1.000  H
  H93      1.0000 0.47489  0.52180  0.89492  Biso   1.000  H
  H94      1.0000 0.52511  0.47820  0.89492  Biso   1.000  H
  H95      1.0000 0.59391  0.49992  0.69940  Biso   1.000  H
  H96      1.0000 0.52350  0.62212  0.65481  Biso   1.000  H
  N11      1.0000 0.54749  0.73002  0.53818  Biso   1.000  N
  H97      1.0000 0.49992  0.69940  0.59391  Biso   1.000  H
  N12      1.0000 0.45251  0.73002  0.46182  Biso   1.000  N
  H98      1.0000 0.50012  0.69940  0.40609  Biso   1.000  H
  H99      1.0000 0.37792  0.65481  0.47650  Biso   1.000  H
  H100     1.0000 0.30060  0.59391  0.50012  Biso   1.000  H
  H101     1.0000 0.08340  0.54509  0.47919  Biso   1.000  H
  H102     1.0000 0.12349  0.55022  0.53272  Biso   1.000  H
  H103     1.0000 0.54509  0.52081  0.91660  Biso   1.000  H
  H104     1.0000 0.55022  0.46732  0.87651  Biso   1.000  H
  C72      1.0000 0.51059  0.77631  0.52921  Biso   1.000  C
  C73      1.0000 0.48941  0.77631  0.47079  Biso   1.000  C
  H105     1.0000 0.47299  0.77102  0.55200  Biso   1.000  H
  C74      1.0000 0.54058  0.83270  0.53529  Biso   1.000  C
  H106     1.0000 0.52701  0.77102  0.44800  Biso   1.000  H
  C75      1.0000 0.45942  0.83270  0.46471  Biso   1.000  C
  H107     1.0000 0.55961  0.83361  0.57149  Biso   1.000  H
  H108     1.0000 0.56930  0.83551  0.50621  Biso   1.000  H
  C76      1.0000 0.50302  0.88243  0.53111  Biso   1.000  C
  H109     1.0000 0.57831  0.83171  0.51920  Biso   1.000  H
  H110     1.0000 0.54261  0.84470  0.57442  Biso   1.000  H
  C77      1.0000 0.50000  0.87093  0.50000  Biso   1.000  C
  H111     1.0000 0.44039  0.83361  0.42851  Biso   1.000  H
  H112     1.0000 0.43070  0.83551  0.49379  Biso   1.000  H
  C78      1.0000 0.49702  0.88243  0.46889  Biso   1.000  C
  H113     1.0000 0.42169  0.83171  0.48080  Biso   1.000  H
  H114     1.0000 0.45739  0.84470  0.42562  Biso   1.000  H
  H115     1.0000 0.52081  0.91660  0.54509  Biso   1.000  H
  H116     1.0000 0.46732  0.87651  0.55022  Biso   1.000  H
  H117     1.0000 0.47820  0.89492  0.52511  Biso   1.000  H
  H118     1.0000 0.52180  0.89492  0.47489  Biso   1.000  H
  H119     1.0000 0.47919  0.91660  0.45491  Biso   1.000  H
  H120     1.0000 0.53272  0.87651  0.44982  Biso   1.000  H
  C79      1.0000 0.50302  0.38238  0.03111  Biso   1.000  C
  C80      1.0000 0.54058  0.33270  0.03529  Biso   1.000  C
  H121     1.0000 0.52081  0.41660  0.04509  Biso   1.000  H
  H122     1.0000 0.46732  0.37651  0.05018  Biso   1.000  H
  H123     1.0000 0.46732  0.37651  0.05022  Biso   1.000  H
  H124     1.0000 0.47820  0.39492  0.02511  Biso   1.000  H
  C81      1.0000 0.49702  0.38238  0.96889  Biso   1.000  C
  C82      1.0000 0.49702  0.38243  0.96889  Biso   1.000  C
  C83      1.0000 0.51059  0.27631  0.02921  Biso   1.000  C
  H125     1.0000 0.55961  0.33361  0.07149  Biso   1.000  H
  H126     1.0000 0.56930  0.33551  0.00621  Biso   1.000  H
  H127     1.0000 0.55961  0.33361  0.07153  Biso   1.000  H
  C84      1.0000 0.50302  0.38243  0.03111  Biso   1.000  C
  H128     1.0000 0.57831  0.33171  0.01920  Biso   1.000  H
  H129     1.0000 0.54261  0.34470  0.07438  Biso   1.000  H
  C85      1.0000 0.50000  0.37088  0.00000  Biso   1.000  C
  C86      1.0000 0.45942  0.33270  0.96471  Biso   1.000  C
  H130     1.0000 0.52180  0.39492  0.97489  Biso   1.000  H
  H131     1.0000 0.47919  0.41660  0.95491  Biso   1.000  H
  H132     1.0000 0.53272  0.37651  0.94982  Biso   1.000  H
  N13      1.0000 0.54749  0.23002  0.03818  Biso   1.000  N
  N14      1.0000 0.54749  0.23002  0.03823  Biso   1.000  N
  H133     1.0000 0.47299  0.27102  0.05200  Biso   1.000  H
  C87      1.0000 0.48941  0.27631  0.97079  Biso   1.000  C
  H134     1.0000 0.44039  0.33361  0.92851  Biso   1.000  H
  H135     1.0000 0.43070  0.33551  0.99379  Biso   1.000  H
  H136     1.0000 0.42169  0.33171  0.98080  Biso   1.000  H
  H137     1.0000 0.45739  0.34470  0.92562  Biso   1.000  H
  C88      1.0000 0.53351  0.19432  0.07430  Biso   1.000  C
  N15      1.0000 0.45251  0.23002  0.96182  Biso   1.000  N
  H138     1.0000 0.52701  0.27102  0.94800  Biso   1.000  H
  H139     1.0000 0.49992  0.19940  0.09391  Biso   1.000  H
  C89      1.0000 0.56752  0.14558  0.08659  Biso   1.000  C
  C90      1.0000 0.56752  0.14558  0.08663  Biso   1.000  C
  C91      1.0000 0.56752  0.14562  0.08659  Biso   1.000  C
  C92      1.0000 0.56752  0.14562  0.08663  Biso   1.000  C
  C93      1.0000 0.46649  0.19432  0.92570  Biso   1.000  C
  C94      1.0000 0.61302  0.13251  0.05461  Biso   1.000  C
  C95      1.0000 0.55461  0.11298  0.13251  Biso   1.000  C
  C96      1.0000 0.55461  0.11302  0.13251  Biso   1.000  C
  H140     1.0000 0.50012  0.19940  0.90609  Biso   1.000  H
  C97      1.0000 0.43248  0.14558  0.91341  Biso   1.000  C
  C98      1.0000 0.43248  0.14562  0.91341  Biso   1.000  C
  C99      1.0000 0.64562  0.08659  0.06752  Biso   1.000  C
  H141     1.0000 0.62212  0.15481  0.02350  Biso   1.000  H
  C100     1.0000 0.64562  0.08663  0.06752  Biso   1.000  C
  H142     1.0000 0.52350  0.12208  0.15481  Biso   1.000  H
  C101     1.0000 0.58659  0.06752  0.14558  Biso   1.000  C
  C102     1.0000 0.58659  0.06752  0.14562  Biso   1.000  C
  H143     1.0000 0.52350  0.12212  0.15481  Biso   1.000  H
  C103     1.0000 0.38702  0.13251  0.94539  Biso   1.000  C
  C104     1.0000 0.44539  0.11298  0.86749  Biso   1.000  C
  C105     1.0000 0.44539  0.11302  0.86749  Biso   1.000  C
  C106     1.0000 0.69432  0.07430  0.03351  Biso   1.000  C
  C107     1.0000 0.63251  0.05461  0.11298  Biso   1.000  C
  C108     1.0000 0.63251  0.05461  0.11302  Biso   1.000  C
  C109     1.0000 0.57430  0.03351  0.19432  Biso   1.000  C
  H144     1.0000 0.37792  0.15481  0.97650  Biso   1.000  H
  C110     1.0000 0.35442  0.08659  0.93248  Biso   1.000  C
  C111     1.0000 0.35442  0.08659  0.93253  Biso   1.000  C
  C112     1.0000 0.35442  0.08663  0.93248  Biso   1.000  C
  C113     1.0000 0.35442  0.08663  0.93253  Biso   1.000  C
  H145     1.0000 0.47650  0.12208  0.84519  Biso   1.000  H
  C114     1.0000 0.41341  0.06752  0.85442  Biso   1.000  C
  H146     1.0000 0.47650  0.12212  0.84519  Biso   1.000  H
  N16      1.0000 0.73002  0.03818  0.04749  Biso   1.000  N
  N17      1.0000 0.73002  0.03823  0.04749  Biso   1.000  N
  H147     1.0000 0.69940  0.09391  0.99992  Biso   1.000  H
  H148     1.0000 0.65481  0.02350  0.12208  Biso   1.000  H
  H149     1.0000 0.65481  0.02350  0.12212  Biso   1.000  H
  N18      1.0000 0.53818  0.04749  0.23002  Biso   1.000  N
  H150     1.0000 0.59391  0.99992  0.19940  Biso   1.000  H
  C115     1.0000 0.30568  0.07430  0.96649  Biso   1.000  C
  C116     1.0000 0.36749  0.05461  0.88702  Biso   1.000  C
  C117     1.0000 0.42570  0.03351  0.80568  Biso   1.000  C
  C118     1.0000 0.42570  0.03351  0.80573  Biso   1.000  C
  C119     1.0000 0.77631  0.02921  0.01059  Biso   1.000  C
  C120     1.0000 0.52921  0.01059  0.27631  Biso   1.000  C
  H151     1.0000 0.30060  0.09391  0.00008  Biso   1.000  H
  H152     1.0000 0.30060  0.09391  0.00012  Biso   1.000  H
  N19      1.0000 0.26998  0.03818  0.95251  Biso   1.000  N
  N20      1.0000 0.26998  0.03823  0.95251  Biso   1.000  N
  H153     1.0000 0.34519  0.02350  0.87792  Biso   1.000  H
  H154     1.0000 0.40609  0.99992  0.80060  Biso   1.000  H
  N21      1.0000 0.46182  0.04749  0.76998  Biso   1.000  N
  N22      1.0000 0.46182  0.04749  0.77002  Biso   1.000  N
  C121     1.0000 0.83270  0.03529  0.04058  Biso   1.000  C
  C122     1.0000 0.83270  0.03529  0.04063  Biso   1.000  C
  C123     1.0000 0.77631  0.97079  0.98941  Biso   1.000  C
  H155     1.0000 0.77102  0.05200  0.97299  Biso   1.000  H
  H156     1.0000 0.77102  0.05200  0.97303  Biso   1.000  H
  C124     1.0000 0.53529  0.04058  0.33270  Biso   1.000  C
  C125     1.0000 0.53529  0.04063  0.33270  Biso   1.000  C
  H157     1.0000 0.55200  0.97299  0.27102  Biso   1.000  H
  C126     1.0000 0.47079  0.98941  0.27631  Biso   1.000  C
  H158     1.0000 0.55200  0.97303  0.27102  Biso   1.000  H
  C127     1.0000 0.22369  0.02921  0.98941  Biso   1.000  C
  C128     1.0000 0.47079  0.01059  0.72369  Biso   1.000  C
  H159     1.0000 0.83361  0.07149  0.05961  Biso   1.000  H
  H160     1.0000 0.83551  0.00621  0.06930  Biso   1.000  H
  C129     1.0000 0.88243  0.03111  0.00302  Biso   1.000  C
  H161     1.0000 0.83361  0.07153  0.05961  Biso   1.000  H
  H162     1.0000 0.83171  0.01920  0.07831  Biso   1.000  H
  H163     1.0000 0.84470  0.07438  0.04261  Biso   1.000  H
  C130     1.0000 0.87093  0.00000  0.00000  Biso   1.000  C
  N23      1.0000 0.73002  0.96182  0.95251  Biso   1.000  N
  C131     1.0000 0.83270  0.96471  0.95942  Biso   1.000  C
  H164     1.0000 0.77102  0.94800  0.02701  Biso   1.000  H
  H165     1.0000 0.57149  0.05961  0.33361  Biso   1.000  H
  H166     1.0000 0.50621  0.06930  0.33551  Biso   1.000  H
  C132     1.0000 0.53111  0.00302  0.38238  Biso   1.000  C
  C133     1.0000 0.53111  0.00302  0.38243  Biso   1.000  C
  H167     1.0000 0.51920  0.07831  0.33171  Biso   1.000  H
  H168     1.0000 0.57442  0.04261  0.34470  Biso   1.000  H
  C134     1.0000 0.50000  0.00000  0.37088  Biso   1.000  C
  H169     1.0000 0.44800  0.02701  0.27102  Biso   1.000  H
  N24      1.0000 0.46182  0.95251  0.23002  Biso   1.000  N
  C135     1.0000 0.46471  0.95942  0.33270  Biso   1.000  C
  H170     1.0000 0.22898  0.05200  0.02701  Biso   1.000  H
  C136     1.0000 0.22369  0.97079  0.01059  Biso   1.000  C
  C137     1.0000 0.16730  0.03529  0.95942  Biso   1.000  C
  H171     1.0000 0.44800  0.97299  0.72898  Biso   1.000  H
  C138     1.0000 0.52921  0.98941  0.72369  Biso   1.000  C
  H172     1.0000 0.44800  0.97299  0.72903  Biso   1.000  H
  H173     1.0000 0.44800  0.97303  0.72898  Biso   1.000  H
  H174     1.0000 0.44800  0.97303  0.72903  Biso   1.000  H
  C139     1.0000 0.46471  0.04058  0.66730  Biso   1.000  C
  C140     1.0000 0.46471  0.04063  0.66730  Biso   1.000  C
  H175     1.0000 0.91660  0.04509  0.02081  Biso   1.000  H
  C141     1.0000 0.88243  0.96889  0.99698  Biso   1.000  C
  C142     1.0000 0.88243  0.96889  0.99702  Biso   1.000  C
  H176     1.0000 0.87651  0.05018  0.96732  Biso   1.000  H
  H177     1.0000 0.87651  0.05022  0.96732  Biso   1.000  H
  H178     1.0000 0.89492  0.02511  0.97820  Biso   1.000  H
  H179     1.0000 0.89492  0.97489  0.02180  Biso   1.000  H
  C143     1.0000 0.69432  0.92570  0.96649  Biso   1.000  C
  H180     1.0000 0.83361  0.92851  0.94039  Biso   1.000  H
  H181     1.0000 0.83551  0.99379  0.93070  Biso   1.000  H
  H182     1.0000 0.83361  0.92851  0.94043  Biso   1.000  H
  H183     1.0000 0.83171  0.98080  0.92169  Biso   1.000  H
  H184     1.0000 0.84470  0.92562  0.95739  Biso   1.000  H
  H185     1.0000 0.54509  0.02081  0.41660  Biso   1.000  H
  H186     1.0000 0.55022  0.96732  0.37651  Biso   1.000  H
  C144     1.0000 0.46889  0.99698  0.38238  Biso   1.000  C
  C145     1.0000 0.46889  0.99698  0.38243  Biso   1.000  C
  C146     1.0000 0.46889  0.99702  0.38238  Biso   1.000  C
  C147     1.0000 0.46889  0.99702  0.38243  Biso   1.000  C
  H187     1.0000 0.52511  0.97820  0.39492  Biso   1.000  H
  H188     1.0000 0.47489  0.02180  0.39492  Biso   1.000  H
  C148     1.0000 0.42570  0.96649  0.19432  Biso   1.000  C
  H189     1.0000 0.42851  0.94039  0.33361  Biso   1.000  H
  H190     1.0000 0.49379  0.93070  0.33551  Biso   1.000  H
  H191     1.0000 0.42851  0.94043  0.33361  Biso   1.000  H
  H192     1.0000 0.48080  0.92169  0.33171  Biso   1.000  H
  H193     1.0000 0.42562  0.95739  0.34470  Biso   1.000  H
  H194     1.0000 0.22898  0.94800  0.97299  Biso   1.000  H
  H195     1.0000 0.22898  0.94800  0.97303  Biso   1.000  H
  N25      1.0000 0.26998  0.96182  0.04749  Biso   1.000  N
  C149     1.0000 0.16730  0.96471  0.04058  Biso   1.000  C
  C150     1.0000 0.16730  0.96471  0.04063  Biso   1.000  C
  C151     1.0000 0.12912  0.00000  0.00000  Biso   1.000  C
  H196     1.0000 0.16639  0.07149  0.94039  Biso   1.000  H
  H197     1.0000 0.16449  0.00621  0.93070  Biso   1.000  H
  C152     1.0000 0.11762  0.03111  0.99698  Biso   1.000  C
  H198     1.0000 0.16639  0.07149  0.94043  Biso   1.000  H
  C153     1.0000 0.11762  0.03111  0.99702  Biso   1.000  C
  H199     1.0000 0.16639  0.07153  0.94039  Biso   1.000  H
  H200     1.0000 0.16639  0.07153  0.94043  Biso   1.000  H
  H201     1.0000 0.16829  0.01920  0.92169  Biso   1.000  H
  H202     1.0000 0.15530  0.07438  0.95739  Biso   1.000  H
  N26      1.0000 0.53818  0.95251  0.76998  Biso   1.000  N
  C154     1.0000 0.53529  0.95942  0.66730  Biso   1.000  C
  N27      1.0000 0.53818  0.95251  0.77002  Biso   1.000  N
  H203     1.0000 0.55200  0.02701  0.72898  Biso   1.000  H
  H204     1.0000 0.55200  0.02701  0.72903  Biso   1.000  H
  C155     1.0000 0.50000  0.00000  0.62912  Biso   1.000  C
  H205     1.0000 0.42851  0.05961  0.66639  Biso   1.000  H
  H206     1.0000 0.49379  0.06930  0.66449  Biso   1.000  H
  C156     1.0000 0.46889  0.00302  0.61762  Biso   1.000  C
  H207     1.0000 0.48080  0.07831  0.66829  Biso   1.000  H
  H208     1.0000 0.42562  0.04261  0.65530  Biso   1.000  H
  H209     1.0000 0.91660  0.95491  0.97919  Biso   1.000  H
  H210     1.0000 0.87651  0.94982  0.03268  Biso   1.000  H
  H211     1.0000 0.87651  0.94982  0.03272  Biso   1.000  H
  C157     1.0000 0.64562  0.91341  0.93248  Biso   1.000  C
  C158     1.0000 0.64562  0.91341  0.93253  Biso   1.000  C
  H212     1.0000 0.69940  0.90609  0.00008  Biso   1.000  H
  H213     1.0000 0.69940  0.90609  0.00012  Biso   1.000  H
  H214     1.0000 0.44982  0.03268  0.37651  Biso   1.000  H
  H215     1.0000 0.44982  0.03272  0.37651  Biso   1.000  H
  H216     1.0000 0.45491  0.97919  0.41660  Biso   1.000  H
  H217     1.0000 0.40609  0.00008  0.19940  Biso   1.000  H
  H218     1.0000 0.40609  0.00012  0.19940  Biso   1.000  H
  C159     1.0000 0.41341  0.93248  0.14558  Biso   1.000  C
  C160     1.0000 0.41341  0.93248  0.14562  Biso   1.000  C
  C161     1.0000 0.41341  0.93253  0.14558  Biso   1.000  C
  C162     1.0000 0.41341  0.93253  0.14562  Biso   1.000  C
  C163     1.0000 0.30568  0.92570  0.03351  Biso   1.000  C
  H219     1.0000 0.16639  0.92851  0.05961  Biso   1.000  H
  H220     1.0000 0.16449  0.99379  0.06930  Biso   1.000  H
  C164     1.0000 0.11762  0.96889  0.00302  Biso   1.000  C
  H221     1.0000 0.16829  0.98080  0.07831  Biso   1.000  H
  H222     1.0000 0.15530  0.92562  0.04261  Biso   1.000  H
  H223     1.0000 0.10508  0.02511  0.02180  Biso   1.000  H
  H224     1.0000 0.10508  0.97489  0.97820  Biso   1.000  H
  H225     1.0000 0.12349  0.05018  0.03268  Biso   1.000  H
  H226     1.0000 0.12349  0.05018  0.03272  Biso   1.000  H
  H227     1.0000 0.12349  0.05022  0.03268  Biso   1.000  H
  H228     1.0000 0.12349  0.05022  0.03272  Biso   1.000  H
  H229     1.0000 0.08340  0.04509  0.97919  Biso   1.000  H
  C165     1.0000 0.57430  0.96649  0.80568  Biso   1.000  C
  C166     1.0000 0.57430  0.96649  0.80573  Biso   1.000  C
  H230     1.0000 0.57149  0.94039  0.66639  Biso   1.000  H
  H231     1.0000 0.50621  0.93070  0.66449  Biso   1.000  H
  C167     1.0000 0.53111  0.99698  0.61762  Biso   1.000  C
  H232     1.0000 0.57149  0.94043  0.66639  Biso   1.000  H
  C168     1.0000 0.53111  0.99702  0.61762  Biso   1.000  C
  H233     1.0000 0.51920  0.92169  0.66829  Biso   1.000  H
  H234     1.0000 0.57442  0.95739  0.65530  Biso   1.000  H
  H235     1.0000 0.47489  0.97820  0.60512  Biso   1.000  H
  H236     1.0000 0.52511  0.02180  0.60512  Biso   1.000  H
  H237     1.0000 0.44982  0.96732  0.62349  Biso   1.000  H
  H238     1.0000 0.45491  0.02081  0.58340  Biso   1.000  H
  C169     1.0000 0.63251  0.94539  0.88702  Biso   1.000  C
  C170     1.0000 0.61302  0.86749  0.94539  Biso   1.000  C
  C171     1.0000 0.44539  0.88702  0.13251  Biso   1.000  C
  C172     1.0000 0.36749  0.94539  0.11298  Biso   1.000  C
  C173     1.0000 0.36749  0.94539  0.11302  Biso   1.000  C
  C174     1.0000 0.35442  0.91341  0.06752  Biso   1.000  C
  H239     1.0000 0.30060  0.90609  0.99992  Biso   1.000  H
  H240     1.0000 0.12349  0.94982  0.96732  Biso   1.000  H
  H241     1.0000 0.08340  0.95491  0.02081  Biso   1.000  H
  C175     1.0000 0.58659  0.93248  0.85442  Biso   1.000  C
  C176     1.0000 0.58659  0.93253  0.85442  Biso   1.000  C
  H242     1.0000 0.59391  0.00008  0.80060  Biso   1.000  H
  H243     1.0000 0.59391  0.00012  0.80060  Biso   1.000  H
  H244     1.0000 0.54509  0.97919  0.58340  Biso   1.000  H
  H245     1.0000 0.55022  0.03268  0.62349  Biso   1.000  H
  H246     1.0000 0.55022  0.03272  0.62349  Biso   1.000  H
  H247     1.0000 0.65481  0.97650  0.87792  Biso   1.000  H
  H248     1.0000 0.62212  0.84519  0.97650  Biso   1.000  H
  C177     1.0000 0.56752  0.85442  0.91341  Biso   1.000  C
  C178     1.0000 0.43248  0.85442  0.08659  Biso   1.000  C
  H249     1.0000 0.47650  0.87792  0.15481  Biso   1.000  H
  C179     1.0000 0.43248  0.85442  0.08663  Biso   1.000  C
  H250     1.0000 0.34519  0.97650  0.12208  Biso   1.000  H
  H251     1.0000 0.34519  0.97650  0.12212  Biso   1.000  H
  C180     1.0000 0.38702  0.86749  0.05461  Biso   1.000  C
  C181     1.0000 0.55461  0.88702  0.86749  Biso   1.000  C
  C182     1.0000 0.53351  0.80568  0.92570  Biso   1.000  C
  C183     1.0000 0.53351  0.80573  0.92570  Biso   1.000  C
  C184     1.0000 0.46649  0.80568  0.07430  Biso   1.000  C
  C185     1.0000 0.46649  0.80573  0.07430  Biso   1.000  C
  H252     1.0000 0.37792  0.84519  0.02350  Biso   1.000  H
  H253     1.0000 0.52350  0.87792  0.84519  Biso   1.000  H
  N28      1.0000 0.54749  0.76998  0.96182  Biso   1.000  N
  H254     1.0000 0.49992  0.80060  0.90609  Biso   1.000  H
  N29      1.0000 0.54749  0.77002  0.96182  Biso   1.000  N
  N30      1.0000 0.45251  0.76998  0.03818  Biso   1.000  N
  H255     1.0000 0.50012  0.80060  0.09391  Biso   1.000  H
  N31      1.0000 0.45251  0.76998  0.03823  Biso   1.000  N
  N32      1.0000 0.45251  0.77002  0.03818  Biso   1.000  N
  N33      1.0000 0.45251  0.77002  0.03823  Biso   1.000  N
  C186     1.0000 0.51059  0.72369  0.97079  Biso   1.000  C
  C187     1.0000 0.48941  0.72369  0.02921  Biso   1.000  C
  H256     1.0000 0.47299  0.72898  0.94800  Biso   1.000  H
  C188     1.0000 0.54058  0.66730  0.96471  Biso   1.000  C
  H257     1.0000 0.47299  0.72903  0.94800  Biso   1.000  H
  H258     1.0000 0.52701  0.72898  0.05200  Biso   1.000  H
  C189     1.0000 0.45942  0.66730  0.03529  Biso   1.000  C
  H259     1.0000 0.52701  0.72903  0.05200  Biso   1.000  H
  H260     1.0000 0.55961  0.66639  0.92851  Biso   1.000  H
  H261     1.0000 0.56930  0.66449  0.99379  Biso   1.000  H
  C190     1.0000 0.50302  0.61762  0.96889  Biso   1.000  C
  H262     1.0000 0.57831  0.66829  0.98080  Biso   1.000  H
  H263     1.0000 0.54261  0.65530  0.92562  Biso   1.000  H
  C191     1.0000 0.50000  0.62912  0.00000  Biso   1.000  C
  H264     1.0000 0.44039  0.66639  0.07149  Biso   1.000  H
  H265     1.0000 0.43070  0.66449  0.00621  Biso   1.000  H
  C192     1.0000 0.49702  0.61762  0.03111  Biso   1.000  C
  H266     1.0000 0.44039  0.66639  0.07153  Biso   1.000  H
  H267     1.0000 0.42169  0.66829  0.01920  Biso   1.000  H
  H268     1.0000 0.45739  0.65530  0.07438  Biso   1.000  H
  H269     1.0000 0.52081  0.58340  0.95491  Biso   1.000  H
  H270     1.0000 0.46732  0.62349  0.94982  Biso   1.000  H
  H271     1.0000 0.47820  0.60512  0.97489  Biso   1.000  H
  H272     1.0000 0.52180  0.60512  0.02511  Biso   1.000  H
  H273     1.0000 0.47919  0.58340  0.04509  Biso   1.000  H
  H274     1.0000 0.53272  0.62349  0.05018  Biso   1.000  H
  H275     1.0000 0.53272  0.62349  0.05022  Biso   1.000  H
  C193     1.0000 0.50302  0.38238  0.03111  Biso   1.000  C
  C194     1.0000 0.54058  0.33270  0.03529  Biso   1.000  C
  H276     1.0000 0.52081  0.41660  0.04509  Biso   1.000  H
  H277     1.0000 0.46732  0.37651  0.05018  Biso   1.000  H
  H278     1.0000 0.46732  0.37651  0.05022  Biso   1.000  H
  C195     1.0000 0.49702  0.38238  0.96889  Biso   1.000  C
  C196     1.0000 0.49702  0.38243  0.96889  Biso   1.000  C
  H279     1.0000 0.47820  0.39492  0.02511  Biso   1.000  H
  C197     1.0000 0.51059  0.27631  0.02921  Biso   1.000  C
  H280     1.0000 0.56930  0.33551  0.00621  Biso   1.000  H
  H281     1.0000 0.55961  0.33361  0.07149  Biso   1.000  H
  H282     1.0000 0.55961  0.33361  0.07153  Biso   1.000  H
  C198     1.0000 0.50302  0.38243  0.03111  Biso   1.000  C
  C199     1.0000 0.50000  0.37088  0.00000  Biso   1.000  C
  H283     1.0000 0.57831  0.33171  0.01920  Biso   1.000  H
  H284     1.0000 0.54261  0.34470  0.07438  Biso   1.000  H
  C200     1.0000 0.45942  0.33270  0.96471  Biso   1.000  C
  H285     1.0000 0.52180  0.39492  0.97489  Biso   1.000  H
  H286     1.0000 0.47919  0.41660  0.95491  Biso   1.000  H
  H287     1.0000 0.53272  0.37651  0.94982  Biso   1.000  H
  N34      1.0000 0.54749  0.23002  0.03818  Biso   1.000  N
  N35      1.0000 0.54749  0.23002  0.03823  Biso   1.000  N
  H288     1.0000 0.47299  0.27102  0.05200  Biso   1.000  H
  C201     1.0000 0.48941  0.27631  0.97079  Biso   1.000  C
  H289     1.0000 0.44039  0.33361  0.92851  Biso   1.000  H
  H290     1.0000 0.43070  0.33551  0.99379  Biso   1.000  H
  H291     1.0000 0.42169  0.33171  0.98080  Biso   1.000  H
  H292     1.0000 0.45739  0.34470  0.92562  Biso   1.000  H
  C202     1.0000 0.53351  0.19432  0.07430  Biso   1.000  C
  N36      1.0000 0.45251  0.23002  0.96182  Biso   1.000  N
  H293     1.0000 0.52701  0.27102  0.94800  Biso   1.000  H
  H294     1.0000 0.49992  0.19940  0.09391  Biso   1.000  H
  C203     1.0000 0.56752  0.14558  0.08659  Biso   1.000  C
  C204     1.0000 0.56752  0.14558  0.08663  Biso   1.000  C
  C205     1.0000 0.56752  0.14562  0.08659  Biso   1.000  C
  C206     1.0000 0.56752  0.14562  0.08663  Biso   1.000  C
  C207     1.0000 0.46649  0.19432  0.92570  Biso   1.000  C
  C208     1.0000 0.61302  0.13251  0.05461  Biso   1.000  C
  C209     1.0000 0.55461  0.11298  0.13251  Biso   1.000  C
  C210     1.0000 0.55461  0.11302  0.13251  Biso   1.000  C
  H295     1.0000 0.50012  0.19940  0.90609  Biso   1.000  H
  C211     1.0000 0.43248  0.14558  0.91341  Biso   1.000  C
  C212     1.0000 0.43248  0.14562  0.91341  Biso   1.000  C
  C213     1.0000 0.64562  0.08659  0.06752  Biso   1.000  C
  H296     1.0000 0.62212  0.15481  0.02350  Biso   1.000  H
  C214     1.0000 0.64562  0.08663  0.06752  Biso   1.000  C
  H297     1.0000 0.52350  0.12208  0.15481  Biso   1.000  H
  C215     1.0000 0.58659  0.06752  0.14558  Biso   1.000  C
  H298     1.0000 0.52350  0.12212  0.15481  Biso   1.000  H
  C216     1.0000 0.58659  0.06752  0.14562  Biso   1.000  C
  C217     1.0000 0.38702  0.13251  0.94539  Biso   1.000  C
  C218     1.0000 0.44539  0.11298  0.86749  Biso   1.000  C
  C219     1.0000 0.44539  0.11302  0.86749  Biso   1.000  C
  C220     1.0000 0.69432  0.07430  0.03351  Biso   1.000  C
  C221     1.0000 0.63251  0.05461  0.11298  Biso   1.000  C
  C222     1.0000 0.63251  0.05461  0.11302  Biso   1.000  C
  C223     1.0000 0.57430  0.03351  0.19432  Biso   1.000  C
  H299     1.0000 0.37792  0.15481  0.97650  Biso   1.000  H
  C224     1.0000 0.35442  0.08659  0.93248  Biso   1.000  C
  C225     1.0000 0.35442  0.08659  0.93253  Biso   1.000  C
  C226     1.0000 0.35442  0.08663  0.93248  Biso   1.000  C
  C227     1.0000 0.35442  0.08663  0.93253  Biso   1.000  C
  H300     1.0000 0.47650  0.12208  0.84519  Biso   1.000  H
  C228     1.0000 0.41341  0.06752  0.85442  Biso   1.000  C
  H301     1.0000 0.47650  0.12212  0.84519  Biso   1.000  H
  N37      1.0000 0.73002  0.03818  0.04749  Biso   1.000  N
  N38      1.0000 0.73002  0.03823  0.04749  Biso   1.000  N
  H302     1.0000 0.69940  0.09391  0.99992  Biso   1.000  H
  H303     1.0000 0.65481  0.02350  0.12208  Biso   1.000  H
  H304     1.0000 0.65481  0.02350  0.12212  Biso   1.000  H
  N39      1.0000 0.53818  0.04749  0.23002  Biso   1.000  N
  H305     1.0000 0.59391  0.99992  0.19940  Biso   1.000  H
  C229     1.0000 0.30568  0.07430  0.96649  Biso   1.000  C
  C230     1.0000 0.36749  0.05461  0.88702  Biso   1.000  C
  C231     1.0000 0.42570  0.03351  0.80568  Biso   1.000  C
  C232     1.0000 0.42570  0.03351  0.80573  Biso   1.000  C
  C233     1.0000 0.77631  0.02921  0.01059  Biso   1.000  C
  C234     1.0000 0.52921  0.01059  0.27631  Biso   1.000  C
  H306     1.0000 0.30060  0.09391  0.00008  Biso   1.000  H
  H307     1.0000 0.30060  0.09391  0.00012  Biso   1.000  H
  N40      1.0000 0.26998  0.03818  0.95251  Biso   1.000  N
  N41      1.0000 0.26998  0.03823  0.95251  Biso   1.000  N
  H308     1.0000 0.34519  0.02350  0.87792  Biso   1.000  H
  H309     1.0000 0.40609  0.99992  0.80060  Biso   1.000  H
  N42      1.0000 0.46182  0.04749  0.76998  Biso   1.000  N
  N43      1.0000 0.46182  0.04749  0.77002  Biso   1.000  N
  C235     1.0000 0.83270  0.03529  0.04058  Biso   1.000  C
  C236     1.0000 0.83270  0.03529  0.04063  Biso   1.000  C
  C237     1.0000 0.77631  0.97079  0.98941  Biso   1.000  C
  H310     1.0000 0.77102  0.05200  0.97299  Biso   1.000  H
  H311     1.0000 0.77102  0.05200  0.97303  Biso   1.000  H
  C238     1.0000 0.53529  0.04058  0.33270  Biso   1.000  C
  C239     1.0000 0.53529  0.04063  0.33270  Biso   1.000  C
  H312     1.0000 0.55200  0.97299  0.27102  Biso   1.000  H
  C240     1.0000 0.47079  0.98941  0.27631  Biso   1.000  C
  H313     1.0000 0.55200  0.97303  0.27102  Biso   1.000  H
  C241     1.0000 0.22369  0.02921  0.98941  Biso   1.000  C
  C242     1.0000 0.47079  0.01059  0.72369  Biso   1.000  C
  H314     1.0000 0.83361  0.07149  0.05961  Biso   1.000  H
  H315     1.0000 0.83551  0.00621  0.06930  Biso   1.000  H
  C243     1.0000 0.88243  0.03111  0.00302  Biso   1.000  C
  H316     1.0000 0.83361  0.07153  0.05961  Biso   1.000  H
  C244     1.0000 0.87093  0.00000  0.00000  Biso   1.000  C
  H317     1.0000 0.83171  0.01920  0.07831  Biso   1.000  H
  H318     1.0000 0.84470  0.07438  0.04261  Biso   1.000  H
  N44      1.0000 0.73002  0.96182  0.95251  Biso   1.000  N
  C245     1.0000 0.83270  0.96471  0.95942  Biso   1.000  C
  H319     1.0000 0.77102  0.94800  0.02701  Biso   1.000  H
  H320     1.0000 0.57149  0.05961  0.33361  Biso   1.000  H
  H321     1.0000 0.50621  0.06930  0.33551  Biso   1.000  H
  C246     1.0000 0.53111  0.00302  0.38238  Biso   1.000  C
  C247     1.0000 0.53111  0.00302  0.38243  Biso   1.000  C
  C248     1.0000 0.50000  0.00000  0.37088  Biso   1.000  C
  H322     1.0000 0.51920  0.07831  0.33171  Biso   1.000  H
  H323     1.0000 0.57442  0.04261  0.34470  Biso   1.000  H
  H324     1.0000 0.44800  0.02701  0.27102  Biso   1.000  H
  N45      1.0000 0.46182  0.95251  0.23002  Biso   1.000  N
  C249     1.0000 0.46471  0.95942  0.33270  Biso   1.000  C
  H325     1.0000 0.22898  0.05200  0.02701  Biso   1.000  H
  C250     1.0000 0.22369  0.97079  0.01059  Biso   1.000  C
  C251     1.0000 0.16730  0.03529  0.95942  Biso   1.000  C
  H326     1.0000 0.44800  0.97299  0.72898  Biso   1.000  H
  C252     1.0000 0.52921  0.98941  0.72369  Biso   1.000  C
  H327     1.0000 0.44800  0.97299  0.72903  Biso   1.000  H
  H328     1.0000 0.44800  0.97303  0.72898  Biso   1.000  H
  H329     1.0000 0.44800  0.97303  0.72903  Biso   1.000  H
  C253     1.0000 0.46471  0.04058  0.66730  Biso   1.000  C
  C254     1.0000 0.46471  0.04063  0.66730  Biso   1.000  C
  H330     1.0000 0.91660  0.04509  0.02081  Biso   1.000  H
  C255     1.0000 0.88243  0.96889  0.99698  Biso   1.000  C
  C256     1.0000 0.88243  0.96889  0.99702  Biso   1.000  C
  H331     1.0000 0.87651  0.05018  0.96732  Biso   1.000  H
  H332     1.0000 0.87651  0.05022  0.96732  Biso   1.000  H
  H333     1.0000 0.89492  0.02511  0.97820  Biso   1.000  H
  H334     1.0000 0.89492  0.97489  0.02180  Biso   1.000  H
  C257     1.0000 0.69432  0.92570  0.96649  Biso   1.000  C
  H335     1.0000 0.83361  0.92851  0.94039  Biso   1.000  H
  H336     1.0000 0.83551  0.99379  0.93070  Biso   1.000  H
  H337     1.0000 0.83361  0.92851  0.94043  Biso   1.000  H
  H338     1.0000 0.83171  0.98080  0.92169  Biso   1.000  H
  H339     1.0000 0.84470  0.92562  0.95739  Biso   1.000  H
  H340     1.0000 0.54509  0.02081  0.41660  Biso   1.000  H
  H341     1.0000 0.55022  0.96732  0.37651  Biso   1.000  H
  C258     1.0000 0.46889  0.99698  0.38238  Biso   1.000  C
  C259     1.0000 0.46889  0.99698  0.38243  Biso   1.000  C
  C260     1.0000 0.46889  0.99702  0.38238  Biso   1.000  C
  C261     1.0000 0.46889  0.99702  0.38243  Biso   1.000  C
  H342     1.0000 0.52511  0.97820  0.39492  Biso   1.000  H
  H343     1.0000 0.47489  0.02180  0.39492  Biso   1.000  H
  C262     1.0000 0.42570  0.96649  0.19432  Biso   1.000  C
  H344     1.0000 0.42851  0.94039  0.33361  Biso   1.000  H
  H345     1.0000 0.49379  0.93070  0.33551  Biso   1.000  H
  H346     1.0000 0.42851  0.94043  0.33361  Biso   1.000  H
  H347     1.0000 0.48080  0.92169  0.33171  Biso   1.000  H
  H348     1.0000 0.42562  0.95739  0.34470  Biso   1.000  H
  H349     1.0000 0.22898  0.94800  0.97299  Biso   1.000  H
  H350     1.0000 0.22898  0.94800  0.97303  Biso   1.000  H
  N46      1.0000 0.26998  0.96182  0.04749  Biso   1.000  N
  C263     1.0000 0.16730  0.96471  0.04058  Biso   1.000  C
  C264     1.0000 0.16730  0.96471  0.04063  Biso   1.000  C
  C265     1.0000 0.12912  0.00000  0.00000  Biso   1.000  C
  H351     1.0000 0.16639  0.07149  0.94039  Biso   1.000  H
  H352     1.0000 0.16449  0.00621  0.93070  Biso   1.000  H
  C266     1.0000 0.11762  0.03111  0.99698  Biso   1.000  C
  H353     1.0000 0.16639  0.07149  0.94043  Biso   1.000  H
  C267     1.0000 0.11762  0.03111  0.99702  Biso   1.000  C
  H354     1.0000 0.16639  0.07153  0.94039  Biso   1.000  H
  H355     1.0000 0.16639  0.07153  0.94043  Biso   1.000  H
  H356     1.0000 0.16829  0.01920  0.92169  Biso   1.000  H
  H357     1.0000 0.15530  0.07438  0.95739  Biso   1.000  H
  N47      1.0000 0.53818  0.95251  0.76998  Biso   1.000  N
  C268     1.0000 0.53529  0.95942  0.66730  Biso   1.000  C
  N48      1.0000 0.53818  0.95251  0.77002  Biso   1.000  N
  H358     1.0000 0.55200  0.02701  0.72898  Biso   1.000  H
  H359     1.0000 0.55200  0.02701  0.72903  Biso   1.000  H
  C269     1.0000 0.50000  0.00000  0.62912  Biso   1.000  C
  H360     1.0000 0.42851  0.05961  0.66639  Biso   1.000  H
  H361     1.0000 0.49379  0.06930  0.66449  Biso   1.000  H
  C270     1.0000 0.46889  0.00302  0.61762  Biso   1.000  C
  H362     1.0000 0.48080  0.07831  0.66829  Biso   1.000  H
  H363     1.0000 0.42562  0.04261  0.65530  Biso   1.000  H
  H364     1.0000 0.91660  0.95491  0.97919  Biso   1.000  H
  H365     1.0000 0.87651  0.94982  0.03268  Biso   1.000  H
  H366     1.0000 0.87651  0.94982  0.03272  Biso   1.000  H
  C271     1.0000 0.64562  0.91341  0.93248  Biso   1.000  C
  C272     1.0000 0.64562  0.91341  0.93253  Biso   1.000  C
  H367     1.0000 0.69940  0.90609  0.00008  Biso   1.000  H
  H368     1.0000 0.69940  0.90609  0.00012  Biso   1.000  H
  H369     1.0000 0.44982  0.03268  0.37651  Biso   1.000  H
  H370     1.0000 0.44982  0.03272  0.37651  Biso   1.000  H
  H371     1.0000 0.45491  0.97919  0.41660  Biso   1.000  H
  H372     1.0000 0.40609  0.00008  0.19940  Biso   1.000  H
  H373     1.0000 0.40609  0.00012  0.19940  Biso   1.000  H
  C273     1.0000 0.41341  0.93248  0.14558  Biso   1.000  C
  C274     1.0000 0.41341  0.93248  0.14562  Biso   1.000  C
  C275     1.0000 0.41341  0.93253  0.14558  Biso   1.000  C
  C276     1.0000 0.41341  0.93253  0.14562  Biso   1.000  C
  C277     1.0000 0.30568  0.92570  0.03351  Biso   1.000  C
  H374     1.0000 0.16639  0.92851  0.05961  Biso   1.000  H
  H375     1.0000 0.16449  0.99379  0.06930  Biso   1.000  H
  C278     1.0000 0.11762  0.96889  0.00302  Biso   1.000  C
  H376     1.0000 0.16829  0.98080  0.07831  Biso   1.000  H
  H377     1.0000 0.15530  0.92562  0.04261  Biso   1.000  H
  H378     1.0000 0.10508  0.97489  0.97820  Biso   1.000  H
  H379     1.0000 0.10508  0.02511  0.02180  Biso   1.000  H
  H380     1.0000 0.08340  0.04509  0.97919  Biso   1.000  H
  H381     1.0000 0.12349  0.05018  0.03268  Biso   1.000  H
  H382     1.0000 0.12349  0.05018  0.03272  Biso   1.000  H
  H383     1.0000 0.12349  0.05022  0.03268  Biso   1.000  H
  H384     1.0000 0.12349  0.05022  0.03272  Biso   1.000  H
  C279     1.0000 0.57430  0.96649  0.80568  Biso   1.000  C
  C280     1.0000 0.57430  0.96649  0.80573  Biso   1.000  C
  H385     1.0000 0.57149  0.94039  0.66639  Biso   1.000  H
  H386     1.0000 0.50621  0.93070  0.66449  Biso   1.000  H
  C281     1.0000 0.53111  0.99698  0.61762  Biso   1.000  C
  H387     1.0000 0.57149  0.94043  0.66639  Biso   1.000  H
  C282     1.0000 0.53111  0.99702  0.61762  Biso   1.000  C
  H388     1.0000 0.51920  0.92169  0.66829  Biso   1.000  H
  H389     1.0000 0.57442  0.95739  0.65530  Biso   1.000  H
  H390     1.0000 0.47489  0.97820  0.60512  Biso   1.000  H
  H391     1.0000 0.52511  0.02180  0.60512  Biso   1.000  H
  H392     1.0000 0.44982  0.96732  0.62349  Biso   1.000  H
  H393     1.0000 0.45491  0.02081  0.58340  Biso   1.000  H
  C283     1.0000 0.63251  0.94539  0.88702  Biso   1.000  C
  C284     1.0000 0.61302  0.86749  0.94539  Biso   1.000  C
  C285     1.0000 0.44539  0.88702  0.13251  Biso   1.000  C
  C286     1.0000 0.36749  0.94539  0.11298  Biso   1.000  C
  C287     1.0000 0.36749  0.94539  0.11302  Biso   1.000  C
  C288     1.0000 0.35442  0.91341  0.06752  Biso   1.000  C
  H394     1.0000 0.30060  0.90609  0.99992  Biso   1.000  H
  H395     1.0000 0.12349  0.94982  0.96732  Biso   1.000  H
  H396     1.0000 0.08340  0.95491  0.02081  Biso   1.000  H
  C289     1.0000 0.58659  0.93248  0.85442  Biso   1.000  C
  C290     1.0000 0.58659  0.93253  0.85442  Biso   1.000  C
  H397     1.0000 0.59391  0.00008  0.80060  Biso   1.000  H
  H398     1.0000 0.59391  0.00012  0.80060  Biso   1.000  H
  H399     1.0000 0.54509  0.97919  0.58340  Biso   1.000  H
  H400     1.0000 0.55022  0.03268  0.62349  Biso   1.000  H
  H401     1.0000 0.55022  0.03272  0.62349  Biso   1.000  H
  H402     1.0000 0.65481  0.97650  0.87792  Biso   1.000  H
  H403     1.0000 0.62212  0.84519  0.97650  Biso   1.000  H
  C291     1.0000 0.56752  0.85442  0.91341  Biso   1.000  C
  C292     1.0000 0.43248  0.85442  0.08659  Biso   1.000  C
  H404     1.0000 0.47650  0.87792  0.15481  Biso   1.000  H
  C293     1.0000 0.43248  0.85442  0.08663  Biso   1.000  C
  H405     1.0000 0.34519  0.97650  0.12208  Biso   1.000  H
  H406     1.0000 0.34519  0.97650  0.12212  Biso   1.000  H
  C294     1.0000 0.38702  0.86749  0.05461  Biso   1.000  C
  C295     1.0000 0.55461  0.88702  0.86749  Biso   1.000  C
  C296     1.0000 0.53351  0.80568  0.92570  Biso   1.000  C
  C297     1.0000 0.53351  0.80573  0.92570  Biso   1.000  C
  C298     1.0000 0.46649  0.80568  0.07430  Biso   1.000  C
  C299     1.0000 0.46649  0.80573  0.07430  Biso   1.000  C
  H407     1.0000 0.37792  0.84519  0.02350  Biso   1.000  H
  H408     1.0000 0.52350  0.87792  0.84519  Biso   1.000  H
  N49      1.0000 0.54749  0.76998  0.96182  Biso   1.000  N
  H409     1.0000 0.49992  0.80060  0.90609  Biso   1.000  H
  N50      1.0000 0.54749  0.77002  0.96182  Biso   1.000  N
  N51      1.0000 0.45251  0.76998  0.03818  Biso   1.000  N
  H410     1.0000 0.50012  0.80060  0.09391  Biso   1.000  H
  N52      1.0000 0.45251  0.76998  0.03823  Biso   1.000  N
  N53      1.0000 0.45251  0.77002  0.03818  Biso   1.000  N
  N54      1.0000 0.45251  0.77002  0.03823  Biso   1.000  N
  C300     1.0000 0.51059  0.72369  0.97079  Biso   1.000  C
  C301     1.0000 0.48941  0.72369  0.02921  Biso   1.000  C
  H411     1.0000 0.47299  0.72898  0.94800  Biso   1.000  H
  C302     1.0000 0.54058  0.66730  0.96471  Biso   1.000  C
  H412     1.0000 0.47299  0.72903  0.94800  Biso   1.000  H
  H413     1.0000 0.52701  0.72898  0.05200  Biso   1.000  H
  C303     1.0000 0.45942  0.66730  0.03529  Biso   1.000  C
  H414     1.0000 0.52701  0.72903  0.05200  Biso   1.000  H
  H415     1.0000 0.55961  0.66639  0.92851  Biso   1.000  H
  H416     1.0000 0.56930  0.66449  0.99379  Biso   1.000  H
  C304     1.0000 0.50302  0.61762  0.96889  Biso   1.000  C
  H417     1.0000 0.57831  0.66829  0.98080  Biso   1.000  H
  H418     1.0000 0.54261  0.65530  0.92562  Biso   1.000  H
  C305     1.0000 0.50000  0.62912  0.00000  Biso   1.000  C
  H419     1.0000 0.44039  0.66639  0.07149  Biso   1.000  H
  H420     1.0000 0.43070  0.66449  0.00621  Biso   1.000  H
  C306     1.0000 0.49702  0.61762  0.03111  Biso   1.000  C
  H421     1.0000 0.44039  0.66639  0.07153  Biso   1.000  H
  H422     1.0000 0.42169  0.66829  0.01920  Biso   1.000  H
  H423     1.0000 0.45739  0.65530  0.07438  Biso   1.000  H
  H424     1.0000 0.52081  0.58340  0.95491  Biso   1.000  H
  H425     1.0000 0.46732  0.62349  0.94982  Biso   1.000  H
  H426     1.0000 0.47820  0.60512  0.97489  Biso   1.000  H
  H427     1.0000 0.52180  0.60512  0.02511  Biso   1.000  H
  H428     1.0000 0.47919  0.58340  0.04509  Biso   1.000  H
  H429     1.0000 0.53272  0.62349  0.05018  Biso   1.000  H
  H430     1.0000 0.53272  0.62349  0.05022  Biso   1.000  H
  C307     1.0000 0.50302  0.38238  0.03111  Biso   1.000  C
  C308     1.0000 0.54058  0.33270  0.03529  Biso   1.000  C
  H431     1.0000 0.47820  0.39492  0.02511  Biso   1.000  H
  H432     1.0000 0.52081  0.41660  0.04509  Biso   1.000  H
  C309     1.0000 0.49702  0.38238  0.96889  Biso   1.000  C
  C310     1.0000 0.49702  0.38243  0.96889  Biso   1.000  C
  H433     1.0000 0.46732  0.37651  0.05018  Biso   1.000  H
  H434     1.0000 0.46732  0.37651  0.05022  Biso   1.000  H
  C311     1.0000 0.51059  0.27631  0.02921  Biso   1.000  C
  H435     1.0000 0.56930  0.33551  0.00621  Biso   1.000  H
  C312     1.0000 0.50000  0.37088  0.00000  Biso   1.000  C
  H436     1.0000 0.55961  0.33361  0.07149  Biso   1.000  H
  H437     1.0000 0.55961  0.33361  0.07153  Biso   1.000  H
  C313     1.0000 0.50302  0.38243  0.03111  Biso   1.000  C
  H438     1.0000 0.57831  0.33171  0.01920  Biso   1.000  H
  H439     1.0000 0.54261  0.34470  0.07438  Biso   1.000  H
  C314     1.0000 0.45942  0.33270  0.96471  Biso   1.000  C
  H440     1.0000 0.52180  0.39492  0.97489  Biso   1.000  H
  H441     1.0000 0.47919  0.41660  0.95491  Biso   1.000  H
  H442     1.0000 0.53272  0.37651  0.94982  Biso   1.000  H
  N55      1.0000 0.54749  0.23002  0.03818  Biso   1.000  N
  N56      1.0000 0.54749  0.23002  0.03823  Biso   1.000  N
  H443     1.0000 0.47299  0.27102  0.05200  Biso   1.000  H
  C315     1.0000 0.48941  0.27631  0.97079  Biso   1.000  C
  H444     1.0000 0.44039  0.33361  0.92851  Biso   1.000  H
  H445     1.0000 0.43070  0.33551  0.99379  Biso   1.000  H
  H446     1.0000 0.42169  0.33171  0.98080  Biso   1.000  H
  H447     1.0000 0.45739  0.34470  0.92562  Biso   1.000  H
  C316     1.0000 0.53351  0.19432  0.07430  Biso   1.000  C
  N57      1.0000 0.45251  0.23002  0.96182  Biso   1.000  N
  H448     1.0000 0.52701  0.27102  0.94800  Biso   1.000  H
  H449     1.0000 0.49992  0.19940  0.09391  Biso   1.000  H
  C317     1.0000 0.56752  0.14558  0.08659  Biso   1.000  C
  C318     1.0000 0.56752  0.14558  0.08663  Biso   1.000  C
  C319     1.0000 0.56752  0.14562  0.08659  Biso   1.000  C
  C320     1.0000 0.56752  0.14562  0.08663  Biso   1.000  C
  C321     1.0000 0.46649  0.19432  0.92570  Biso   1.000  C
  C322     1.0000 0.61302  0.13251  0.05461  Biso   1.000  C
  C323     1.0000 0.55461  0.11298  0.13251  Biso   1.000  C
  C324     1.0000 0.55461  0.11302  0.13251  Biso   1.000  C
  H450     1.0000 0.50012  0.19940  0.90609  Biso   1.000  H
  C325     1.0000 0.43248  0.14558  0.91341  Biso   1.000  C
  C326     1.0000 0.43248  0.14562  0.91341  Biso   1.000  C
  H451     1.0000 0.62212  0.15481  0.02350  Biso   1.000  H
  C327     1.0000 0.64562  0.08659  0.06752  Biso   1.000  C
  C328     1.0000 0.64562  0.08663  0.06752  Biso   1.000  C
  H452     1.0000 0.52350  0.12208  0.15481  Biso   1.000  H
  C329     1.0000 0.58659  0.06752  0.14558  Biso   1.000  C
  C330     1.0000 0.58659  0.06752  0.14562  Biso   1.000  C
  H453     1.0000 0.52350  0.12212  0.15481  Biso   1.000  H
  C331     1.0000 0.38702  0.13251  0.94539  Biso   1.000  C
  C332     1.0000 0.44539  0.11298  0.86749  Biso   1.000  C
  C333     1.0000 0.44539  0.11302  0.86749  Biso   1.000  C
  C334     1.0000 0.69432  0.07430  0.03351  Biso   1.000  C
  C335     1.0000 0.63251  0.05461  0.11298  Biso   1.000  C
  C336     1.0000 0.63251  0.05461  0.11302  Biso   1.000  C
  C337     1.0000 0.57430  0.03351  0.19432  Biso   1.000  C
  H454     1.0000 0.37792  0.15481  0.97650  Biso   1.000  H
  C338     1.0000 0.35442  0.08659  0.93248  Biso   1.000  C
  C339     1.0000 0.35442  0.08659  0.93253  Biso   1.000  C
  C340     1.0000 0.35442  0.08663  0.93248  Biso   1.000  C
  C341     1.0000 0.35442  0.08663  0.93253  Biso   1.000  C
  H455     1.0000 0.47650  0.12208  0.84519  Biso   1.000  H
  C342     1.0000 0.41341  0.06752  0.85442  Biso   1.000  C
  H456     1.0000 0.47650  0.12212  0.84519  Biso   1.000  H
  H457     1.0000 0.69940  0.09391  0.99992  Biso   1.000  H
  N58      1.0000 0.73002  0.03818  0.04749  Biso   1.000  N
  N59      1.0000 0.73002  0.03823  0.04749  Biso   1.000  N
  H458     1.0000 0.65481  0.02350  0.12208  Biso   1.000  H
  H459     1.0000 0.65481  0.02350  0.12212  Biso   1.000  H
  N60      1.0000 0.53818  0.04749  0.23002  Biso   1.000  N
  H460     1.0000 0.59391  0.99992  0.19940  Biso   1.000  H
  C343     1.0000 0.30568  0.07430  0.96649  Biso   1.000  C
  C344     1.0000 0.36749  0.05461  0.88702  Biso   1.000  C
  C345     1.0000 0.42570  0.03351  0.80568  Biso   1.000  C
  C346     1.0000 0.42570  0.03351  0.80573  Biso   1.000  C
  C347     1.0000 0.77631  0.02921  0.01059  Biso   1.000  C
  C348     1.0000 0.52921  0.01059  0.27631  Biso   1.000  C
  N61      1.0000 0.26998  0.03818  0.95251  Biso   1.000  N
  N62      1.0000 0.26998  0.03823  0.95251  Biso   1.000  N
  H461     1.0000 0.30060  0.09391  0.00008  Biso   1.000  H
  H462     1.0000 0.30060  0.09391  0.00012  Biso   1.000  H
  H463     1.0000 0.34519  0.02350  0.87792  Biso   1.000  H
  H464     1.0000 0.40609  0.99992  0.80060  Biso   1.000  H
  N63      1.0000 0.46182  0.04749  0.76998  Biso   1.000  N
  N64      1.0000 0.46182  0.04749  0.77002  Biso   1.000  N
  C349     1.0000 0.77631  0.97079  0.98941  Biso   1.000  C
  H465     1.0000 0.77102  0.05200  0.97299  Biso   1.000  H
  H466     1.0000 0.77102  0.05200  0.97303  Biso   1.000  H
  C350     1.0000 0.83270  0.03529  0.04058  Biso   1.000  C
  C351     1.0000 0.83270  0.03529  0.04063  Biso   1.000  C
  H467     1.0000 0.55200  0.97299  0.27102  Biso   1.000  H
  C352     1.0000 0.47079  0.98941  0.27631  Biso   1.000  C
  H468     1.0000 0.55200  0.97303  0.27102  Biso   1.000  H
  C353     1.0000 0.53529  0.04058  0.33270  Biso   1.000  C
  C354     1.0000 0.53529  0.04063  0.33270  Biso   1.000  C
  C355     1.0000 0.22369  0.02921  0.98941  Biso   1.000  C
  C356     1.0000 0.47079  0.01059  0.72369  Biso   1.000  C
  N65      1.0000 0.73002  0.96182  0.95251  Biso   1.000  N
  C357     1.0000 0.83270  0.96471  0.95942  Biso   1.000  C
  H469     1.0000 0.77102  0.94800  0.02701  Biso   1.000  H
  H470     1.0000 0.83551  0.00621  0.06930  Biso   1.000  H
  C358     1.0000 0.88243  0.03111  0.00302  Biso   1.000  C
  C359     1.0000 0.87093  0.00000  0.00000  Biso   1.000  C
  H471     1.0000 0.83361  0.07149  0.05961  Biso   1.000  H
  H472     1.0000 0.83361  0.07153  0.05961  Biso   1.000  H
  H473     1.0000 0.83171  0.01920  0.07831  Biso   1.000  H
  H474     1.0000 0.84470  0.07438  0.04261  Biso   1.000  H
  H475     1.0000 0.44800  0.02701  0.27102  Biso   1.000  H
  N66      1.0000 0.46182  0.95251  0.23002  Biso   1.000  N
  C360     1.0000 0.46471  0.95942  0.33270  Biso   1.000  C
  H476     1.0000 0.57149  0.05961  0.33361  Biso   1.000  H
  H477     1.0000 0.50621  0.06930  0.33551  Biso   1.000  H
  C361     1.0000 0.50000  0.00000  0.37088  Biso   1.000  C
  C362     1.0000 0.53111  0.00302  0.38238  Biso   1.000  C
  C363     1.0000 0.53111  0.00302  0.38243  Biso   1.000  C
  H478     1.0000 0.51920  0.07831  0.33171  Biso   1.000  H
  H479     1.0000 0.57442  0.04261  0.34470  Biso   1.000  H
  H480     1.0000 0.22898  0.05200  0.02701  Biso   1.000  H
  C364     1.0000 0.22369  0.97079  0.01059  Biso   1.000  C
  C365     1.0000 0.16730  0.03529  0.95942  Biso   1.000  C
  H481     1.0000 0.44800  0.97299  0.72898  Biso   1.000  H
  C366     1.0000 0.52921  0.98941  0.72369  Biso   1.000  C
  H482     1.0000 0.44800  0.97299  0.72903  Biso   1.000  H
  H483     1.0000 0.44800  0.97303  0.72898  Biso   1.000  H
  H484     1.0000 0.44800  0.97303  0.72903  Biso   1.000  H
  C367     1.0000 0.46471  0.04058  0.66730  Biso   1.000  C
  C368     1.0000 0.46471  0.04063  0.66730  Biso   1.000  C
  C369     1.0000 0.69432  0.92570  0.96649  Biso   1.000  C
  H485     1.0000 0.83361  0.92851  0.94039  Biso   1.000  H
  H486     1.0000 0.83551  0.99379  0.93070  Biso   1.000  H
  C370     1.0000 0.88243  0.96889  0.99698  Biso   1.000  C
  H487     1.0000 0.83361  0.92851  0.94043  Biso   1.000  H
  C371     1.0000 0.88243  0.96889  0.99702  Biso   1.000  C
  H488     1.0000 0.83171  0.98080  0.92169  Biso   1.000  H
  H489     1.0000 0.84470  0.92562  0.95739  Biso   1.000  H
  H490     1.0000 0.91660  0.04509  0.02081  Biso   1.000  H
  H491     1.0000 0.87651  0.05018  0.96732  Biso   1.000  H
  H492     1.0000 0.87651  0.05022  0.96732  Biso   1.000  H
  H493     1.0000 0.89492  0.02511  0.97820  Biso   1.000  H
  H494     1.0000 0.89492  0.97489  0.02180  Biso   1.000  H
  C372     1.0000 0.42570  0.96649  0.19432  Biso   1.000  C
  H495     1.0000 0.42851  0.94039  0.33361  Biso   1.000  H
  H496     1.0000 0.49379  0.93070  0.33551  Biso   1.000  H
  C373     1.0000 0.46889  0.99698  0.38238  Biso   1.000  C
  C374     1.0000 0.46889  0.99698  0.38243  Biso   1.000  C
  H497     1.0000 0.42851  0.94043  0.33361  Biso   1.000  H
  C375     1.0000 0.46889  0.99702  0.38238  Biso   1.000  C
  C376     1.0000 0.46889  0.99702  0.38243  Biso   1.000  C
  H498     1.0000 0.48080  0.92169  0.33171  Biso   1.000  H
  H499     1.0000 0.42562  0.95739  0.34470  Biso   1.000  H
  H500     1.0000 0.52511  0.97820  0.39492  Biso   1.000  H
  H501     1.0000 0.47489  0.02180  0.39492  Biso   1.000  H
  H502     1.0000 0.54509  0.02081  0.41660  Biso   1.000  H
  H503     1.0000 0.55022  0.96732  0.37651  Biso   1.000  H
  H504     1.0000 0.22898  0.94800  0.97299  Biso   1.000  H
  H505     1.0000 0.22898  0.94800  0.97303  Biso   1.000  H
  N67      1.0000 0.26998  0.96182  0.04749  Biso   1.000  N
  C377     1.0000 0.16730  0.96471  0.04058  Biso   1.000  C
  C378     1.0000 0.16730  0.96471  0.04063  Biso   1.000  C
  C379     1.0000 0.12912  0.00000  0.00000  Biso   1.000  C
  H506     1.0000 0.16639  0.07149  0.94039  Biso   1.000  H
  H507     1.0000 0.16449  0.00621  0.93070  Biso   1.000  H
  C380     1.0000 0.11762  0.03111  0.99698  Biso   1.000  C
  H508     1.0000 0.16639  0.07149  0.94043  Biso   1.000  H
  C381     1.0000 0.11762  0.03111  0.99702  Biso   1.000  C
  H509     1.0000 0.16639  0.07153  0.94039  Biso   1.000  H
  H510     1.0000 0.16639  0.07153  0.94043  Biso   1.000  H
  H511     1.0000 0.16829  0.01920  0.92169  Biso   1.000  H
  H512     1.0000 0.15530  0.07438  0.95739  Biso   1.000  H
  N68      1.0000 0.53818  0.95251  0.76998  Biso   1.000  N
  C382     1.0000 0.53529  0.95942  0.66730  Biso   1.000  C
  N69      1.0000 0.53818  0.95251  0.77002  Biso   1.000  N
  H513     1.0000 0.55200  0.02701  0.72898  Biso   1.000  H
  H514     1.0000 0.55200  0.02701  0.72903  Biso   1.000  H
  C383     1.0000 0.50000  0.00000  0.62912  Biso   1.000  C
  H515     1.0000 0.42851  0.05961  0.66639  Biso   1.000  H
  H516     1.0000 0.49379  0.06930  0.66449  Biso   1.000  H
  C384     1.0000 0.46889  0.00302  0.61762  Biso   1.000  C
  H517     1.0000 0.48080  0.07831  0.66829  Biso   1.000  H
  H518     1.0000 0.42562  0.04261  0.65530  Biso   1.000  H
  C385     1.0000 0.64562  0.91341  0.93248  Biso   1.000  C
  C386     1.0000 0.64562  0.91341  0.93253  Biso   1.000  C
  H519     1.0000 0.69940  0.90609  0.00008  Biso   1.000  H
  H520     1.0000 0.69940  0.90609  0.00012  Biso   1.000  H
  H521     1.0000 0.91660  0.95491  0.97919  Biso   1.000  H
  H522     1.0000 0.87651  0.94982  0.03268  Biso   1.000  H
  H523     1.0000 0.87651  0.94982  0.03272  Biso   1.000  H
  C387     1.0000 0.41341  0.93248  0.14558  Biso   1.000  C
  C388     1.0000 0.41341  0.93248  0.14562  Biso   1.000  C
  C389     1.0000 0.41341  0.93253  0.14558  Biso   1.000  C
  C390     1.0000 0.41341  0.93253  0.14562  Biso   1.000  C
  H524     1.0000 0.40609  0.00008  0.19940  Biso   1.000  H
  H525     1.0000 0.40609  0.00012  0.19940  Biso   1.000  H
  H526     1.0000 0.45491  0.97919  0.41660  Biso   1.000  H
  H527     1.0000 0.44982  0.03268  0.37651  Biso   1.000  H
  H528     1.0000 0.44982  0.03272  0.37651  Biso   1.000  H
  C391     1.0000 0.30568  0.92570  0.03351  Biso   1.000  C
  H529     1.0000 0.16639  0.92851  0.05961  Biso   1.000  H
  H530     1.0000 0.16449  0.99379  0.06930  Biso   1.000  H
  C392     1.0000 0.11762  0.96889  0.00302  Biso   1.000  C
  H531     1.0000 0.16829  0.98080  0.07831  Biso   1.000  H
  H532     1.0000 0.15530  0.92562  0.04261  Biso   1.000  H
  H533     1.0000 0.10508  0.97489  0.97820  Biso   1.000  H
  H534     1.0000 0.10508  0.02511  0.02180  Biso   1.000  H
  H535     1.0000 0.08340  0.04509  0.97919  Biso   1.000  H
  H536     1.0000 0.12349  0.05018  0.03268  Biso   1.000  H
  H537     1.0000 0.12349  0.05018  0.03272  Biso   1.000  H
  H538     1.0000 0.12349  0.05022  0.03268  Biso   1.000  H
  H539     1.0000 0.12349  0.05022  0.03272  Biso   1.000  H
  C393     1.0000 0.57430  0.96649  0.80568  Biso   1.000  C
  C394     1.0000 0.57430  0.96649  0.80573  Biso   1.000  C
  H540     1.0000 0.57149  0.94039  0.66639  Biso   1.000  H
  H541     1.0000 0.50621  0.93070  0.66449  Biso   1.000  H
  C395     1.0000 0.53111  0.99698  0.61762  Biso   1.000  C
  H542     1.0000 0.57149  0.94043  0.66639  Biso   1.000  H
  C396     1.0000 0.53111  0.99702  0.61762  Biso   1.000  C
  H543     1.0000 0.51920  0.92169  0.66829  Biso   1.000  H
  H544     1.0000 0.57442  0.95739  0.65530  Biso   1.000  H
  H545     1.0000 0.47489  0.97820  0.60512  Biso   1.000  H
  H546     1.0000 0.52511  0.02180  0.60512  Biso   1.000  H
  H547     1.0000 0.44982  0.96732  0.62349  Biso   1.000  H
  H548     1.0000 0.45491  0.02081  0.58340  Biso   1.000  H
  C397     1.0000 0.63251  0.94539  0.88702  Biso   1.000  C
  C398     1.0000 0.61302  0.86749  0.94539  Biso   1.000  C
  C399     1.0000 0.44539  0.88702  0.13251  Biso   1.000  C
  C400     1.0000 0.36749  0.94539  0.11298  Biso   1.000  C
  C401     1.0000 0.36749  0.94539  0.11302  Biso   1.000  C
  C402     1.0000 0.35442  0.91341  0.06752  Biso   1.000  C
  H549     1.0000 0.30060  0.90609  0.99992  Biso   1.000  H
  H550     1.0000 0.12349  0.94982  0.96732  Biso   1.000  H
  H551     1.0000 0.08340  0.95491  0.02081  Biso   1.000  H
  C403     1.0000 0.58659  0.93248  0.85442  Biso   1.000  C
  C404     1.0000 0.58659  0.93253  0.85442  Biso   1.000  C
  H552     1.0000 0.59391  0.00008  0.80060  Biso   1.000  H
  H553     1.0000 0.59391  0.00012  0.80060  Biso   1.000  H
  H554     1.0000 0.54509  0.97919  0.58340  Biso   1.000  H
  H555     1.0000 0.55022  0.03268  0.62349  Biso   1.000  H
  H556     1.0000 0.55022  0.03272  0.62349  Biso   1.000  H
  H557     1.0000 0.65481  0.97650  0.87792  Biso   1.000  H
  H558     1.0000 0.62212  0.84519  0.97650  Biso   1.000  H
  C405     1.0000 0.56752  0.85442  0.91341  Biso   1.000  C
  C406     1.0000 0.43248  0.85442  0.08659  Biso   1.000  C
  H559     1.0000 0.47650  0.87792  0.15481  Biso   1.000  H
  C407     1.0000 0.43248  0.85442  0.08663  Biso   1.000  C
  H560     1.0000 0.34519  0.97650  0.12208  Biso   1.000  H
  H561     1.0000 0.34519  0.97650  0.12212  Biso   1.000  H
  C408     1.0000 0.38702  0.86749  0.05461  Biso   1.000  C
  C409     1.0000 0.55461  0.88702  0.86749  Biso   1.000  C
  C410     1.0000 0.53351  0.80568  0.92570  Biso   1.000  C
  C411     1.0000 0.53351  0.80573  0.92570  Biso   1.000  C
  C412     1.0000 0.46649  0.80568  0.07430  Biso   1.000  C
  C413     1.0000 0.46649  0.80573  0.07430  Biso   1.000  C
  H562     1.0000 0.37792  0.84519  0.02350  Biso   1.000  H
  H563     1.0000 0.52350  0.87792  0.84519  Biso   1.000  H
  N70      1.0000 0.54749  0.76998  0.96182  Biso   1.000  N
  H564     1.0000 0.49992  0.80060  0.90609  Biso   1.000  H
  N71      1.0000 0.54749  0.77002  0.96182  Biso   1.000  N
  N72      1.0000 0.45251  0.76998  0.03818  Biso   1.000  N
  H565     1.0000 0.50012  0.80060  0.09391  Biso   1.000  H
  N73      1.0000 0.45251  0.76998  0.03823  Biso   1.000  N
  N74      1.0000 0.45251  0.77002  0.03818  Biso   1.000  N
  N75      1.0000 0.45251  0.77002  0.03823  Biso   1.000  N
  C414     1.0000 0.51059  0.72369  0.97079  Biso   1.000  C
  C415     1.0000 0.48941  0.72369  0.02921  Biso   1.000  C
  H566     1.0000 0.47299  0.72898  0.94800  Biso   1.000  H
  C416     1.0000 0.54058  0.66730  0.96471  Biso   1.000  C
  H567     1.0000 0.47299  0.72903  0.94800  Biso   1.000  H
  H568     1.0000 0.52701  0.72898  0.05200  Biso   1.000  H
  C417     1.0000 0.45942  0.66730  0.03529  Biso   1.000  C
  H569     1.0000 0.52701  0.72903  0.05200  Biso   1.000  H
  H570     1.0000 0.55961  0.66639  0.92851  Biso   1.000  H
  H571     1.0000 0.56930  0.66449  0.99379  Biso   1.000  H
  C418     1.0000 0.50302  0.61762  0.96889  Biso   1.000  C
  H572     1.0000 0.57831  0.66829  0.98080  Biso   1.000  H
  H573     1.0000 0.54261  0.65530  0.92562  Biso   1.000  H
  C419     1.0000 0.50000  0.62912  0.00000  Biso   1.000  C
  H574     1.0000 0.44039  0.66639  0.07149  Biso   1.000  H
  H575     1.0000 0.43070  0.66449  0.00621  Biso   1.000  H
  C420     1.0000 0.49702  0.61762  0.03111  Biso   1.000  C
  H576     1.0000 0.44039  0.66639  0.07153  Biso   1.000  H
  H577     1.0000 0.42169  0.66829  0.01920  Biso   1.000  H
  H578     1.0000 0.45739  0.65530  0.07438  Biso   1.000  H
  H579     1.0000 0.52081  0.58340  0.95491  Biso   1.000  H
  H580     1.0000 0.46732  0.62349  0.94982  Biso   1.000  H
  H581     1.0000 0.47820  0.60512  0.97489  Biso   1.000  H
  H582     1.0000 0.52180  0.60512  0.02511  Biso   1.000  H
  H583     1.0000 0.47919  0.58340  0.04509  Biso   1.000  H
  H584     1.0000 0.53272  0.62349  0.05018  Biso   1.000  H
  H585     1.0000 0.53272  0.62349  0.05022  Biso   1.000  H
  C421     1.0000 0.50302  0.38238  0.03111  Biso   1.000  C
  C422     1.0000 0.54058  0.33270  0.03529  Biso   1.000  C
  H586     1.0000 0.47820  0.39492  0.02511  Biso   1.000  H
  H587     1.0000 0.52081  0.41660  0.04509  Biso   1.000  H
  C423     1.0000 0.49702  0.38238  0.96889  Biso   1.000  C
  C424     1.0000 0.49702  0.38243  0.96889  Biso   1.000  C
  H588     1.0000 0.46732  0.37651  0.05018  Biso   1.000  H
  H589     1.0000 0.46732  0.37651  0.05022  Biso   1.000  H
  C425     1.0000 0.51059  0.27631  0.02921  Biso   1.000  C
  H590     1.0000 0.56930  0.33551  0.00621  Biso   1.000  H
  C426     1.0000 0.50000  0.37088  0.00000  Biso   1.000  C
  H591     1.0000 0.55961  0.33361  0.07149  Biso   1.000  H
  H592     1.0000 0.55961  0.33361  0.07153  Biso   1.000  H
  C427     1.0000 0.50302  0.38243  0.03111  Biso   1.000  C
  H593     1.0000 0.57831  0.33171  0.01920  Biso   1.000  H
  H594     1.0000 0.54261  0.34470  0.07438  Biso   1.000  H
  C428     1.0000 0.45942  0.33270  0.96471  Biso   1.000  C
  H595     1.0000 0.52180  0.39492  0.97489  Biso   1.000  H
  H596     1.0000 0.47919  0.41660  0.95491  Biso   1.000  H
  H597     1.0000 0.53272  0.37651  0.94982  Biso   1.000  H
  N76      1.0000 0.54749  0.23002  0.03818  Biso   1.000  N
  N77      1.0000 0.54749  0.23002  0.03823  Biso   1.000  N
  H598     1.0000 0.47299  0.27102  0.05200  Biso   1.000  H
  C429     1.0000 0.48941  0.27631  0.97079  Biso   1.000  C
  H599     1.0000 0.44039  0.33361  0.92851  Biso   1.000  H
  H600     1.0000 0.43070  0.33551  0.99379  Biso   1.000  H
  H601     1.0000 0.42169  0.33171  0.98080  Biso   1.000  H
  H602     1.0000 0.45739  0.34470  0.92562  Biso   1.000  H
  C430     1.0000 0.53351  0.19432  0.07430  Biso   1.000  C
  N78      1.0000 0.45251  0.23002  0.96182  Biso   1.000  N
  H603     1.0000 0.52701  0.27102  0.94800  Biso   1.000  H
  H604     1.0000 0.49992  0.19940  0.09391  Biso   1.000  H
  C431     1.0000 0.56752  0.14558  0.08659  Biso   1.000  C
  C432     1.0000 0.56752  0.14558  0.08663  Biso   1.000  C
  C433     1.0000 0.56752  0.14562  0.08659  Biso   1.000  C
  C434     1.0000 0.56752  0.14562  0.08663  Biso   1.000  C
  C435     1.0000 0.46649  0.19432  0.92570  Biso   1.000  C
  C436     1.0000 0.61302  0.13251  0.05461  Biso   1.000  C
  C437     1.0000 0.55461  0.11298  0.13251  Biso   1.000  C
  C438     1.0000 0.55461  0.11302  0.13251  Biso   1.000  C
  H605     1.0000 0.50012  0.19940  0.90609  Biso   1.000  H
  C439     1.0000 0.43248  0.14558  0.91341  Biso   1.000  C
  C440     1.0000 0.43248  0.14562  0.91341  Biso   1.000  C
  H606     1.0000 0.62212  0.15481  0.02350  Biso   1.000  H
  C441     1.0000 0.64562  0.08659  0.06752  Biso   1.000  C
  C442     1.0000 0.64562  0.08663  0.06752  Biso   1.000  C
  H607     1.0000 0.52350  0.12208  0.15481  Biso   1.000  H
  C443     1.0000 0.58659  0.06752  0.14558  Biso   1.000  C
  C444     1.0000 0.58659  0.06752  0.14562  Biso   1.000  C
  H608     1.0000 0.52350  0.12212  0.15481  Biso   1.000  H
  C445     1.0000 0.38702  0.13251  0.94539  Biso   1.000  C
  C446     1.0000 0.44539  0.11298  0.86749  Biso   1.000  C
  C447     1.0000 0.44539  0.11302  0.86749  Biso   1.000  C
  C448     1.0000 0.69432  0.07430  0.03351  Biso   1.000  C
  C449     1.0000 0.63251  0.05461  0.11298  Biso   1.000  C
  C450     1.0000 0.63251  0.05461  0.11302  Biso   1.000  C
  C451     1.0000 0.57430  0.03351  0.19432  Biso   1.000  C
  H609     1.0000 0.37792  0.15481  0.97650  Biso   1.000  H
  C452     1.0000 0.35442  0.08659  0.93248  Biso   1.000  C
  C453     1.0000 0.35442  0.08659  0.93253  Biso   1.000  C
  C454     1.0000 0.35442  0.08663  0.93248  Biso   1.000  C
  C455     1.0000 0.35442  0.08663  0.93253  Biso   1.000  C
  H610     1.0000 0.47650  0.12208  0.84519  Biso   1.000  H
  C456     1.0000 0.41341  0.06752  0.85442  Biso   1.000  C
  H611     1.0000 0.47650  0.12212  0.84519  Biso   1.000  H
  H612     1.0000 0.69940  0.09391  0.99992  Biso   1.000  H
  N79      1.0000 0.73002  0.03818  0.04749  Biso   1.000  N
  N80      1.0000 0.73002  0.03823  0.04749  Biso   1.000  N
  H613     1.0000 0.65481  0.02350  0.12208  Biso   1.000  H
  H614     1.0000 0.65481  0.02350  0.12212  Biso   1.000  H
  N81      1.0000 0.53818  0.04749  0.23002  Biso   1.000  N
  H615     1.0000 0.59391  0.99992  0.19940  Biso   1.000  H
  C457     1.0000 0.30568  0.07430  0.96649  Biso   1.000  C
  C458     1.0000 0.36749  0.05461  0.88702  Biso   1.000  C
  C459     1.0000 0.42570  0.03351  0.80568  Biso   1.000  C
  C460     1.0000 0.42570  0.03351  0.80573  Biso   1.000  C
  C461     1.0000 0.77631  0.02921  0.01059  Biso   1.000  C
  C462     1.0000 0.52921  0.01059  0.27631  Biso   1.000  C
  N82      1.0000 0.26998  0.03818  0.95251  Biso   1.000  N
  N83      1.0000 0.26998  0.03823  0.95251  Biso   1.000  N
  H616     1.0000 0.30060  0.09391  0.00008  Biso   1.000  H
  H617     1.0000 0.30060  0.09391  0.00012  Biso   1.000  H
  H618     1.0000 0.34519  0.02350  0.87792  Biso   1.000  H
  H619     1.0000 0.40609  0.99992  0.80060  Biso   1.000  H
  N84      1.0000 0.46182  0.04749  0.76998  Biso   1.000  N
  N85      1.0000 0.46182  0.04749  0.77002  Biso   1.000  N
  C463     1.0000 0.77631  0.97079  0.98941  Biso   1.000  C
  H620     1.0000 0.77102  0.05200  0.97299  Biso   1.000  H
  H621     1.0000 0.77102  0.05200  0.97303  Biso   1.000  H
  C464     1.0000 0.83270  0.03529  0.04058  Biso   1.000  C
  C465     1.0000 0.83270  0.03529  0.04063  Biso   1.000  C
  H622     1.0000 0.55200  0.97299  0.27102  Biso   1.000  H
  C466     1.0000 0.47079  0.98941  0.27631  Biso   1.000  C
  H623     1.0000 0.55200  0.97303  0.27102  Biso   1.000  H
  C467     1.0000 0.53529  0.04058  0.33270  Biso   1.000  C
  C468     1.0000 0.53529  0.04063  0.33270  Biso   1.000  C
  C469     1.0000 0.22369  0.02921  0.98941  Biso   1.000  C
  C470     1.0000 0.47079  0.01059  0.72369  Biso   1.000  C
  N86      1.0000 0.73002  0.96182  0.95251  Biso   1.000  N
  C471     1.0000 0.83270  0.96471  0.95942  Biso   1.000  C
  H624     1.0000 0.77102  0.94800  0.02701  Biso   1.000  H
  H625     1.0000 0.83551  0.00621  0.06930  Biso   1.000  H
  C472     1.0000 0.88243  0.03111  0.00302  Biso   1.000  C
  C473     1.0000 0.87093  0.00000  0.00000  Biso   1.000  C
  H626     1.0000 0.83361  0.07149  0.05961  Biso   1.000  H
  H627     1.0000 0.83361  0.07153  0.05961  Biso   1.000  H
  H628     1.0000 0.83171  0.01920  0.07831  Biso   1.000  H
  H629     1.0000 0.84470  0.07438  0.04261  Biso   1.000  H
  H630     1.0000 0.44800  0.02701  0.27102  Biso   1.000  H
  N87      1.0000 0.46182  0.95251  0.23002  Biso   1.000  N
  C474     1.0000 0.46471  0.95942  0.33270  Biso   1.000  C
  H631     1.0000 0.57149  0.05961  0.33361  Biso   1.000  H
  H632     1.0000 0.50621  0.06930  0.33551  Biso   1.000  H
  C475     1.0000 0.50000  0.00000  0.37088  Biso   1.000  C
  C476     1.0000 0.53111  0.00302  0.38238  Biso   1.000  C
  C477     1.0000 0.53111  0.00302  0.38243  Biso   1.000  C
  H633     1.0000 0.51920  0.07831  0.33171  Biso   1.000  H
  H634     1.0000 0.57442  0.04261  0.34470  Biso   1.000  H
  H635     1.0000 0.22898  0.05200  0.02701  Biso   1.000  H
  C478     1.0000 0.22369  0.97079  0.01059  Biso   1.000  C
  C479     1.0000 0.16730  0.03529  0.95942  Biso   1.000  C
  H636     1.0000 0.44800  0.97299  0.72898  Biso   1.000  H
  C480     1.0000 0.52921  0.98941  0.72369  Biso   1.000  C
  H637     1.0000 0.44800  0.97299  0.72903  Biso   1.000  H
  H638     1.0000 0.44800  0.97303  0.72898  Biso   1.000  H
  H639     1.0000 0.44800  0.97303  0.72903  Biso   1.000  H
  C481     1.0000 0.46471  0.04058  0.66730  Biso   1.000  C
  C482     1.0000 0.46471  0.04063  0.66730  Biso   1.000  C
  C483     1.0000 0.69432  0.92570  0.96649  Biso   1.000  C
  H640     1.0000 0.83361  0.92851  0.94039  Biso   1.000  H
  H641     1.0000 0.83551  0.99379  0.93070  Biso   1.000  H
  C484     1.0000 0.88243  0.96889  0.99698  Biso   1.000  C
  H642     1.0000 0.83361  0.92851  0.94043  Biso   1.000  H
  C485     1.0000 0.88243  0.96889  0.99702  Biso   1.000  C
  H643     1.0000 0.83171  0.98080  0.92169  Biso   1.000  H
  H644     1.0000 0.84470  0.92562  0.95739  Biso   1.000  H
  H645     1.0000 0.91660  0.04509  0.02081  Biso   1.000  H
  H646     1.0000 0.87651  0.05018  0.96732  Biso   1.000  H
  H647     1.0000 0.87651  0.05022  0.96732  Biso   1.000  H
  H648     1.0000 0.89492  0.02511  0.97820  Biso   1.000  H
  H649     1.0000 0.89492  0.97489  0.02180  Biso   1.000  H
  C486     1.0000 0.42570  0.96649  0.19432  Biso   1.000  C
  H650     1.0000 0.42851  0.94039  0.33361  Biso   1.000  H
  H651     1.0000 0.49379  0.93070  0.33551  Biso   1.000  H
  C487     1.0000 0.46889  0.99698  0.38238  Biso   1.000  C
  C488     1.0000 0.46889  0.99698  0.38243  Biso   1.000  C
  H652     1.0000 0.42851  0.94043  0.33361  Biso   1.000  H
  C489     1.0000 0.46889  0.99702  0.38238  Biso   1.000  C
  C490     1.0000 0.46889  0.99702  0.38243  Biso   1.000  C
  H653     1.0000 0.48080  0.92169  0.33171  Biso   1.000  H
  H654     1.0000 0.42562  0.95739  0.34470  Biso   1.000  H
  H655     1.0000 0.52511  0.97820  0.39492  Biso   1.000  H
  H656     1.0000 0.47489  0.02180  0.39492  Biso   1.000  H
  H657     1.0000 0.54509  0.02081  0.41660  Biso   1.000  H
  H658     1.0000 0.55022  0.96732  0.37651  Biso   1.000  H
  H659     1.0000 0.22898  0.94800  0.97299  Biso   1.000  H
  H660     1.0000 0.22898  0.94800  0.97303  Biso   1.000  H
  N88      1.0000 0.26998  0.96182  0.04749  Biso   1.000  N
  C491     1.0000 0.16730  0.96471  0.04058  Biso   1.000  C
  C492     1.0000 0.16730  0.96471  0.04063  Biso   1.000  C
  C493     1.0000 0.12912  0.00000  0.00000  Biso   1.000  C
  H661     1.0000 0.16639  0.07149  0.94039  Biso   1.000  H
  H662     1.0000 0.16449  0.00621  0.93070  Biso   1.000  H
  C494     1.0000 0.11762  0.03111  0.99698  Biso   1.000  C
  H663     1.0000 0.16639  0.07149  0.94043  Biso   1.000  H
  C495     1.0000 0.11762  0.03111  0.99702  Biso   1.000  C
  H664     1.0000 0.16639  0.07153  0.94039  Biso   1.000  H
  H665     1.0000 0.16639  0.07153  0.94043  Biso   1.000  H
  H666     1.0000 0.16829  0.01920  0.92169  Biso   1.000  H
  H667     1.0000 0.15530  0.07438  0.95739  Biso   1.000  H
  N89      1.0000 0.53818  0.95251  0.76998  Biso   1.000  N
  C496     1.0000 0.53529  0.95942  0.66730  Biso   1.000  C
  N90      1.0000 0.53818  0.95251  0.77002  Biso   1.000  N
  H668     1.0000 0.55200  0.02701  0.72898  Biso   1.000  H
  H669     1.0000 0.55200  0.02701  0.72903  Biso   1.000  H
  C497     1.0000 0.50000  0.00000  0.62912  Biso   1.000  C
  H670     1.0000 0.42851  0.05961  0.66639  Biso   1.000  H
  H671     1.0000 0.49379  0.06930  0.66449  Biso   1.000  H
  C498     1.0000 0.46889  0.00302  0.61762  Biso   1.000  C
  H672     1.0000 0.48080  0.07831  0.66829  Biso   1.000  H
  H673     1.0000 0.42562  0.04261  0.65530  Biso   1.000  H
  C499     1.0000 0.64562  0.91341  0.93248  Biso   1.000  C
  C500     1.0000 0.64562  0.91341  0.93253  Biso   1.000  C
  H674     1.0000 0.69940  0.90609  0.00008  Biso   1.000  H
  H675     1.0000 0.69940  0.90609  0.00012  Biso   1.000  H
  H676     1.0000 0.91660  0.95491  0.97919  Biso   1.000  H
  H677     1.0000 0.87651  0.94982  0.03268  Biso   1.000  H
  H678     1.0000 0.87651  0.94982  0.03272  Biso   1.000  H
  C501     1.0000 0.41341  0.93248  0.14558  Biso   1.000  C
  C502     1.0000 0.41341  0.93248  0.14562  Biso   1.000  C
  C503     1.0000 0.41341  0.93253  0.14558  Biso   1.000  C
  C504     1.0000 0.41341  0.93253  0.14562  Biso   1.000  C
  H679     1.0000 0.40609  0.00008  0.19940  Biso   1.000  H
  H680     1.0000 0.40609  0.00012  0.19940  Biso   1.000  H
  H681     1.0000 0.45491  0.97919  0.41660  Biso   1.000  H
  H682     1.0000 0.44982  0.03268  0.37651  Biso   1.000  H
  H683     1.0000 0.44982  0.03272  0.37651  Biso   1.000  H
  C505     1.0000 0.30568  0.92570  0.03351  Biso   1.000  C
  H684     1.0000 0.16639  0.92851  0.05961  Biso   1.000  H
  H685     1.0000 0.16449  0.99379  0.06930  Biso   1.000  H
  C506     1.0000 0.11762  0.96889  0.00302  Biso   1.000  C
  H686     1.0000 0.16829  0.98080  0.07831  Biso   1.000  H
  H687     1.0000 0.15530  0.92562  0.04261  Biso   1.000  H
  H688     1.0000 0.10508  0.97489  0.97820  Biso   1.000  H
  H689     1.0000 0.10508  0.02511  0.02180  Biso   1.000  H
  H690     1.0000 0.08340  0.04509  0.97919  Biso   1.000  H
  H691     1.0000 0.12349  0.05018  0.03268  Biso   1.000  H
  H692     1.0000 0.12349  0.05018  0.03272  Biso   1.000  H
  H693     1.0000 0.12349  0.05022  0.03268  Biso   1.000  H
  H694     1.0000 0.12349  0.05022  0.03272  Biso   1.000  H
  C507     1.0000 0.57430  0.96649  0.80568  Biso   1.000  C
  C508     1.0000 0.57430  0.96649  0.80573  Biso   1.000  C
  H695     1.0000 0.57149  0.94039  0.66639  Biso   1.000  H
  H696     1.0000 0.50621  0.93070  0.66449  Biso   1.000  H
  C509     1.0000 0.53111  0.99698  0.61762  Biso   1.000  C
  H697     1.0000 0.57149  0.94043  0.66639  Biso   1.000  H
  C510     1.0000 0.53111  0.99702  0.61762  Biso   1.000  C
  H698     1.0000 0.51920  0.92169  0.66829  Biso   1.000  H
  H699     1.0000 0.57442  0.95739  0.65530  Biso   1.000  H
  H700     1.0000 0.47489  0.97820  0.60512  Biso   1.000  H
  H701     1.0000 0.52511  0.02180  0.60512  Biso   1.000  H
  H702     1.0000 0.44982  0.96732  0.62349  Biso   1.000  H
  H703     1.0000 0.45491  0.02081  0.58340  Biso   1.000  H
  C511     1.0000 0.63251  0.94539  0.88702  Biso   1.000  C
  C512     1.0000 0.61302  0.86749  0.94539  Biso   1.000  C
  C513     1.0000 0.44539  0.88702  0.13251  Biso   1.000  C
  C514     1.0000 0.36749  0.94539  0.11298  Biso   1.000  C
  C515     1.0000 0.36749  0.94539  0.11302  Biso   1.000  C
  C516     1.0000 0.35442  0.91341  0.06752  Biso   1.000  C
  H704     1.0000 0.30060  0.90609  0.99992  Biso   1.000  H
  H705     1.0000 0.12349  0.94982  0.96732  Biso   1.000  H
  H706     1.0000 0.08340  0.95491  0.02081  Biso   1.000  H
  C517     1.0000 0.58659  0.93248  0.85442  Biso   1.000  C
  C518     1.0000 0.58659  0.93253  0.85442  Biso   1.000  C
  H707     1.0000 0.59391  0.00008  0.80060  Biso   1.000  H
  H708     1.0000 0.59391  0.00012  0.80060  Biso   1.000  H
  H709     1.0000 0.54509  0.97919  0.58340  Biso   1.000  H
  H710     1.0000 0.55022  0.03268  0.62349  Biso   1.000  H
  H711     1.0000 0.55022  0.03272  0.62349  Biso   1.000  H
  H712     1.0000 0.65481  0.97650  0.87792  Biso   1.000  H
  H713     1.0000 0.62212  0.84519  0.97650  Biso   1.000  H
  C519     1.0000 0.56752  0.85442  0.91341  Biso   1.000  C
  C520     1.0000 0.43248  0.85442  0.08659  Biso   1.000  C
  H714     1.0000 0.47650  0.87792  0.15481  Biso   1.000  H
  C521     1.0000 0.43248  0.85442  0.08663  Biso   1.000  C
  H715     1.0000 0.34519  0.97650  0.12208  Biso   1.000  H
  H716     1.0000 0.34519  0.97650  0.12212  Biso   1.000  H
  C522     1.0000 0.38702  0.86749  0.05461  Biso   1.000  C
  C523     1.0000 0.55461  0.88702  0.86749  Biso   1.000  C
  C524     1.0000 0.53351  0.80568  0.92570  Biso   1.000  C
  C525     1.0000 0.53351  0.80573  0.92570  Biso   1.000  C
  C526     1.0000 0.46649  0.80568  0.07430  Biso   1.000  C
  C527     1.0000 0.46649  0.80573  0.07430  Biso   1.000  C
  H717     1.0000 0.37792  0.84519  0.02350  Biso   1.000  H
  H718     1.0000 0.52350  0.87792  0.84519  Biso   1.000  H
  N91      1.0000 0.54749  0.76998  0.96182  Biso   1.000  N
  H719     1.0000 0.49992  0.80060  0.90609  Biso   1.000  H
  N92      1.0000 0.54749  0.77002  0.96182  Biso   1.000  N
  N93      1.0000 0.45251  0.76998  0.03818  Biso   1.000  N
  H720     1.0000 0.50012  0.80060  0.09391  Biso   1.000  H
  N94      1.0000 0.45251  0.76998  0.03823  Biso   1.000  N
  N95      1.0000 0.45251  0.77002  0.03818  Biso   1.000  N
  N96      1.0000 0.45251  0.77002  0.03823  Biso   1.000  N
  C528     1.0000 0.51059  0.72369  0.97079  Biso   1.000  C
  C529     1.0000 0.48941  0.72369  0.02921  Biso   1.000  C
  H721     1.0000 0.47299  0.72898  0.94800  Biso   1.000  H
  C530     1.0000 0.54058  0.66730  0.96471  Biso   1.000  C
  H722     1.0000 0.47299  0.72903  0.94800  Biso   1.000  H
  H723     1.0000 0.52701  0.72898  0.05200  Biso   1.000  H
  C531     1.0000 0.45942  0.66730  0.03529  Biso   1.000  C
  H724     1.0000 0.52701  0.72903  0.05200  Biso   1.000  H
  H725     1.0000 0.55961  0.66639  0.92851  Biso   1.000  H
  H726     1.0000 0.56930  0.66449  0.99379  Biso   1.000  H
  C532     1.0000 0.50302  0.61762  0.96889  Biso   1.000  C
  H727     1.0000 0.57831  0.66829  0.98080  Biso   1.000  H
  H728     1.0000 0.54261  0.65530  0.92562  Biso   1.000  H
  C533     1.0000 0.50000  0.62912  0.00000  Biso   1.000  C
  H729     1.0000 0.44039  0.66639  0.07149  Biso   1.000  H
  H730     1.0000 0.43070  0.66449  0.00621  Biso   1.000  H
  C534     1.0000 0.49702  0.61762  0.03111  Biso   1.000  C
  H731     1.0000 0.44039  0.66639  0.07153  Biso   1.000  H
  H732     1.0000 0.42169  0.66829  0.01920  Biso   1.000  H
  H733     1.0000 0.45739  0.65530  0.07438  Biso   1.000  H
  H734     1.0000 0.52081  0.58340  0.95491  Biso   1.000  H
  H735     1.0000 0.46732  0.62349  0.94982  Biso   1.000  H
  H736     1.0000 0.47820  0.60512  0.97489  Biso   1.000  H
  H737     1.0000 0.52180  0.60512  0.02511  Biso   1.000  H
  H738     1.0000 0.47919  0.58340  0.04509  Biso   1.000  H
  H739     1.0000 0.53272  0.62349  0.05018  Biso   1.000  H
  H740     1.0000 0.53272  0.62349  0.05022  Biso   1.000  H
  C535     1.0000 0.38238  0.03111  0.50302  Biso   1.000  C
  C536     1.0000 0.33270  0.03529  0.54058  Biso   1.000  C
  H741     1.0000 0.41660  0.04509  0.52081  Biso   1.000  H
  H742     1.0000 0.37651  0.05018  0.46732  Biso   1.000  H
  H743     1.0000 0.37651  0.05022  0.46732  Biso   1.000  H
  H744     1.0000 0.39492  0.02511  0.47820  Biso   1.000  H
  C537     1.0000 0.38238  0.96889  0.49702  Biso   1.000  C
  C538     1.0000 0.38243  0.96889  0.49702  Biso   1.000  C
  C539     1.0000 0.27631  0.02921  0.51059  Biso   1.000  C
  H745     1.0000 0.33361  0.07149  0.55961  Biso   1.000  H
  H746     1.0000 0.33551  0.00621  0.56930  Biso   1.000  H
  H747     1.0000 0.33361  0.07153  0.55961  Biso   1.000  H
  C540     1.0000 0.38243  0.03111  0.50302  Biso   1.000  C
  H748     1.0000 0.33171  0.01920  0.57831  Biso   1.000  H
  H749     1.0000 0.34470  0.07438  0.54261  Biso   1.000  H
  C541     1.0000 0.37088  0.00000  0.50000  Biso   1.000  C
  C542     1.0000 0.33270  0.96471  0.45942  Biso   1.000  C
  H750     1.0000 0.39492  0.97489  0.52180  Biso   1.000  H
  H751     1.0000 0.41660  0.95491  0.47919  Biso   1.000  H
  H752     1.0000 0.37651  0.94982  0.53272  Biso   1.000  H
  N97      1.0000 0.23002  0.03818  0.54749  Biso   1.000  N
  N98      1.0000 0.23002  0.03823  0.54749  Biso   1.000  N
  H753     1.0000 0.27102  0.05200  0.47299  Biso   1.000  H
  C543     1.0000 0.27631  0.97079  0.48941  Biso   1.000  C
  H754     1.0000 0.33361  0.92851  0.44039  Biso   1.000  H
  H755     1.0000 0.33551  0.99379  0.43070  Biso   1.000  H
  H756     1.0000 0.33171  0.98080  0.42169  Biso   1.000  H
  H757     1.0000 0.34470  0.92562  0.45739  Biso   1.000  H
  C544     1.0000 0.19432  0.07430  0.53351  Biso   1.000  C
  N99      1.0000 0.23002  0.96182  0.45251  Biso   1.000  N
  H758     1.0000 0.27102  0.94800  0.52701  Biso   1.000  H
  H759     1.0000 0.19940  0.09391  0.49992  Biso   1.000  H
  C545     1.0000 0.14558  0.08659  0.56752  Biso   1.000  C
  C546     1.0000 0.14558  0.08663  0.56752  Biso   1.000  C
  C547     1.0000 0.14562  0.08659  0.56752  Biso   1.000  C
  C548     1.0000 0.14562  0.08663  0.56752  Biso   1.000  C
  C549     1.0000 0.19432  0.92570  0.46649  Biso   1.000  C
  C550     1.0000 0.13251  0.05461  0.61302  Biso   1.000  C
  C551     1.0000 0.11298  0.13251  0.55461  Biso   1.000  C
  C552     1.0000 0.11302  0.13251  0.55461  Biso   1.000  C
  H760     1.0000 0.19940  0.90609  0.50012  Biso   1.000  H
  C553     1.0000 0.14558  0.91341  0.43248  Biso   1.000  C
  C554     1.0000 0.14562  0.91341  0.43248  Biso   1.000  C
  H761     1.0000 0.15481  0.02350  0.62212  Biso   1.000  H
  C555     1.0000 0.08659  0.06752  0.64562  Biso   1.000  C
  C556     1.0000 0.08663  0.06752  0.64562  Biso   1.000  C
  H762     1.0000 0.12208  0.15481  0.52350  Biso   1.000  H
  C557     1.0000 0.06752  0.14558  0.58659  Biso   1.000  C
  C558     1.0000 0.06752  0.14562  0.58659  Biso   1.000  C
  H763     1.0000 0.12212  0.15481  0.52350  Biso   1.000  H
  C559     1.0000 0.13251  0.94539  0.38702  Biso   1.000  C
  C560     1.0000 0.11298  0.86749  0.44539  Biso   1.000  C
  C561     1.0000 0.11302  0.86749  0.44539  Biso   1.000  C
  C562     1.0000 0.07430  0.03351  0.69432  Biso   1.000  C
  C563     1.0000 0.05461  0.11298  0.63251  Biso   1.000  C
  C564     1.0000 0.05461  0.11302  0.63251  Biso   1.000  C
  C565     1.0000 0.03351  0.19432  0.57430  Biso   1.000  C
  H764     1.0000 0.15481  0.97650  0.37792  Biso   1.000  H
  C566     1.0000 0.08659  0.93248  0.35442  Biso   1.000  C
  C567     1.0000 0.08659  0.93253  0.35442  Biso   1.000  C
  C568     1.0000 0.08663  0.93248  0.35442  Biso   1.000  C
  C569     1.0000 0.08663  0.93253  0.35442  Biso   1.000  C
  H765     1.0000 0.12208  0.84519  0.47650  Biso   1.000  H
  C570     1.0000 0.06752  0.85442  0.41341  Biso   1.000  C
  H766     1.0000 0.12212  0.84519  0.47650  Biso   1.000  H
  N100     1.0000 0.03818  0.04749  0.73002  Biso   1.000  N
  N101     1.0000 0.03823  0.04749  0.73002  Biso   1.000  N
  H767     1.0000 0.09391  0.99992  0.69940  Biso   1.000  H
  H768     1.0000 0.02350  0.12208  0.65481  Biso   1.000  H
  H769     1.0000 0.02350  0.12212  0.65481  Biso   1.000  H
  N102     1.0000 0.04749  0.23002  0.53818  Biso   1.000  N
  H770     1.0000 0.99992  0.19940  0.59391  Biso   1.000  H
  C571     1.0000 0.07430  0.96649  0.30568  Biso   1.000  C
  C572     1.0000 0.05461  0.88702  0.36749  Biso   1.000  C
  C573     1.0000 0.03351  0.80568  0.42570  Biso   1.000  C
  C574     1.0000 0.03351  0.80573  0.42570  Biso   1.000  C
  C575     1.0000 0.02921  0.01059  0.77631  Biso   1.000  C
  C576     1.0000 0.01059  0.27631  0.52921  Biso   1.000  C
  H771     1.0000 0.09391  0.00008  0.30060  Biso   1.000  H
  H772     1.0000 0.09391  0.00012  0.30060  Biso   1.000  H
  N103     1.0000 0.03818  0.95251  0.26998  Biso   1.000  N
  N104     1.0000 0.03823  0.95251  0.26998  Biso   1.000  N
  H773     1.0000 0.02350  0.87792  0.34519  Biso   1.000  H
  H774     1.0000 0.99992  0.80060  0.40609  Biso   1.000  H
  N105     1.0000 0.04749  0.76998  0.46182  Biso   1.000  N
  N106     1.0000 0.04749  0.77002  0.46182  Biso   1.000  N
  C577     1.0000 0.03529  0.04058  0.83270  Biso   1.000  C
  C578     1.0000 0.03529  0.04063  0.83270  Biso   1.000  C
  C579     1.0000 0.97079  0.98941  0.77631  Biso   1.000  C
  H775     1.0000 0.05200  0.97299  0.77102  Biso   1.000  H
  H776     1.0000 0.05200  0.97303  0.77102  Biso   1.000  H
  C580     1.0000 0.04058  0.33270  0.53529  Biso   1.000  C
  C581     1.0000 0.04063  0.33270  0.53529  Biso   1.000  C
  H777     1.0000 0.97299  0.27102  0.55200  Biso   1.000  H
  C582     1.0000 0.98941  0.27631  0.47079  Biso   1.000  C
  H778     1.0000 0.97303  0.27102  0.55200  Biso   1.000  H
  C583     1.0000 0.02921  0.98941  0.22369  Biso   1.000  C
  C584     1.0000 0.01059  0.72369  0.47079  Biso   1.000  C
  H779     1.0000 0.07149  0.05961  0.83361  Biso   1.000  H
  H780     1.0000 0.00621  0.06930  0.83551  Biso   1.000  H
  C585     1.0000 0.03111  0.00302  0.88243  Biso   1.000  C
  H781     1.0000 0.07153  0.05961  0.83361  Biso   1.000  H
  H782     1.0000 0.01920  0.07831  0.83171  Biso   1.000  H
  H783     1.0000 0.07438  0.04261  0.84470  Biso   1.000  H
  C586     1.0000 0.00000  0.00000  0.87093  Biso   1.000  C
  N107     1.0000 0.96182  0.95251  0.73002  Biso   1.000  N
  C587     1.0000 0.96471  0.95942  0.83270  Biso   1.000  C
  H784     1.0000 0.94800  0.02701  0.77102  Biso   1.000  H
  H785     1.0000 0.05961  0.33361  0.57149  Biso   1.000  H
  H786     1.0000 0.06930  0.33551  0.50621  Biso   1.000  H
  C588     1.0000 0.00302  0.38238  0.53111  Biso   1.000  C
  C589     1.0000 0.00302  0.38243  0.53111  Biso   1.000  C
  H787     1.0000 0.07831  0.33171  0.51920  Biso   1.000  H
  H788     1.0000 0.04261  0.34470  0.57442  Biso   1.000  H
  C590     1.0000 0.00000  0.37088  0.50000  Biso   1.000  C
  H789     1.0000 0.02701  0.27102  0.44800  Biso   1.000  H
  N108     1.0000 0.95251  0.23002  0.46182  Biso   1.000  N
  C591     1.0000 0.95942  0.33270  0.46471  Biso   1.000  C
  H790     1.0000 0.05200  0.02701  0.22898  Biso   1.000  H
  C592     1.0000 0.97079  0.01059  0.22369  Biso   1.000  C
  C593     1.0000 0.03529  0.95942  0.16730  Biso   1.000  C
  H791     1.0000 0.97299  0.72898  0.44800  Biso   1.000  H
  C594     1.0000 0.98941  0.72369  0.52921  Biso   1.000  C
  H792     1.0000 0.97299  0.72903  0.44800  Biso   1.000  H
  H793     1.0000 0.97303  0.72898  0.44800  Biso   1.000  H
  H794     1.0000 0.97303  0.72903  0.44800  Biso   1.000  H
  C595     1.0000 0.04058  0.66730  0.46471  Biso   1.000  C
  C596     1.0000 0.04063  0.66730  0.46471  Biso   1.000  C
  H795     1.0000 0.04509  0.02081  0.91660  Biso   1.000  H
  C597     1.0000 0.96889  0.99698  0.88243  Biso   1.000  C
  C598     1.0000 0.96889  0.99702  0.88243  Biso   1.000  C
  H796     1.0000 0.05018  0.96732  0.87651  Biso   1.000  H
  H797     1.0000 0.05022  0.96732  0.87651  Biso   1.000  H
  H798     1.0000 0.02511  0.97820  0.89492  Biso   1.000  H
  H799     1.0000 0.97489  0.02180  0.89492  Biso   1.000  H
  C599     1.0000 0.92570  0.96649  0.69432  Biso   1.000  C
  H800     1.0000 0.92851  0.94039  0.83361  Biso   1.000  H
  H801     1.0000 0.99379  0.93070  0.83551  Biso   1.000  H
  H802     1.0000 0.92851  0.94043  0.83361  Biso   1.000  H
  H803     1.0000 0.98080  0.92169  0.83171  Biso   1.000  H
  H804     1.0000 0.92562  0.95739  0.84470  Biso   1.000  H
  H805     1.0000 0.02081  0.41660  0.54509  Biso   1.000  H
  H806     1.0000 0.96732  0.37651  0.55022  Biso   1.000  H
  C600     1.0000 0.99698  0.38238  0.46889  Biso   1.000  C
  C601     1.0000 0.99698  0.38243  0.46889  Biso   1.000  C
  C602     1.0000 0.99702  0.38238  0.46889  Biso   1.000  C
  C603     1.0000 0.99702  0.38243  0.46889  Biso   1.000  C
  H807     1.0000 0.97820  0.39492  0.52511  Biso   1.000  H
  H808     1.0000 0.02180  0.39492  0.47489  Biso   1.000  H
  C604     1.0000 0.96649  0.19432  0.42570  Biso   1.000  C
  H809     1.0000 0.94039  0.33361  0.42851  Biso   1.000  H
  H810     1.0000 0.93070  0.33551  0.49379  Biso   1.000  H
  H811     1.0000 0.94043  0.33361  0.42851  Biso   1.000  H
  H812     1.0000 0.92169  0.33171  0.48080  Biso   1.000  H
  H813     1.0000 0.95739  0.34470  0.42562  Biso   1.000  H
  H814     1.0000 0.94800  0.97299  0.22898  Biso   1.000  H
  H815     1.0000 0.94800  0.97303  0.22898  Biso   1.000  H
  N109     1.0000 0.96182  0.04749  0.26998  Biso   1.000  N
  C605     1.0000 0.96471  0.04058  0.16730  Biso   1.000  C
  C606     1.0000 0.96471  0.04063  0.16730  Biso   1.000  C
  C607     1.0000 0.00000  0.00000  0.12912  Biso   1.000  C
  H816     1.0000 0.07149  0.94039  0.16639  Biso   1.000  H
  H817     1.0000 0.00621  0.93070  0.16449  Biso   1.000  H
  C608     1.0000 0.03111  0.99698  0.11762  Biso   1.000  C
  H818     1.0000 0.07149  0.94043  0.16639  Biso   1.000  H
  C609     1.0000 0.03111  0.99702  0.11762  Biso   1.000  C
  H819     1.0000 0.07153  0.94039  0.16639  Biso   1.000  H
  H820     1.0000 0.07153  0.94043  0.16639  Biso   1.000  H
  H821     1.0000 0.01920  0.92169  0.16829  Biso   1.000  H
  H822     1.0000 0.07438  0.95739  0.15530  Biso   1.000  H
  N110     1.0000 0.95251  0.76998  0.53818  Biso   1.000  N
  C610     1.0000 0.95942  0.66730  0.53529  Biso   1.000  C
  N111     1.0000 0.95251  0.77002  0.53818  Biso   1.000  N
  H823     1.0000 0.02701  0.72898  0.55200  Biso   1.000  H
  H824     1.0000 0.02701  0.72903  0.55200  Biso   1.000  H
  C611     1.0000 0.00000  0.62912  0.50000  Biso   1.000  C
  H825     1.0000 0.05961  0.66639  0.42851  Biso   1.000  H
  H826     1.0000 0.06930  0.66449  0.49379  Biso   1.000  H
  C612     1.0000 0.00302  0.61762  0.46889  Biso   1.000  C
  H827     1.0000 0.07831  0.66829  0.48080  Biso   1.000  H
  H828     1.0000 0.04261  0.65530  0.42562  Biso   1.000  H
  H829     1.0000 0.95491  0.97919  0.91660  Biso   1.000  H
  H830     1.0000 0.94982  0.03268  0.87651  Biso   1.000  H
  H831     1.0000 0.94982  0.03272  0.87651  Biso   1.000  H
  C613     1.0000 0.91341  0.93248  0.64562  Biso   1.000  C
  C614     1.0000 0.91341  0.93253  0.64562  Biso   1.000  C
  H832     1.0000 0.90609  0.00008  0.69940  Biso   1.000  H
  H833     1.0000 0.90609  0.00012  0.69940  Biso   1.000  H
  H834     1.0000 0.03268  0.37651  0.44982  Biso   1.000  H
  H835     1.0000 0.03272  0.37651  0.44982  Biso   1.000  H
  H836     1.0000 0.97919  0.41660  0.45491  Biso   1.000  H
  H837     1.0000 0.00008  0.19940  0.40609  Biso   1.000  H
  H838     1.0000 0.00012  0.19940  0.40609  Biso   1.000  H
  C615     1.0000 0.93248  0.14558  0.41341  Biso   1.000  C
  C616     1.0000 0.93248  0.14562  0.41341  Biso   1.000  C
  C617     1.0000 0.93253  0.14558  0.41341  Biso   1.000  C
  C618     1.0000 0.93253  0.14562  0.41341  Biso   1.000  C
  C619     1.0000 0.92570  0.03351  0.30568  Biso   1.000  C
  H839     1.0000 0.92851  0.05961  0.16639  Biso   1.000  H
  H840     1.0000 0.99379  0.06930  0.16449  Biso   1.000  H
  C620     1.0000 0.96889  0.00302  0.11762  Biso   1.000  C
  H841     1.0000 0.98080  0.07831  0.16829  Biso   1.000  H
  H842     1.0000 0.92562  0.04261  0.15530  Biso   1.000  H
  H843     1.0000 0.02511  0.02180  0.10508  Biso   1.000  H
  H844     1.0000 0.97489  0.97820  0.10508  Biso   1.000  H
  H845     1.0000 0.05018  0.03268  0.12349  Biso   1.000  H
  H846     1.0000 0.05018  0.03272  0.12349  Biso   1.000  H
  H847     1.0000 0.05022  0.03268  0.12349  Biso   1.000  H
  H848     1.0000 0.05022  0.03272  0.12349  Biso   1.000  H
  H849     1.0000 0.04509  0.97919  0.08340  Biso   1.000  H
  C621     1.0000 0.96649  0.80568  0.57430  Biso   1.000  C
  C622     1.0000 0.96649  0.80573  0.57430  Biso   1.000  C
  H850     1.0000 0.94039  0.66639  0.57149  Biso   1.000  H
  H851     1.0000 0.93070  0.66449  0.50621  Biso   1.000  H
  C623     1.0000 0.99698  0.61762  0.53111  Biso   1.000  C
  H852     1.0000 0.94043  0.66639  0.57149  Biso   1.000  H
  C624     1.0000 0.99702  0.61762  0.53111  Biso   1.000  C
  H853     1.0000 0.92169  0.66829  0.51920  Biso   1.000  H
  H854     1.0000 0.95739  0.65530  0.57442  Biso   1.000  H
  H855     1.0000 0.97820  0.60512  0.47489  Biso   1.000  H
  H856     1.0000 0.02180  0.60512  0.52511  Biso   1.000  H
  H857     1.0000 0.96732  0.62349  0.44982  Biso   1.000  H
  H858     1.0000 0.02081  0.58340  0.45491  Biso   1.000  H
  C625     1.0000 0.94539  0.88702  0.63251  Biso   1.000  C
  C626     1.0000 0.86749  0.94539  0.61302  Biso   1.000  C
  C627     1.0000 0.88702  0.13251  0.44539  Biso   1.000  C
  C628     1.0000 0.94539  0.11298  0.36749  Biso   1.000  C
  C629     1.0000 0.94539  0.11302  0.36749  Biso   1.000  C
  C630     1.0000 0.91341  0.06752  0.35442  Biso   1.000  C
  H859     1.0000 0.90609  0.99992  0.30060  Biso   1.000  H
  H860     1.0000 0.94982  0.96732  0.12349  Biso   1.000  H
  H861     1.0000 0.95491  0.02081  0.08340  Biso   1.000  H
  C631     1.0000 0.93248  0.85442  0.58659  Biso   1.000  C
  C632     1.0000 0.93253  0.85442  0.58659  Biso   1.000  C
  H862     1.0000 0.00008  0.80060  0.59391  Biso   1.000  H
  H863     1.0000 0.00012  0.80060  0.59391  Biso   1.000  H
  H864     1.0000 0.97919  0.58340  0.54509  Biso   1.000  H
  H865     1.0000 0.03268  0.62349  0.55022  Biso   1.000  H
  H866     1.0000 0.03272  0.62349  0.55022  Biso   1.000  H
  H867     1.0000 0.97650  0.87792  0.65481  Biso   1.000  H
  H868     1.0000 0.84519  0.97650  0.62212  Biso   1.000  H
  C633     1.0000 0.85442  0.91341  0.56752  Biso   1.000  C
  H869     1.0000 0.87792  0.15481  0.47650  Biso   1.000  H
  C634     1.0000 0.85442  0.08659  0.43248  Biso   1.000  C
  C635     1.0000 0.85442  0.08663  0.43248  Biso   1.000  C
  H870     1.0000 0.97650  0.12208  0.34519  Biso   1.000  H
  H871     1.0000 0.97650  0.12212  0.34519  Biso   1.000  H
  C636     1.0000 0.86749  0.05461  0.38702  Biso   1.000  C
  C637     1.0000 0.88702  0.86749  0.55461  Biso   1.000  C
  C638     1.0000 0.80568  0.92570  0.53351  Biso   1.000  C
  C639     1.0000 0.80573  0.92570  0.53351  Biso   1.000  C
  C640     1.0000 0.80568  0.07430  0.46649  Biso   1.000  C
  C641     1.0000 0.80573  0.07430  0.46649  Biso   1.000  C
  H872     1.0000 0.84519  0.02350  0.37792  Biso   1.000  H
  H873     1.0000 0.87792  0.84519  0.52350  Biso   1.000  H
  N112     1.0000 0.76998  0.96182  0.54749  Biso   1.000  N
  H874     1.0000 0.80060  0.90609  0.49992  Biso   1.000  H
  N113     1.0000 0.77002  0.96182  0.54749  Biso   1.000  N
  N114     1.0000 0.76998  0.03818  0.45251  Biso   1.000  N
  H875     1.0000 0.80060  0.09391  0.50012  Biso   1.000  H
  N115     1.0000 0.76998  0.03823  0.45251  Biso   1.000  N
  N116     1.0000 0.77002  0.03818  0.45251  Biso   1.000  N
  N117     1.0000 0.77002  0.03823  0.45251  Biso   1.000  N
  C642     1.0000 0.72369  0.97079  0.51059  Biso   1.000  C
  C643     1.0000 0.72369  0.02921  0.48941  Biso   1.000  C
  H876     1.0000 0.72898  0.94800  0.47299  Biso   1.000  H
  C644     1.0000 0.66730  0.96471  0.54058  Biso   1.000  C
  H877     1.0000 0.72903  0.94800  0.47299  Biso   1.000  H
  H878     1.0000 0.72898  0.05200  0.52701  Biso   1.000  H
  C645     1.0000 0.66730  0.03529  0.45942  Biso   1.000  C
  H879     1.0000 0.72903  0.05200  0.52701  Biso   1.000  H
  H880     1.0000 0.66639  0.92851  0.55961  Biso   1.000  H
  H881     1.0000 0.66449  0.99379  0.56930  Biso   1.000  H
  C646     1.0000 0.61762  0.96889  0.50302  Biso   1.000  C
  H882     1.0000 0.66829  0.98080  0.57831  Biso   1.000  H
  H883     1.0000 0.65530  0.92562  0.54261  Biso   1.000  H
  C647     1.0000 0.62912  0.00000  0.50000  Biso   1.000  C
  H884     1.0000 0.66639  0.07149  0.44039  Biso   1.000  H
  H885     1.0000 0.66449  0.00621  0.43070  Biso   1.000  H
  C648     1.0000 0.61762  0.03111  0.49702  Biso   1.000  C
  H886     1.0000 0.66639  0.07153  0.44039  Biso   1.000  H
  H887     1.0000 0.66829  0.01920  0.42169  Biso   1.000  H
  H888     1.0000 0.65530  0.07438  0.45739  Biso   1.000  H
  H889     1.0000 0.58340  0.95491  0.52081  Biso   1.000  H
  H890     1.0000 0.62349  0.94982  0.46732  Biso   1.000  H
  H891     1.0000 0.60512  0.97489  0.47820  Biso   1.000  H
  H892     1.0000 0.60512  0.02511  0.52180  Biso   1.000  H
  H893     1.0000 0.58340  0.04509  0.47919  Biso   1.000  H
  H894     1.0000 0.62349  0.05018  0.53272  Biso   1.000  H
  H895     1.0000 0.62349  0.05022  0.53272  Biso   1.000  H
  C649     1.0000 0.38238  0.03111  0.50302  Biso   1.000  C
  C650     1.0000 0.33270  0.03529  0.54058  Biso   1.000  C
  H896     1.0000 0.41660  0.04509  0.52081  Biso   1.000  H
  H897     1.0000 0.37651  0.05018  0.46732  Biso   1.000  H
  H898     1.0000 0.37651  0.05022  0.46732  Biso   1.000  H
  C651     1.0000 0.38238  0.96889  0.49702  Biso   1.000  C
  C652     1.0000 0.38243  0.96889  0.49702  Biso   1.000  C
  H899     1.0000 0.39492  0.02511  0.47820  Biso   1.000  H
  C653     1.0000 0.27631  0.02921  0.51059  Biso   1.000  C
  H900     1.0000 0.33551  0.00621  0.56930  Biso   1.000  H
  H901     1.0000 0.33361  0.07149  0.55961  Biso   1.000  H
  H902     1.0000 0.33361  0.07153  0.55961  Biso   1.000  H
  C654     1.0000 0.38243  0.03111  0.50302  Biso   1.000  C
  C655     1.0000 0.37088  0.00000  0.50000  Biso   1.000  C
  H903     1.0000 0.33171  0.01920  0.57831  Biso   1.000  H
  H904     1.0000 0.34470  0.07438  0.54261  Biso   1.000  H
  C656     1.0000 0.33270  0.96471  0.45942  Biso   1.000  C
  H905     1.0000 0.39492  0.97489  0.52180  Biso   1.000  H
  H906     1.0000 0.41660  0.95491  0.47919  Biso   1.000  H
  H907     1.0000 0.37651  0.94982  0.53272  Biso   1.000  H
  N118     1.0000 0.23002  0.03818  0.54749  Biso   1.000  N
  N119     1.0000 0.23002  0.03823  0.54749  Biso   1.000  N
  H908     1.0000 0.27102  0.05200  0.47299  Biso   1.000  H
  C657     1.0000 0.27631  0.97079  0.48941  Biso   1.000  C
  H909     1.0000 0.33361  0.92851  0.44039  Biso   1.000  H
  H910     1.0000 0.33551  0.99379  0.43070  Biso   1.000  H
  H911     1.0000 0.33171  0.98080  0.42169  Biso   1.000  H
  H912     1.0000 0.34470  0.92562  0.45739  Biso   1.000  H
  C658     1.0000 0.19432  0.07430  0.53351  Biso   1.000  C
  N120     1.0000 0.23002  0.96182  0.45251  Biso   1.000  N
  H913     1.0000 0.27102  0.94800  0.52701  Biso   1.000  H
  H914     1.0000 0.19940  0.09391  0.49992  Biso   1.000  H
  C659     1.0000 0.14558  0.08659  0.56752  Biso   1.000  C
  C660     1.0000 0.14558  0.08663  0.56752  Biso   1.000  C
  C661     1.0000 0.14562  0.08659  0.56752  Biso   1.000  C
  C662     1.0000 0.14562  0.08663  0.56752  Biso   1.000  C
  C663     1.0000 0.19432  0.92570  0.46649  Biso   1.000  C
  C664     1.0000 0.13251  0.05461  0.61302  Biso   1.000  C
  C665     1.0000 0.11298  0.13251  0.55461  Biso   1.000  C
  C666     1.0000 0.11302  0.13251  0.55461  Biso   1.000  C
  H915     1.0000 0.19940  0.90609  0.50012  Biso   1.000  H
  C667     1.0000 0.14558  0.91341  0.43248  Biso   1.000  C
  C668     1.0000 0.14562  0.91341  0.43248  Biso   1.000  C
  H916     1.0000 0.15481  0.02350  0.62212  Biso   1.000  H
  C669     1.0000 0.08659  0.06752  0.64562  Biso   1.000  C
  C670     1.0000 0.08663  0.06752  0.64562  Biso   1.000  C
  H917     1.0000 0.12208  0.15481  0.52350  Biso   1.000  H
  C671     1.0000 0.06752  0.14558  0.58659  Biso   1.000  C
  H918     1.0000 0.12212  0.15481  0.52350  Biso   1.000  H
  C672     1.0000 0.06752  0.14562  0.58659  Biso   1.000  C
  C673     1.0000 0.13251  0.94539  0.38702  Biso   1.000  C
  C674     1.0000 0.11298  0.86749  0.44539  Biso   1.000  C
  C675     1.0000 0.11302  0.86749  0.44539  Biso   1.000  C
  C676     1.0000 0.07430  0.03351  0.69432  Biso   1.000  C
  C677     1.0000 0.05461  0.11298  0.63251  Biso   1.000  C
  C678     1.0000 0.05461  0.11302  0.63251  Biso   1.000  C
  C679     1.0000 0.03351  0.19432  0.57430  Biso   1.000  C
  H919     1.0000 0.15481  0.97650  0.37792  Biso   1.000  H
  C680     1.0000 0.08659  0.93248  0.35442  Biso   1.000  C
  C681     1.0000 0.08659  0.93253  0.35442  Biso   1.000  C
  C682     1.0000 0.08663  0.93248  0.35442  Biso   1.000  C
  C683     1.0000 0.08663  0.93253  0.35442  Biso   1.000  C
  H920     1.0000 0.12208  0.84519  0.47650  Biso   1.000  H
  C684     1.0000 0.06752  0.85442  0.41341  Biso   1.000  C
  H921     1.0000 0.12212  0.84519  0.47650  Biso   1.000  H
  N121     1.0000 0.03818  0.04749  0.73002  Biso   1.000  N
  N122     1.0000 0.03823  0.04749  0.73002  Biso   1.000  N
  H922     1.0000 0.09391  0.99992  0.69940  Biso   1.000  H
  H923     1.0000 0.02350  0.12208  0.65481  Biso   1.000  H
  H924     1.0000 0.02350  0.12212  0.65481  Biso   1.000  H
  N123     1.0000 0.04749  0.23002  0.53818  Biso   1.000  N
  H925     1.0000 0.99992  0.19940  0.59391  Biso   1.000  H
  C685     1.0000 0.07430  0.96649  0.30568  Biso   1.000  C
  C686     1.0000 0.05461  0.88702  0.36749  Biso   1.000  C
  C687     1.0000 0.03351  0.80568  0.42570  Biso   1.000  C
  C688     1.0000 0.03351  0.80573  0.42570  Biso   1.000  C
  C689     1.0000 0.02921  0.01059  0.77631  Biso   1.000  C
  C690     1.0000 0.01059  0.27631  0.52921  Biso   1.000  C
  H926     1.0000 0.09391  0.00008  0.30060  Biso   1.000  H
  H927     1.0000 0.09391  0.00012  0.30060  Biso   1.000  H
  N124     1.0000 0.03818  0.95251  0.26998  Biso   1.000  N
  N125     1.0000 0.03823  0.95251  0.26998  Biso   1.000  N
  H928     1.0000 0.02350  0.87792  0.34519  Biso   1.000  H
  H929     1.0000 0.99992  0.80060  0.40609  Biso   1.000  H
  N126     1.0000 0.04749  0.76998  0.46182  Biso   1.000  N
  N127     1.0000 0.04749  0.77002  0.46182  Biso   1.000  N
  C691     1.0000 0.03529  0.04058  0.83270  Biso   1.000  C
  C692     1.0000 0.03529  0.04063  0.83270  Biso   1.000  C
  C693     1.0000 0.97079  0.98941  0.77631  Biso   1.000  C
  H930     1.0000 0.05200  0.97299  0.77102  Biso   1.000  H
  H931     1.0000 0.05200  0.97303  0.77102  Biso   1.000  H
  C694     1.0000 0.04058  0.33270  0.53529  Biso   1.000  C
  C695     1.0000 0.04063  0.33270  0.53529  Biso   1.000  C
  H932     1.0000 0.97299  0.27102  0.55200  Biso   1.000  H
  C696     1.0000 0.98941  0.27631  0.47079  Biso   1.000  C
  H933     1.0000 0.97303  0.27102  0.55200  Biso   1.000  H
  C697     1.0000 0.02921  0.98941  0.22369  Biso   1.000  C
  C698     1.0000 0.01059  0.72369  0.47079  Biso   1.000  C
  H934     1.0000 0.07149  0.05961  0.83361  Biso   1.000  H
  H935     1.0000 0.00621  0.06930  0.83551  Biso   1.000  H
  C699     1.0000 0.03111  0.00302  0.88243  Biso   1.000  C
  H936     1.0000 0.07153  0.05961  0.83361  Biso   1.000  H
  C700     1.0000 0.00000  0.00000  0.87093  Biso   1.000  C
  H937     1.0000 0.01920  0.07831  0.83171  Biso   1.000  H
  H938     1.0000 0.07438  0.04261  0.84470  Biso   1.000  H
  N128     1.0000 0.96182  0.95251  0.73002  Biso   1.000  N
  C701     1.0000 0.96471  0.95942  0.83270  Biso   1.000  C
  H939     1.0000 0.94800  0.02701  0.77102  Biso   1.000  H
  H940     1.0000 0.05961  0.33361  0.57149  Biso   1.000  H
  H941     1.0000 0.06930  0.33551  0.50621  Biso   1.000  H
  C702     1.0000 0.00302  0.38238  0.53111  Biso   1.000  C
  C703     1.0000 0.00302  0.38243  0.53111  Biso   1.000  C
  C704     1.0000 0.00000  0.37088  0.50000  Biso   1.000  C
  H942     1.0000 0.07831  0.33171  0.51920  Biso   1.000  H
  H943     1.0000 0.04261  0.34470  0.57442  Biso   1.000  H
  H944     1.0000 0.02701  0.27102  0.44800  Biso   1.000  H
  N129     1.0000 0.95251  0.23002  0.46182  Biso   1.000  N
  C705     1.0000 0.95942  0.33270  0.46471  Biso   1.000  C
  H945     1.0000 0.05200  0.02701  0.22898  Biso   1.000  H
  C706     1.0000 0.97079  0.01059  0.22369  Biso   1.000  C
  C707     1.0000 0.03529  0.95942  0.16730  Biso   1.000  C
  H946     1.0000 0.97299  0.72898  0.44800  Biso   1.000  H
  C708     1.0000 0.98941  0.72369  0.52921  Biso   1.000  C
  H947     1.0000 0.97299  0.72903  0.44800  Biso   1.000  H
  H948     1.0000 0.97303  0.72898  0.44800  Biso   1.000  H
  H949     1.0000 0.97303  0.72903  0.44800  Biso   1.000  H
  C709     1.0000 0.04058  0.66730  0.46471  Biso   1.000  C
  C710     1.0000 0.04063  0.66730  0.46471  Biso   1.000  C
  H950     1.0000 0.04509  0.02081  0.91660  Biso   1.000  H
  C711     1.0000 0.96889  0.99698  0.88243  Biso   1.000  C
  C712     1.0000 0.96889  0.99702  0.88243  Biso   1.000  C
  H951     1.0000 0.05018  0.96732  0.87651  Biso   1.000  H
  H952     1.0000 0.05022  0.96732  0.87651  Biso   1.000  H
  H953     1.0000 0.02511  0.97820  0.89492  Biso   1.000  H
  H954     1.0000 0.97489  0.02180  0.89492  Biso   1.000  H
  C713     1.0000 0.92570  0.96649  0.69432  Biso   1.000  C
  H955     1.0000 0.92851  0.94039  0.83361  Biso   1.000  H
  H956     1.0000 0.99379  0.93070  0.83551  Biso   1.000  H
  H957     1.0000 0.92851  0.94043  0.83361  Biso   1.000  H
  H958     1.0000 0.98080  0.92169  0.83171  Biso   1.000  H
  H959     1.0000 0.92562  0.95739  0.84470  Biso   1.000  H
  H960     1.0000 0.02081  0.41660  0.54509  Biso   1.000  H
  H961     1.0000 0.96732  0.37651  0.55022  Biso   1.000  H
  C714     1.0000 0.99698  0.38238  0.46889  Biso   1.000  C
  C715     1.0000 0.99698  0.38243  0.46889  Biso   1.000  C
  C716     1.0000 0.99702  0.38238  0.46889  Biso   1.000  C
  C717     1.0000 0.99702  0.38243  0.46889  Biso   1.000  C
  H962     1.0000 0.97820  0.39492  0.52511  Biso   1.000  H
  H963     1.0000 0.02180  0.39492  0.47489  Biso   1.000  H
  C718     1.0000 0.96649  0.19432  0.42570  Biso   1.000  C
  H964     1.0000 0.94039  0.33361  0.42851  Biso   1.000  H
  H965     1.0000 0.93070  0.33551  0.49379  Biso   1.000  H
  H966     1.0000 0.94043  0.33361  0.42851  Biso   1.000  H
  H967     1.0000 0.92169  0.33171  0.48080  Biso   1.000  H
  H968     1.0000 0.95739  0.34470  0.42562  Biso   1.000  H
  H969     1.0000 0.94800  0.97299  0.22898  Biso   1.000  H
  H970     1.0000 0.94800  0.97303  0.22898  Biso   1.000  H
  N130     1.0000 0.96182  0.04749  0.26998  Biso   1.000  N
  C719     1.0000 0.96471  0.04058  0.16730  Biso   1.000  C
  C720     1.0000 0.96471  0.04063  0.16730  Biso   1.000  C
  C721     1.0000 0.00000  0.00000  0.12912  Biso   1.000  C
  H971     1.0000 0.07149  0.94039  0.16639  Biso   1.000  H
  H972     1.0000 0.00621  0.93070  0.16449  Biso   1.000  H
  C722     1.0000 0.03111  0.99698  0.11762  Biso   1.000  C
  H973     1.0000 0.07149  0.94043  0.16639  Biso   1.000  H
  C723     1.0000 0.03111  0.99702  0.11762  Biso   1.000  C
  H974     1.0000 0.07153  0.94039  0.16639  Biso   1.000  H
  H975     1.0000 0.07153  0.94043  0.16639  Biso   1.000  H
  H976     1.0000 0.01920  0.92169  0.16829  Biso   1.000  H
  H977     1.0000 0.07438  0.95739  0.15530  Biso   1.000  H
  N131     1.0000 0.95251  0.76998  0.53818  Biso   1.000  N
  C724     1.0000 0.95942  0.66730  0.53529  Biso   1.000  C
  N132     1.0000 0.95251  0.77002  0.53818  Biso   1.000  N
  H978     1.0000 0.02701  0.72898  0.55200  Biso   1.000  H
  H979     1.0000 0.02701  0.72903  0.55200  Biso   1.000  H
  C725     1.0000 0.00000  0.62912  0.50000  Biso   1.000  C
  H980     1.0000 0.05961  0.66639  0.42851  Biso   1.000  H
  H981     1.0000 0.06930  0.66449  0.49379  Biso   1.000  H
  C726     1.0000 0.00302  0.61762  0.46889  Biso   1.000  C
  H982     1.0000 0.07831  0.66829  0.48080  Biso   1.000  H
  H983     1.0000 0.04261  0.65530  0.42562  Biso   1.000  H
  H984     1.0000 0.95491  0.97919  0.91660  Biso   1.000  H
  H985     1.0000 0.94982  0.03268  0.87651  Biso   1.000  H
  H986     1.0000 0.94982  0.03272  0.87651  Biso   1.000  H
  C727     1.0000 0.91341  0.93248  0.64562  Biso   1.000  C
  C728     1.0000 0.91341  0.93253  0.64562  Biso   1.000  C
  H987     1.0000 0.90609  0.00008  0.69940  Biso   1.000  H
  H988     1.0000 0.90609  0.00012  0.69940  Biso   1.000  H
  H989     1.0000 0.03268  0.37651  0.44982  Biso   1.000  H
  H990     1.0000 0.03272  0.37651  0.44982  Biso   1.000  H
  H991     1.0000 0.97919  0.41660  0.45491  Biso   1.000  H
  H992     1.0000 0.00008  0.19940  0.40609  Biso   1.000  H
  H993     1.0000 0.00012  0.19940  0.40609  Biso   1.000  H
  C729     1.0000 0.93248  0.14558  0.41341  Biso   1.000  C
  C730     1.0000 0.93248  0.14562  0.41341  Biso   1.000  C
  C731     1.0000 0.93253  0.14558  0.41341  Biso   1.000  C
  C732     1.0000 0.93253  0.14562  0.41341  Biso   1.000  C
  C733     1.0000 0.92570  0.03351  0.30568  Biso   1.000  C
  H994     1.0000 0.92851  0.05961  0.16639  Biso   1.000  H
  H995     1.0000 0.99379  0.06930  0.16449  Biso   1.000  H
  C734     1.0000 0.96889  0.00302  0.11762  Biso   1.000  C
  H996     1.0000 0.98080  0.07831  0.16829  Biso   1.000  H
  H997     1.0000 0.92562  0.04261  0.15530  Biso   1.000  H
  H998     1.0000 0.97489  0.97820  0.10508  Biso   1.000  H
  H999     1.0000 0.02511  0.02180  0.10508  Biso   1.000  H
  H1000    1.0000 0.04509  0.97919  0.08340  Biso   1.000  H
  H1001    1.0000 0.05018  0.03268  0.12349  Biso   1.000  H
  H1002    1.0000 0.05018  0.03272  0.12349  Biso   1.000  H
  H1003    1.0000 0.05022  0.03268  0.12349  Biso   1.000  H
  H1004    1.0000 0.05022  0.03272  0.12349  Biso   1.000  H
  C735     1.0000 0.96649  0.80568  0.57430  Biso   1.000  C
  C736     1.0000 0.96649  0.80573  0.57430  Biso   1.000  C
  H1005    1.0000 0.94039  0.66639  0.57149  Biso   1.000  H
  H1006    1.0000 0.93070  0.66449  0.50621  Biso   1.000  H
  C737     1.0000 0.99698  0.61762  0.53111  Biso   1.000  C
  H1007    1.0000 0.94043  0.66639  0.57149  Biso   1.000  H
  C738     1.0000 0.99702  0.61762  0.53111  Biso   1.000  C
  H1008    1.0000 0.92169  0.66829  0.51920  Biso   1.000  H
  H1009    1.0000 0.95739  0.65530  0.57442  Biso   1.000  H
  H1010    1.0000 0.97820  0.60512  0.47489  Biso   1.000  H
  H1011    1.0000 0.02180  0.60512  0.52511  Biso   1.000  H
  H1012    1.0000 0.96732  0.62349  0.44982  Biso   1.000  H
  H1013    1.0000 0.02081  0.58340  0.45491  Biso   1.000  H
  C739     1.0000 0.94539  0.88702  0.63251  Biso   1.000  C
  C740     1.0000 0.86749  0.94539  0.61302  Biso   1.000  C
  C741     1.0000 0.88702  0.13251  0.44539  Biso   1.000  C
  C742     1.0000 0.94539  0.11298  0.36749  Biso   1.000  C
  C743     1.0000 0.94539  0.11302  0.36749  Biso   1.000  C
  C744     1.0000 0.91341  0.06752  0.35442  Biso   1.000  C
  H1014    1.0000 0.90609  0.99992  0.30060  Biso   1.000  H
  H1015    1.0000 0.94982  0.96732  0.12349  Biso   1.000  H
  H1016    1.0000 0.95491  0.02081  0.08340  Biso   1.000  H
  C745     1.0000 0.93248  0.85442  0.58659  Biso   1.000  C
  C746     1.0000 0.93253  0.85442  0.58659  Biso   1.000  C
  H1017    1.0000 0.00008  0.80060  0.59391  Biso   1.000  H
  H1018    1.0000 0.00012  0.80060  0.59391  Biso   1.000  H
  H1019    1.0000 0.97919  0.58340  0.54509  Biso   1.000  H
  H1020    1.0000 0.03268  0.62349  0.55022  Biso   1.000  H
  H1021    1.0000 0.03272  0.62349  0.55022  Biso   1.000  H
  H1022    1.0000 0.97650  0.87792  0.65481  Biso   1.000  H
  H1023    1.0000 0.84519  0.97650  0.62212  Biso   1.000  H
  C747     1.0000 0.85442  0.91341  0.56752  Biso   1.000  C
  H1024    1.0000 0.87792  0.15481  0.47650  Biso   1.000  H
  C748     1.0000 0.85442  0.08659  0.43248  Biso   1.000  C
  C749     1.0000 0.85442  0.08663  0.43248  Biso   1.000  C
  H1025    1.0000 0.97650  0.12208  0.34519  Biso   1.000  H
  H1026    1.0000 0.97650  0.12212  0.34519  Biso   1.000  H
  C750     1.0000 0.86749  0.05461  0.38702  Biso   1.000  C
  C751     1.0000 0.88702  0.86749  0.55461  Biso   1.000  C
  C752     1.0000 0.80568  0.92570  0.53351  Biso   1.000  C
  C753     1.0000 0.80573  0.92570  0.53351  Biso   1.000  C
  C754     1.0000 0.80568  0.07430  0.46649  Biso   1.000  C
  C755     1.0000 0.80573  0.07430  0.46649  Biso   1.000  C
  H1027    1.0000 0.84519  0.02350  0.37792  Biso   1.000  H
  H1028    1.0000 0.87792  0.84519  0.52350  Biso   1.000  H
  N133     1.0000 0.76998  0.96182  0.54749  Biso   1.000  N
  H1029    1.0000 0.80060  0.90609  0.49992  Biso   1.000  H
  N134     1.0000 0.77002  0.96182  0.54749  Biso   1.000  N
  N135     1.0000 0.76998  0.03818  0.45251  Biso   1.000  N
  H1030    1.0000 0.80060  0.09391  0.50012  Biso   1.000  H
  N136     1.0000 0.76998  0.03823  0.45251  Biso   1.000  N
  N137     1.0000 0.77002  0.03818  0.45251  Biso   1.000  N
  N138     1.0000 0.77002  0.03823  0.45251  Biso   1.000  N
  C756     1.0000 0.72369  0.97079  0.51059  Biso   1.000  C
  C757     1.0000 0.72369  0.02921  0.48941  Biso   1.000  C
  H1031    1.0000 0.72898  0.94800  0.47299  Biso   1.000  H
  C758     1.0000 0.66730  0.96471  0.54058  Biso   1.000  C
  H1032    1.0000 0.72903  0.94800  0.47299  Biso   1.000  H
  H1033    1.0000 0.72898  0.05200  0.52701  Biso   1.000  H
  C759     1.0000 0.66730  0.03529  0.45942  Biso   1.000  C
  H1034    1.0000 0.72903  0.05200  0.52701  Biso   1.000  H
  H1035    1.0000 0.66639  0.92851  0.55961  Biso   1.000  H
  H1036    1.0000 0.66449  0.99379  0.56930  Biso   1.000  H
  C760     1.0000 0.61762  0.96889  0.50302  Biso   1.000  C
  H1037    1.0000 0.66829  0.98080  0.57831  Biso   1.000  H
  H1038    1.0000 0.65530  0.92562  0.54261  Biso   1.000  H
  C761     1.0000 0.62912  0.00000  0.50000  Biso   1.000  C
  H1039    1.0000 0.66639  0.07149  0.44039  Biso   1.000  H
  H1040    1.0000 0.66449  0.00621  0.43070  Biso   1.000  H
  C762     1.0000 0.61762  0.03111  0.49702  Biso   1.000  C
  H1041    1.0000 0.66639  0.07153  0.44039  Biso   1.000  H
  H1042    1.0000 0.66829  0.01920  0.42169  Biso   1.000  H
  H1043    1.0000 0.65530  0.07438  0.45739  Biso   1.000  H
  H1044    1.0000 0.58340  0.95491  0.52081  Biso   1.000  H
  H1045    1.0000 0.62349  0.94982  0.46732  Biso   1.000  H
  H1046    1.0000 0.60512  0.97489  0.47820  Biso   1.000  H
  H1047    1.0000 0.60512  0.02511  0.52180  Biso   1.000  H
  H1048    1.0000 0.58340  0.04509  0.47919  Biso   1.000  H
  H1049    1.0000 0.62349  0.05018  0.53272  Biso   1.000  H
  H1050    1.0000 0.62349  0.05022  0.53272  Biso   1.000  H
  C763     1.0000 0.38238  0.03111  0.50302  Biso   1.000  C
  C764     1.0000 0.33270  0.03529  0.54058  Biso   1.000  C
  H1051    1.0000 0.39492  0.02511  0.47820  Biso   1.000  H
  H1052    1.0000 0.41660  0.04509  0.52081  Biso   1.000  H
  C765     1.0000 0.38238  0.96889  0.49702  Biso   1.000  C
  C766     1.0000 0.38243  0.96889  0.49702  Biso   1.000  C
  H1053    1.0000 0.37651  0.05018  0.46732  Biso   1.000  H
  H1054    1.0000 0.37651  0.05022  0.46732  Biso   1.000  H
  C767     1.0000 0.27631  0.02921  0.51059  Biso   1.000  C
  H1055    1.0000 0.33551  0.00621  0.56930  Biso   1.000  H
  C768     1.0000 0.37088  0.00000  0.50000  Biso   1.000  C
  H1056    1.0000 0.33361  0.07149  0.55961  Biso   1.000  H
  H1057    1.0000 0.33361  0.07153  0.55961  Biso   1.000  H
  C769     1.0000 0.38243  0.03111  0.50302  Biso   1.000  C
  H1058    1.0000 0.33171  0.01920  0.57831  Biso   1.000  H
  H1059    1.0000 0.34470  0.07438  0.54261  Biso   1.000  H
  C770     1.0000 0.33270  0.96471  0.45942  Biso   1.000  C
  H1060    1.0000 0.39492  0.97489  0.52180  Biso   1.000  H
  H1061    1.0000 0.41660  0.95491  0.47919  Biso   1.000  H
  H1062    1.0000 0.37651  0.94982  0.53272  Biso   1.000  H
  N139     1.0000 0.23002  0.03818  0.54749  Biso   1.000  N
  N140     1.0000 0.23002  0.03823  0.54749  Biso   1.000  N
  H1063    1.0000 0.27102  0.05200  0.47299  Biso   1.000  H
  C771     1.0000 0.27631  0.97079  0.48941  Biso   1.000  C
  H1064    1.0000 0.33361  0.92851  0.44039  Biso   1.000  H
  H1065    1.0000 0.33551  0.99379  0.43070  Biso   1.000  H
  H1066    1.0000 0.33171  0.98080  0.42169  Biso   1.000  H
  H1067    1.0000 0.34470  0.92562  0.45739  Biso   1.000  H
  C772     1.0000 0.19432  0.07430  0.53351  Biso   1.000  C
  N141     1.0000 0.23002  0.96182  0.45251  Biso   1.000  N
  H1068    1.0000 0.27102  0.94800  0.52701  Biso   1.000  H
  H1069    1.0000 0.19940  0.09391  0.49992  Biso   1.000  H
  C773     1.0000 0.14558  0.08659  0.56752  Biso   1.000  C
  C774     1.0000 0.14558  0.08663  0.56752  Biso   1.000  C
  C775     1.0000 0.14562  0.08659  0.56752  Biso   1.000  C
  C776     1.0000 0.14562  0.08663  0.56752  Biso   1.000  C
  C777     1.0000 0.19432  0.92570  0.46649  Biso   1.000  C
  C778     1.0000 0.13251  0.05461  0.61302  Biso   1.000  C
  C779     1.0000 0.11298  0.13251  0.55461  Biso   1.000  C
  C780     1.0000 0.11302  0.13251  0.55461  Biso   1.000  C
  H1070    1.0000 0.19940  0.90609  0.50012  Biso   1.000  H
  C781     1.0000 0.14558  0.91341  0.43248  Biso   1.000  C
  C782     1.0000 0.14562  0.91341  0.43248  Biso   1.000  C
  H1071    1.0000 0.15481  0.02350  0.62212  Biso   1.000  H
  C783     1.0000 0.08659  0.06752  0.64562  Biso   1.000  C
  C784     1.0000 0.08663  0.06752  0.64562  Biso   1.000  C
  H1072    1.0000 0.12208  0.15481  0.52350  Biso   1.000  H
  C785     1.0000 0.06752  0.14558  0.58659  Biso   1.000  C
  C786     1.0000 0.06752  0.14562  0.58659  Biso   1.000  C
  H1073    1.0000 0.12212  0.15481  0.52350  Biso   1.000  H
  C787     1.0000 0.13251  0.94539  0.38702  Biso   1.000  C
  C788     1.0000 0.11298  0.86749  0.44539  Biso   1.000  C
  C789     1.0000 0.11302  0.86749  0.44539  Biso   1.000  C
  C790     1.0000 0.07430  0.03351  0.69432  Biso   1.000  C
  C791     1.0000 0.05461  0.11298  0.63251  Biso   1.000  C
  C792     1.0000 0.05461  0.11302  0.63251  Biso   1.000  C
  C793     1.0000 0.03351  0.19432  0.57430  Biso   1.000  C
  H1074    1.0000 0.15481  0.97650  0.37792  Biso   1.000  H
  C794     1.0000 0.08659  0.93248  0.35442  Biso   1.000  C
  C795     1.0000 0.08659  0.93253  0.35442  Biso   1.000  C
  C796     1.0000 0.08663  0.93248  0.35442  Biso   1.000  C
  C797     1.0000 0.08663  0.93253  0.35442  Biso   1.000  C
  H1075    1.0000 0.12208  0.84519  0.47650  Biso   1.000  H
  C798     1.0000 0.06752  0.85442  0.41341  Biso   1.000  C
  H1076    1.0000 0.12212  0.84519  0.47650  Biso   1.000  H
  H1077    1.0000 0.09391  0.99992  0.69940  Biso   1.000  H
  N142     1.0000 0.03818  0.04749  0.73002  Biso   1.000  N
  N143     1.0000 0.03823  0.04749  0.73002  Biso   1.000  N
  H1078    1.0000 0.02350  0.12208  0.65481  Biso   1.000  H
  H1079    1.0000 0.02350  0.12212  0.65481  Biso   1.000  H
  N144     1.0000 0.04749  0.23002  0.53818  Biso   1.000  N
  H1080    1.0000 0.99992  0.19940  0.59391  Biso   1.000  H
  C799     1.0000 0.07430  0.96649  0.30568  Biso   1.000  C
  C800     1.0000 0.05461  0.88702  0.36749  Biso   1.000  C
  C801     1.0000 0.03351  0.80568  0.42570  Biso   1.000  C
  C802     1.0000 0.03351  0.80573  0.42570  Biso   1.000  C
  C803     1.0000 0.02921  0.01059  0.77631  Biso   1.000  C
  C804     1.0000 0.01059  0.27631  0.52921  Biso   1.000  C
  N145     1.0000 0.03818  0.95251  0.26998  Biso   1.000  N
  N146     1.0000 0.03823  0.95251  0.26998  Biso   1.000  N
  H1081    1.0000 0.09391  0.00008  0.30060  Biso   1.000  H
  H1082    1.0000 0.09391  0.00012  0.30060  Biso   1.000  H
  H1083    1.0000 0.02350  0.87792  0.34519  Biso   1.000  H
  H1084    1.0000 0.99992  0.80060  0.40609  Biso   1.000  H
  N147     1.0000 0.04749  0.76998  0.46182  Biso   1.000  N
  N148     1.0000 0.04749  0.77002  0.46182  Biso   1.000  N
  C805     1.0000 0.97079  0.98941  0.77631  Biso   1.000  C
  H1085    1.0000 0.05200  0.97299  0.77102  Biso   1.000  H
  H1086    1.0000 0.05200  0.97303  0.77102  Biso   1.000  H
  C806     1.0000 0.03529  0.04058  0.83270  Biso   1.000  C
  C807     1.0000 0.03529  0.04063  0.83270  Biso   1.000  C
  H1087    1.0000 0.97299  0.27102  0.55200  Biso   1.000  H
  C808     1.0000 0.98941  0.27631  0.47079  Biso   1.000  C
  H1088    1.0000 0.97303  0.27102  0.55200  Biso   1.000  H
  C809     1.0000 0.04058  0.33270  0.53529  Biso   1.000  C
  C810     1.0000 0.04063  0.33270  0.53529  Biso   1.000  C
  C811     1.0000 0.02921  0.98941  0.22369  Biso   1.000  C
  C812     1.0000 0.01059  0.72369  0.47079  Biso   1.000  C
  N149     1.0000 0.96182  0.95251  0.73002  Biso   1.000  N
  C813     1.0000 0.96471  0.95942  0.83270  Biso   1.000  C
  H1089    1.0000 0.94800  0.02701  0.77102  Biso   1.000  H
  H1090    1.0000 0.00621  0.06930  0.83551  Biso   1.000  H
  C814     1.0000 0.03111  0.00302  0.88243  Biso   1.000  C
  C815     1.0000 0.00000  0.00000  0.87093  Biso   1.000  C
  H1091    1.0000 0.07149  0.05961  0.83361  Biso   1.000  H
  H1092    1.0000 0.07153  0.05961  0.83361  Biso   1.000  H
  H1093    1.0000 0.01920  0.07831  0.83171  Biso   1.000  H
  H1094    1.0000 0.07438  0.04261  0.84470  Biso   1.000  H
  H1095    1.0000 0.02701  0.27102  0.44800  Biso   1.000  H
  N150     1.0000 0.95251  0.23002  0.46182  Biso   1.000  N
  C816     1.0000 0.95942  0.33270  0.46471  Biso   1.000  C
  H1096    1.0000 0.05961  0.33361  0.57149  Biso   1.000  H
  H1097    1.0000 0.06930  0.33551  0.50621  Biso   1.000  H
  C817     1.0000 0.00000  0.37088  0.50000  Biso   1.000  C
  C818     1.0000 0.00302  0.38238  0.53111  Biso   1.000  C
  C819     1.0000 0.00302  0.38243  0.53111  Biso   1.000  C
  H1098    1.0000 0.07831  0.33171  0.51920  Biso   1.000  H
  H1099    1.0000 0.04261  0.34470  0.57442  Biso   1.000  H
  H1100    1.0000 0.05200  0.02701  0.22898  Biso   1.000  H
  C820     1.0000 0.97079  0.01059  0.22369  Biso   1.000  C
  C821     1.0000 0.03529  0.95942  0.16730  Biso   1.000  C
  H1101    1.0000 0.97299  0.72898  0.44800  Biso   1.000  H
  C822     1.0000 0.98941  0.72369  0.52921  Biso   1.000  C
  H1102    1.0000 0.97299  0.72903  0.44800  Biso   1.000  H
  H1103    1.0000 0.97303  0.72898  0.44800  Biso   1.000  H
  H1104    1.0000 0.97303  0.72903  0.44800  Biso   1.000  H
  C823     1.0000 0.04058  0.66730  0.46471  Biso   1.000  C
  C824     1.0000 0.04063  0.66730  0.46471  Biso   1.000  C
  C825     1.0000 0.92570  0.96649  0.69432  Biso   1.000  C
  H1105    1.0000 0.92851  0.94039  0.83361  Biso   1.000  H
  H1106    1.0000 0.99379  0.93070  0.83551  Biso   1.000  H
  C826     1.0000 0.96889  0.99698  0.88243  Biso   1.000  C
  H1107    1.0000 0.92851  0.94043  0.83361  Biso   1.000  H
  C827     1.0000 0.96889  0.99702  0.88243  Biso   1.000  C
  H1108    1.0000 0.98080  0.92169  0.83171  Biso   1.000  H
  H1109    1.0000 0.92562  0.95739  0.84470  Biso   1.000  H
  H1110    1.0000 0.04509  0.02081  0.91660  Biso   1.000  H
  H1111    1.0000 0.05018  0.96732  0.87651  Biso   1.000  H
  H1112    1.0000 0.05022  0.96732  0.87651  Biso   1.000  H
  H1113    1.0000 0.02511  0.97820  0.89492  Biso   1.000  H
  H1114    1.0000 0.97489  0.02180  0.89492  Biso   1.000  H
  C828     1.0000 0.96649  0.19432  0.42570  Biso   1.000  C
  H1115    1.0000 0.94039  0.33361  0.42851  Biso   1.000  H
  H1116    1.0000 0.93070  0.33551  0.49379  Biso   1.000  H
  C829     1.0000 0.99698  0.38238  0.46889  Biso   1.000  C
  C830     1.0000 0.99698  0.38243  0.46889  Biso   1.000  C
  H1117    1.0000 0.94043  0.33361  0.42851  Biso   1.000  H
  C831     1.0000 0.99702  0.38238  0.46889  Biso   1.000  C
  C832     1.0000 0.99702  0.38243  0.46889  Biso   1.000  C
  H1118    1.0000 0.92169  0.33171  0.48080  Biso   1.000  H
  H1119    1.0000 0.95739  0.34470  0.42562  Biso   1.000  H
  H1120    1.0000 0.97820  0.39492  0.52511  Biso   1.000  H
  H1121    1.0000 0.02180  0.39492  0.47489  Biso   1.000  H
  H1122    1.0000 0.02081  0.41660  0.54509  Biso   1.000  H
  H1123    1.0000 0.96732  0.37651  0.55022  Biso   1.000  H
  H1124    1.0000 0.94800  0.97299  0.22898  Biso   1.000  H
  H1125    1.0000 0.94800  0.97303  0.22898  Biso   1.000  H
  N151     1.0000 0.96182  0.04749  0.26998  Biso   1.000  N
  C833     1.0000 0.96471  0.04058  0.16730  Biso   1.000  C
  C834     1.0000 0.96471  0.04063  0.16730  Biso   1.000  C
  C835     1.0000 0.00000  0.00000  0.12912  Biso   1.000  C
  H1126    1.0000 0.07149  0.94039  0.16639  Biso   1.000  H
  H1127    1.0000 0.00621  0.93070  0.16449  Biso   1.000  H
  C836     1.0000 0.03111  0.99698  0.11762  Biso   1.000  C
  H1128    1.0000 0.07149  0.94043  0.16639  Biso   1.000  H
  C837     1.0000 0.03111  0.99702  0.11762  Biso   1.000  C
  H1129    1.0000 0.07153  0.94039  0.16639  Biso   1.000  H
  H1130    1.0000 0.07153  0.94043  0.16639  Biso   1.000  H
  H1131    1.0000 0.01920  0.92169  0.16829  Biso   1.000  H
  H1132    1.0000 0.07438  0.95739  0.15530  Biso   1.000  H
  N152     1.0000 0.95251  0.76998  0.53818  Biso   1.000  N
  C838     1.0000 0.95942  0.66730  0.53529  Biso   1.000  C
  N153     1.0000 0.95251  0.77002  0.53818  Biso   1.000  N
  H1133    1.0000 0.02701  0.72898  0.55200  Biso   1.000  H
  H1134    1.0000 0.02701  0.72903  0.55200  Biso   1.000  H
  C839     1.0000 0.00000  0.62912  0.50000  Biso   1.000  C
  H1135    1.0000 0.05961  0.66639  0.42851  Biso   1.000  H
  H1136    1.0000 0.06930  0.66449  0.49379  Biso   1.000  H
  C840     1.0000 0.00302  0.61762  0.46889  Biso   1.000  C
  H1137    1.0000 0.07831  0.66829  0.48080  Biso   1.000  H
  H1138    1.0000 0.04261  0.65530  0.42562  Biso   1.000  H
  C841     1.0000 0.91341  0.93248  0.64562  Biso   1.000  C
  C842     1.0000 0.91341  0.93253  0.64562  Biso   1.000  C
  H1139    1.0000 0.90609  0.00008  0.69940  Biso   1.000  H
  H1140    1.0000 0.90609  0.00012  0.69940  Biso   1.000  H
  H1141    1.0000 0.95491  0.97919  0.91660  Biso   1.000  H
  H1142    1.0000 0.94982  0.03268  0.87651  Biso   1.000  H
  H1143    1.0000 0.94982  0.03272  0.87651  Biso   1.000  H
  C843     1.0000 0.93248  0.14558  0.41341  Biso   1.000  C
  C844     1.0000 0.93248  0.14562  0.41341  Biso   1.000  C
  C845     1.0000 0.93253  0.14558  0.41341  Biso   1.000  C
  C846     1.0000 0.93253  0.14562  0.41341  Biso   1.000  C
  H1144    1.0000 0.00008  0.19940  0.40609  Biso   1.000  H
  H1145    1.0000 0.00012  0.19940  0.40609  Biso   1.000  H
  H1146    1.0000 0.97919  0.41660  0.45491  Biso   1.000  H
  H1147    1.0000 0.03268  0.37651  0.44982  Biso   1.000  H
  H1148    1.0000 0.03272  0.37651  0.44982  Biso   1.000  H
  C847     1.0000 0.92570  0.03351  0.30568  Biso   1.000  C
  H1149    1.0000 0.92851  0.05961  0.16639  Biso   1.000  H
  H1150    1.0000 0.99379  0.06930  0.16449  Biso   1.000  H
  C848     1.0000 0.96889  0.00302  0.11762  Biso   1.000  C
  H1151    1.0000 0.98080  0.07831  0.16829  Biso   1.000  H
  H1152    1.0000 0.92562  0.04261  0.15530  Biso   1.000  H
  H1153    1.0000 0.97489  0.97820  0.10508  Biso   1.000  H
  H1154    1.0000 0.02511  0.02180  0.10508  Biso   1.000  H
  H1155    1.0000 0.04509  0.97919  0.08340  Biso   1.000  H
  H1156    1.0000 0.05018  0.03268  0.12349  Biso   1.000  H
  H1157    1.0000 0.05018  0.03272  0.12349  Biso   1.000  H
  H1158    1.0000 0.05022  0.03268  0.12349  Biso   1.000  H
  H1159    1.0000 0.05022  0.03272  0.12349  Biso   1.000  H
  C849     1.0000 0.96649  0.80568  0.57430  Biso   1.000  C
  C850     1.0000 0.96649  0.80573  0.57430  Biso   1.000  C
  H1160    1.0000 0.94039  0.66639  0.57149  Biso   1.000  H
  H1161    1.0000 0.93070  0.66449  0.50621  Biso   1.000  H
  C851     1.0000 0.99698  0.61762  0.53111  Biso   1.000  C
  H1162    1.0000 0.94043  0.66639  0.57149  Biso   1.000  H
  C852     1.0000 0.99702  0.61762  0.53111  Biso   1.000  C
  H1163    1.0000 0.92169  0.66829  0.51920  Biso   1.000  H
  H1164    1.0000 0.95739  0.65530  0.57442  Biso   1.000  H
  H1165    1.0000 0.97820  0.60512  0.47489  Biso   1.000  H
  H1166    1.0000 0.02180  0.60512  0.52511  Biso   1.000  H
  H1167    1.0000 0.96732  0.62349  0.44982  Biso   1.000  H
  H1168    1.0000 0.02081  0.58340  0.45491  Biso   1.000  H
  C853     1.0000 0.94539  0.88702  0.63251  Biso   1.000  C
  C854     1.0000 0.86749  0.94539  0.61302  Biso   1.000  C
  C855     1.0000 0.88702  0.13251  0.44539  Biso   1.000  C
  C856     1.0000 0.94539  0.11298  0.36749  Biso   1.000  C
  C857     1.0000 0.94539  0.11302  0.36749  Biso   1.000  C
  C858     1.0000 0.91341  0.06752  0.35442  Biso   1.000  C
  H1169    1.0000 0.90609  0.99992  0.30060  Biso   1.000  H
  H1170    1.0000 0.94982  0.96732  0.12349  Biso   1.000  H
  H1171    1.0000 0.95491  0.02081  0.08340  Biso   1.000  H
  C859     1.0000 0.93248  0.85442  0.58659  Biso   1.000  C
  C860     1.0000 0.93253  0.85442  0.58659  Biso   1.000  C
  H1172    1.0000 0.00008  0.80060  0.59391  Biso   1.000  H
  H1173    1.0000 0.00012  0.80060  0.59391  Biso   1.000  H
  H1174    1.0000 0.97919  0.58340  0.54509  Biso   1.000  H
  H1175    1.0000 0.03268  0.62349  0.55022  Biso   1.000  H
  H1176    1.0000 0.03272  0.62349  0.55022  Biso   1.000  H
  H1177    1.0000 0.97650  0.87792  0.65481  Biso   1.000  H
  H1178    1.0000 0.84519  0.97650  0.62212  Biso   1.000  H
  C861     1.0000 0.85442  0.91341  0.56752  Biso   1.000  C
  H1179    1.0000 0.87792  0.15481  0.47650  Biso   1.000  H
  C862     1.0000 0.85442  0.08659  0.43248  Biso   1.000  C
  C863     1.0000 0.85442  0.08663  0.43248  Biso   1.000  C
  H1180    1.0000 0.97650  0.12208  0.34519  Biso   1.000  H
  H1181    1.0000 0.97650  0.12212  0.34519  Biso   1.000  H
  C864     1.0000 0.86749  0.05461  0.38702  Biso   1.000  C
  C865     1.0000 0.88702  0.86749  0.55461  Biso   1.000  C
  C866     1.0000 0.80568  0.92570  0.53351  Biso   1.000  C
  C867     1.0000 0.80573  0.92570  0.53351  Biso   1.000  C
  C868     1.0000 0.80568  0.07430  0.46649  Biso   1.000  C
  C869     1.0000 0.80573  0.07430  0.46649  Biso   1.000  C
  H1182    1.0000 0.84519  0.02350  0.37792  Biso   1.000  H
  H1183    1.0000 0.87792  0.84519  0.52350  Biso   1.000  H
  N154     1.0000 0.76998  0.96182  0.54749  Biso   1.000  N
  H1184    1.0000 0.80060  0.90609  0.49992  Biso   1.000  H
  N155     1.0000 0.77002  0.96182  0.54749  Biso   1.000  N
  N156     1.0000 0.76998  0.03818  0.45251  Biso   1.000  N
  H1185    1.0000 0.80060  0.09391  0.50012  Biso   1.000  H
  N157     1.0000 0.76998  0.03823  0.45251  Biso   1.000  N
  N158     1.0000 0.77002  0.03818  0.45251  Biso   1.000  N
  N159     1.0000 0.77002  0.03823  0.45251  Biso   1.000  N
  C870     1.0000 0.72369  0.97079  0.51059  Biso   1.000  C
  C871     1.0000 0.72369  0.02921  0.48941  Biso   1.000  C
  H1186    1.0000 0.72898  0.94800  0.47299  Biso   1.000  H
  C872     1.0000 0.66730  0.96471  0.54058  Biso   1.000  C
  H1187    1.0000 0.72903  0.94800  0.47299  Biso   1.000  H
  H1188    1.0000 0.72898  0.05200  0.52701  Biso   1.000  H
  C873     1.0000 0.66730  0.03529  0.45942  Biso   1.000  C
  H1189    1.0000 0.72903  0.05200  0.52701  Biso   1.000  H
  H1190    1.0000 0.66639  0.92851  0.55961  Biso   1.000  H
  H1191    1.0000 0.66449  0.99379  0.56930  Biso   1.000  H
  C874     1.0000 0.61762  0.96889  0.50302  Biso   1.000  C
  H1192    1.0000 0.66829  0.98080  0.57831  Biso   1.000  H
  H1193    1.0000 0.65530  0.92562  0.54261  Biso   1.000  H
  C875     1.0000 0.62912  0.00000  0.50000  Biso   1.000  C
  H1194    1.0000 0.66639  0.07149  0.44039  Biso   1.000  H
  H1195    1.0000 0.66449  0.00621  0.43070  Biso   1.000  H
  C876     1.0000 0.61762  0.03111  0.49702  Biso   1.000  C
  H1196    1.0000 0.66639  0.07153  0.44039  Biso   1.000  H
  H1197    1.0000 0.66829  0.01920  0.42169  Biso   1.000  H
  H1198    1.0000 0.65530  0.07438  0.45739  Biso   1.000  H
  H1199    1.0000 0.58340  0.95491  0.52081  Biso   1.000  H
  H1200    1.0000 0.62349  0.94982  0.46732  Biso   1.000  H
  H1201    1.0000 0.60512  0.97489  0.47820  Biso   1.000  H
  H1202    1.0000 0.60512  0.02511  0.52180  Biso   1.000  H
  H1203    1.0000 0.58340  0.04509  0.47919  Biso   1.000  H
  H1204    1.0000 0.62349  0.05018  0.53272  Biso   1.000  H
  H1205    1.0000 0.62349  0.05022  0.53272  Biso   1.000  H
  C877     1.0000 0.38238  0.03111  0.50302  Biso   1.000  C
  C878     1.0000 0.33270  0.03529  0.54058  Biso   1.000  C
  H1206    1.0000 0.39492  0.02511  0.47820  Biso   1.000  H
  H1207    1.0000 0.41660  0.04509  0.52081  Biso   1.000  H
  C879     1.0000 0.38238  0.96889  0.49702  Biso   1.000  C
  C880     1.0000 0.38243  0.96889  0.49702  Biso   1.000  C
  H1208    1.0000 0.37651  0.05018  0.46732  Biso   1.000  H
  H1209    1.0000 0.37651  0.05022  0.46732  Biso   1.000  H
  C881     1.0000 0.27631  0.02921  0.51059  Biso   1.000  C
  H1210    1.0000 0.33551  0.00621  0.56930  Biso   1.000  H
  C882     1.0000 0.37088  0.00000  0.50000  Biso   1.000  C
  H1211    1.0000 0.33361  0.07149  0.55961  Biso   1.000  H
  H1212    1.0000 0.33361  0.07153  0.55961  Biso   1.000  H
  C883     1.0000 0.38243  0.03111  0.50302  Biso   1.000  C
  H1213    1.0000 0.33171  0.01920  0.57831  Biso   1.000  H
  H1214    1.0000 0.34470  0.07438  0.54261  Biso   1.000  H
  C884     1.0000 0.33270  0.96471  0.45942  Biso   1.000  C
  H1215    1.0000 0.39492  0.97489  0.52180  Biso   1.000  H
  H1216    1.0000 0.41660  0.95491  0.47919  Biso   1.000  H
  H1217    1.0000 0.37651  0.94982  0.53272  Biso   1.000  H
  N160     1.0000 0.23002  0.03818  0.54749  Biso   1.000  N
  N161     1.0000 0.23002  0.03823  0.54749  Biso   1.000  N
  H1218    1.0000 0.27102  0.05200  0.47299  Biso   1.000  H
  C885     1.0000 0.27631  0.97079  0.48941  Biso   1.000  C
  H1219    1.0000 0.33361  0.92851  0.44039  Biso   1.000  H
  H1220    1.0000 0.33551  0.99379  0.43070  Biso   1.000  H
  H1221    1.0000 0.33171  0.98080  0.42169  Biso   1.000  H
  H1222    1.0000 0.34470  0.92562  0.45739  Biso   1.000  H
  C886     1.0000 0.19432  0.07430  0.53351  Biso   1.000  C
  N162     1.0000 0.23002  0.96182  0.45251  Biso   1.000  N
  H1223    1.0000 0.27102  0.94800  0.52701  Biso   1.000  H
  H1224    1.0000 0.19940  0.09391  0.49992  Biso   1.000  H
  C887     1.0000 0.14558  0.08659  0.56752  Biso   1.000  C
  C888     1.0000 0.14558  0.08663  0.56752  Biso   1.000  C
  C889     1.0000 0.14562  0.08659  0.56752  Biso   1.000  C
  C890     1.0000 0.14562  0.08663  0.56752  Biso   1.000  C
  C891     1.0000 0.19432  0.92570  0.46649  Biso   1.000  C
  C892     1.0000 0.13251  0.05461  0.61302  Biso   1.000  C
  C893     1.0000 0.11298  0.13251  0.55461  Biso   1.000  C
  C894     1.0000 0.11302  0.13251  0.55461  Biso   1.000  C
  H1225    1.0000 0.19940  0.90609  0.50012  Biso   1.000  H
  C895     1.0000 0.14558  0.91341  0.43248  Biso   1.000  C
  C896     1.0000 0.14562  0.91341  0.43248  Biso   1.000  C
  H1226    1.0000 0.15481  0.02350  0.62212  Biso   1.000  H
  C897     1.0000 0.08659  0.06752  0.64562  Biso   1.000  C
  C898     1.0000 0.08663  0.06752  0.64562  Biso   1.000  C
  H1227    1.0000 0.12208  0.15481  0.52350  Biso   1.000  H
  C899     1.0000 0.06752  0.14558  0.58659  Biso   1.000  C
  C900     1.0000 0.06752  0.14562  0.58659  Biso   1.000  C
  H1228    1.0000 0.12212  0.15481  0.52350  Biso   1.000  H
  C901     1.0000 0.13251  0.94539  0.38702  Biso   1.000  C
  C902     1.0000 0.11298  0.86749  0.44539  Biso   1.000  C
  C903     1.0000 0.11302  0.86749  0.44539  Biso   1.000  C
  C904     1.0000 0.07430  0.03351  0.69432  Biso   1.000  C
  C905     1.0000 0.05461  0.11298  0.63251  Biso   1.000  C
  C906     1.0000 0.05461  0.11302  0.63251  Biso   1.000  C
  C907     1.0000 0.03351  0.19432  0.57430  Biso   1.000  C
  H1229    1.0000 0.15481  0.97650  0.37792  Biso   1.000  H
  C908     1.0000 0.08659  0.93248  0.35442  Biso   1.000  C
  C909     1.0000 0.08659  0.93253  0.35442  Biso   1.000  C
  C910     1.0000 0.08663  0.93248  0.35442  Biso   1.000  C
  C911     1.0000 0.08663  0.93253  0.35442  Biso   1.000  C
  H1230    1.0000 0.12208  0.84519  0.47650  Biso   1.000  H
  C912     1.0000 0.06752  0.85442  0.41341  Biso   1.000  C
  H1231    1.0000 0.12212  0.84519  0.47650  Biso   1.000  H
  H1232    1.0000 0.09391  0.99992  0.69940  Biso   1.000  H
  N163     1.0000 0.03818  0.04749  0.73002  Biso   1.000  N
  N164     1.0000 0.03823  0.04749  0.73002  Biso   1.000  N
  H1233    1.0000 0.02350  0.12208  0.65481  Biso   1.000  H
  H1234    1.0000 0.02350  0.12212  0.65481  Biso   1.000  H
  N165     1.0000 0.04749  0.23002  0.53818  Biso   1.000  N
  H1235    1.0000 0.99992  0.19940  0.59391  Biso   1.000  H
  C913     1.0000 0.07430  0.96649  0.30568  Biso   1.000  C
  C914     1.0000 0.05461  0.88702  0.36749  Biso   1.000  C
  C915     1.0000 0.03351  0.80568  0.42570  Biso   1.000  C
  C916     1.0000 0.03351  0.80573  0.42570  Biso   1.000  C
  C917     1.0000 0.02921  0.01059  0.77631  Biso   1.000  C
  C918     1.0000 0.01059  0.27631  0.52921  Biso   1.000  C
  N166     1.0000 0.03818  0.95251  0.26998  Biso   1.000  N
  N167     1.0000 0.03823  0.95251  0.26998  Biso   1.000  N
  H1236    1.0000 0.09391  0.00008  0.30060  Biso   1.000  H
  H1237    1.0000 0.09391  0.00012  0.30060  Biso   1.000  H
  H1238    1.0000 0.02350  0.87792  0.34519  Biso   1.000  H
  H1239    1.0000 0.99992  0.80060  0.40609  Biso   1.000  H
  N168     1.0000 0.04749  0.76998  0.46182  Biso   1.000  N
  N169     1.0000 0.04749  0.77002  0.46182  Biso   1.000  N
  C919     1.0000 0.97079  0.98941  0.77631  Biso   1.000  C
  H1240    1.0000 0.05200  0.97299  0.77102  Biso   1.000  H
  H1241    1.0000 0.05200  0.97303  0.77102  Biso   1.000  H
  C920     1.0000 0.03529  0.04058  0.83270  Biso   1.000  C
  C921     1.0000 0.03529  0.04063  0.83270  Biso   1.000  C
  H1242    1.0000 0.97299  0.27102  0.55200  Biso   1.000  H
  C922     1.0000 0.98941  0.27631  0.47079  Biso   1.000  C
  H1243    1.0000 0.97303  0.27102  0.55200  Biso   1.000  H
  C923     1.0000 0.04058  0.33270  0.53529  Biso   1.000  C
  C924     1.0000 0.04063  0.33270  0.53529  Biso   1.000  C
  C925     1.0000 0.02921  0.98941  0.22369  Biso   1.000  C
  C926     1.0000 0.01059  0.72369  0.47079  Biso   1.000  C
  N170     1.0000 0.96182  0.95251  0.73002  Biso   1.000  N
  C927     1.0000 0.96471  0.95942  0.83270  Biso   1.000  C
  H1244    1.0000 0.94800  0.02701  0.77102  Biso   1.000  H
  H1245    1.0000 0.00621  0.06930  0.83551  Biso   1.000  H
  C928     1.0000 0.03111  0.00302  0.88243  Biso   1.000  C
  C929     1.0000 0.00000  0.00000  0.87093  Biso   1.000  C
  H1246    1.0000 0.07149  0.05961  0.83361  Biso   1.000  H
  H1247    1.0000 0.07153  0.05961  0.83361  Biso   1.000  H
  H1248    1.0000 0.01920  0.07831  0.83171  Biso   1.000  H
  H1249    1.0000 0.07438  0.04261  0.84470  Biso   1.000  H
  H1250    1.0000 0.02701  0.27102  0.44800  Biso   1.000  H
  N171     1.0000 0.95251  0.23002  0.46182  Biso   1.000  N
  C930     1.0000 0.95942  0.33270  0.46471  Biso   1.000  C
  H1251    1.0000 0.05961  0.33361  0.57149  Biso   1.000  H
  H1252    1.0000 0.06930  0.33551  0.50621  Biso   1.000  H
  C931     1.0000 0.00000  0.37088  0.50000  Biso   1.000  C
  C932     1.0000 0.00302  0.38238  0.53111  Biso   1.000  C
  C933     1.0000 0.00302  0.38243  0.53111  Biso   1.000  C
  H1253    1.0000 0.07831  0.33171  0.51920  Biso   1.000  H
  H1254    1.0000 0.04261  0.34470  0.57442  Biso   1.000  H
  H1255    1.0000 0.05200  0.02701  0.22898  Biso   1.000  H
  C934     1.0000 0.97079  0.01059  0.22369  Biso   1.000  C
  C935     1.0000 0.03529  0.95942  0.16730  Biso   1.000  C
  H1256    1.0000 0.97299  0.72898  0.44800  Biso   1.000  H
  C936     1.0000 0.98941  0.72369  0.52921  Biso   1.000  C
  H1257    1.0000 0.97299  0.72903  0.44800  Biso   1.000  H
  H1258    1.0000 0.97303  0.72898  0.44800  Biso   1.000  H
  H1259    1.0000 0.97303  0.72903  0.44800  Biso   1.000  H
  C937     1.0000 0.04058  0.66730  0.46471  Biso   1.000  C
  C938     1.0000 0.04063  0.66730  0.46471  Biso   1.000  C
  C939     1.0000 0.92570  0.96649  0.69432  Biso   1.000  C
  H1260    1.0000 0.92851  0.94039  0.83361  Biso   1.000  H
  H1261    1.0000 0.99379  0.93070  0.83551  Biso   1.000  H
  C940     1.0000 0.96889  0.99698  0.88243  Biso   1.000  C
  H1262    1.0000 0.92851  0.94043  0.83361  Biso   1.000  H
  C941     1.0000 0.96889  0.99702  0.88243  Biso   1.000  C
  H1263    1.0000 0.98080  0.92169  0.83171  Biso   1.000  H
  H1264    1.0000 0.92562  0.95739  0.84470  Biso   1.000  H
  H1265    1.0000 0.04509  0.02081  0.91660  Biso   1.000  H
  H1266    1.0000 0.05018  0.96732  0.87651  Biso   1.000  H
  H1267    1.0000 0.05022  0.96732  0.87651  Biso   1.000  H
  H1268    1.0000 0.02511  0.97820  0.89492  Biso   1.000  H
  H1269    1.0000 0.97489  0.02180  0.89492  Biso   1.000  H
  C942     1.0000 0.96649  0.19432  0.42570  Biso   1.000  C
  H1270    1.0000 0.94039  0.33361  0.42851  Biso   1.000  H
  H1271    1.0000 0.93070  0.33551  0.49379  Biso   1.000  H
  C943     1.0000 0.99698  0.38238  0.46889  Biso   1.000  C
  C944     1.0000 0.99698  0.38243  0.46889  Biso   1.000  C
  H1272    1.0000 0.94043  0.33361  0.42851  Biso   1.000  H
  C945     1.0000 0.99702  0.38238  0.46889  Biso   1.000  C
  C946     1.0000 0.99702  0.38243  0.46889  Biso   1.000  C
  H1273    1.0000 0.92169  0.33171  0.48080  Biso   1.000  H
  H1274    1.0000 0.95739  0.34470  0.42562  Biso   1.000  H
  H1275    1.0000 0.97820  0.39492  0.52511  Biso   1.000  H
  H1276    1.0000 0.02180  0.39492  0.47489  Biso   1.000  H
  H1277    1.0000 0.02081  0.41660  0.54509  Biso   1.000  H
  H1278    1.0000 0.96732  0.37651  0.55022  Biso   1.000  H
  H1279    1.0000 0.94800  0.97299  0.22898  Biso   1.000  H
  H1280    1.0000 0.94800  0.97303  0.22898  Biso   1.000  H
  N172     1.0000 0.96182  0.04749  0.26998  Biso   1.000  N
  C947     1.0000 0.96471  0.04058  0.16730  Biso   1.000  C
  C948     1.0000 0.96471  0.04063  0.16730  Biso   1.000  C
  C949     1.0000 0.00000  0.00000  0.12912  Biso   1.000  C
  H1281    1.0000 0.07149  0.94039  0.16639  Biso   1.000  H
  H1282    1.0000 0.00621  0.93070  0.16449  Biso   1.000  H
  C950     1.0000 0.03111  0.99698  0.11762  Biso   1.000  C
  H1283    1.0000 0.07149  0.94043  0.16639  Biso   1.000  H
  C951     1.0000 0.03111  0.99702  0.11762  Biso   1.000  C
  H1284    1.0000 0.07153  0.94039  0.16639  Biso   1.000  H
  H1285    1.0000 0.07153  0.94043  0.16639  Biso   1.000  H
  H1286    1.0000 0.01920  0.92169  0.16829  Biso   1.000  H
  H1287    1.0000 0.07438  0.95739  0.15530  Biso   1.000  H
  N173     1.0000 0.95251  0.76998  0.53818  Biso   1.000  N
  C952     1.0000 0.95942  0.66730  0.53529  Biso   1.000  C
  N174     1.0000 0.95251  0.77002  0.53818  Biso   1.000  N
  H1288    1.0000 0.02701  0.72898  0.55200  Biso   1.000  H
  H1289    1.0000 0.02701  0.72903  0.55200  Biso   1.000  H
  C953     1.0000 0.00000  0.62912  0.50000  Biso   1.000  C
  H1290    1.0000 0.05961  0.66639  0.42851  Biso   1.000  H
  H1291    1.0000 0.06930  0.66449  0.49379  Biso   1.000  H
  C954     1.0000 0.00302  0.61762  0.46889  Biso   1.000  C
  H1292    1.0000 0.07831  0.66829  0.48080  Biso   1.000  H
  H1293    1.0000 0.04261  0.65530  0.42562  Biso   1.000  H
  C955     1.0000 0.91341  0.93248  0.64562  Biso   1.000  C
  C956     1.0000 0.91341  0.93253  0.64562  Biso   1.000  C
  H1294    1.0000 0.90609  0.00008  0.69940  Biso   1.000  H
  H1295    1.0000 0.90609  0.00012  0.69940  Biso   1.000  H
  H1296    1.0000 0.95491  0.97919  0.91660  Biso   1.000  H
  H1297    1.0000 0.94982  0.03268  0.87651  Biso   1.000  H
  H1298    1.0000 0.94982  0.03272  0.87651  Biso   1.000  H
  C957     1.0000 0.93248  0.14558  0.41341  Biso   1.000  C
  C958     1.0000 0.93248  0.14562  0.41341  Biso   1.000  C
  C959     1.0000 0.93253  0.14558  0.41341  Biso   1.000  C
  C960     1.0000 0.93253  0.14562  0.41341  Biso   1.000  C
  H1299    1.0000 0.00008  0.19940  0.40609  Biso   1.000  H
  H1300    1.0000 0.00012  0.19940  0.40609  Biso   1.000  H
  H1301    1.0000 0.97919  0.41660  0.45491  Biso   1.000  H
  H1302    1.0000 0.03268  0.37651  0.44982  Biso   1.000  H
  H1303    1.0000 0.03272  0.37651  0.44982  Biso   1.000  H
  C961     1.0000 0.92570  0.03351  0.30568  Biso   1.000  C
  H1304    1.0000 0.92851  0.05961  0.16639  Biso   1.000  H
  H1305    1.0000 0.99379  0.06930  0.16449  Biso   1.000  H
  C962     1.0000 0.96889  0.00302  0.11762  Biso   1.000  C
  H1306    1.0000 0.98080  0.07831  0.16829  Biso   1.000  H
  H1307    1.0000 0.92562  0.04261  0.15530  Biso   1.000  H
  H1308    1.0000 0.97489  0.97820  0.10508  Biso   1.000  H
  H1309    1.0000 0.02511  0.02180  0.10508  Biso   1.000  H
  H1310    1.0000 0.04509  0.97919  0.08340  Biso   1.000  H
  H1311    1.0000 0.05018  0.03268  0.12349  Biso   1.000  H
  H1312    1.0000 0.05018  0.03272  0.12349  Biso   1.000  H
  H1313    1.0000 0.05022  0.03268  0.12349  Biso   1.000  H
  H1314    1.0000 0.05022  0.03272  0.12349  Biso   1.000  H
  C963     1.0000 0.96649  0.80568  0.57430  Biso   1.000  C
  C964     1.0000 0.96649  0.80573  0.57430  Biso   1.000  C
  H1315    1.0000 0.94039  0.66639  0.57149  Biso   1.000  H
  H1316    1.0000 0.93070  0.66449  0.50621  Biso   1.000  H
  C965     1.0000 0.99698  0.61762  0.53111  Biso   1.000  C
  H1317    1.0000 0.94043  0.66639  0.57149  Biso   1.000  H
  C966     1.0000 0.99702  0.61762  0.53111  Biso   1.000  C
  H1318    1.0000 0.92169  0.66829  0.51920  Biso   1.000  H
  H1319    1.0000 0.95739  0.65530  0.57442  Biso   1.000  H
  H1320    1.0000 0.97820  0.60512  0.47489  Biso   1.000  H
  H1321    1.0000 0.02180  0.60512  0.52511  Biso   1.000  H
  H1322    1.0000 0.96732  0.62349  0.44982  Biso   1.000  H
  H1323    1.0000 0.02081  0.58340  0.45491  Biso   1.000  H
  C967     1.0000 0.94539  0.88702  0.63251  Biso   1.000  C
  C968     1.0000 0.86749  0.94539  0.61302  Biso   1.000  C
  C969     1.0000 0.88702  0.13251  0.44539  Biso   1.000  C
  C970     1.0000 0.94539  0.11298  0.36749  Biso   1.000  C
  C971     1.0000 0.94539  0.11302  0.36749  Biso   1.000  C
  C972     1.0000 0.91341  0.06752  0.35442  Biso   1.000  C
  H1324    1.0000 0.90609  0.99992  0.30060  Biso   1.000  H
  H1325    1.0000 0.94982  0.96732  0.12349  Biso   1.000  H
  H1326    1.0000 0.95491  0.02081  0.08340  Biso   1.000  H
  C973     1.0000 0.93248  0.85442  0.58659  Biso   1.000  C
  C974     1.0000 0.93253  0.85442  0.58659  Biso   1.000  C
  H1327    1.0000 0.00008  0.80060  0.59391  Biso   1.000  H
  H1328    1.0000 0.00012  0.80060  0.59391  Biso   1.000  H
  H1329    1.0000 0.97919  0.58340  0.54509  Biso   1.000  H
  H1330    1.0000 0.03268  0.62349  0.55022  Biso   1.000  H
  H1331    1.0000 0.03272  0.62349  0.55022  Biso   1.000  H
  H1332    1.0000 0.97650  0.87792  0.65481  Biso   1.000  H
  H1333    1.0000 0.84519  0.97650  0.62212  Biso   1.000  H
  C975     1.0000 0.85442  0.91341  0.56752  Biso   1.000  C
  H1334    1.0000 0.87792  0.15481  0.47650  Biso   1.000  H
  C976     1.0000 0.85442  0.08659  0.43248  Biso   1.000  C
  C977     1.0000 0.85442  0.08663  0.43248  Biso   1.000  C
  H1335    1.0000 0.97650  0.12208  0.34519  Biso   1.000  H
  H1336    1.0000 0.97650  0.12212  0.34519  Biso   1.000  H
  C978     1.0000 0.86749  0.05461  0.38702  Biso   1.000  C
  C979     1.0000 0.88702  0.86749  0.55461  Biso   1.000  C
  C980     1.0000 0.80568  0.92570  0.53351  Biso   1.000  C
  C981     1.0000 0.80573  0.92570  0.53351  Biso   1.000  C
  C982     1.0000 0.80568  0.07430  0.46649  Biso   1.000  C
  C983     1.0000 0.80573  0.07430  0.46649  Biso   1.000  C
  H1337    1.0000 0.84519  0.02350  0.37792  Biso   1.000  H
  H1338    1.0000 0.87792  0.84519  0.52350  Biso   1.000  H
  N175     1.0000 0.76998  0.96182  0.54749  Biso   1.000  N
  H1339    1.0000 0.80060  0.90609  0.49992  Biso   1.000  H
  N176     1.0000 0.77002  0.96182  0.54749  Biso   1.000  N
  N177     1.0000 0.76998  0.03818  0.45251  Biso   1.000  N
  H1340    1.0000 0.80060  0.09391  0.50012  Biso   1.000  H
  N178     1.0000 0.76998  0.03823  0.45251  Biso   1.000  N
  N179     1.0000 0.77002  0.03818  0.45251  Biso   1.000  N
  N180     1.0000 0.77002  0.03823  0.45251  Biso   1.000  N
  C984     1.0000 0.72369  0.97079  0.51059  Biso   1.000  C
  C985     1.0000 0.72369  0.02921  0.48941  Biso   1.000  C
  H1341    1.0000 0.72898  0.94800  0.47299  Biso   1.000  H
  C986     1.0000 0.66730  0.96471  0.54058  Biso   1.000  C
  H1342    1.0000 0.72903  0.94800  0.47299  Biso   1.000  H
  H1343    1.0000 0.72898  0.05200  0.52701  Biso   1.000  H
  C987     1.0000 0.66730  0.03529  0.45942  Biso   1.000  C
  H1344    1.0000 0.72903  0.05200  0.52701  Biso   1.000  H
  H1345    1.0000 0.66639  0.92851  0.55961  Biso   1.000  H
  H1346    1.0000 0.66449  0.99379  0.56930  Biso   1.000  H
  C988     1.0000 0.61762  0.96889  0.50302  Biso   1.000  C
  H1347    1.0000 0.66829  0.98080  0.57831  Biso   1.000  H
  H1348    1.0000 0.65530  0.92562  0.54261  Biso   1.000  H
  C989     1.0000 0.62912  0.00000  0.50000  Biso   1.000  C
  H1349    1.0000 0.66639  0.07149  0.44039  Biso   1.000  H
  H1350    1.0000 0.66449  0.00621  0.43070  Biso   1.000  H
  C990     1.0000 0.61762  0.03111  0.49702  Biso   1.000  C
  H1351    1.0000 0.66639  0.07153  0.44039  Biso   1.000  H
  H1352    1.0000 0.66829  0.01920  0.42169  Biso   1.000  H
  H1353    1.0000 0.65530  0.07438  0.45739  Biso   1.000  H
  H1354    1.0000 0.58340  0.95491  0.52081  Biso   1.000  H
  H1355    1.0000 0.62349  0.94982  0.46732  Biso   1.000  H
  H1356    1.0000 0.60512  0.97489  0.47820  Biso   1.000  H
  H1357    1.0000 0.60512  0.02511  0.52180  Biso   1.000  H
  H1358    1.0000 0.58340  0.04509  0.47919  Biso   1.000  H
  H1359    1.0000 0.62349  0.05018  0.53272  Biso   1.000  H
  H1360    1.0000 0.62349  0.05022  0.53272  Biso   1.000  H
  C991     1.0000 0.03111  0.50302  0.38238  Biso   1.000  C
  C992     1.0000 0.03529  0.54058  0.33270  Biso   1.000  C
  H1361    1.0000 0.04509  0.52081  0.41660  Biso   1.000  H
  H1362    1.0000 0.05018  0.46732  0.37651  Biso   1.000  H
  H1363    1.0000 0.05022  0.46732  0.37651  Biso   1.000  H
  H1364    1.0000 0.02511  0.47820  0.39492  Biso   1.000  H
  C993     1.0000 0.96889  0.49702  0.38238  Biso   1.000  C
  C994     1.0000 0.96889  0.49702  0.38243  Biso   1.000  C
  C995     1.0000 0.02921  0.51059  0.27631  Biso   1.000  C
  H1365    1.0000 0.07149  0.55961  0.33361  Biso   1.000  H
  H1366    1.0000 0.00621  0.56930  0.33551  Biso   1.000  H
  C996     1.0000 0.03111  0.50302  0.38243  Biso   1.000  C
  H1367    1.0000 0.07153  0.55961  0.33361  Biso   1.000  H
  H1368    1.0000 0.01920  0.57831  0.33171  Biso   1.000  H
  H1369    1.0000 0.07438  0.54261  0.34470  Biso   1.000  H
  C997     1.0000 0.00000  0.50000  0.37088  Biso   1.000  C
  C998     1.0000 0.96471  0.45942  0.33270  Biso   1.000  C
  H1370    1.0000 0.97489  0.52180  0.39492  Biso   1.000  H
  H1371    1.0000 0.95491  0.47919  0.41660  Biso   1.000  H
  H1372    1.0000 0.94982  0.53272  0.37651  Biso   1.000  H
  N181     1.0000 0.03818  0.54749  0.23002  Biso   1.000  N
  N182     1.0000 0.03823  0.54749  0.23002  Biso   1.000  N
  H1373    1.0000 0.05200  0.47299  0.27102  Biso   1.000  H
  C999     1.0000 0.97079  0.48941  0.27631  Biso   1.000  C
  H1374    1.0000 0.92851  0.44039  0.33361  Biso   1.000  H
  H1375    1.0000 0.99379  0.43070  0.33551  Biso   1.000  H
  H1376    1.0000 0.98080  0.42169  0.33171  Biso   1.000  H
  H1377    1.0000 0.92562  0.45739  0.34470  Biso   1.000  H
  C1000    1.0000 0.07430  0.53351  0.19432  Biso   1.000  C
  N183     1.0000 0.96182  0.45251  0.23002  Biso   1.000  N
  H1378    1.0000 0.94800  0.52701  0.27102  Biso   1.000  H
  H1379    1.0000 0.09391  0.49992  0.19940  Biso   1.000  H
  C1001    1.0000 0.08659  0.56752  0.14558  Biso   1.000  C
  C1002    1.0000 0.08659  0.56752  0.14562  Biso   1.000  C
  C1003    1.0000 0.08663  0.56752  0.14558  Biso   1.000  C
  C1004    1.0000 0.08663  0.56752  0.14562  Biso   1.000  C
  C1005    1.0000 0.92570  0.46649  0.19432  Biso   1.000  C
  C1006    1.0000 0.13251  0.55461  0.11298  Biso   1.000  C
  C1007    1.0000 0.05461  0.61302  0.13251  Biso   1.000  C
  C1008    1.0000 0.13251  0.55461  0.11302  Biso   1.000  C
  H1380    1.0000 0.90609  0.50012  0.19940  Biso   1.000  H
  C1009    1.0000 0.91341  0.43248  0.14558  Biso   1.000  C
  C1010    1.0000 0.91341  0.43248  0.14562  Biso   1.000  C
  H1381    1.0000 0.15481  0.52350  0.12208  Biso   1.000  H
  C1011    1.0000 0.14558  0.58659  0.06752  Biso   1.000  C
  H1382    1.0000 0.15481  0.52350  0.12212  Biso   1.000  H
  C1012    1.0000 0.14562  0.58659  0.06752  Biso   1.000  C
  C1013    1.0000 0.06752  0.64562  0.08659  Biso   1.000  C
  H1383    1.0000 0.02350  0.62212  0.15481  Biso   1.000  H
  C1014    1.0000 0.06752  0.64562  0.08663  Biso   1.000  C
  C1015    1.0000 0.94539  0.38702  0.13251  Biso   1.000  C
  C1016    1.0000 0.86749  0.44539  0.11298  Biso   1.000  C
  C1017    1.0000 0.86749  0.44539  0.11302  Biso   1.000  C
  C1018    1.0000 0.19432  0.57430  0.03351  Biso   1.000  C
  C1019    1.0000 0.11298  0.63251  0.05461  Biso   1.000  C
  C1020    1.0000 0.11302  0.63251  0.05461  Biso   1.000  C
  C1021    1.0000 0.03351  0.69432  0.07430  Biso   1.000  C
  C1022    1.0000 0.93248  0.35442  0.08659  Biso   1.000  C
  H1384    1.0000 0.97650  0.37792  0.15481  Biso   1.000  H
  C1023    1.0000 0.93248  0.35442  0.08663  Biso   1.000  C
  C1024    1.0000 0.93253  0.35442  0.08659  Biso   1.000  C
  C1025    1.0000 0.93253  0.35442  0.08663  Biso   1.000  C
  H1385    1.0000 0.84519  0.47650  0.12208  Biso   1.000  H
  C1026    1.0000 0.85442  0.41341  0.06752  Biso   1.000  C
  H1386    1.0000 0.84519  0.47650  0.12212  Biso   1.000  H
  N184     1.0000 0.23002  0.53818  0.04749  Biso   1.000  N
  H1387    1.0000 0.19940  0.59391  0.99992  Biso   1.000  H
  H1388    1.0000 0.12208  0.65481  0.02350  Biso   1.000  H
  H1389    1.0000 0.12212  0.65481  0.02350  Biso   1.000  H
  N185     1.0000 0.04749  0.73002  0.03818  Biso   1.000  N
  N186     1.0000 0.04749  0.73002  0.03823  Biso   1.000  N
  H1390    1.0000 0.99992  0.69940  0.09391  Biso   1.000  H
  C1027    1.0000 0.96649  0.30568  0.07430  Biso   1.000  C
  C1028    1.0000 0.88702  0.36749  0.05461  Biso   1.000  C
  C1029    1.0000 0.80568  0.42570  0.03351  Biso   1.000  C
  C1030    1.0000 0.80573  0.42570  0.03351  Biso   1.000  C
  C1031    1.0000 0.27631  0.52921  0.01059  Biso   1.000  C
  C1032    1.0000 0.01059  0.77631  0.02921  Biso   1.000  C
  H1391    1.0000 0.00008  0.30060  0.09391  Biso   1.000  H
  H1392    1.0000 0.00012  0.30060  0.09391  Biso   1.000  H
  N187     1.0000 0.95251  0.26998  0.03818  Biso   1.000  N
  N188     1.0000 0.95251  0.26998  0.03823  Biso   1.000  N
  H1393    1.0000 0.87792  0.34519  0.02350  Biso   1.000  H
  H1394    1.0000 0.80060  0.40609  0.99992  Biso   1.000  H
  N189     1.0000 0.76998  0.46182  0.04749  Biso   1.000  N
  N190     1.0000 0.77002  0.46182  0.04749  Biso   1.000  N
  C1033    1.0000 0.33270  0.53529  0.04058  Biso   1.000  C
  C1034    1.0000 0.33270  0.53529  0.04063  Biso   1.000  C
  H1395    1.0000 0.27102  0.55200  0.97299  Biso   1.000  H
  C1035    1.0000 0.27631  0.47079  0.98941  Biso   1.000  C
  H1396    1.0000 0.27102  0.55200  0.97303  Biso   1.000  H
  C1036    1.0000 0.04058  0.83270  0.03529  Biso   1.000  C
  C1037    1.0000 0.04063  0.83270  0.03529  Biso   1.000  C
  C1038    1.0000 0.98941  0.77631  0.97079  Biso   1.000  C
  H1397    1.0000 0.97299  0.77102  0.05200  Biso   1.000  H
  H1398    1.0000 0.97303  0.77102  0.05200  Biso   1.000  H
  C1039    1.0000 0.98941  0.22369  0.02921  Biso   1.000  C
  C1040    1.0000 0.72369  0.47079  0.01059  Biso   1.000  C
  H1399    1.0000 0.33361  0.57149  0.05961  Biso   1.000  H
  H1400    1.0000 0.33551  0.50621  0.06930  Biso   1.000  H
  C1041    1.0000 0.38238  0.53111  0.00302  Biso   1.000  C
  C1042    1.0000 0.38243  0.53111  0.00302  Biso   1.000  C
  H1401    1.0000 0.33171  0.51920  0.07831  Biso   1.000  H
  H1402    1.0000 0.34470  0.57442  0.04261  Biso   1.000  H
  C1043    1.0000 0.37088  0.50000  0.00000  Biso   1.000  C
  H1403    1.0000 0.27102  0.44800  0.02701  Biso   1.000  H
  N191     1.0000 0.23002  0.46182  0.95251  Biso   1.000  N
  C1044    1.0000 0.33270  0.46471  0.95942  Biso   1.000  C
  H1404    1.0000 0.05961  0.83361  0.07149  Biso   1.000  H
  H1405    1.0000 0.06930  0.83551  0.00621  Biso   1.000  H
  C1045    1.0000 0.00302  0.88243  0.03111  Biso   1.000  C
  H1406    1.0000 0.05961  0.83361  0.07153  Biso   1.000  H
  H1407    1.0000 0.07831  0.83171  0.01920  Biso   1.000  H
  H1408    1.0000 0.04261  0.84470  0.07438  Biso   1.000  H
  C1046    1.0000 0.00000  0.87093  0.00000  Biso   1.000  C
  N192     1.0000 0.95251  0.73002  0.96182  Biso   1.000  N
  C1047    1.0000 0.95942  0.83270  0.96471  Biso   1.000  C
  H1409    1.0000 0.02701  0.77102  0.94800  Biso   1.000  H
  H1410    1.0000 0.02701  0.22898  0.05200  Biso   1.000  H
  C1048    1.0000 0.95942  0.16730  0.03529  Biso   1.000  C
  C1049    1.0000 0.01059  0.22369  0.97079  Biso   1.000  C
  H1411    1.0000 0.72898  0.44800  0.97299  Biso   1.000  H
  C1050    1.0000 0.72369  0.52921  0.98941  Biso   1.000  C
  H1412    1.0000 0.72898  0.44800  0.97303  Biso   1.000  H
  H1413    1.0000 0.72903  0.44800  0.97299  Biso   1.000  H
  H1414    1.0000 0.72903  0.44800  0.97303  Biso   1.000  H
  C1051    1.0000 0.66730  0.46471  0.04058  Biso   1.000  C
  C1052    1.0000 0.66730  0.46471  0.04063  Biso   1.000  C
  H1415    1.0000 0.41660  0.54509  0.02081  Biso   1.000  H
  H1416    1.0000 0.37651  0.55022  0.96732  Biso   1.000  H
  C1053    1.0000 0.38238  0.46889  0.99698  Biso   1.000  C
  C1054    1.0000 0.38238  0.46889  0.99702  Biso   1.000  C
  C1055    1.0000 0.38243  0.46889  0.99698  Biso   1.000  C
  C1056    1.0000 0.38243  0.46889  0.99702  Biso   1.000  C
  H1417    1.0000 0.39492  0.52511  0.97820  Biso   1.000  H
  H1418    1.0000 0.39492  0.47489  0.02180  Biso   1.000  H
  C1057    1.0000 0.19432  0.42570  0.96649  Biso   1.000  C
  H1419    1.0000 0.33361  0.42851  0.94039  Biso   1.000  H
  H1420    1.0000 0.33551  0.49379  0.93070  Biso   1.000  H
  H1421    1.0000 0.33361  0.42851  0.94043  Biso   1.000  H
  H1422    1.0000 0.33171  0.48080  0.92169  Biso   1.000  H
  H1423    1.0000 0.34470  0.42562  0.95739  Biso   1.000  H
  H1424    1.0000 0.02081  0.91660  0.04509  Biso   1.000  H
  C1058    1.0000 0.99698  0.88243  0.96889  Biso   1.000  C
  C1059    1.0000 0.99702  0.88243  0.96889  Biso   1.000  C
  H1425    1.0000 0.96732  0.87651  0.05018  Biso   1.000  H
  H1426    1.0000 0.96732  0.87651  0.05022  Biso   1.000  H
  H1427    1.0000 0.97820  0.89492  0.02511  Biso   1.000  H
  H1428    1.0000 0.02180  0.89492  0.97489  Biso   1.000  H
  C1060    1.0000 0.96649  0.69432  0.92570  Biso   1.000  C
  H1429    1.0000 0.94039  0.83361  0.92851  Biso   1.000  H
  H1430    1.0000 0.93070  0.83551  0.99379  Biso   1.000  H
  H1431    1.0000 0.94043  0.83361  0.92851  Biso   1.000  H
  H1432    1.0000 0.92169  0.83171  0.98080  Biso   1.000  H
  H1433    1.0000 0.95739  0.84470  0.92562  Biso   1.000  H
  C1061    1.0000 0.00000  0.12912  0.00000  Biso   1.000  C
  H1434    1.0000 0.94039  0.16639  0.07149  Biso   1.000  H
  H1435    1.0000 0.93070  0.16449  0.00621  Biso   1.000  H
  C1062    1.0000 0.99698  0.11762  0.03111  Biso   1.000  C
  H1436    1.0000 0.94039  0.16639  0.07153  Biso   1.000  H
  H1437    1.0000 0.94043  0.16639  0.07149  Biso   1.000  H
  C1063    1.0000 0.99702  0.11762  0.03111  Biso   1.000  C
  H1438    1.0000 0.94043  0.16639  0.07153  Biso   1.000  H
  H1439    1.0000 0.92169  0.16829  0.01920  Biso   1.000  H
  H1440    1.0000 0.95739  0.15530  0.07438  Biso   1.000  H
  H1441    1.0000 0.97299  0.22898  0.94800  Biso   1.000  H
  H1442    1.0000 0.97303  0.22898  0.94800  Biso   1.000  H
  N193     1.0000 0.04749  0.26998  0.96182  Biso   1.000  N
  C1064    1.0000 0.04058  0.16730  0.96471  Biso   1.000  C
  C1065    1.0000 0.04063  0.16730  0.96471  Biso   1.000  C
  N194     1.0000 0.76998  0.53818  0.95251  Biso   1.000  N
  C1066    1.0000 0.66730  0.53529  0.95942  Biso   1.000  C
  N195     1.0000 0.77002  0.53818  0.95251  Biso   1.000  N
  H1443    1.0000 0.72898  0.55200  0.02701  Biso   1.000  H
  H1444    1.0000 0.72903  0.55200  0.02701  Biso   1.000  H
  C1067    1.0000 0.62912  0.50000  0.00000  Biso   1.000  C
  H1445    1.0000 0.66639  0.42851  0.05961  Biso   1.000  H
  H1446    1.0000 0.66449  0.49379  0.06930  Biso   1.000  H
  C1068    1.0000 0.61762  0.46889  0.00302  Biso   1.000  C
  H1447    1.0000 0.66829  0.48080  0.07831  Biso   1.000  H
  H1448    1.0000 0.65530  0.42562  0.04261  Biso   1.000  H
  H1449    1.0000 0.37651  0.44982  0.03268  Biso   1.000  H
  H1450    1.0000 0.37651  0.44982  0.03272  Biso   1.000  H
  H1451    1.0000 0.41660  0.45491  0.97919  Biso   1.000  H
  H1452    1.0000 0.19940  0.40609  0.00008  Biso   1.000  H
  H1453    1.0000 0.19940  0.40609  0.00012  Biso   1.000  H
  C1069    1.0000 0.14558  0.41341  0.93248  Biso   1.000  C
  C1070    1.0000 0.14558  0.41341  0.93253  Biso   1.000  C
  C1071    1.0000 0.14562  0.41341  0.93248  Biso   1.000  C
  C1072    1.0000 0.14562  0.41341  0.93253  Biso   1.000  C
  H1454    1.0000 0.97919  0.91660  0.95491  Biso   1.000  H
  H1455    1.0000 0.03268  0.87651  0.94982  Biso   1.000  H
  H1456    1.0000 0.03272  0.87651  0.94982  Biso   1.000  H
  C1073    1.0000 0.93248  0.64562  0.91341  Biso   1.000  C
  C1074    1.0000 0.93253  0.64562  0.91341  Biso   1.000  C
  H1457    1.0000 0.00008  0.69940  0.90609  Biso   1.000  H
  H1458    1.0000 0.00012  0.69940  0.90609  Biso   1.000  H
  H1459    1.0000 0.02180  0.10508  0.02511  Biso   1.000  H
  H1460    1.0000 0.97820  0.10508  0.97489  Biso   1.000  H
  H1461    1.0000 0.03268  0.12349  0.05018  Biso   1.000  H
  H1462    1.0000 0.03268  0.12349  0.05022  Biso   1.000  H
  H1463    1.0000 0.03272  0.12349  0.05018  Biso   1.000  H
  H1464    1.0000 0.03272  0.12349  0.05022  Biso   1.000  H
  H1465    1.0000 0.97919  0.08340  0.04509  Biso   1.000  H
  C1075    1.0000 0.00302  0.11762  0.96889  Biso   1.000  C
  C1076    1.0000 0.03351  0.30568  0.92570  Biso   1.000  C
  H1466    1.0000 0.05961  0.16639  0.92851  Biso   1.000  H
  H1467    1.0000 0.06930  0.16449  0.99379  Biso   1.000  H
  H1468    1.0000 0.07831  0.16829  0.98080  Biso   1.000  H
  H1469    1.0000 0.04261  0.15530  0.92562  Biso   1.000  H
  C1077    1.0000 0.80568  0.57430  0.96649  Biso   1.000  C
  C1078    1.0000 0.80573  0.57430  0.96649  Biso   1.000  C
  H1470    1.0000 0.66639  0.57149  0.94039  Biso   1.000  H
  H1471    1.0000 0.66449  0.50621  0.93070  Biso   1.000  H
  C1079    1.0000 0.61762  0.53111  0.99698  Biso   1.000  C
  H1472    1.0000 0.66639  0.57149  0.94043  Biso   1.000  H
  C1080    1.0000 0.61762  0.53111  0.99702  Biso   1.000  C
  H1473    1.0000 0.66829  0.51920  0.92169  Biso   1.000  H
  H1474    1.0000 0.65530  0.57442  0.95739  Biso   1.000  H
  H1475    1.0000 0.60512  0.47489  0.97820  Biso   1.000  H
  H1476    1.0000 0.60512  0.52511  0.02180  Biso   1.000  H
  H1477    1.0000 0.62349  0.44982  0.96732  Biso   1.000  H
  H1478    1.0000 0.58340  0.45491  0.02081  Biso   1.000  H
  C1081    1.0000 0.13251  0.44539  0.88702  Biso   1.000  C
  C1082    1.0000 0.11298  0.36749  0.94539  Biso   1.000  C
  C1083    1.0000 0.11302  0.36749  0.94539  Biso   1.000  C
  C1084    1.0000 0.88702  0.63251  0.94539  Biso   1.000  C
  C1085    1.0000 0.94539  0.61302  0.86749  Biso   1.000  C
  H1479    1.0000 0.96732  0.12349  0.94982  Biso   1.000  H
  H1480    1.0000 0.02081  0.08340  0.95491  Biso   1.000  H
  C1086    1.0000 0.06752  0.35442  0.91341  Biso   1.000  C
  H1481    1.0000 0.99992  0.30060  0.90609  Biso   1.000  H
  C1087    1.0000 0.85442  0.58659  0.93248  Biso   1.000  C
  C1088    1.0000 0.85442  0.58659  0.93253  Biso   1.000  C
  H1482    1.0000 0.80060  0.59391  0.00008  Biso   1.000  H
  H1483    1.0000 0.80060  0.59391  0.00012  Biso   1.000  H
  H1484    1.0000 0.58340  0.54509  0.97919  Biso   1.000  H
  H1485    1.0000 0.62349  0.55022  0.03268  Biso   1.000  H
  H1486    1.0000 0.62349  0.55022  0.03272  Biso   1.000  H
  H1487    1.0000 0.15481  0.47650  0.87792  Biso   1.000  H
  C1089    1.0000 0.08659  0.43248  0.85442  Biso   1.000  C
  C1090    1.0000 0.08663  0.43248  0.85442  Biso   1.000  C
  H1488    1.0000 0.12208  0.34519  0.97650  Biso   1.000  H
  H1489    1.0000 0.12212  0.34519  0.97650  Biso   1.000  H
  H1490    1.0000 0.87792  0.65481  0.97650  Biso   1.000  H
  H1491    1.0000 0.97650  0.62212  0.84519  Biso   1.000  H
  C1091    1.0000 0.91341  0.56752  0.85442  Biso   1.000  C
  C1092    1.0000 0.05461  0.38702  0.86749  Biso   1.000  C
  C1093    1.0000 0.86749  0.55461  0.88702  Biso   1.000  C
  C1094    1.0000 0.07430  0.46649  0.80568  Biso   1.000  C
  C1095    1.0000 0.07430  0.46649  0.80573  Biso   1.000  C
  C1096    1.0000 0.92570  0.53351  0.80568  Biso   1.000  C
  C1097    1.0000 0.92570  0.53351  0.80573  Biso   1.000  C
  H1492    1.0000 0.02350  0.37792  0.84519  Biso   1.000  H
  H1493    1.0000 0.84519  0.52350  0.87792  Biso   1.000  H
  N196     1.0000 0.03818  0.45251  0.76998  Biso   1.000  N
  H1494    1.0000 0.09391  0.50012  0.80060  Biso   1.000  H
  N197     1.0000 0.03818  0.45251  0.77002  Biso   1.000  N
  N198     1.0000 0.03823  0.45251  0.76998  Biso   1.000  N
  N199     1.0000 0.03823  0.45251  0.77002  Biso   1.000  N
  N200     1.0000 0.96182  0.54749  0.76998  Biso   1.000  N
  H1495    1.0000 0.90609  0.49992  0.80060  Biso   1.000  H
  N201     1.0000 0.96182  0.54749  0.77002  Biso   1.000  N
  C1098    1.0000 0.02921  0.48941  0.72369  Biso   1.000  C
  C1099    1.0000 0.97079  0.51059  0.72369  Biso   1.000  C
  H1496    1.0000 0.05200  0.52701  0.72898  Biso   1.000  H
  C1100    1.0000 0.03529  0.45942  0.66730  Biso   1.000  C
  H1497    1.0000 0.05200  0.52701  0.72903  Biso   1.000  H
  H1498    1.0000 0.94800  0.47299  0.72898  Biso   1.000  H
  C1101    1.0000 0.96471  0.54058  0.66730  Biso   1.000  C
  H1499    1.0000 0.94800  0.47299  0.72903  Biso   1.000  H
  C1102    1.0000 0.00000  0.50000  0.62912  Biso   1.000  C
  H1500    1.0000 0.07149  0.44039  0.66639  Biso   1.000  H
  H1501    1.0000 0.00621  0.43070  0.66449  Biso   1.000  H
  C1103    1.0000 0.03111  0.49702  0.61762  Biso   1.000  C
  H1502    1.0000 0.07153  0.44039  0.66639  Biso   1.000  H
  H1503    1.0000 0.01920  0.42169  0.66829  Biso   1.000  H
  H1504    1.0000 0.07438  0.45739  0.65530  Biso   1.000  H
  H1505    1.0000 0.92851  0.55961  0.66639  Biso   1.000  H
  H1506    1.0000 0.99379  0.56930  0.66449  Biso   1.000  H
  C1104    1.0000 0.96889  0.50302  0.61762  Biso   1.000  C
  H1507    1.0000 0.98080  0.57831  0.66829  Biso   1.000  H
  H1508    1.0000 0.92562  0.54261  0.65530  Biso   1.000  H
  H1509    1.0000 0.97489  0.47820  0.60512  Biso   1.000  H
  H1510    1.0000 0.02511  0.52180  0.60512  Biso   1.000  H
  H1511    1.0000 0.04509  0.47919  0.58340  Biso   1.000  H
  H1512    1.0000 0.05018  0.53272  0.62349  Biso   1.000  H
  H1513    1.0000 0.05022  0.53272  0.62349  Biso   1.000  H
  H1514    1.0000 0.95491  0.52081  0.58340  Biso   1.000  H
  H1515    1.0000 0.94982  0.46732  0.62349  Biso   1.000  H
  C1105    1.0000 0.03111  0.50302  0.38238  Biso   1.000  C
  C1106    1.0000 0.03529  0.54058  0.33270  Biso   1.000  C
  H1516    1.0000 0.04509  0.52081  0.41660  Biso   1.000  H
  H1517    1.0000 0.05018  0.46732  0.37651  Biso   1.000  H
  H1518    1.0000 0.05022  0.46732  0.37651  Biso   1.000  H
  C1107    1.0000 0.96889  0.49702  0.38238  Biso   1.000  C
  C1108    1.0000 0.96889  0.49702  0.38243  Biso   1.000  C
  H1519    1.0000 0.02511  0.47820  0.39492  Biso   1.000  H
  C1109    1.0000 0.02921  0.51059  0.27631  Biso   1.000  C
  H1520    1.0000 0.07149  0.55961  0.33361  Biso   1.000  H
  H1521    1.0000 0.00621  0.56930  0.33551  Biso   1.000  H
  H1522    1.0000 0.07153  0.55961  0.33361  Biso   1.000  H
  C1110    1.0000 0.03111  0.50302  0.38243  Biso   1.000  C
  C1111    1.0000 0.00000  0.50000  0.37088  Biso   1.000  C
  H1523    1.0000 0.01920  0.57831  0.33171  Biso   1.000  H
  H1524    1.0000 0.07438  0.54261  0.34470  Biso   1.000  H
  C1112    1.0000 0.96471  0.45942  0.33270  Biso   1.000  C
  H1525    1.0000 0.97489  0.52180  0.39492  Biso   1.000  H
  H1526    1.0000 0.95491  0.47919  0.41660  Biso   1.000  H
  H1527    1.0000 0.94982  0.53272  0.37651  Biso   1.000  H
  N202     1.0000 0.03818  0.54749  0.23002  Biso   1.000  N
  N203     1.0000 0.03823  0.54749  0.23002  Biso   1.000  N
  H1528    1.0000 0.05200  0.47299  0.27102  Biso   1.000  H
  C1113    1.0000 0.97079  0.48941  0.27631  Biso   1.000  C
  H1529    1.0000 0.92851  0.44039  0.33361  Biso   1.000  H
  H1530    1.0000 0.99379  0.43070  0.33551  Biso   1.000  H
  H1531    1.0000 0.98080  0.42169  0.33171  Biso   1.000  H
  H1532    1.0000 0.92562  0.45739  0.34470  Biso   1.000  H
  C1114    1.0000 0.07430  0.53351  0.19432  Biso   1.000  C
  N204     1.0000 0.96182  0.45251  0.23002  Biso   1.000  N
  H1533    1.0000 0.94800  0.52701  0.27102  Biso   1.000  H
  H1534    1.0000 0.09391  0.49992  0.19940  Biso   1.000  H
  C1115    1.0000 0.08659  0.56752  0.14558  Biso   1.000  C
  C1116    1.0000 0.08659  0.56752  0.14562  Biso   1.000  C
  C1117    1.0000 0.08663  0.56752  0.14558  Biso   1.000  C
  C1118    1.0000 0.08663  0.56752  0.14562  Biso   1.000  C
  C1119    1.0000 0.92570  0.46649  0.19432  Biso   1.000  C
  C1120    1.0000 0.05461  0.61302  0.13251  Biso   1.000  C
  C1121    1.0000 0.13251  0.55461  0.11298  Biso   1.000  C
  C1122    1.0000 0.13251  0.55461  0.11302  Biso   1.000  C
  H1535    1.0000 0.90609  0.50012  0.19940  Biso   1.000  H
  C1123    1.0000 0.91341  0.43248  0.14558  Biso   1.000  C
  C1124    1.0000 0.91341  0.43248  0.14562  Biso   1.000  C
  H1536    1.0000 0.02350  0.62212  0.15481  Biso   1.000  H
  C1125    1.0000 0.06752  0.64562  0.08659  Biso   1.000  C
  C1126    1.0000 0.06752  0.64562  0.08663  Biso   1.000  C
  C1127    1.0000 0.14558  0.58659  0.06752  Biso   1.000  C
  H1537    1.0000 0.15481  0.52350  0.12208  Biso   1.000  H
  H1538    1.0000 0.15481  0.52350  0.12212  Biso   1.000  H
  C1128    1.0000 0.14562  0.58659  0.06752  Biso   1.000  C
  C1129    1.0000 0.94539  0.38702  0.13251  Biso   1.000  C
  C1130    1.0000 0.86749  0.44539  0.11298  Biso   1.000  C
  C1131    1.0000 0.86749  0.44539  0.11302  Biso   1.000  C
  C1132    1.0000 0.03351  0.69432  0.07430  Biso   1.000  C
  C1133    1.0000 0.11298  0.63251  0.05461  Biso   1.000  C
  C1134    1.0000 0.11302  0.63251  0.05461  Biso   1.000  C
  C1135    1.0000 0.19432  0.57430  0.03351  Biso   1.000  C
  C1136    1.0000 0.93248  0.35442  0.08659  Biso   1.000  C
  H1539    1.0000 0.97650  0.37792  0.15481  Biso   1.000  H
  C1137    1.0000 0.93248  0.35442  0.08663  Biso   1.000  C
  C1138    1.0000 0.93253  0.35442  0.08659  Biso   1.000  C
  C1139    1.0000 0.93253  0.35442  0.08663  Biso   1.000  C
  H1540    1.0000 0.84519  0.47650  0.12208  Biso   1.000  H
  C1140    1.0000 0.85442  0.41341  0.06752  Biso   1.000  C
  H1541    1.0000 0.84519  0.47650  0.12212  Biso   1.000  H
  N205     1.0000 0.04749  0.73002  0.03818  Biso   1.000  N
  N206     1.0000 0.04749  0.73002  0.03823  Biso   1.000  N
  H1542    1.0000 0.99992  0.69940  0.09391  Biso   1.000  H
  H1543    1.0000 0.12208  0.65481  0.02350  Biso   1.000  H
  H1544    1.0000 0.12212  0.65481  0.02350  Biso   1.000  H
  N207     1.0000 0.23002  0.53818  0.04749  Biso   1.000  N
  H1545    1.0000 0.19940  0.59391  0.99992  Biso   1.000  H
  C1141    1.0000 0.96649  0.30568  0.07430  Biso   1.000  C
  C1142    1.0000 0.88702  0.36749  0.05461  Biso   1.000  C
  C1143    1.0000 0.80568  0.42570  0.03351  Biso   1.000  C
  C1144    1.0000 0.80573  0.42570  0.03351  Biso   1.000  C
  C1145    1.0000 0.01059  0.77631  0.02921  Biso   1.000  C
  C1146    1.0000 0.27631  0.52921  0.01059  Biso   1.000  C
  H1546    1.0000 0.00008  0.30060  0.09391  Biso   1.000  H
  H1547    1.0000 0.00012  0.30060  0.09391  Biso   1.000  H
  N208     1.0000 0.95251  0.26998  0.03818  Biso   1.000  N
  N209     1.0000 0.95251  0.26998  0.03823  Biso   1.000  N
  H1548    1.0000 0.87792  0.34519  0.02350  Biso   1.000  H
  H1549    1.0000 0.80060  0.40609  0.99992  Biso   1.000  H
  N210     1.0000 0.76998  0.46182  0.04749  Biso   1.000  N
  N211     1.0000 0.77002  0.46182  0.04749  Biso   1.000  N
  C1147    1.0000 0.04058  0.83270  0.03529  Biso   1.000  C
  C1148    1.0000 0.04063  0.83270  0.03529  Biso   1.000  C
  C1149    1.0000 0.98941  0.77631  0.97079  Biso   1.000  C
  H1550    1.0000 0.97299  0.77102  0.05200  Biso   1.000  H
  H1551    1.0000 0.97303  0.77102  0.05200  Biso   1.000  H
  C1150    1.0000 0.33270  0.53529  0.04058  Biso   1.000  C
  C1151    1.0000 0.33270  0.53529  0.04063  Biso   1.000  C
  H1552    1.0000 0.27102  0.55200  0.97299  Biso   1.000  H
  C1152    1.0000 0.27631  0.47079  0.98941  Biso   1.000  C
  H1553    1.0000 0.27102  0.55200  0.97303  Biso   1.000  H
  C1153    1.0000 0.98941  0.22369  0.02921  Biso   1.000  C
  C1154    1.0000 0.72369  0.47079  0.01059  Biso   1.000  C
  H1554    1.0000 0.06930  0.83551  0.00621  Biso   1.000  H
  C1155    1.0000 0.00302  0.88243  0.03111  Biso   1.000  C
  H1555    1.0000 0.05961  0.83361  0.07149  Biso   1.000  H
  H1556    1.0000 0.05961  0.83361  0.07153  Biso   1.000  H
  C1156    1.0000 0.00000  0.87093  0.00000  Biso   1.000  C
  H1557    1.0000 0.07831  0.83171  0.01920  Biso   1.000  H
  H1558    1.0000 0.04261  0.84470  0.07438  Biso   1.000  H
  N212     1.0000 0.95251  0.73002  0.96182  Biso   1.000  N
  C1157    1.0000 0.95942  0.83270  0.96471  Biso   1.000  C
  H1559    1.0000 0.02701  0.77102  0.94800  Biso   1.000  H
  H1560    1.0000 0.33361  0.57149  0.05961  Biso   1.000  H
  H1561    1.0000 0.33551  0.50621  0.06930  Biso   1.000  H
  C1158    1.0000 0.38238  0.53111  0.00302  Biso   1.000  C
  C1159    1.0000 0.38243  0.53111  0.00302  Biso   1.000  C
  C1160    1.0000 0.37088  0.50000  0.00000  Biso   1.000  C
  H1562    1.0000 0.33171  0.51920  0.07831  Biso   1.000  H
  H1563    1.0000 0.34470  0.57442  0.04261  Biso   1.000  H
  H1564    1.0000 0.27102  0.44800  0.02701  Biso   1.000  H
  N213     1.0000 0.23002  0.46182  0.95251  Biso   1.000  N
  C1161    1.0000 0.33270  0.46471  0.95942  Biso   1.000  C
  H1565    1.0000 0.02701  0.22898  0.05200  Biso   1.000  H
  C1162    1.0000 0.95942  0.16730  0.03529  Biso   1.000  C
  C1163    1.0000 0.01059  0.22369  0.97079  Biso   1.000  C
  H1566    1.0000 0.72898  0.44800  0.97299  Biso   1.000  H
  C1164    1.0000 0.72369  0.52921  0.98941  Biso   1.000  C
  H1567    1.0000 0.72898  0.44800  0.97303  Biso   1.000  H
  H1568    1.0000 0.72903  0.44800  0.97299  Biso   1.000  H
  H1569    1.0000 0.72903  0.44800  0.97303  Biso   1.000  H
  C1165    1.0000 0.66730  0.46471  0.04058  Biso   1.000  C
  C1166    1.0000 0.66730  0.46471  0.04063  Biso   1.000  C
  H1570    1.0000 0.02081  0.91660  0.04509  Biso   1.000  H
  C1167    1.0000 0.99698  0.88243  0.96889  Biso   1.000  C
  C1168    1.0000 0.99702  0.88243  0.96889  Biso   1.000  C
  H1571    1.0000 0.96732  0.87651  0.05018  Biso   1.000  H
  H1572    1.0000 0.96732  0.87651  0.05022  Biso   1.000  H
  H1573    1.0000 0.97820  0.89492  0.02511  Biso   1.000  H
  H1574    1.0000 0.02180  0.89492  0.97489  Biso   1.000  H
  C1169    1.0000 0.96649  0.69432  0.92570  Biso   1.000  C
  H1575    1.0000 0.94039  0.83361  0.92851  Biso   1.000  H
  H1576    1.0000 0.93070  0.83551  0.99379  Biso   1.000  H
  H1577    1.0000 0.94043  0.83361  0.92851  Biso   1.000  H
  H1578    1.0000 0.92169  0.83171  0.98080  Biso   1.000  H
  H1579    1.0000 0.95739  0.84470  0.92562  Biso   1.000  H
  H1580    1.0000 0.41660  0.54509  0.02081  Biso   1.000  H
  H1581    1.0000 0.37651  0.55022  0.96732  Biso   1.000  H
  C1170    1.0000 0.38238  0.46889  0.99698  Biso   1.000  C
  C1171    1.0000 0.38238  0.46889  0.99702  Biso   1.000  C
  C1172    1.0000 0.38243  0.46889  0.99698  Biso   1.000  C
  C1173    1.0000 0.38243  0.46889  0.99702  Biso   1.000  C
  H1582    1.0000 0.39492  0.52511  0.97820  Biso   1.000  H
  H1583    1.0000 0.39492  0.47489  0.02180  Biso   1.000  H
  C1174    1.0000 0.19432  0.42570  0.96649  Biso   1.000  C
  H1584    1.0000 0.33361  0.42851  0.94039  Biso   1.000  H
  H1585    1.0000 0.33551  0.49379  0.93070  Biso   1.000  H
  H1586    1.0000 0.33361  0.42851  0.94043  Biso   1.000  H
  H1587    1.0000 0.33171  0.48080  0.92169  Biso   1.000  H
  H1588    1.0000 0.34470  0.42562  0.95739  Biso   1.000  H
  C1175    1.0000 0.00000  0.12912  0.00000  Biso   1.000  C
  H1589    1.0000 0.94039  0.16639  0.07149  Biso   1.000  H
  H1590    1.0000 0.93070  0.16449  0.00621  Biso   1.000  H
  C1176    1.0000 0.99698  0.11762  0.03111  Biso   1.000  C
  H1591    1.0000 0.94039  0.16639  0.07153  Biso   1.000  H
  H1592    1.0000 0.94043  0.16639  0.07149  Biso   1.000  H
  C1177    1.0000 0.99702  0.11762  0.03111  Biso   1.000  C
  H1593    1.0000 0.94043  0.16639  0.07153  Biso   1.000  H
  H1594    1.0000 0.92169  0.16829  0.01920  Biso   1.000  H
  H1595    1.0000 0.95739  0.15530  0.07438  Biso   1.000  H
  H1596    1.0000 0.97299  0.22898  0.94800  Biso   1.000  H
  H1597    1.0000 0.97303  0.22898  0.94800  Biso   1.000  H
  N214     1.0000 0.04749  0.26998  0.96182  Biso   1.000  N
  C1178    1.0000 0.04058  0.16730  0.96471  Biso   1.000  C
  C1179    1.0000 0.04063  0.16730  0.96471  Biso   1.000  C
  N215     1.0000 0.76998  0.53818  0.95251  Biso   1.000  N
  C1180    1.0000 0.66730  0.53529  0.95942  Biso   1.000  C
  N216     1.0000 0.77002  0.53818  0.95251  Biso   1.000  N
  H1598    1.0000 0.72898  0.55200  0.02701  Biso   1.000  H
  H1599    1.0000 0.72903  0.55200  0.02701  Biso   1.000  H
  C1181    1.0000 0.62912  0.50000  0.00000  Biso   1.000  C
  H1600    1.0000 0.66639  0.42851  0.05961  Biso   1.000  H
  H1601    1.0000 0.66449  0.49379  0.06930  Biso   1.000  H
  C1182    1.0000 0.61762  0.46889  0.00302  Biso   1.000  C
  H1602    1.0000 0.66829  0.48080  0.07831  Biso   1.000  H
  H1603    1.0000 0.65530  0.42562  0.04261  Biso   1.000  H
  H1604    1.0000 0.97919  0.91660  0.95491  Biso   1.000  H
  H1605    1.0000 0.03268  0.87651  0.94982  Biso   1.000  H
  H1606    1.0000 0.03272  0.87651  0.94982  Biso   1.000  H
  C1183    1.0000 0.93248  0.64562  0.91341  Biso   1.000  C
  C1184    1.0000 0.93253  0.64562  0.91341  Biso   1.000  C
  H1607    1.0000 0.00008  0.69940  0.90609  Biso   1.000  H
  H1608    1.0000 0.00012  0.69940  0.90609  Biso   1.000  H
  H1609    1.0000 0.37651  0.44982  0.03268  Biso   1.000  H
  H1610    1.0000 0.37651  0.44982  0.03272  Biso   1.000  H
  H1611    1.0000 0.41660  0.45491  0.97919  Biso   1.000  H
  H1612    1.0000 0.19940  0.40609  0.00008  Biso   1.000  H
  H1613    1.0000 0.19940  0.40609  0.00012  Biso   1.000  H
  C1185    1.0000 0.14558  0.41341  0.93248  Biso   1.000  C
  C1186    1.0000 0.14558  0.41341  0.93253  Biso   1.000  C
  C1187    1.0000 0.14562  0.41341  0.93248  Biso   1.000  C
  C1188    1.0000 0.14562  0.41341  0.93253  Biso   1.000  C
  H1614    1.0000 0.97820  0.10508  0.97489  Biso   1.000  H
  H1615    1.0000 0.02180  0.10508  0.02511  Biso   1.000  H
  H1616    1.0000 0.97919  0.08340  0.04509  Biso   1.000  H
  C1189    1.0000 0.00302  0.11762  0.96889  Biso   1.000  C
  H1617    1.0000 0.03268  0.12349  0.05018  Biso   1.000  H
  H1618    1.0000 0.03268  0.12349  0.05022  Biso   1.000  H
  H1619    1.0000 0.03272  0.12349  0.05018  Biso   1.000  H
  H1620    1.0000 0.03272  0.12349  0.05022  Biso   1.000  H
  C1190    1.0000 0.03351  0.30568  0.92570  Biso   1.000  C
  H1621    1.0000 0.05961  0.16639  0.92851  Biso   1.000  H
  H1622    1.0000 0.06930  0.16449  0.99379  Biso   1.000  H
  H1623    1.0000 0.07831  0.16829  0.98080  Biso   1.000  H
  H1624    1.0000 0.04261  0.15530  0.92562  Biso   1.000  H
  C1191    1.0000 0.80568  0.57430  0.96649  Biso   1.000  C
  C1192    1.0000 0.80573  0.57430  0.96649  Biso   1.000  C
  H1625    1.0000 0.66639  0.57149  0.94039  Biso   1.000  H
  H1626    1.0000 0.66449  0.50621  0.93070  Biso   1.000  H
  C1193    1.0000 0.61762  0.53111  0.99698  Biso   1.000  C
  H1627    1.0000 0.66639  0.57149  0.94043  Biso   1.000  H
  C1194    1.0000 0.61762  0.53111  0.99702  Biso   1.000  C
  H1628    1.0000 0.66829  0.51920  0.92169  Biso   1.000  H
  H1629    1.0000 0.65530  0.57442  0.95739  Biso   1.000  H
  H1630    1.0000 0.60512  0.47489  0.97820  Biso   1.000  H
  H1631    1.0000 0.60512  0.52511  0.02180  Biso   1.000  H
  H1632    1.0000 0.62349  0.44982  0.96732  Biso   1.000  H
  H1633    1.0000 0.58340  0.45491  0.02081  Biso   1.000  H
  C1195    1.0000 0.88702  0.63251  0.94539  Biso   1.000  C
  C1196    1.0000 0.94539  0.61302  0.86749  Biso   1.000  C
  C1197    1.0000 0.13251  0.44539  0.88702  Biso   1.000  C
  C1198    1.0000 0.11298  0.36749  0.94539  Biso   1.000  C
  C1199    1.0000 0.11302  0.36749  0.94539  Biso   1.000  C
  H1634    1.0000 0.96732  0.12349  0.94982  Biso   1.000  H
  H1635    1.0000 0.02081  0.08340  0.95491  Biso   1.000  H
  C1200    1.0000 0.06752  0.35442  0.91341  Biso   1.000  C
  H1636    1.0000 0.99992  0.30060  0.90609  Biso   1.000  H
  C1201    1.0000 0.85442  0.58659  0.93248  Biso   1.000  C
  C1202    1.0000 0.85442  0.58659  0.93253  Biso   1.000  C
  H1637    1.0000 0.80060  0.59391  0.00008  Biso   1.000  H
  H1638    1.0000 0.80060  0.59391  0.00012  Biso   1.000  H
  H1639    1.0000 0.58340  0.54509  0.97919  Biso   1.000  H
  H1640    1.0000 0.62349  0.55022  0.03268  Biso   1.000  H
  H1641    1.0000 0.62349  0.55022  0.03272  Biso   1.000  H
  H1642    1.0000 0.87792  0.65481  0.97650  Biso   1.000  H
  H1643    1.0000 0.97650  0.62212  0.84519  Biso   1.000  H
  C1203    1.0000 0.91341  0.56752  0.85442  Biso   1.000  C
  H1644    1.0000 0.15481  0.47650  0.87792  Biso   1.000  H
  C1204    1.0000 0.08659  0.43248  0.85442  Biso   1.000  C
  C1205    1.0000 0.08663  0.43248  0.85442  Biso   1.000  C
  H1645    1.0000 0.12208  0.34519  0.97650  Biso   1.000  H
  H1646    1.0000 0.12212  0.34519  0.97650  Biso   1.000  H
  C1206    1.0000 0.05461  0.38702  0.86749  Biso   1.000  C
  C1207    1.0000 0.86749  0.55461  0.88702  Biso   1.000  C
  C1208    1.0000 0.92570  0.53351  0.80568  Biso   1.000  C
  C1209    1.0000 0.92570  0.53351  0.80573  Biso   1.000  C
  C1210    1.0000 0.07430  0.46649  0.80568  Biso   1.000  C
  C1211    1.0000 0.07430  0.46649  0.80573  Biso   1.000  C
  H1647    1.0000 0.02350  0.37792  0.84519  Biso   1.000  H
  H1648    1.0000 0.84519  0.52350  0.87792  Biso   1.000  H
  N217     1.0000 0.96182  0.54749  0.76998  Biso   1.000  N
  H1649    1.0000 0.90609  0.49992  0.80060  Biso   1.000  H
  N218     1.0000 0.96182  0.54749  0.77002  Biso   1.000  N
  N219     1.0000 0.03818  0.45251  0.76998  Biso   1.000  N
  H1650    1.0000 0.09391  0.50012  0.80060  Biso   1.000  H
  N220     1.0000 0.03818  0.45251  0.77002  Biso   1.000  N
  N221     1.0000 0.03823  0.45251  0.76998  Biso   1.000  N
  N222     1.0000 0.03823  0.45251  0.77002  Biso   1.000  N
  C1212    1.0000 0.97079  0.51059  0.72369  Biso   1.000  C
  C1213    1.0000 0.02921  0.48941  0.72369  Biso   1.000  C
  H1651    1.0000 0.94800  0.47299  0.72898  Biso   1.000  H
  C1214    1.0000 0.96471  0.54058  0.66730  Biso   1.000  C
  H1652    1.0000 0.94800  0.47299  0.72903  Biso   1.000  H
  H1653    1.0000 0.05200  0.52701  0.72898  Biso   1.000  H
  C1215    1.0000 0.03529  0.45942  0.66730  Biso   1.000  C
  H1654    1.0000 0.05200  0.52701  0.72903  Biso   1.000  H
  H1655    1.0000 0.92851  0.55961  0.66639  Biso   1.000  H
  H1656    1.0000 0.99379  0.56930  0.66449  Biso   1.000  H
  C1216    1.0000 0.96889  0.50302  0.61762  Biso   1.000  C
  H1657    1.0000 0.98080  0.57831  0.66829  Biso   1.000  H
  H1658    1.0000 0.92562  0.54261  0.65530  Biso   1.000  H
  C1217    1.0000 0.00000  0.50000  0.62912  Biso   1.000  C
  H1659    1.0000 0.07149  0.44039  0.66639  Biso   1.000  H
  H1660    1.0000 0.00621  0.43070  0.66449  Biso   1.000  H
  C1218    1.0000 0.03111  0.49702  0.61762  Biso   1.000  C
  H1661    1.0000 0.07153  0.44039  0.66639  Biso   1.000  H
  H1662    1.0000 0.01920  0.42169  0.66829  Biso   1.000  H
  H1663    1.0000 0.07438  0.45739  0.65530  Biso   1.000  H
  H1664    1.0000 0.95491  0.52081  0.58340  Biso   1.000  H
  H1665    1.0000 0.94982  0.46732  0.62349  Biso   1.000  H
  H1666    1.0000 0.97489  0.47820  0.60512  Biso   1.000  H
  H1667    1.0000 0.02511  0.52180  0.60512  Biso   1.000  H
  H1668    1.0000 0.04509  0.47919  0.58340  Biso   1.000  H
  H1669    1.0000 0.05018  0.53272  0.62349  Biso   1.000  H
  H1670    1.0000 0.05022  0.53272  0.62349  Biso   1.000  H
  C1219    1.0000 0.03111  0.50302  0.38238  Biso   1.000  C
  C1220    1.0000 0.03529  0.54058  0.33270  Biso   1.000  C
  H1671    1.0000 0.02511  0.47820  0.39492  Biso   1.000  H
  H1672    1.0000 0.04509  0.52081  0.41660  Biso   1.000  H
  C1221    1.0000 0.96889  0.49702  0.38238  Biso   1.000  C
  C1222    1.0000 0.96889  0.49702  0.38243  Biso   1.000  C
  H1673    1.0000 0.05018  0.46732  0.37651  Biso   1.000  H
  H1674    1.0000 0.05022  0.46732  0.37651  Biso   1.000  H
  C1223    1.0000 0.02921  0.51059  0.27631  Biso   1.000  C
  H1675    1.0000 0.00621  0.56930  0.33551  Biso   1.000  H
  C1224    1.0000 0.00000  0.50000  0.37088  Biso   1.000  C
  H1676    1.0000 0.07149  0.55961  0.33361  Biso   1.000  H
  C1225    1.0000 0.03111  0.50302  0.38243  Biso   1.000  C
  H1677    1.0000 0.07153  0.55961  0.33361  Biso   1.000  H
  H1678    1.0000 0.01920  0.57831  0.33171  Biso   1.000  H
  H1679    1.0000 0.07438  0.54261  0.34470  Biso   1.000  H
  C1226    1.0000 0.96471  0.45942  0.33270  Biso   1.000  C
  H1680    1.0000 0.97489  0.52180  0.39492  Biso   1.000  H
  H1681    1.0000 0.95491  0.47919  0.41660  Biso   1.000  H
  H1682    1.0000 0.94982  0.53272  0.37651  Biso   1.000  H
  N223     1.0000 0.03818  0.54749  0.23002  Biso   1.000  N
  N224     1.0000 0.03823  0.54749  0.23002  Biso   1.000  N
  H1683    1.0000 0.05200  0.47299  0.27102  Biso   1.000  H
  C1227    1.0000 0.97079  0.48941  0.27631  Biso   1.000  C
  H1684    1.0000 0.92851  0.44039  0.33361  Biso   1.000  H
  H1685    1.0000 0.99379  0.43070  0.33551  Biso   1.000  H
  H1686    1.0000 0.98080  0.42169  0.33171  Biso   1.000  H
  H1687    1.0000 0.92562  0.45739  0.34470  Biso   1.000  H
  C1228    1.0000 0.07430  0.53351  0.19432  Biso   1.000  C
  N225     1.0000 0.96182  0.45251  0.23002  Biso   1.000  N
  H1688    1.0000 0.94800  0.52701  0.27102  Biso   1.000  H
  H1689    1.0000 0.09391  0.49992  0.19940  Biso   1.000  H
  C1229    1.0000 0.08659  0.56752  0.14558  Biso   1.000  C
  C1230    1.0000 0.08659  0.56752  0.14562  Biso   1.000  C
  C1231    1.0000 0.08663  0.56752  0.14558  Biso   1.000  C
  C1232    1.0000 0.08663  0.56752  0.14562  Biso   1.000  C
  C1233    1.0000 0.92570  0.46649  0.19432  Biso   1.000  C
  C1234    1.0000 0.05461  0.61302  0.13251  Biso   1.000  C
  C1235    1.0000 0.13251  0.55461  0.11298  Biso   1.000  C
  C1236    1.0000 0.13251  0.55461  0.11302  Biso   1.000  C
  H1690    1.0000 0.90609  0.50012  0.19940  Biso   1.000  H
  C1237    1.0000 0.91341  0.43248  0.14558  Biso   1.000  C
  C1238    1.0000 0.91341  0.43248  0.14562  Biso   1.000  C
  H1691    1.0000 0.02350  0.62212  0.15481  Biso   1.000  H
  C1239    1.0000 0.06752  0.64562  0.08659  Biso   1.000  C
  C1240    1.0000 0.06752  0.64562  0.08663  Biso   1.000  C
  H1692    1.0000 0.15481  0.52350  0.12208  Biso   1.000  H
  C1241    1.0000 0.14558  0.58659  0.06752  Biso   1.000  C
  H1693    1.0000 0.15481  0.52350  0.12212  Biso   1.000  H
  C1242    1.0000 0.14562  0.58659  0.06752  Biso   1.000  C
  C1243    1.0000 0.94539  0.38702  0.13251  Biso   1.000  C
  C1244    1.0000 0.86749  0.44539  0.11298  Biso   1.000  C
  C1245    1.0000 0.86749  0.44539  0.11302  Biso   1.000  C
  C1246    1.0000 0.03351  0.69432  0.07430  Biso   1.000  C
  C1247    1.0000 0.11298  0.63251  0.05461  Biso   1.000  C
  C1248    1.0000 0.11302  0.63251  0.05461  Biso   1.000  C
  C1249    1.0000 0.19432  0.57430  0.03351  Biso   1.000  C
  C1250    1.0000 0.93248  0.35442  0.08659  Biso   1.000  C
  H1694    1.0000 0.97650  0.37792  0.15481  Biso   1.000  H
  C1251    1.0000 0.93248  0.35442  0.08663  Biso   1.000  C
  C1252    1.0000 0.93253  0.35442  0.08659  Biso   1.000  C
  C1253    1.0000 0.93253  0.35442  0.08663  Biso   1.000  C
  H1695    1.0000 0.84519  0.47650  0.12208  Biso   1.000  H
  C1254    1.0000 0.85442  0.41341  0.06752  Biso   1.000  C
  H1696    1.0000 0.84519  0.47650  0.12212  Biso   1.000  H
  H1697    1.0000 0.99992  0.69940  0.09391  Biso   1.000  H
  N226     1.0000 0.04749  0.73002  0.03818  Biso   1.000  N
  N227     1.0000 0.04749  0.73002  0.03823  Biso   1.000  N
  H1698    1.0000 0.12208  0.65481  0.02350  Biso   1.000  H
  H1699    1.0000 0.12212  0.65481  0.02350  Biso   1.000  H
  N228     1.0000 0.23002  0.53818  0.04749  Biso   1.000  N
  H1700    1.0000 0.19940  0.59391  0.99992  Biso   1.000  H
  C1255    1.0000 0.96649  0.30568  0.07430  Biso   1.000  C
  C1256    1.0000 0.88702  0.36749  0.05461  Biso   1.000  C
  C1257    1.0000 0.80568  0.42570  0.03351  Biso   1.000  C
  C1258    1.0000 0.80573  0.42570  0.03351  Biso   1.000  C
  C1259    1.0000 0.01059  0.77631  0.02921  Biso   1.000  C
  C1260    1.0000 0.27631  0.52921  0.01059  Biso   1.000  C
  N229     1.0000 0.95251  0.26998  0.03818  Biso   1.000  N
  N230     1.0000 0.95251  0.26998  0.03823  Biso   1.000  N
  H1701    1.0000 0.00008  0.30060  0.09391  Biso   1.000  H
  H1702    1.0000 0.00012  0.30060  0.09391  Biso   1.000  H
  H1703    1.0000 0.87792  0.34519  0.02350  Biso   1.000  H
  H1704    1.0000 0.80060  0.40609  0.99992  Biso   1.000  H
  N231     1.0000 0.76998  0.46182  0.04749  Biso   1.000  N
  N232     1.0000 0.77002  0.46182  0.04749  Biso   1.000  N
  C1261    1.0000 0.98941  0.77631  0.97079  Biso   1.000  C
  H1705    1.0000 0.97299  0.77102  0.05200  Biso   1.000  H
  H1706    1.0000 0.97303  0.77102  0.05200  Biso   1.000  H
  C1262    1.0000 0.04058  0.83270  0.03529  Biso   1.000  C
  C1263    1.0000 0.04063  0.83270  0.03529  Biso   1.000  C
  H1707    1.0000 0.27102  0.55200  0.97299  Biso   1.000  H
  C1264    1.0000 0.27631  0.47079  0.98941  Biso   1.000  C
  H1708    1.0000 0.27102  0.55200  0.97303  Biso   1.000  H
  C1265    1.0000 0.33270  0.53529  0.04058  Biso   1.000  C
  C1266    1.0000 0.33270  0.53529  0.04063  Biso   1.000  C
  C1267    1.0000 0.98941  0.22369  0.02921  Biso   1.000  C
  C1268    1.0000 0.72369  0.47079  0.01059  Biso   1.000  C
  N233     1.0000 0.95251  0.73002  0.96182  Biso   1.000  N
  C1269    1.0000 0.95942  0.83270  0.96471  Biso   1.000  C
  H1709    1.0000 0.02701  0.77102  0.94800  Biso   1.000  H
  H1710    1.0000 0.06930  0.83551  0.00621  Biso   1.000  H
  C1270    1.0000 0.00302  0.88243  0.03111  Biso   1.000  C
  C1271    1.0000 0.00000  0.87093  0.00000  Biso   1.000  C
  H1711    1.0000 0.05961  0.83361  0.07149  Biso   1.000  H
  H1712    1.0000 0.05961  0.83361  0.07153  Biso   1.000  H
  H1713    1.0000 0.07831  0.83171  0.01920  Biso   1.000  H
  H1714    1.0000 0.04261  0.84470  0.07438  Biso   1.000  H
  H1715    1.0000 0.27102  0.44800  0.02701  Biso   1.000  H
  N234     1.0000 0.23002  0.46182  0.95251  Biso   1.000  N
  C1272    1.0000 0.33270  0.46471  0.95942  Biso   1.000  C
  H1716    1.0000 0.33361  0.57149  0.05961  Biso   1.000  H
  H1717    1.0000 0.33551  0.50621  0.06930  Biso   1.000  H
  C1273    1.0000 0.37088  0.50000  0.00000  Biso   1.000  C
  C1274    1.0000 0.38238  0.53111  0.00302  Biso   1.000  C
  C1275    1.0000 0.38243  0.53111  0.00302  Biso   1.000  C
  H1718    1.0000 0.33171  0.51920  0.07831  Biso   1.000  H
  H1719    1.0000 0.34470  0.57442  0.04261  Biso   1.000  H
  H1720    1.0000 0.02701  0.22898  0.05200  Biso   1.000  H
  C1276    1.0000 0.95942  0.16730  0.03529  Biso   1.000  C
  C1277    1.0000 0.01059  0.22369  0.97079  Biso   1.000  C
  H1721    1.0000 0.72898  0.44800  0.97299  Biso   1.000  H
  C1278    1.0000 0.72369  0.52921  0.98941  Biso   1.000  C
  H1722    1.0000 0.72898  0.44800  0.97303  Biso   1.000  H
  H1723    1.0000 0.72903  0.44800  0.97299  Biso   1.000  H
  H1724    1.0000 0.72903  0.44800  0.97303  Biso   1.000  H
  C1279    1.0000 0.66730  0.46471  0.04058  Biso   1.000  C
  C1280    1.0000 0.66730  0.46471  0.04063  Biso   1.000  C
  C1281    1.0000 0.96649  0.69432  0.92570  Biso   1.000  C
  H1725    1.0000 0.94039  0.83361  0.92851  Biso   1.000  H
  H1726    1.0000 0.93070  0.83551  0.99379  Biso   1.000  H
  C1282    1.0000 0.99698  0.88243  0.96889  Biso   1.000  C
  H1727    1.0000 0.94043  0.83361  0.92851  Biso   1.000  H
  C1283    1.0000 0.99702  0.88243  0.96889  Biso   1.000  C
  H1728    1.0000 0.92169  0.83171  0.98080  Biso   1.000  H
  H1729    1.0000 0.95739  0.84470  0.92562  Biso   1.000  H
  H1730    1.0000 0.02081  0.91660  0.04509  Biso   1.000  H
  H1731    1.0000 0.96732  0.87651  0.05018  Biso   1.000  H
  H1732    1.0000 0.96732  0.87651  0.05022  Biso   1.000  H
  H1733    1.0000 0.97820  0.89492  0.02511  Biso   1.000  H
  H1734    1.0000 0.02180  0.89492  0.97489  Biso   1.000  H
  C1284    1.0000 0.19432  0.42570  0.96649  Biso   1.000  C
  H1735    1.0000 0.33361  0.42851  0.94039  Biso   1.000  H
  H1736    1.0000 0.33551  0.49379  0.93070  Biso   1.000  H
  C1285    1.0000 0.38238  0.46889  0.99698  Biso   1.000  C
  H1737    1.0000 0.33361  0.42851  0.94043  Biso   1.000  H
  C1286    1.0000 0.38238  0.46889  0.99702  Biso   1.000  C
  C1287    1.0000 0.38243  0.46889  0.99698  Biso   1.000  C
  C1288    1.0000 0.38243  0.46889  0.99702  Biso   1.000  C
  H1738    1.0000 0.33171  0.48080  0.92169  Biso   1.000  H
  H1739    1.0000 0.34470  0.42562  0.95739  Biso   1.000  H
  H1740    1.0000 0.39492  0.52511  0.97820  Biso   1.000  H
  H1741    1.0000 0.39492  0.47489  0.02180  Biso   1.000  H
  H1742    1.0000 0.41660  0.54509  0.02081  Biso   1.000  H
  H1743    1.0000 0.37651  0.55022  0.96732  Biso   1.000  H
  C1289    1.0000 0.00000  0.12912  0.00000  Biso   1.000  C
  H1744    1.0000 0.94039  0.16639  0.07149  Biso   1.000  H
  H1745    1.0000 0.93070  0.16449  0.00621  Biso   1.000  H
  C1290    1.0000 0.99698  0.11762  0.03111  Biso   1.000  C
  H1746    1.0000 0.94039  0.16639  0.07153  Biso   1.000  H
  H1747    1.0000 0.94043  0.16639  0.07149  Biso   1.000  H
  C1291    1.0000 0.99702  0.11762  0.03111  Biso   1.000  C
  H1748    1.0000 0.94043  0.16639  0.07153  Biso   1.000  H
  H1749    1.0000 0.92169  0.16829  0.01920  Biso   1.000  H
  H1750    1.0000 0.95739  0.15530  0.07438  Biso   1.000  H
  H1751    1.0000 0.97299  0.22898  0.94800  Biso   1.000  H
  H1752    1.0000 0.97303  0.22898  0.94800  Biso   1.000  H
  N235     1.0000 0.04749  0.26998  0.96182  Biso   1.000  N
  C1292    1.0000 0.04058  0.16730  0.96471  Biso   1.000  C
  C1293    1.0000 0.04063  0.16730  0.96471  Biso   1.000  C
  N236     1.0000 0.76998  0.53818  0.95251  Biso   1.000  N
  C1294    1.0000 0.66730  0.53529  0.95942  Biso   1.000  C
  N237     1.0000 0.77002  0.53818  0.95251  Biso   1.000  N
  H1753    1.0000 0.72898  0.55200  0.02701  Biso   1.000  H
  H1754    1.0000 0.72903  0.55200  0.02701  Biso   1.000  H
  C1295    1.0000 0.62912  0.50000  0.00000  Biso   1.000  C
  H1755    1.0000 0.66639  0.42851  0.05961  Biso   1.000  H
  H1756    1.0000 0.66449  0.49379  0.06930  Biso   1.000  H
  C1296    1.0000 0.61762  0.46889  0.00302  Biso   1.000  C
  H1757    1.0000 0.66829  0.48080  0.07831  Biso   1.000  H
  H1758    1.0000 0.65530  0.42562  0.04261  Biso   1.000  H
  C1297    1.0000 0.93248  0.64562  0.91341  Biso   1.000  C
  C1298    1.0000 0.93253  0.64562  0.91341  Biso   1.000  C
  H1759    1.0000 0.00008  0.69940  0.90609  Biso   1.000  H
  H1760    1.0000 0.00012  0.69940  0.90609  Biso   1.000  H
  H1761    1.0000 0.97919  0.91660  0.95491  Biso   1.000  H
  H1762    1.0000 0.03268  0.87651  0.94982  Biso   1.000  H
  H1763    1.0000 0.03272  0.87651  0.94982  Biso   1.000  H
  C1299    1.0000 0.14558  0.41341  0.93248  Biso   1.000  C
  C1300    1.0000 0.14558  0.41341  0.93253  Biso   1.000  C
  C1301    1.0000 0.14562  0.41341  0.93248  Biso   1.000  C
  C1302    1.0000 0.14562  0.41341  0.93253  Biso   1.000  C
  H1764    1.0000 0.19940  0.40609  0.00008  Biso   1.000  H
  H1765    1.0000 0.19940  0.40609  0.00012  Biso   1.000  H
  H1766    1.0000 0.41660  0.45491  0.97919  Biso   1.000  H
  H1767    1.0000 0.37651  0.44982  0.03268  Biso   1.000  H
  H1768    1.0000 0.37651  0.44982  0.03272  Biso   1.000  H
  H1769    1.0000 0.97820  0.10508  0.97489  Biso   1.000  H
  H1770    1.0000 0.02180  0.10508  0.02511  Biso   1.000  H
  H1771    1.0000 0.97919  0.08340  0.04509  Biso   1.000  H
  C1303    1.0000 0.00302  0.11762  0.96889  Biso   1.000  C
  H1772    1.0000 0.03268  0.12349  0.05018  Biso   1.000  H
  H1773    1.0000 0.03268  0.12349  0.05022  Biso   1.000  H
  H1774    1.0000 0.03272  0.12349  0.05018  Biso   1.000  H
  H1775    1.0000 0.03272  0.12349  0.05022  Biso   1.000  H
  C1304    1.0000 0.03351  0.30568  0.92570  Biso   1.000  C
  H1776    1.0000 0.05961  0.16639  0.92851  Biso   1.000  H
  H1777    1.0000 0.06930  0.16449  0.99379  Biso   1.000  H
  H1778    1.0000 0.07831  0.16829  0.98080  Biso   1.000  H
  H1779    1.0000 0.04261  0.15530  0.92562  Biso   1.000  H
  C1305    1.0000 0.80568  0.57430  0.96649  Biso   1.000  C
  C1306    1.0000 0.80573  0.57430  0.96649  Biso   1.000  C
  H1780    1.0000 0.66639  0.57149  0.94039  Biso   1.000  H
  H1781    1.0000 0.66449  0.50621  0.93070  Biso   1.000  H
  C1307    1.0000 0.61762  0.53111  0.99698  Biso   1.000  C
  H1782    1.0000 0.66639  0.57149  0.94043  Biso   1.000  H
  C1308    1.0000 0.61762  0.53111  0.99702  Biso   1.000  C
  H1783    1.0000 0.66829  0.51920  0.92169  Biso   1.000  H
  H1784    1.0000 0.65530  0.57442  0.95739  Biso   1.000  H
  H1785    1.0000 0.60512  0.47489  0.97820  Biso   1.000  H
  H1786    1.0000 0.60512  0.52511  0.02180  Biso   1.000  H
  H1787    1.0000 0.62349  0.44982  0.96732  Biso   1.000  H
  H1788    1.0000 0.58340  0.45491  0.02081  Biso   1.000  H
  C1309    1.0000 0.88702  0.63251  0.94539  Biso   1.000  C
  C1310    1.0000 0.94539  0.61302  0.86749  Biso   1.000  C
  C1311    1.0000 0.13251  0.44539  0.88702  Biso   1.000  C
  C1312    1.0000 0.11298  0.36749  0.94539  Biso   1.000  C
  C1313    1.0000 0.11302  0.36749  0.94539  Biso   1.000  C
  H1789    1.0000 0.96732  0.12349  0.94982  Biso   1.000  H
  H1790    1.0000 0.02081  0.08340  0.95491  Biso   1.000  H
  C1314    1.0000 0.06752  0.35442  0.91341  Biso   1.000  C
  H1791    1.0000 0.99992  0.30060  0.90609  Biso   1.000  H
  C1315    1.0000 0.85442  0.58659  0.93248  Biso   1.000  C
  C1316    1.0000 0.85442  0.58659  0.93253  Biso   1.000  C
  H1792    1.0000 0.80060  0.59391  0.00008  Biso   1.000  H
  H1793    1.0000 0.80060  0.59391  0.00012  Biso   1.000  H
  H1794    1.0000 0.58340  0.54509  0.97919  Biso   1.000  H
  H1795    1.0000 0.62349  0.55022  0.03268  Biso   1.000  H
  H1796    1.0000 0.62349  0.55022  0.03272  Biso   1.000  H
  H1797    1.0000 0.87792  0.65481  0.97650  Biso   1.000  H
  H1798    1.0000 0.97650  0.62212  0.84519  Biso   1.000  H
  C1317    1.0000 0.91341  0.56752  0.85442  Biso   1.000  C
  H1799    1.0000 0.15481  0.47650  0.87792  Biso   1.000  H
  C1318    1.0000 0.08659  0.43248  0.85442  Biso   1.000  C
  C1319    1.0000 0.08663  0.43248  0.85442  Biso   1.000  C
  H1800    1.0000 0.12208  0.34519  0.97650  Biso   1.000  H
  H1801    1.0000 0.12212  0.34519  0.97650  Biso   1.000  H
  C1320    1.0000 0.05461  0.38702  0.86749  Biso   1.000  C
  C1321    1.0000 0.86749  0.55461  0.88702  Biso   1.000  C
  C1322    1.0000 0.92570  0.53351  0.80568  Biso   1.000  C
  C1323    1.0000 0.92570  0.53351  0.80573  Biso   1.000  C
  C1324    1.0000 0.07430  0.46649  0.80568  Biso   1.000  C
  C1325    1.0000 0.07430  0.46649  0.80573  Biso   1.000  C
  H1802    1.0000 0.02350  0.37792  0.84519  Biso   1.000  H
  H1803    1.0000 0.84519  0.52350  0.87792  Biso   1.000  H
  N238     1.0000 0.96182  0.54749  0.76998  Biso   1.000  N
  H1804    1.0000 0.90609  0.49992  0.80060  Biso   1.000  H
  N239     1.0000 0.96182  0.54749  0.77002  Biso   1.000  N
  N240     1.0000 0.03818  0.45251  0.76998  Biso   1.000  N
  H1805    1.0000 0.09391  0.50012  0.80060  Biso   1.000  H
  N241     1.0000 0.03818  0.45251  0.77002  Biso   1.000  N
  N242     1.0000 0.03823  0.45251  0.76998  Biso   1.000  N
  N243     1.0000 0.03823  0.45251  0.77002  Biso   1.000  N
  C1326    1.0000 0.97079  0.51059  0.72369  Biso   1.000  C
  C1327    1.0000 0.02921  0.48941  0.72369  Biso   1.000  C
  H1806    1.0000 0.94800  0.47299  0.72898  Biso   1.000  H
  C1328    1.0000 0.96471  0.54058  0.66730  Biso   1.000  C
  H1807    1.0000 0.94800  0.47299  0.72903  Biso   1.000  H
  H1808    1.0000 0.05200  0.52701  0.72898  Biso   1.000  H
  C1329    1.0000 0.03529  0.45942  0.66730  Biso   1.000  C
  H1809    1.0000 0.05200  0.52701  0.72903  Biso   1.000  H
  H1810    1.0000 0.92851  0.55961  0.66639  Biso   1.000  H
  H1811    1.0000 0.99379  0.56930  0.66449  Biso   1.000  H
  C1330    1.0000 0.96889  0.50302  0.61762  Biso   1.000  C
  H1812    1.0000 0.98080  0.57831  0.66829  Biso   1.000  H
  H1813    1.0000 0.92562  0.54261  0.65530  Biso   1.000  H
  C1331    1.0000 0.00000  0.50000  0.62912  Biso   1.000  C
  H1814    1.0000 0.07149  0.44039  0.66639  Biso   1.000  H
  H1815    1.0000 0.00621  0.43070  0.66449  Biso   1.000  H
  C1332    1.0000 0.03111  0.49702  0.61762  Biso   1.000  C
  H1816    1.0000 0.07153  0.44039  0.66639  Biso   1.000  H
  H1817    1.0000 0.01920  0.42169  0.66829  Biso   1.000  H
  H1818    1.0000 0.07438  0.45739  0.65530  Biso   1.000  H
  H1819    1.0000 0.95491  0.52081  0.58340  Biso   1.000  H
  H1820    1.0000 0.94982  0.46732  0.62349  Biso   1.000  H
  H1821    1.0000 0.97489  0.47820  0.60512  Biso   1.000  H
  H1822    1.0000 0.02511  0.52180  0.60512  Biso   1.000  H
  H1823    1.0000 0.04509  0.47919  0.58340  Biso   1.000  H
  H1824    1.0000 0.05018  0.53272  0.62349  Biso   1.000  H
  H1825    1.0000 0.05022  0.53272  0.62349  Biso   1.000  H
  C1333    1.0000 0.03111  0.50302  0.38238  Biso   1.000  C
  C1334    1.0000 0.03529  0.54058  0.33270  Biso   1.000  C
  H1826    1.0000 0.02511  0.47820  0.39492  Biso   1.000  H
  H1827    1.0000 0.04509  0.52081  0.41660  Biso   1.000  H
  C1335    1.0000 0.96889  0.49702  0.38238  Biso   1.000  C
  C1336    1.0000 0.96889  0.49702  0.38243  Biso   1.000  C
  H1828    1.0000 0.05018  0.46732  0.37651  Biso   1.000  H
  H1829    1.0000 0.05022  0.46732  0.37651  Biso   1.000  H
  C1337    1.0000 0.02921  0.51059  0.27631  Biso   1.000  C
  H1830    1.0000 0.00621  0.56930  0.33551  Biso   1.000  H
  C1338    1.0000 0.00000  0.50000  0.37088  Biso   1.000  C
  H1831    1.0000 0.07149  0.55961  0.33361  Biso   1.000  H
  C1339    1.0000 0.03111  0.50302  0.38243  Biso   1.000  C
  H1832    1.0000 0.07153  0.55961  0.33361  Biso   1.000  H
  H1833    1.0000 0.01920  0.57831  0.33171  Biso   1.000  H
  H1834    1.0000 0.07438  0.54261  0.34470  Biso   1.000  H
  C1340    1.0000 0.96471  0.45942  0.33270  Biso   1.000  C
  H1835    1.0000 0.97489  0.52180  0.39492  Biso   1.000  H
  H1836    1.0000 0.95491  0.47919  0.41660  Biso   1.000  H
  H1837    1.0000 0.94982  0.53272  0.37651  Biso   1.000  H
  N244     1.0000 0.03818  0.54749  0.23002  Biso   1.000  N
  N245     1.0000 0.03823  0.54749  0.23002  Biso   1.000  N
  H1838    1.0000 0.05200  0.47299  0.27102  Biso   1.000  H
  C1341    1.0000 0.97079  0.48941  0.27631  Biso   1.000  C
  H1839    1.0000 0.92851  0.44039  0.33361  Biso   1.000  H
  H1840    1.0000 0.99379  0.43070  0.33551  Biso   1.000  H
  H1841    1.0000 0.98080  0.42169  0.33171  Biso   1.000  H
  H1842    1.0000 0.92562  0.45739  0.34470  Biso   1.000  H
  C1342    1.0000 0.07430  0.53351  0.19432  Biso   1.000  C
  N246     1.0000 0.96182  0.45251  0.23002  Biso   1.000  N
  H1843    1.0000 0.94800  0.52701  0.27102  Biso   1.000  H
  H1844    1.0000 0.09391  0.49992  0.19940  Biso   1.000  H
  C1343    1.0000 0.08659  0.56752  0.14558  Biso   1.000  C
  C1344    1.0000 0.08659  0.56752  0.14562  Biso   1.000  C
  C1345    1.0000 0.08663  0.56752  0.14558  Biso   1.000  C
  C1346    1.0000 0.08663  0.56752  0.14562  Biso   1.000  C
  C1347    1.0000 0.92570  0.46649  0.19432  Biso   1.000  C
  C1348    1.0000 0.05461  0.61302  0.13251  Biso   1.000  C
  C1349    1.0000 0.13251  0.55461  0.11298  Biso   1.000  C
  C1350    1.0000 0.13251  0.55461  0.11302  Biso   1.000  C
  H1845    1.0000 0.90609  0.50012  0.19940  Biso   1.000  H
  C1351    1.0000 0.91341  0.43248  0.14558  Biso   1.000  C
  C1352    1.0000 0.91341  0.43248  0.14562  Biso   1.000  C
  H1846    1.0000 0.02350  0.62212  0.15481  Biso   1.000  H
  C1353    1.0000 0.06752  0.64562  0.08659  Biso   1.000  C
  C1354    1.0000 0.06752  0.64562  0.08663  Biso   1.000  C
  H1847    1.0000 0.15481  0.52350  0.12208  Biso   1.000  H
  C1355    1.0000 0.14558  0.58659  0.06752  Biso   1.000  C
  H1848    1.0000 0.15481  0.52350  0.12212  Biso   1.000  H
  C1356    1.0000 0.14562  0.58659  0.06752  Biso   1.000  C
  C1357    1.0000 0.94539  0.38702  0.13251  Biso   1.000  C
  C1358    1.0000 0.86749  0.44539  0.11298  Biso   1.000  C
  C1359    1.0000 0.86749  0.44539  0.11302  Biso   1.000  C
  C1360    1.0000 0.03351  0.69432  0.07430  Biso   1.000  C
  C1361    1.0000 0.11298  0.63251  0.05461  Biso   1.000  C
  C1362    1.0000 0.11302  0.63251  0.05461  Biso   1.000  C
  C1363    1.0000 0.19432  0.57430  0.03351  Biso   1.000  C
  C1364    1.0000 0.93248  0.35442  0.08659  Biso   1.000  C
  H1849    1.0000 0.97650  0.37792  0.15481  Biso   1.000  H
  C1365    1.0000 0.93248  0.35442  0.08663  Biso   1.000  C
  C1366    1.0000 0.93253  0.35442  0.08659  Biso   1.000  C
  C1367    1.0000 0.93253  0.35442  0.08663  Biso   1.000  C
  H1850    1.0000 0.84519  0.47650  0.12208  Biso   1.000  H
  C1368    1.0000 0.85442  0.41341  0.06752  Biso   1.000  C
  H1851    1.0000 0.84519  0.47650  0.12212  Biso   1.000  H
  H1852    1.0000 0.99992  0.69940  0.09391  Biso   1.000  H
  N247     1.0000 0.04749  0.73002  0.03818  Biso   1.000  N
  N248     1.0000 0.04749  0.73002  0.03823  Biso   1.000  N
  H1853    1.0000 0.12208  0.65481  0.02350  Biso   1.000  H
  H1854    1.0000 0.12212  0.65481  0.02350  Biso   1.000  H
  N249     1.0000 0.23002  0.53818  0.04749  Biso   1.000  N
  H1855    1.0000 0.19940  0.59391  0.99992  Biso   1.000  H
  C1369    1.0000 0.96649  0.30568  0.07430  Biso   1.000  C
  C1370    1.0000 0.88702  0.36749  0.05461  Biso   1.000  C
  C1371    1.0000 0.80568  0.42570  0.03351  Biso   1.000  C
  C1372    1.0000 0.80573  0.42570  0.03351  Biso   1.000  C
  C1373    1.0000 0.01059  0.77631  0.02921  Biso   1.000  C
  C1374    1.0000 0.27631  0.52921  0.01059  Biso   1.000  C
  N250     1.0000 0.95251  0.26998  0.03818  Biso   1.000  N
  N251     1.0000 0.95251  0.26998  0.03823  Biso   1.000  N
  H1856    1.0000 0.00008  0.30060  0.09391  Biso   1.000  H
  H1857    1.0000 0.00012  0.30060  0.09391  Biso   1.000  H
  H1858    1.0000 0.87792  0.34519  0.02350  Biso   1.000  H
  H1859    1.0000 0.80060  0.40609  0.99992  Biso   1.000  H
  N252     1.0000 0.76998  0.46182  0.04749  Biso   1.000  N
  N253     1.0000 0.77002  0.46182  0.04749  Biso   1.000  N
  C1375    1.0000 0.98941  0.77631  0.97079  Biso   1.000  C
  H1860    1.0000 0.97299  0.77102  0.05200  Biso   1.000  H
  H1861    1.0000 0.97303  0.77102  0.05200  Biso   1.000  H
  C1376    1.0000 0.04058  0.83270  0.03529  Biso   1.000  C
  C1377    1.0000 0.04063  0.83270  0.03529  Biso   1.000  C
  H1862    1.0000 0.27102  0.55200  0.97299  Biso   1.000  H
  C1378    1.0000 0.27631  0.47079  0.98941  Biso   1.000  C
  H1863    1.0000 0.27102  0.55200  0.97303  Biso   1.000  H
  C1379    1.0000 0.33270  0.53529  0.04058  Biso   1.000  C
  C1380    1.0000 0.33270  0.53529  0.04063  Biso   1.000  C
  C1381    1.0000 0.98941  0.22369  0.02921  Biso   1.000  C
  C1382    1.0000 0.72369  0.47079  0.01059  Biso   1.000  C
  N254     1.0000 0.95251  0.73002  0.96182  Biso   1.000  N
  C1383    1.0000 0.95942  0.83270  0.96471  Biso   1.000  C
  H1864    1.0000 0.02701  0.77102  0.94800  Biso   1.000  H
  H1865    1.0000 0.06930  0.83551  0.00621  Biso   1.000  H
  C1384    1.0000 0.00302  0.88243  0.03111  Biso   1.000  C
  C1385    1.0000 0.00000  0.87093  0.00000  Biso   1.000  C
  H1866    1.0000 0.05961  0.83361  0.07149  Biso   1.000  H
  H1867    1.0000 0.05961  0.83361  0.07153  Biso   1.000  H
  H1868    1.0000 0.07831  0.83171  0.01920  Biso   1.000  H
  H1869    1.0000 0.04261  0.84470  0.07438  Biso   1.000  H
  H1870    1.0000 0.27102  0.44800  0.02701  Biso   1.000  H
  N255     1.0000 0.23002  0.46182  0.95251  Biso   1.000  N
  C1386    1.0000 0.33270  0.46471  0.95942  Biso   1.000  C
  H1871    1.0000 0.33361  0.57149  0.05961  Biso   1.000  H
  H1872    1.0000 0.33551  0.50621  0.06930  Biso   1.000  H
  C1387    1.0000 0.37088  0.50000  0.00000  Biso   1.000  C
  C1388    1.0000 0.38238  0.53111  0.00302  Biso   1.000  C
  C1389    1.0000 0.38243  0.53111  0.00302  Biso   1.000  C
  H1873    1.0000 0.33171  0.51920  0.07831  Biso   1.000  H
  H1874    1.0000 0.34470  0.57442  0.04261  Biso   1.000  H
  H1875    1.0000 0.02701  0.22898  0.05200  Biso   1.000  H
  C1390    1.0000 0.95942  0.16730  0.03529  Biso   1.000  C
  C1391    1.0000 0.01059  0.22369  0.97079  Biso   1.000  C
  H1876    1.0000 0.72898  0.44800  0.97299  Biso   1.000  H
  C1392    1.0000 0.72369  0.52921  0.98941  Biso   1.000  C
  H1877    1.0000 0.72898  0.44800  0.97303  Biso   1.000  H
  H1878    1.0000 0.72903  0.44800  0.97299  Biso   1.000  H
  H1879    1.0000 0.72903  0.44800  0.97303  Biso   1.000  H
  C1393    1.0000 0.66730  0.46471  0.04058  Biso   1.000  C
  C1394    1.0000 0.66730  0.46471  0.04063  Biso   1.000  C
  C1395    1.0000 0.96649  0.69432  0.92570  Biso   1.000  C
  H1880    1.0000 0.94039  0.83361  0.92851  Biso   1.000  H
  H1881    1.0000 0.93070  0.83551  0.99379  Biso   1.000  H
  C1396    1.0000 0.99698  0.88243  0.96889  Biso   1.000  C
  H1882    1.0000 0.94043  0.83361  0.92851  Biso   1.000  H
  C1397    1.0000 0.99702  0.88243  0.96889  Biso   1.000  C
  H1883    1.0000 0.92169  0.83171  0.98080  Biso   1.000  H
  H1884    1.0000 0.95739  0.84470  0.92562  Biso   1.000  H
  H1885    1.0000 0.02081  0.91660  0.04509  Biso   1.000  H
  H1886    1.0000 0.96732  0.87651  0.05018  Biso   1.000  H
  H1887    1.0000 0.96732  0.87651  0.05022  Biso   1.000  H
  H1888    1.0000 0.97820  0.89492  0.02511  Biso   1.000  H
  H1889    1.0000 0.02180  0.89492  0.97489  Biso   1.000  H
  C1398    1.0000 0.19432  0.42570  0.96649  Biso   1.000  C
  H1890    1.0000 0.33361  0.42851  0.94039  Biso   1.000  H
  H1891    1.0000 0.33551  0.49379  0.93070  Biso   1.000  H
  C1399    1.0000 0.38238  0.46889  0.99698  Biso   1.000  C
  H1892    1.0000 0.33361  0.42851  0.94043  Biso   1.000  H
  C1400    1.0000 0.38238  0.46889  0.99702  Biso   1.000  C
  C1401    1.0000 0.38243  0.46889  0.99698  Biso   1.000  C
  C1402    1.0000 0.38243  0.46889  0.99702  Biso   1.000  C
  H1893    1.0000 0.33171  0.48080  0.92169  Biso   1.000  H
  H1894    1.0000 0.34470  0.42562  0.95739  Biso   1.000  H
  H1895    1.0000 0.39492  0.52511  0.97820  Biso   1.000  H
  H1896    1.0000 0.39492  0.47489  0.02180  Biso   1.000  H
  H1897    1.0000 0.41660  0.54509  0.02081  Biso   1.000  H
  H1898    1.0000 0.37651  0.55022  0.96732  Biso   1.000  H
  C1403    1.0000 0.00000  0.12912  0.00000  Biso   1.000  C
  H1899    1.0000 0.94039  0.16639  0.07149  Biso   1.000  H
  H1900    1.0000 0.93070  0.16449  0.00621  Biso   1.000  H
  C1404    1.0000 0.99698  0.11762  0.03111  Biso   1.000  C
  H1901    1.0000 0.94039  0.16639  0.07153  Biso   1.000  H
  H1902    1.0000 0.94043  0.16639  0.07149  Biso   1.000  H
  C1405    1.0000 0.99702  0.11762  0.03111  Biso   1.000  C
  H1903    1.0000 0.94043  0.16639  0.07153  Biso   1.000  H
  H1904    1.0000 0.92169  0.16829  0.01920  Biso   1.000  H
  H1905    1.0000 0.95739  0.15530  0.07438  Biso   1.000  H
  H1906    1.0000 0.97299  0.22898  0.94800  Biso   1.000  H
  H1907    1.0000 0.97303  0.22898  0.94800  Biso   1.000  H
  N256     1.0000 0.04749  0.26998  0.96182  Biso   1.000  N
  C1406    1.0000 0.04058  0.16730  0.96471  Biso   1.000  C
  C1407    1.0000 0.04063  0.16730  0.96471  Biso   1.000  C
  N257     1.0000 0.76998  0.53818  0.95251  Biso   1.000  N
  C1408    1.0000 0.66730  0.53529  0.95942  Biso   1.000  C
  N258     1.0000 0.77002  0.53818  0.95251  Biso   1.000  N
  H1908    1.0000 0.72898  0.55200  0.02701  Biso   1.000  H
  H1909    1.0000 0.72903  0.55200  0.02701  Biso   1.000  H
  C1409    1.0000 0.62912  0.50000  0.00000  Biso   1.000  C
  H1910    1.0000 0.66639  0.42851  0.05961  Biso   1.000  H
  H1911    1.0000 0.66449  0.49379  0.06930  Biso   1.000  H
  C1410    1.0000 0.61762  0.46889  0.00302  Biso   1.000  C
  H1912    1.0000 0.66829  0.48080  0.07831  Biso   1.000  H
  H1913    1.0000 0.65530  0.42562  0.04261  Biso   1.000  H
  C1411    1.0000 0.93248  0.64562  0.91341  Biso   1.000  C
  C1412    1.0000 0.93253  0.64562  0.91341  Biso   1.000  C
  H1914    1.0000 0.00008  0.69940  0.90609  Biso   1.000  H
  H1915    1.0000 0.00012  0.69940  0.90609  Biso   1.000  H
  H1916    1.0000 0.97919  0.91660  0.95491  Biso   1.000  H
  H1917    1.0000 0.03268  0.87651  0.94982  Biso   1.000  H
  H1918    1.0000 0.03272  0.87651  0.94982  Biso   1.000  H
  C1413    1.0000 0.14558  0.41341  0.93248  Biso   1.000  C
  C1414    1.0000 0.14558  0.41341  0.93253  Biso   1.000  C
  C1415    1.0000 0.14562  0.41341  0.93248  Biso   1.000  C
  C1416    1.0000 0.14562  0.41341  0.93253  Biso   1.000  C
  H1919    1.0000 0.19940  0.40609  0.00008  Biso   1.000  H
  H1920    1.0000 0.19940  0.40609  0.00012  Biso   1.000  H
  H1921    1.0000 0.41660  0.45491  0.97919  Biso   1.000  H
  H1922    1.0000 0.37651  0.44982  0.03268  Biso   1.000  H
  H1923    1.0000 0.37651  0.44982  0.03272  Biso   1.000  H
  H1924    1.0000 0.97820  0.10508  0.97489  Biso   1.000  H
  H1925    1.0000 0.02180  0.10508  0.02511  Biso   1.000  H
  H1926    1.0000 0.97919  0.08340  0.04509  Biso   1.000  H
  C1417    1.0000 0.00302  0.11762  0.96889  Biso   1.000  C
  H1927    1.0000 0.03268  0.12349  0.05018  Biso   1.000  H
  H1928    1.0000 0.03268  0.12349  0.05022  Biso   1.000  H
  H1929    1.0000 0.03272  0.12349  0.05018  Biso   1.000  H
  H1930    1.0000 0.03272  0.12349  0.05022  Biso   1.000  H
  C1418    1.0000 0.03351  0.30568  0.92570  Biso   1.000  C
  H1931    1.0000 0.05961  0.16639  0.92851  Biso   1.000  H
  H1932    1.0000 0.06930  0.16449  0.99379  Biso   1.000  H
  H1933    1.0000 0.07831  0.16829  0.98080  Biso   1.000  H
  H1934    1.0000 0.04261  0.15530  0.92562  Biso   1.000  H
  C1419    1.0000 0.80568  0.57430  0.96649  Biso   1.000  C
  C1420    1.0000 0.80573  0.57430  0.96649  Biso   1.000  C
  H1935    1.0000 0.66639  0.57149  0.94039  Biso   1.000  H
  H1936    1.0000 0.66449  0.50621  0.93070  Biso   1.000  H
  C1421    1.0000 0.61762  0.53111  0.99698  Biso   1.000  C
  H1937    1.0000 0.66639  0.57149  0.94043  Biso   1.000  H
  C1422    1.0000 0.61762  0.53111  0.99702  Biso   1.000  C
  H1938    1.0000 0.66829  0.51920  0.92169  Biso   1.000  H
  H1939    1.0000 0.65530  0.57442  0.95739  Biso   1.000  H
  H1940    1.0000 0.60512  0.47489  0.97820  Biso   1.000  H
  H1941    1.0000 0.60512  0.52511  0.02180  Biso   1.000  H
  H1942    1.0000 0.62349  0.44982  0.96732  Biso   1.000  H
  H1943    1.0000 0.58340  0.45491  0.02081  Biso   1.000  H
  C1423    1.0000 0.88702  0.63251  0.94539  Biso   1.000  C
  C1424    1.0000 0.94539  0.61302  0.86749  Biso   1.000  C
  C1425    1.0000 0.13251  0.44539  0.88702  Biso   1.000  C
  C1426    1.0000 0.11298  0.36749  0.94539  Biso   1.000  C
  C1427    1.0000 0.11302  0.36749  0.94539  Biso   1.000  C
  H1944    1.0000 0.96732  0.12349  0.94982  Biso   1.000  H
  H1945    1.0000 0.02081  0.08340  0.95491  Biso   1.000  H
  C1428    1.0000 0.06752  0.35442  0.91341  Biso   1.000  C
  H1946    1.0000 0.99992  0.30060  0.90609  Biso   1.000  H
  C1429    1.0000 0.85442  0.58659  0.93248  Biso   1.000  C
  C1430    1.0000 0.85442  0.58659  0.93253  Biso   1.000  C
  H1947    1.0000 0.80060  0.59391  0.00008  Biso   1.000  H
  H1948    1.0000 0.80060  0.59391  0.00012  Biso   1.000  H
  H1949    1.0000 0.58340  0.54509  0.97919  Biso   1.000  H
  H1950    1.0000 0.62349  0.55022  0.03268  Biso   1.000  H
  H1951    1.0000 0.62349  0.55022  0.03272  Biso   1.000  H
  H1952    1.0000 0.87792  0.65481  0.97650  Biso   1.000  H
  H1953    1.0000 0.97650  0.62212  0.84519  Biso   1.000  H
  C1431    1.0000 0.91341  0.56752  0.85442  Biso   1.000  C
  H1954    1.0000 0.15481  0.47650  0.87792  Biso   1.000  H
  C1432    1.0000 0.08659  0.43248  0.85442  Biso   1.000  C
  C1433    1.0000 0.08663  0.43248  0.85442  Biso   1.000  C
  H1955    1.0000 0.12208  0.34519  0.97650  Biso   1.000  H
  H1956    1.0000 0.12212  0.34519  0.97650  Biso   1.000  H
  C1434    1.0000 0.05461  0.38702  0.86749  Biso   1.000  C
  C1435    1.0000 0.86749  0.55461  0.88702  Biso   1.000  C
  C1436    1.0000 0.92570  0.53351  0.80568  Biso   1.000  C
  C1437    1.0000 0.92570  0.53351  0.80573  Biso   1.000  C
  C1438    1.0000 0.07430  0.46649  0.80568  Biso   1.000  C
  C1439    1.0000 0.07430  0.46649  0.80573  Biso   1.000  C
  H1957    1.0000 0.02350  0.37792  0.84519  Biso   1.000  H
  H1958    1.0000 0.84519  0.52350  0.87792  Biso   1.000  H
  N259     1.0000 0.96182  0.54749  0.76998  Biso   1.000  N
  H1959    1.0000 0.90609  0.49992  0.80060  Biso   1.000  H
  N260     1.0000 0.96182  0.54749  0.77002  Biso   1.000  N
  N261     1.0000 0.03818  0.45251  0.76998  Biso   1.000  N
  H1960    1.0000 0.09391  0.50012  0.80060  Biso   1.000  H
  N262     1.0000 0.03818  0.45251  0.77002  Biso   1.000  N
  N263     1.0000 0.03823  0.45251  0.76998  Biso   1.000  N
  N264     1.0000 0.03823  0.45251  0.77002  Biso   1.000  N
  C1440    1.0000 0.97079  0.51059  0.72369  Biso   1.000  C
  C1441    1.0000 0.02921  0.48941  0.72369  Biso   1.000  C
  H1961    1.0000 0.94800  0.47299  0.72898  Biso   1.000  H
  C1442    1.0000 0.96471  0.54058  0.66730  Biso   1.000  C
  H1962    1.0000 0.94800  0.47299  0.72903  Biso   1.000  H
  H1963    1.0000 0.05200  0.52701  0.72898  Biso   1.000  H
  C1443    1.0000 0.03529  0.45942  0.66730  Biso   1.000  C
  H1964    1.0000 0.05200  0.52701  0.72903  Biso   1.000  H
  H1965    1.0000 0.92851  0.55961  0.66639  Biso   1.000  H
  H1966    1.0000 0.99379  0.56930  0.66449  Biso   1.000  H
  C1444    1.0000 0.96889  0.50302  0.61762  Biso   1.000  C
  H1967    1.0000 0.98080  0.57831  0.66829  Biso   1.000  H
  H1968    1.0000 0.92562  0.54261  0.65530  Biso   1.000  H
  C1445    1.0000 0.00000  0.50000  0.62912  Biso   1.000  C
  H1969    1.0000 0.07149  0.44039  0.66639  Biso   1.000  H
  H1970    1.0000 0.00621  0.43070  0.66449  Biso   1.000  H
  C1446    1.0000 0.03111  0.49702  0.61762  Biso   1.000  C
  H1971    1.0000 0.07153  0.44039  0.66639  Biso   1.000  H
  H1972    1.0000 0.01920  0.42169  0.66829  Biso   1.000  H
  H1973    1.0000 0.07438  0.45739  0.65530  Biso   1.000  H
  H1974    1.0000 0.95491  0.52081  0.58340  Biso   1.000  H
  H1975    1.0000 0.94982  0.46732  0.62349  Biso   1.000  H
  H1976    1.0000 0.97489  0.47820  0.60512  Biso   1.000  H
  H1977    1.0000 0.02511  0.52180  0.60512  Biso   1.000  H
  H1978    1.0000 0.04509  0.47919  0.58340  Biso   1.000  H
  H1979    1.0000 0.05018  0.53272  0.62349  Biso   1.000  H
  H1980    1.0000 0.05022  0.53272  0.62349  Biso   1.000  H
