data_image0
_cell_length_a       11.892
_cell_length_b       15.199
_cell_length_c       14.957
_cell_angle_alpha    90
_cell_angle_beta     90.97
_cell_angle_gamma    90

_symmetry_space_group_name_H-M    "P 1"
_symmetry_int_tables_number       1

loop_
  _symmetry_equiv_pos_as_xyz
  'x, y, z'

loop_
  _atom_site_label
  _atom_site_occupancy
  _atom_site_fract_x
  _atom_site_fract_y
  _atom_site_fract_z
  _atom_site_thermal_displace_type
  _atom_site_B_iso_or_equiv
  _atom_site_type_symbol
  N1       1.0000 0.19145  0.64096  0.20408  Biso   1.000  N
  C1       1.0000 0.21155  0.58280  0.27951  Biso   1.000  C
  C2       1.0000 0.25103  0.63807  0.12738  Biso   1.000  C
  C3       1.0000 0.12094  0.71801  0.21023  Biso   1.000  C
  C4       1.0000 0.25103  0.63807  0.12732  Biso   1.000  C
  N2       1.0000 0.12152  0.51951  0.29255  Biso   1.000  N
  N3       1.0000 0.12143  0.51951  0.29255  Biso   1.000  N
  H1       1.0000 0.22071  0.61866  0.33441  Biso   1.000  H
  H2       1.0000 0.28275  0.55056  0.27028  Biso   1.000  H
  N4       1.0000 0.19136  0.64096  0.20408  Biso   1.000  N
  N5       1.0000 0.22248  0.71169  0.07770  Biso   1.000  N
  O1       1.0000 0.31944  0.58260  0.10565  Biso   1.000  O
  O2       1.0000 0.31944  0.58260  0.10558  Biso   1.000  O
  N6       1.0000 0.00210  0.69820  0.20903  Biso   1.000  N
  H3       1.0000 0.14282  0.75590  0.26232  Biso   1.000  H
  C5       1.0000 0.13853  0.76545  0.12003  Biso   1.000  C
  C6       1.0000 0.14459  0.43154  0.28619  Biso   1.000  C
  C7       1.0000 0.14467  0.43154  0.28619  Biso   1.000  C
  C8       1.0000 0.02623  0.53517  0.35106  Biso   1.000  C
  C9       1.0000 0.28526  0.74130  0.00140  Biso   1.000  C
  C10      1.0000 0.94176  0.67879  0.29007  Biso   1.000  C
  C11      1.0000 0.94168  0.67879  0.29007  Biso   1.000  C
  C12      1.0000 0.94849  0.72728  0.13220  Biso   1.000  C
  H4       1.0000 0.16504  0.82729  0.12879  Biso   1.000  H
  N7       1.0000 0.02830  0.76209  0.07703  Biso   1.000  N
  N8       1.0000 0.02830  0.76209  0.07696  Biso   1.000  N
  N9       1.0000 0.05810  0.38470  0.32351  Biso   1.000  N
  O3       1.0000 0.22832  0.39937  0.25370  Biso   1.000  O
  O4       1.0000 0.22824  0.39937  0.25370  Biso   1.000  O
  C13      1.0000 0.97215  0.44240  0.35875  Biso   1.000  C
  H5       1.0000 0.05113  0.55846  0.41070  Biso   1.000  H
  N10      1.0000 0.93509  0.58701  0.31234  Biso   1.000  N
  H6       1.0000 0.30173  0.80479  0.00869  Biso   1.000  H
  H7       1.0000 0.35816  0.70978  0.00087  Biso   1.000  H
  H8       1.0000 0.35824  0.70978  0.00087  Biso   1.000  H
  H9       1.0000 0.30165  0.80479  0.00869  Biso   1.000  H
  N11      1.0000 0.22887  0.72814  0.91615  Biso   1.000  N
  H10      1.0000 0.97883  0.71031  0.34049  Biso   1.000  H
  H11      1.0000 0.86435  0.70228  0.28359  Biso   1.000  H
  O5       1.0000 0.84749  0.72261  0.11575  Biso   1.000  O
  C14      1.0000 0.00100  0.81532  0.99940  Biso   1.000  C
  C15      1.0000 0.04644  0.29147  0.30886  Biso   1.000  C
  C16      1.0000 0.04643  0.29147  0.30880  Biso   1.000  C
  H12      1.0000 0.95458  0.42759  0.42207  Biso   1.000  H
  N12      1.0000 0.87024  0.45023  0.30371  Biso   1.000  N
  H13      1.0000 0.95450  0.42759  0.42207  Biso   1.000  H
  C17      1.0000 0.84695  0.53635  0.28399  Biso   1.000  C
  C18      1.0000 0.84695  0.53635  0.28392  Biso   1.000  C
  C19      1.0000 0.25594  0.66116  0.86011  Biso   1.000  C
  C20      1.0000 0.14481  0.78650  0.87777  Biso   1.000  C
  C21      1.0000 0.14481  0.78650  0.87770  Biso   1.000  C
  C22      1.0000 0.14472  0.78650  0.87777  Biso   1.000  C
  C23      1.0000 0.14472  0.78650  0.87770  Biso   1.000  C
  H14      1.0000 0.03864  0.87308  0.00588  Biso   1.000  H
  H15      1.0000 0.03855  0.87308  0.00588  Biso   1.000  H
  H16      1.0000 0.91889  0.82598  0.99759  Biso   1.000  H
  N13      1.0000 0.03359  0.77630  0.91501  Biso   1.000  N
  N14      1.0000 0.98933  0.26765  0.22568  Biso   1.000  N
  H17      1.0000 0.12221  0.26462  0.30953  Biso   1.000  H
  H18      1.0000 0.00437  0.26587  0.35921  Biso   1.000  H
  H19      1.0000 0.12221  0.26462  0.30946  Biso   1.000  H
  H20      1.0000 0.00428  0.26587  0.35921  Biso   1.000  H
  C24      1.0000 0.78500  0.38253  0.29709  Biso   1.000  C
  C25      1.0000 0.78508  0.38253  0.29709  Biso   1.000  C
  O6       1.0000 0.76088  0.56273  0.24641  Biso   1.000  O
  N15      1.0000 0.20135  0.67360  0.78054  Biso   1.000  N
  O7       1.0000 0.32140  0.60083  0.87797  Biso   1.000  O
  O8       1.0000 0.32132  0.60083  0.87797  Biso   1.000  O
  C26      1.0000 0.13004  0.75097  0.78074  Biso   1.000  C
  H21      1.0000 0.17014  0.84927  0.87857  Biso   1.000  H
  C27      1.0000 0.95504  0.75301  0.85109  Biso   1.000  C
  C28      1.0000 0.04505  0.24692  0.14891  Biso   1.000  C
  C29      1.0000 0.04496  0.24692  0.14891  Biso   1.000  C
  C30      1.0000 0.87004  0.24903  0.21926  Biso   1.000  C
  N16      1.0000 0.79874  0.32640  0.21946  Biso   1.000  N
  N17      1.0000 0.79873  0.32640  0.21939  Biso   1.000  N
  H22      1.0000 0.78827  0.34581  0.35179  Biso   1.000  H
  H23      1.0000 0.70992  0.41062  0.29382  Biso   1.000  H
  H24      1.0000 0.78818  0.34581  0.35179  Biso   1.000  H
  C31      1.0000 0.21508  0.61747  0.70291  Biso   1.000  C
  C32      1.0000 0.21508  0.61747  0.70284  Biso   1.000  C
  C33      1.0000 0.21500  0.61747  0.70291  Biso   1.000  C
  C34      1.0000 0.21500  0.61747  0.70284  Biso   1.000  C
  N18      1.0000 0.01075  0.73229  0.77432  Biso   1.000  N
  H25      1.0000 0.15371  0.79518  0.73527  Biso   1.000  H
  H26      1.0000 0.15380  0.79518  0.73527  Biso   1.000  H
  O9       1.0000 0.85350  0.75189  0.86125  Biso   1.000  O
  O10      1.0000 0.14658  0.24811  0.13875  Biso   1.000  O
  O11      1.0000 0.14650  0.24811  0.13875  Biso   1.000  O
  N19      1.0000 0.96649  0.22370  0.08499  Biso   1.000  N
  N20      1.0000 0.96641  0.22370  0.08499  Biso   1.000  N
  C35      1.0000 0.85528  0.21350  0.12223  Biso   1.000  C
  C36      1.0000 0.85536  0.21350  0.12223  Biso   1.000  C
  H27      1.0000 0.84637  0.20482  0.26473  Biso   1.000  H
  H28      1.0000 0.84637  0.20482  0.26466  Biso   1.000  H
  H29      1.0000 0.84629  0.20482  0.26473  Biso   1.000  H
  H30      1.0000 0.84628  0.20482  0.26466  Biso   1.000  H
  C37      1.0000 0.74415  0.33884  0.13989  Biso   1.000  C
  C38      1.0000 0.74406  0.33884  0.13989  Biso   1.000  C
  N21      1.0000 0.12984  0.54977  0.69629  Biso   1.000  N
  H31      1.0000 0.21182  0.65419  0.64821  Biso   1.000  H
  H32      1.0000 0.29016  0.58938  0.70618  Biso   1.000  H
  C39      1.0000 0.95365  0.70847  0.69114  Biso   1.000  C
  C40      1.0000 0.99909  0.18462  0.00060  Biso   1.000  C
  H33      1.0000 0.82995  0.15067  0.12143  Biso   1.000  H
  N22      1.0000 0.77121  0.27186  0.08385  Biso   1.000  N
  H34      1.0000 0.82995  0.15067  0.12137  Biso   1.000  H
  N23      1.0000 0.77121  0.27186  0.08379  Biso   1.000  N
  H35      1.0000 0.82986  0.15067  0.12143  Biso   1.000  H
  O12      1.0000 0.67868  0.39917  0.12203  Biso   1.000  O
  C41      1.0000 0.15314  0.46358  0.71601  Biso   1.000  C
  C42      1.0000 0.02793  0.55760  0.64125  Biso   1.000  C
  N24      1.0000 0.94199  0.61530  0.67649  Biso   1.000  N
  H36      1.0000 0.87787  0.73538  0.69047  Biso   1.000  H
  H37      1.0000 0.99572  0.73406  0.64079  Biso   1.000  H
  H38      1.0000 0.08120  0.17402  0.00241  Biso   1.000  H
  H39      1.0000 0.96145  0.12692  0.99412  Biso   1.000  H
  N25      1.0000 0.97179  0.23784  0.92297  Biso   1.000  N
  H40      1.0000 0.96153  0.12692  0.99412  Biso   1.000  H
  C43      1.0000 0.71482  0.25870  0.99860  Biso   1.000  C
  C44      1.0000 0.71482  0.25870  0.99853  Biso   1.000  C
  C45      1.0000 0.71474  0.25870  0.99860  Biso   1.000  C
  N26      1.0000 0.06499  0.41299  0.68766  Biso   1.000  N
  O13      1.0000 0.23920  0.43727  0.75359  Biso   1.000  O
  C46      1.0000 0.97386  0.46483  0.64894  Biso   1.000  C
  H41      1.0000 0.04550  0.57241  0.57793  Biso   1.000  H
  H42      1.0000 0.04559  0.57241  0.57786  Biso   1.000  H
  H43      1.0000 0.04550  0.57241  0.57786  Biso   1.000  H
  C47      1.0000 0.85549  0.56846  0.71381  Biso   1.000  C
  C48      1.0000 0.85541  0.56846  0.71381  Biso   1.000  C
  C49      1.0000 0.86155  0.23455  0.87997  Biso   1.000  C
  C50      1.0000 0.05159  0.27272  0.86780  Biso   1.000  C
  H44      1.0000 0.69835  0.19521  0.99131  Biso   1.000  H
  H45      1.0000 0.64193  0.29022  0.99913  Biso   1.000  H
  N27      1.0000 0.77761  0.28824  0.92230  Biso   1.000  N
  H46      1.0000 0.69844  0.19521  0.99131  Biso   1.000  H
  H47      1.0000 0.64192  0.29022  0.99906  Biso   1.000  H
  H48      1.0000 0.64184  0.29022  0.99913  Biso   1.000  H
  H49      1.0000 0.64184  0.29022  0.99906  Biso   1.000  H
  C51      1.0000 0.05832  0.32114  0.70993  Biso   1.000  C
  N28      1.0000 0.87857  0.48049  0.70745  Biso   1.000  N
  N29      1.0000 0.87865  0.48049  0.70739  Biso   1.000  N
  N30      1.0000 0.87857  0.48049  0.70739  Biso   1.000  N
  H50      1.0000 0.94896  0.44148  0.58930  Biso   1.000  H
  O14      1.0000 0.77176  0.60063  0.74630  Biso   1.000  O
  O15      1.0000 0.77184  0.60063  0.74630  Biso   1.000  O
  C52      1.0000 0.87914  0.28199  0.78977  Biso   1.000  C
  H51      1.0000 0.83505  0.17271  0.87121  Biso   1.000  H
  N31      1.0000 0.99799  0.30180  0.79097  Biso   1.000  N
  N32      1.0000 0.99799  0.30180  0.79090  Biso   1.000  N
  O16      1.0000 0.15260  0.27739  0.88425  Biso   1.000  O
  C53      1.0000 0.74905  0.36187  0.87262  Biso   1.000  C
  H52      1.0000 0.02126  0.28969  0.65951  Biso   1.000  H
  H53      1.0000 0.13574  0.29772  0.71641  Biso   1.000  H
  C54      1.0000 0.78853  0.41713  0.72049  Biso   1.000  C
  H54      1.0000 0.85726  0.24410  0.73768  Biso   1.000  H
  N33      1.0000 0.80864  0.35897  0.79592  Biso   1.000  N
  N34      1.0000 0.80872  0.35897  0.79592  Biso   1.000  N
  O17      1.0000 0.68065  0.41733  0.89435  Biso   1.000  O
  H55      1.0000 0.77937  0.38128  0.66559  Biso   1.000  H
  H56      1.0000 0.71734  0.44937  0.72972  Biso   1.000  H
  N35      1.0000 0.19145  0.64096  0.20408  Biso   1.000  N
  C55      1.0000 0.21155  0.58280  0.27951  Biso   1.000  C
  C56      1.0000 0.12094  0.71801  0.21023  Biso   1.000  C
  C57      1.0000 0.25103  0.63807  0.12738  Biso   1.000  C
  C58      1.0000 0.25103  0.63807  0.12732  Biso   1.000  C
  N36      1.0000 0.12152  0.51951  0.29255  Biso   1.000  N
  N37      1.0000 0.12143  0.51951  0.29255  Biso   1.000  N
  H57      1.0000 0.22071  0.61866  0.33441  Biso   1.000  H
  H58      1.0000 0.28275  0.55056  0.27028  Biso   1.000  H
  N38      1.0000 0.19136  0.64096  0.20408  Biso   1.000  N
  N39      1.0000 0.00210  0.69820  0.20903  Biso   1.000  N
  H59      1.0000 0.14282  0.75590  0.26232  Biso   1.000  H
  C59      1.0000 0.13853  0.76545  0.12003  Biso   1.000  C
  N40      1.0000 0.22248  0.71169  0.07770  Biso   1.000  N
  O18      1.0000 0.31944  0.58260  0.10565  Biso   1.000  O
  O19      1.0000 0.31944  0.58260  0.10558  Biso   1.000  O
  C60      1.0000 0.14459  0.43154  0.28619  Biso   1.000  C
  C61      1.0000 0.14467  0.43154  0.28619  Biso   1.000  C
  C62      1.0000 0.02623  0.53517  0.35106  Biso   1.000  C
  C63      1.0000 0.94176  0.67879  0.29007  Biso   1.000  C
  C64      1.0000 0.94168  0.67879  0.29007  Biso   1.000  C
  C65      1.0000 0.94849  0.72728  0.13220  Biso   1.000  C
  H60      1.0000 0.16504  0.82729  0.12879  Biso   1.000  H
  N41      1.0000 0.02830  0.76209  0.07703  Biso   1.000  N
  N42      1.0000 0.02830  0.76209  0.07696  Biso   1.000  N
  C66      1.0000 0.28526  0.74130  0.00140  Biso   1.000  C
  N43      1.0000 0.05810  0.38470  0.32351  Biso   1.000  N
  O20      1.0000 0.22832  0.39937  0.25370  Biso   1.000  O
  O21      1.0000 0.22824  0.39937  0.25370  Biso   1.000  O
  C67      1.0000 0.97215  0.44240  0.35875  Biso   1.000  C
  H61      1.0000 0.05113  0.55846  0.41070  Biso   1.000  H
  N44      1.0000 0.93509  0.58701  0.31234  Biso   1.000  N
  H62      1.0000 0.97883  0.71031  0.34049  Biso   1.000  H
  H63      1.0000 0.86435  0.70228  0.28359  Biso   1.000  H
  O22      1.0000 0.84749  0.72261  0.11575  Biso   1.000  O
  C68      1.0000 0.00100  0.81532  0.99940  Biso   1.000  C
  H64      1.0000 0.30173  0.80479  0.00869  Biso   1.000  H
  H65      1.0000 0.35816  0.70978  0.00087  Biso   1.000  H
  H66      1.0000 0.30165  0.80479  0.00869  Biso   1.000  H
  N45      1.0000 0.22887  0.72814  0.91615  Biso   1.000  N
  H67      1.0000 0.35824  0.70978  0.00087  Biso   1.000  H
  C69      1.0000 0.04644  0.29147  0.30886  Biso   1.000  C
  C70      1.0000 0.04643  0.29147  0.30880  Biso   1.000  C
  H68      1.0000 0.95458  0.42759  0.42207  Biso   1.000  H
  N46      1.0000 0.87024  0.45023  0.30371  Biso   1.000  N
  H69      1.0000 0.95450  0.42759  0.42207  Biso   1.000  H
  C71      1.0000 0.84695  0.53635  0.28399  Biso   1.000  C
  C72      1.0000 0.84695  0.53635  0.28392  Biso   1.000  C
  H70      1.0000 0.03864  0.87308  0.00588  Biso   1.000  H
  H71      1.0000 0.03855  0.87308  0.00588  Biso   1.000  H
  H72      1.0000 0.91889  0.82598  0.99759  Biso   1.000  H
  N47      1.0000 0.03359  0.77630  0.91501  Biso   1.000  N
  C73      1.0000 0.25594  0.66116  0.86011  Biso   1.000  C
  C74      1.0000 0.14481  0.78650  0.87777  Biso   1.000  C
  C75      1.0000 0.14481  0.78650  0.87770  Biso   1.000  C
  C76      1.0000 0.14472  0.78650  0.87777  Biso   1.000  C
  C77      1.0000 0.14472  0.78650  0.87770  Biso   1.000  C
  N48      1.0000 0.98933  0.26765  0.22568  Biso   1.000  N
  H73      1.0000 0.00437  0.26587  0.35921  Biso   1.000  H
  H74      1.0000 0.12221  0.26462  0.30953  Biso   1.000  H
  H75      1.0000 0.12221  0.26462  0.30946  Biso   1.000  H
  H76      1.0000 0.00428  0.26587  0.35921  Biso   1.000  H
  C78      1.0000 0.78500  0.38253  0.29709  Biso   1.000  C
  C79      1.0000 0.78508  0.38253  0.29709  Biso   1.000  C
  O23      1.0000 0.76088  0.56273  0.24641  Biso   1.000  O
  C80      1.0000 0.95504  0.75301  0.85109  Biso   1.000  C
  N49      1.0000 0.20135  0.67360  0.78054  Biso   1.000  N
  O24      1.0000 0.32140  0.60083  0.87797  Biso   1.000  O
  O25      1.0000 0.32132  0.60083  0.87797  Biso   1.000  O
  C81      1.0000 0.13004  0.75097  0.78074  Biso   1.000  C
  H77      1.0000 0.17014  0.84927  0.87857  Biso   1.000  H
  C82      1.0000 0.04505  0.24692  0.14891  Biso   1.000  C
  C83      1.0000 0.04496  0.24692  0.14891  Biso   1.000  C
  C84      1.0000 0.87004  0.24903  0.21926  Biso   1.000  C
  N50      1.0000 0.79874  0.32640  0.21946  Biso   1.000  N
  N51      1.0000 0.79873  0.32640  0.21939  Biso   1.000  N
  H78      1.0000 0.78827  0.34581  0.35179  Biso   1.000  H
  H79      1.0000 0.70992  0.41062  0.29382  Biso   1.000  H
  H80      1.0000 0.78818  0.34581  0.35179  Biso   1.000  H
  N52      1.0000 0.01075  0.73229  0.77432  Biso   1.000  N
  O26      1.0000 0.85350  0.75189  0.86125  Biso   1.000  O
  C85      1.0000 0.21508  0.61747  0.70291  Biso   1.000  C
  C86      1.0000 0.21508  0.61747  0.70284  Biso   1.000  C
  C87      1.0000 0.21500  0.61747  0.70291  Biso   1.000  C
  C88      1.0000 0.21500  0.61747  0.70284  Biso   1.000  C
  H81      1.0000 0.15371  0.79518  0.73527  Biso   1.000  H
  H82      1.0000 0.15380  0.79518  0.73527  Biso   1.000  H
  O27      1.0000 0.14658  0.24811  0.13875  Biso   1.000  O
  N53      1.0000 0.96649  0.22370  0.08499  Biso   1.000  N
  N54      1.0000 0.96641  0.22370  0.08499  Biso   1.000  N
  O28      1.0000 0.14650  0.24811  0.13875  Biso   1.000  O
  C89      1.0000 0.85528  0.21350  0.12223  Biso   1.000  C
  C90      1.0000 0.85536  0.21350  0.12223  Biso   1.000  C
  H83      1.0000 0.84637  0.20482  0.26473  Biso   1.000  H
  H84      1.0000 0.84637  0.20482  0.26466  Biso   1.000  H
  H85      1.0000 0.84629  0.20482  0.26473  Biso   1.000  H
  H86      1.0000 0.84628  0.20482  0.26466  Biso   1.000  H
  C91      1.0000 0.74415  0.33884  0.13989  Biso   1.000  C
  C92      1.0000 0.74406  0.33884  0.13989  Biso   1.000  C
  C93      1.0000 0.95365  0.70847  0.69114  Biso   1.000  C
  N55      1.0000 0.12984  0.54977  0.69629  Biso   1.000  N
  H87      1.0000 0.21182  0.65419  0.64821  Biso   1.000  H
  H88      1.0000 0.29016  0.58938  0.70618  Biso   1.000  H
  C94      1.0000 0.99909  0.18462  0.00060  Biso   1.000  C
  H89      1.0000 0.82995  0.15067  0.12143  Biso   1.000  H
  N56      1.0000 0.77121  0.27186  0.08385  Biso   1.000  N
  H90      1.0000 0.82995  0.15067  0.12137  Biso   1.000  H
  N57      1.0000 0.77121  0.27186  0.08379  Biso   1.000  N
  H91      1.0000 0.82986  0.15067  0.12143  Biso   1.000  H
  O29      1.0000 0.67868  0.39917  0.12203  Biso   1.000  O
  N58      1.0000 0.94199  0.61530  0.67649  Biso   1.000  N
  H92      1.0000 0.87787  0.73538  0.69047  Biso   1.000  H
  H93      1.0000 0.99572  0.73406  0.64079  Biso   1.000  H
  C95      1.0000 0.15314  0.46358  0.71601  Biso   1.000  C
  C96      1.0000 0.02793  0.55760  0.64125  Biso   1.000  C
  H94      1.0000 0.08120  0.17402  0.00241  Biso   1.000  H
  H95      1.0000 0.96145  0.12692  0.99412  Biso   1.000  H
  N59      1.0000 0.97179  0.23784  0.92297  Biso   1.000  N
  H96      1.0000 0.96153  0.12692  0.99412  Biso   1.000  H
  C97      1.0000 0.71482  0.25870  0.99860  Biso   1.000  C
  C98      1.0000 0.71482  0.25870  0.99853  Biso   1.000  C
  C99      1.0000 0.71474  0.25870  0.99860  Biso   1.000  C
  C100     1.0000 0.85549  0.56846  0.71381  Biso   1.000  C
  C101     1.0000 0.85541  0.56846  0.71381  Biso   1.000  C
  N60      1.0000 0.06499  0.41299  0.68766  Biso   1.000  N
  O30      1.0000 0.23920  0.43727  0.75359  Biso   1.000  O
  C102     1.0000 0.97386  0.46483  0.64894  Biso   1.000  C
  H97      1.0000 0.04550  0.57241  0.57793  Biso   1.000  H
  H98      1.0000 0.04559  0.57241  0.57786  Biso   1.000  H
  H99      1.0000 0.04550  0.57241  0.57786  Biso   1.000  H
  C103     1.0000 0.86155  0.23455  0.87997  Biso   1.000  C
  C104     1.0000 0.05159  0.27272  0.86780  Biso   1.000  C
  H100     1.0000 0.69835  0.19521  0.99131  Biso   1.000  H
  H101     1.0000 0.64193  0.29022  0.99913  Biso   1.000  H
  N61      1.0000 0.77761  0.28824  0.92230  Biso   1.000  N
  H102     1.0000 0.69844  0.19521  0.99131  Biso   1.000  H
  H103     1.0000 0.64192  0.29022  0.99906  Biso   1.000  H
  H104     1.0000 0.64184  0.29022  0.99913  Biso   1.000  H
  H105     1.0000 0.64184  0.29022  0.99906  Biso   1.000  H
  N62      1.0000 0.87857  0.48049  0.70745  Biso   1.000  N
  N63      1.0000 0.87865  0.48049  0.70739  Biso   1.000  N
  N64      1.0000 0.87857  0.48049  0.70739  Biso   1.000  N
  O31      1.0000 0.77176  0.60063  0.74630  Biso   1.000  O
  O32      1.0000 0.77184  0.60063  0.74630  Biso   1.000  O
  C105     1.0000 0.05832  0.32114  0.70993  Biso   1.000  C
  H106     1.0000 0.94896  0.44148  0.58930  Biso   1.000  H
  C106     1.0000 0.87914  0.28199  0.78977  Biso   1.000  C
  H107     1.0000 0.83505  0.17271  0.87121  Biso   1.000  H
  N65      1.0000 0.99799  0.30180  0.79097  Biso   1.000  N
  N66      1.0000 0.99799  0.30180  0.79090  Biso   1.000  N
  O33      1.0000 0.15260  0.27739  0.88425  Biso   1.000  O
  C107     1.0000 0.74905  0.36187  0.87262  Biso   1.000  C
  C108     1.0000 0.78853  0.41713  0.72049  Biso   1.000  C
  H108     1.0000 0.02126  0.28969  0.65951  Biso   1.000  H
  H109     1.0000 0.13574  0.29772  0.71641  Biso   1.000  H
  H110     1.0000 0.85726  0.24410  0.73768  Biso   1.000  H
  N67      1.0000 0.80864  0.35897  0.79592  Biso   1.000  N
  N68      1.0000 0.80872  0.35897  0.79592  Biso   1.000  N
  O34      1.0000 0.68065  0.41733  0.89435  Biso   1.000  O
  H111     1.0000 0.77937  0.38128  0.66559  Biso   1.000  H
  H112     1.0000 0.71734  0.44937  0.72972  Biso   1.000  H
  N69      1.0000 0.19145  0.64096  0.20408  Biso   1.000  N
  C109     1.0000 0.21155  0.58280  0.27951  Biso   1.000  C
  C110     1.0000 0.12094  0.71801  0.21023  Biso   1.000  C
  C111     1.0000 0.25103  0.63807  0.12738  Biso   1.000  C
  C112     1.0000 0.25103  0.63807  0.12732  Biso   1.000  C
  N70      1.0000 0.12152  0.51951  0.29255  Biso   1.000  N
  N71      1.0000 0.12143  0.51951  0.29255  Biso   1.000  N
  H113     1.0000 0.22071  0.61866  0.33441  Biso   1.000  H
  H114     1.0000 0.28275  0.55056  0.27028  Biso   1.000  H
  N72      1.0000 0.19136  0.64096  0.20408  Biso   1.000  N
  N73      1.0000 0.00210  0.69820  0.20903  Biso   1.000  N
  H115     1.0000 0.14282  0.75590  0.26232  Biso   1.000  H
  C113     1.0000 0.13853  0.76545  0.12003  Biso   1.000  C
  N74      1.0000 0.22248  0.71169  0.07770  Biso   1.000  N
  O35      1.0000 0.31944  0.58260  0.10565  Biso   1.000  O
  O36      1.0000 0.31944  0.58260  0.10558  Biso   1.000  O
  C114     1.0000 0.14459  0.43154  0.28619  Biso   1.000  C
  C115     1.0000 0.14467  0.43154  0.28619  Biso   1.000  C
  C116     1.0000 0.02623  0.53517  0.35106  Biso   1.000  C
  C117     1.0000 0.94176  0.67879  0.29007  Biso   1.000  C
  C118     1.0000 0.94168  0.67879  0.29007  Biso   1.000  C
  C119     1.0000 0.94849  0.72728  0.13220  Biso   1.000  C
  H116     1.0000 0.16504  0.82729  0.12879  Biso   1.000  H
  N75      1.0000 0.02830  0.76209  0.07703  Biso   1.000  N
  N76      1.0000 0.02830  0.76209  0.07696  Biso   1.000  N
  C120     1.0000 0.28526  0.74130  0.00140  Biso   1.000  C
  N77      1.0000 0.05810  0.38470  0.32351  Biso   1.000  N
  O37      1.0000 0.22832  0.39937  0.25370  Biso   1.000  O
  O38      1.0000 0.22824  0.39937  0.25370  Biso   1.000  O
  C121     1.0000 0.97215  0.44240  0.35875  Biso   1.000  C
  H117     1.0000 0.05113  0.55846  0.41070  Biso   1.000  H
  N78      1.0000 0.93509  0.58701  0.31234  Biso   1.000  N
  H118     1.0000 0.97883  0.71031  0.34049  Biso   1.000  H
  H119     1.0000 0.86435  0.70228  0.28359  Biso   1.000  H
  O39      1.0000 0.84749  0.72261  0.11575  Biso   1.000  O
  C122     1.0000 0.00100  0.81532  0.99940  Biso   1.000  C
  H120     1.0000 0.35816  0.70978  0.00087  Biso   1.000  H
  N79      1.0000 0.22887  0.72814  0.91615  Biso   1.000  N
  H121     1.0000 0.30173  0.80479  0.00869  Biso   1.000  H
  H122     1.0000 0.35824  0.70978  0.00087  Biso   1.000  H
  H123     1.0000 0.30165  0.80479  0.00869  Biso   1.000  H
  C123     1.0000 0.04644  0.29147  0.30886  Biso   1.000  C
  C124     1.0000 0.04643  0.29147  0.30880  Biso   1.000  C
  N80      1.0000 0.87024  0.45023  0.30371  Biso   1.000  N
  H124     1.0000 0.95458  0.42759  0.42207  Biso   1.000  H
  H125     1.0000 0.95450  0.42759  0.42207  Biso   1.000  H
  C125     1.0000 0.84695  0.53635  0.28399  Biso   1.000  C
  C126     1.0000 0.84695  0.53635  0.28392  Biso   1.000  C
  H126     1.0000 0.91889  0.82598  0.99759  Biso   1.000  H
  N81      1.0000 0.03359  0.77630  0.91501  Biso   1.000  N
  H127     1.0000 0.03864  0.87308  0.00588  Biso   1.000  H
  H128     1.0000 0.03855  0.87308  0.00588  Biso   1.000  H
  C127     1.0000 0.25594  0.66116  0.86011  Biso   1.000  C
  C128     1.0000 0.14481  0.78650  0.87777  Biso   1.000  C
  C129     1.0000 0.14481  0.78650  0.87770  Biso   1.000  C
  C130     1.0000 0.14472  0.78650  0.87777  Biso   1.000  C
  C131     1.0000 0.14472  0.78650  0.87770  Biso   1.000  C
  N82      1.0000 0.98933  0.26765  0.22568  Biso   1.000  N
  H129     1.0000 0.00437  0.26587  0.35921  Biso   1.000  H
  H130     1.0000 0.12221  0.26462  0.30953  Biso   1.000  H
  H131     1.0000 0.12221  0.26462  0.30946  Biso   1.000  H
  H132     1.0000 0.00428  0.26587  0.35921  Biso   1.000  H
  C132     1.0000 0.78500  0.38253  0.29709  Biso   1.000  C
  C133     1.0000 0.78508  0.38253  0.29709  Biso   1.000  C
  O40      1.0000 0.76088  0.56273  0.24641  Biso   1.000  O
  C134     1.0000 0.95504  0.75301  0.85109  Biso   1.000  C
  N83      1.0000 0.20135  0.67360  0.78054  Biso   1.000  N
  O41      1.0000 0.32140  0.60083  0.87797  Biso   1.000  O
  O42      1.0000 0.32132  0.60083  0.87797  Biso   1.000  O
  C135     1.0000 0.13004  0.75097  0.78074  Biso   1.000  C
  H133     1.0000 0.17014  0.84927  0.87857  Biso   1.000  H
  C136     1.0000 0.04505  0.24692  0.14891  Biso   1.000  C
  C137     1.0000 0.04496  0.24692  0.14891  Biso   1.000  C
  C138     1.0000 0.87004  0.24903  0.21926  Biso   1.000  C
  N84      1.0000 0.79874  0.32640  0.21946  Biso   1.000  N
  N85      1.0000 0.79873  0.32640  0.21939  Biso   1.000  N
  H134     1.0000 0.78827  0.34581  0.35179  Biso   1.000  H
  H135     1.0000 0.70992  0.41062  0.29382  Biso   1.000  H
  H136     1.0000 0.78818  0.34581  0.35179  Biso   1.000  H
  N86      1.0000 0.01075  0.73229  0.77432  Biso   1.000  N
  O43      1.0000 0.85350  0.75189  0.86125  Biso   1.000  O
  C139     1.0000 0.21508  0.61747  0.70291  Biso   1.000  C
  C140     1.0000 0.21508  0.61747  0.70284  Biso   1.000  C
  C141     1.0000 0.21500  0.61747  0.70291  Biso   1.000  C
  C142     1.0000 0.21500  0.61747  0.70284  Biso   1.000  C
  H137     1.0000 0.15371  0.79518  0.73527  Biso   1.000  H
  H138     1.0000 0.15380  0.79518  0.73527  Biso   1.000  H
  O44      1.0000 0.14658  0.24811  0.13875  Biso   1.000  O
  N87      1.0000 0.96649  0.22370  0.08499  Biso   1.000  N
  N88      1.0000 0.96641  0.22370  0.08499  Biso   1.000  N
  O45      1.0000 0.14650  0.24811  0.13875  Biso   1.000  O
  C143     1.0000 0.85528  0.21350  0.12223  Biso   1.000  C
  C144     1.0000 0.85536  0.21350  0.12223  Biso   1.000  C
  H139     1.0000 0.84637  0.20482  0.26473  Biso   1.000  H
  H140     1.0000 0.84637  0.20482  0.26466  Biso   1.000  H
  H141     1.0000 0.84629  0.20482  0.26473  Biso   1.000  H
  H142     1.0000 0.84628  0.20482  0.26466  Biso   1.000  H
  C145     1.0000 0.74415  0.33884  0.13989  Biso   1.000  C
  C146     1.0000 0.74406  0.33884  0.13989  Biso   1.000  C
  C147     1.0000 0.95365  0.70847  0.69114  Biso   1.000  C
  N89      1.0000 0.12984  0.54977  0.69629  Biso   1.000  N
  H143     1.0000 0.21182  0.65419  0.64821  Biso   1.000  H
  H144     1.0000 0.29016  0.58938  0.70618  Biso   1.000  H
  C148     1.0000 0.99909  0.18462  0.00060  Biso   1.000  C
  H145     1.0000 0.82995  0.15067  0.12143  Biso   1.000  H
  N90      1.0000 0.77121  0.27186  0.08385  Biso   1.000  N
  H146     1.0000 0.82995  0.15067  0.12137  Biso   1.000  H
  N91      1.0000 0.77121  0.27186  0.08379  Biso   1.000  N
  H147     1.0000 0.82986  0.15067  0.12143  Biso   1.000  H
  O46      1.0000 0.67868  0.39917  0.12203  Biso   1.000  O
  N92      1.0000 0.94199  0.61530  0.67649  Biso   1.000  N
  H148     1.0000 0.87787  0.73538  0.69047  Biso   1.000  H
  H149     1.0000 0.99572  0.73406  0.64079  Biso   1.000  H
  C149     1.0000 0.15314  0.46358  0.71601  Biso   1.000  C
  C150     1.0000 0.02793  0.55760  0.64125  Biso   1.000  C
  H150     1.0000 0.08120  0.17402  0.00241  Biso   1.000  H
  H151     1.0000 0.96145  0.12692  0.99412  Biso   1.000  H
  N93      1.0000 0.97179  0.23784  0.92297  Biso   1.000  N
  H152     1.0000 0.96153  0.12692  0.99412  Biso   1.000  H
  C151     1.0000 0.71482  0.25870  0.99860  Biso   1.000  C
  C152     1.0000 0.71482  0.25870  0.99853  Biso   1.000  C
  C153     1.0000 0.71474  0.25870  0.99860  Biso   1.000  C
  C154     1.0000 0.85549  0.56846  0.71381  Biso   1.000  C
  C155     1.0000 0.85541  0.56846  0.71381  Biso   1.000  C
  N94      1.0000 0.06499  0.41299  0.68766  Biso   1.000  N
  O47      1.0000 0.23920  0.43727  0.75359  Biso   1.000  O
  C156     1.0000 0.97386  0.46483  0.64894  Biso   1.000  C
  H153     1.0000 0.04550  0.57241  0.57793  Biso   1.000  H
  H154     1.0000 0.04559  0.57241  0.57786  Biso   1.000  H
  H155     1.0000 0.04550  0.57241  0.57786  Biso   1.000  H
  C157     1.0000 0.86155  0.23455  0.87997  Biso   1.000  C
  C158     1.0000 0.05159  0.27272  0.86780  Biso   1.000  C
  H156     1.0000 0.69835  0.19521  0.99131  Biso   1.000  H
  H157     1.0000 0.64193  0.29022  0.99913  Biso   1.000  H
  N95      1.0000 0.77761  0.28824  0.92230  Biso   1.000  N
  H158     1.0000 0.69844  0.19521  0.99131  Biso   1.000  H
  H159     1.0000 0.64192  0.29022  0.99906  Biso   1.000  H
  H160     1.0000 0.64184  0.29022  0.99913  Biso   1.000  H
  H161     1.0000 0.64184  0.29022  0.99906  Biso   1.000  H
  N96      1.0000 0.87857  0.48049  0.70745  Biso   1.000  N
  N97      1.0000 0.87865  0.48049  0.70739  Biso   1.000  N
  N98      1.0000 0.87857  0.48049  0.70739  Biso   1.000  N
  O48      1.0000 0.77176  0.60063  0.74630  Biso   1.000  O
  O49      1.0000 0.77184  0.60063  0.74630  Biso   1.000  O
  C159     1.0000 0.05832  0.32114  0.70993  Biso   1.000  C
  H162     1.0000 0.94896  0.44148  0.58930  Biso   1.000  H
  C160     1.0000 0.87914  0.28199  0.78977  Biso   1.000  C
  H163     1.0000 0.83505  0.17271  0.87121  Biso   1.000  H
  N99      1.0000 0.99799  0.30180  0.79097  Biso   1.000  N
  N100     1.0000 0.99799  0.30180  0.79090  Biso   1.000  N
  O50      1.0000 0.15260  0.27739  0.88425  Biso   1.000  O
  C161     1.0000 0.74905  0.36187  0.87262  Biso   1.000  C
  C162     1.0000 0.78853  0.41713  0.72049  Biso   1.000  C
  H164     1.0000 0.02126  0.28969  0.65951  Biso   1.000  H
  H165     1.0000 0.13574  0.29772  0.71641  Biso   1.000  H
  H166     1.0000 0.85726  0.24410  0.73768  Biso   1.000  H
  N101     1.0000 0.80864  0.35897  0.79592  Biso   1.000  N
  N102     1.0000 0.80872  0.35897  0.79592  Biso   1.000  N
  O51      1.0000 0.68065  0.41733  0.89435  Biso   1.000  O
  H167     1.0000 0.77937  0.38128  0.66559  Biso   1.000  H
  H168     1.0000 0.71734  0.44937  0.72972  Biso   1.000  H
  N103     1.0000 0.19145  0.64096  0.20408  Biso   1.000  N
  C163     1.0000 0.21155  0.58280  0.27951  Biso   1.000  C
  C164     1.0000 0.12094  0.71801  0.21023  Biso   1.000  C
  C165     1.0000 0.25103  0.63807  0.12738  Biso   1.000  C
  C166     1.0000 0.25103  0.63807  0.12732  Biso   1.000  C
  N104     1.0000 0.12152  0.51951  0.29255  Biso   1.000  N
  N105     1.0000 0.12143  0.51951  0.29255  Biso   1.000  N
  H169     1.0000 0.22071  0.61866  0.33441  Biso   1.000  H
  H170     1.0000 0.28275  0.55056  0.27028  Biso   1.000  H
  N106     1.0000 0.19136  0.64096  0.20408  Biso   1.000  N
  N107     1.0000 0.00210  0.69820  0.20903  Biso   1.000  N
  H171     1.0000 0.14282  0.75590  0.26232  Biso   1.000  H
  C167     1.0000 0.13853  0.76545  0.12003  Biso   1.000  C
  N108     1.0000 0.22248  0.71169  0.07770  Biso   1.000  N
  O52      1.0000 0.31944  0.58260  0.10565  Biso   1.000  O
  O53      1.0000 0.31944  0.58260  0.10558  Biso   1.000  O
  C168     1.0000 0.14459  0.43154  0.28619  Biso   1.000  C
  C169     1.0000 0.14467  0.43154  0.28619  Biso   1.000  C
  C170     1.0000 0.02623  0.53517  0.35106  Biso   1.000  C
  C171     1.0000 0.94176  0.67879  0.29007  Biso   1.000  C
  C172     1.0000 0.94168  0.67879  0.29007  Biso   1.000  C
  C173     1.0000 0.94849  0.72728  0.13220  Biso   1.000  C
  N109     1.0000 0.02830  0.76209  0.07703  Biso   1.000  N
  N110     1.0000 0.02830  0.76209  0.07696  Biso   1.000  N
  H172     1.0000 0.16504  0.82729  0.12879  Biso   1.000  H
  C174     1.0000 0.28526  0.74130  0.00140  Biso   1.000  C
  N111     1.0000 0.05810  0.38470  0.32351  Biso   1.000  N
  O54      1.0000 0.22832  0.39937  0.25370  Biso   1.000  O
  O55      1.0000 0.22824  0.39937  0.25370  Biso   1.000  O
  C175     1.0000 0.97215  0.44240  0.35875  Biso   1.000  C
  H173     1.0000 0.05113  0.55846  0.41070  Biso   1.000  H
  N112     1.0000 0.93509  0.58701  0.31234  Biso   1.000  N
  H174     1.0000 0.97883  0.71031  0.34049  Biso   1.000  H
  H175     1.0000 0.86435  0.70228  0.28359  Biso   1.000  H
  O56      1.0000 0.84749  0.72261  0.11575  Biso   1.000  O
  C176     1.0000 0.00100  0.81532  0.99940  Biso   1.000  C
  N113     1.0000 0.22887  0.72814  0.91615  Biso   1.000  N
  H176     1.0000 0.30173  0.80479  0.00869  Biso   1.000  H
  H177     1.0000 0.35816  0.70978  0.00087  Biso   1.000  H
  H178     1.0000 0.35824  0.70978  0.00087  Biso   1.000  H
  H179     1.0000 0.30165  0.80479  0.00869  Biso   1.000  H
  C177     1.0000 0.04644  0.29147  0.30886  Biso   1.000  C
  C178     1.0000 0.04643  0.29147  0.30880  Biso   1.000  C
  H180     1.0000 0.95458  0.42759  0.42207  Biso   1.000  H
  N114     1.0000 0.87024  0.45023  0.30371  Biso   1.000  N
  H181     1.0000 0.95450  0.42759  0.42207  Biso   1.000  H
  C179     1.0000 0.84695  0.53635  0.28399  Biso   1.000  C
  C180     1.0000 0.84695  0.53635  0.28392  Biso   1.000  C
  H182     1.0000 0.91889  0.82598  0.99759  Biso   1.000  H
  N115     1.0000 0.03359  0.77630  0.91501  Biso   1.000  N
  H183     1.0000 0.03864  0.87308  0.00588  Biso   1.000  H
  H184     1.0000 0.03855  0.87308  0.00588  Biso   1.000  H
  C181     1.0000 0.25594  0.66116  0.86011  Biso   1.000  C
  C182     1.0000 0.14481  0.78650  0.87777  Biso   1.000  C
  C183     1.0000 0.14481  0.78650  0.87770  Biso   1.000  C
  C184     1.0000 0.14472  0.78650  0.87777  Biso   1.000  C
  C185     1.0000 0.14472  0.78650  0.87770  Biso   1.000  C
  N116     1.0000 0.98933  0.26765  0.22568  Biso   1.000  N
  H185     1.0000 0.12221  0.26462  0.30953  Biso   1.000  H
  H186     1.0000 0.00437  0.26587  0.35921  Biso   1.000  H
  H187     1.0000 0.12221  0.26462  0.30946  Biso   1.000  H
  H188     1.0000 0.00428  0.26587  0.35921  Biso   1.000  H
  C186     1.0000 0.78500  0.38253  0.29709  Biso   1.000  C
  C187     1.0000 0.78508  0.38253  0.29709  Biso   1.000  C
  O57      1.0000 0.76088  0.56273  0.24641  Biso   1.000  O
  C188     1.0000 0.95504  0.75301  0.85109  Biso   1.000  C
  N117     1.0000 0.20135  0.67360  0.78054  Biso   1.000  N
  O58      1.0000 0.32140  0.60083  0.87797  Biso   1.000  O
  O59      1.0000 0.32132  0.60083  0.87797  Biso   1.000  O
  H189     1.0000 0.17014  0.84927  0.87857  Biso   1.000  H
  C189     1.0000 0.13004  0.75097  0.78074  Biso   1.000  C
  C190     1.0000 0.87004  0.24903  0.21926  Biso   1.000  C
  C191     1.0000 0.04505  0.24692  0.14891  Biso   1.000  C
  C192     1.0000 0.04496  0.24692  0.14891  Biso   1.000  C
  H190     1.0000 0.78827  0.34581  0.35179  Biso   1.000  H
  H191     1.0000 0.70992  0.41062  0.29382  Biso   1.000  H
  N118     1.0000 0.79874  0.32640  0.21946  Biso   1.000  N
  N119     1.0000 0.79873  0.32640  0.21939  Biso   1.000  N
  H192     1.0000 0.78818  0.34581  0.35179  Biso   1.000  H
  O60      1.0000 0.85350  0.75189  0.86125  Biso   1.000  O
  N120     1.0000 0.01075  0.73229  0.77432  Biso   1.000  N
  C193     1.0000 0.21508  0.61747  0.70291  Biso   1.000  C
  C194     1.0000 0.21508  0.61747  0.70284  Biso   1.000  C
  C195     1.0000 0.21500  0.61747  0.70291  Biso   1.000  C
  C196     1.0000 0.21500  0.61747  0.70284  Biso   1.000  C
  H193     1.0000 0.15371  0.79518  0.73527  Biso   1.000  H
  H194     1.0000 0.15380  0.79518  0.73527  Biso   1.000  H
  C197     1.0000 0.85528  0.21350  0.12223  Biso   1.000  C
  H195     1.0000 0.84637  0.20482  0.26473  Biso   1.000  H
  C198     1.0000 0.85536  0.21350  0.12223  Biso   1.000  C
  H196     1.0000 0.84637  0.20482  0.26466  Biso   1.000  H
  H197     1.0000 0.84629  0.20482  0.26473  Biso   1.000  H
  H198     1.0000 0.84628  0.20482  0.26466  Biso   1.000  H
  N121     1.0000 0.96649  0.22370  0.08499  Biso   1.000  N
  N122     1.0000 0.96641  0.22370  0.08499  Biso   1.000  N
  O61      1.0000 0.14658  0.24811  0.13875  Biso   1.000  O
  O62      1.0000 0.14650  0.24811  0.13875  Biso   1.000  O
  C199     1.0000 0.74415  0.33884  0.13989  Biso   1.000  C
  C200     1.0000 0.74406  0.33884  0.13989  Biso   1.000  C
  C201     1.0000 0.95365  0.70847  0.69114  Biso   1.000  C
  H199     1.0000 0.21182  0.65419  0.64821  Biso   1.000  H
  H200     1.0000 0.29016  0.58938  0.70618  Biso   1.000  H
  N123     1.0000 0.12984  0.54977  0.69629  Biso   1.000  N
  H201     1.0000 0.82995  0.15067  0.12143  Biso   1.000  H
  N124     1.0000 0.77121  0.27186  0.08385  Biso   1.000  N
  H202     1.0000 0.82995  0.15067  0.12137  Biso   1.000  H
  N125     1.0000 0.77121  0.27186  0.08379  Biso   1.000  N
  H203     1.0000 0.82986  0.15067  0.12143  Biso   1.000  H
  C202     1.0000 0.99909  0.18462  0.00060  Biso   1.000  C
  O63      1.0000 0.67868  0.39917  0.12203  Biso   1.000  O
  H204     1.0000 0.87787  0.73538  0.69047  Biso   1.000  H
  H205     1.0000 0.99572  0.73406  0.64079  Biso   1.000  H
  N126     1.0000 0.94199  0.61530  0.67649  Biso   1.000  N
  C203     1.0000 0.15314  0.46358  0.71601  Biso   1.000  C
  C204     1.0000 0.02793  0.55760  0.64125  Biso   1.000  C
  C205     1.0000 0.71482  0.25870  0.99860  Biso   1.000  C
  C206     1.0000 0.71482  0.25870  0.99853  Biso   1.000  C
  C207     1.0000 0.71474  0.25870  0.99860  Biso   1.000  C
  H206     1.0000 0.08120  0.17402  0.00241  Biso   1.000  H
  H207     1.0000 0.96145  0.12692  0.99412  Biso   1.000  H
  N127     1.0000 0.97179  0.23784  0.92297  Biso   1.000  N
  H208     1.0000 0.96153  0.12692  0.99412  Biso   1.000  H
  C208     1.0000 0.85549  0.56846  0.71381  Biso   1.000  C
  C209     1.0000 0.85541  0.56846  0.71381  Biso   1.000  C
  N128     1.0000 0.06499  0.41299  0.68766  Biso   1.000  N
  O64      1.0000 0.23920  0.43727  0.75359  Biso   1.000  O
  C210     1.0000 0.97386  0.46483  0.64894  Biso   1.000  C
  H209     1.0000 0.04550  0.57241  0.57793  Biso   1.000  H
  H210     1.0000 0.04559  0.57241  0.57786  Biso   1.000  H
  H211     1.0000 0.04550  0.57241  0.57786  Biso   1.000  H
  H212     1.0000 0.69835  0.19521  0.99131  Biso   1.000  H
  H213     1.0000 0.64193  0.29022  0.99913  Biso   1.000  H
  N129     1.0000 0.77761  0.28824  0.92230  Biso   1.000  N
  H214     1.0000 0.69844  0.19521  0.99131  Biso   1.000  H
  H215     1.0000 0.64192  0.29022  0.99906  Biso   1.000  H
  H216     1.0000 0.64184  0.29022  0.99913  Biso   1.000  H
  H217     1.0000 0.64184  0.29022  0.99906  Biso   1.000  H
  C211     1.0000 0.86155  0.23455  0.87997  Biso   1.000  C
  C212     1.0000 0.05159  0.27272  0.86780  Biso   1.000  C
  N130     1.0000 0.87857  0.48049  0.70745  Biso   1.000  N
  N131     1.0000 0.87865  0.48049  0.70739  Biso   1.000  N
  N132     1.0000 0.87857  0.48049  0.70739  Biso   1.000  N
  O65      1.0000 0.77176  0.60063  0.74630  Biso   1.000  O
  O66      1.0000 0.77184  0.60063  0.74630  Biso   1.000  O
  C213     1.0000 0.05832  0.32114  0.70993  Biso   1.000  C
  H218     1.0000 0.94896  0.44148  0.58930  Biso   1.000  H
  C214     1.0000 0.74905  0.36187  0.87262  Biso   1.000  C
  C215     1.0000 0.87914  0.28199  0.78977  Biso   1.000  C
  H219     1.0000 0.83505  0.17271  0.87121  Biso   1.000  H
  N133     1.0000 0.99799  0.30180  0.79097  Biso   1.000  N
  N134     1.0000 0.99799  0.30180  0.79090  Biso   1.000  N
  O67      1.0000 0.15260  0.27739  0.88425  Biso   1.000  O
  C216     1.0000 0.78853  0.41713  0.72049  Biso   1.000  C
  H220     1.0000 0.02126  0.28969  0.65951  Biso   1.000  H
  H221     1.0000 0.13574  0.29772  0.71641  Biso   1.000  H
  N135     1.0000 0.80864  0.35897  0.79592  Biso   1.000  N
  O68      1.0000 0.68065  0.41733  0.89435  Biso   1.000  O
  N136     1.0000 0.80872  0.35897  0.79592  Biso   1.000  N
  H222     1.0000 0.85726  0.24410  0.73768  Biso   1.000  H
  H223     1.0000 0.77937  0.38128  0.66559  Biso   1.000  H
  H224     1.0000 0.71734  0.44937  0.72972  Biso   1.000  H
  O69      1.0000 0.35347  0.74808  0.36122  Biso   1.000  O
  C217     1.0000 0.45500  0.74696  0.35112  Biso   1.000  C
  N137     1.0000 0.51072  0.76768  0.27436  Biso   1.000  N
  N138     1.0000 0.53356  0.72367  0.41498  Biso   1.000  N
  O70      1.0000 0.35347  0.74814  0.36122  Biso   1.000  O
  C218     1.0000 0.45362  0.79150  0.19118  Biso   1.000  C
  C219     1.0000 0.63001  0.74900  0.28078  Biso   1.000  C
  C220     1.0000 0.64469  0.71347  0.37774  Biso   1.000  C
  C221     1.0000 0.50096  0.68465  0.49937  Biso   1.000  C
  H225     1.0000 0.37784  0.76459  0.19051  Biso   1.000  H
  H226     1.0000 0.49568  0.76591  0.14082  Biso   1.000  H
  N139     1.0000 0.44195  0.88473  0.17646  Biso   1.000  N
  N140     1.0000 0.44195  0.88466  0.17646  Biso   1.000  N
  H227     1.0000 0.65368  0.70478  0.23531  Biso   1.000  H
  N141     1.0000 0.70132  0.82637  0.28058  Biso   1.000  N
  H228     1.0000 0.67010  0.65070  0.37861  Biso   1.000  H
  N142     1.0000 0.72884  0.77189  0.41619  Biso   1.000  N
  N143     1.0000 0.72884  0.77183  0.41619  Biso   1.000  N
  H229     1.0000 0.53861  0.62688  0.50592  Biso   1.000  H
  H230     1.0000 0.41885  0.67399  0.49763  Biso   1.000  H
  N144     1.0000 0.52835  0.73788  0.57700  Biso   1.000  N
  C222     1.0000 0.52790  0.94243  0.14129  Biso   1.000  C
  C223     1.0000 0.35538  0.93157  0.21384  Biso   1.000  C
  C224     1.0000 0.52790  0.94236  0.14129  Biso   1.000  C
  C225     1.0000 0.35538  0.93151  0.21384  Biso   1.000  C
  C226     1.0000 0.71505  0.88249  0.20288  Biso   1.000  C
  C227     1.0000 0.75590  0.83887  0.36008  Biso   1.000  C
  C228     1.0000 0.75590  0.83881  0.36008  Biso   1.000  C
  C229     1.0000 0.78532  0.75873  0.50144  Biso   1.000  C
  C230     1.0000 0.78532  0.75867  0.50144  Biso   1.000  C
  C231     1.0000 0.63858  0.73459  0.62000  Biso   1.000  C
  C232     1.0000 0.44854  0.77275  0.63217  Biso   1.000  C
  C233     1.0000 0.63858  0.73452  0.62000  Biso   1.000  C
  C234     1.0000 0.44854  0.77268  0.63217  Biso   1.000  C
  H231     1.0000 0.54547  0.92763  0.07790  Biso   1.000  H
  N145     1.0000 0.62981  0.95026  0.19626  Biso   1.000  N
  H232     1.0000 0.54547  0.92756  0.07790  Biso   1.000  H
  N146     1.0000 0.62981  0.95019  0.19626  Biso   1.000  N
  C235     1.0000 0.47382  0.03520  0.14898  Biso   1.000  C
  C236     1.0000 0.47382  0.03513  0.14898  Biso   1.000  C
  O71      1.0000 0.27173  0.89940  0.24627  Biso   1.000  O
  O72      1.0000 0.27173  0.89934  0.24627  Biso   1.000  O
  N147     1.0000 0.37853  0.01954  0.20742  Biso   1.000  N
  N148     1.0000 0.37853  0.01947  0.20742  Biso   1.000  N
  H233     1.0000 0.71178  0.84578  0.14818  Biso   1.000  H
  H234     1.0000 0.79013  0.91059  0.20622  Biso   1.000  H
  O73      1.0000 0.82137  0.89914  0.37794  Biso   1.000  O
  H235     1.0000 0.80178  0.69518  0.50873  Biso   1.000  H
  H236     1.0000 0.85821  0.79018  0.50091  Biso   1.000  H
  N149     1.0000 0.72253  0.78828  0.57767  Biso   1.000  N
  C237     1.0000 0.62099  0.78203  0.71020  Biso   1.000  C
  H237     1.0000 0.66509  0.67268  0.62883  Biso   1.000  H
  C238     1.0000 0.62099  0.78196  0.71020  Biso   1.000  C
  N150     1.0000 0.50215  0.80183  0.70907  Biso   1.000  N
  O74      1.0000 0.34754  0.77742  0.61572  Biso   1.000  O
  N151     1.0000 0.50215  0.80176  0.70907  Biso   1.000  N
  O75      1.0000 0.34754  0.77735  0.61572  Biso   1.000  O
  C239     1.0000 0.65310  0.03638  0.21605  Biso   1.000  C
  H238     1.0000 0.44892  0.05849  0.08927  Biso   1.000  H
  N152     1.0000 0.56496  0.08705  0.18763  Biso   1.000  N
  N153     1.0000 0.56496  0.08698  0.18763  Biso   1.000  N
  C240     1.0000 0.28850  0.08283  0.22053  Biso   1.000  C
  C241     1.0000 0.75108  0.86190  0.62735  Biso   1.000  C
  H239     1.0000 0.64287  0.74413  0.76229  Biso   1.000  H
  N154     1.0000 0.69150  0.85900  0.70405  Biso   1.000  N
  H240     1.0000 0.64287  0.74406  0.76229  Biso   1.000  H
  C242     1.0000 0.44181  0.82117  0.79011  Biso   1.000  C
  O76      1.0000 0.73917  0.06277  0.25363  Biso   1.000  O
  O77      1.0000 0.73917  0.06270  0.25363  Biso   1.000  O
  C243     1.0000 0.55829  0.17883  0.20990  Biso   1.000  C
  H241     1.0000 0.27934  0.11869  0.16563  Biso   1.000  H
  H242     1.0000 0.21730  0.05060  0.22969  Biso   1.000  H
  N155     1.0000 0.30861  0.14100  0.29596  Biso   1.000  N
  O78      1.0000 0.81949  0.91736  0.60562  Biso   1.000  O
  O79      1.0000 0.81949  0.91730  0.60562  Biso   1.000  O
  C244     1.0000 0.71160  0.91717  0.77948  Biso   1.000  C
  N156     1.0000 0.43514  0.91295  0.81231  Biso   1.000  N
  H243     1.0000 0.47888  0.78972  0.84053  Biso   1.000  H
  H244     1.0000 0.36440  0.79768  0.78363  Biso   1.000  H
  H245     1.0000 0.47888  0.78966  0.84053  Biso   1.000  H
  H246     1.0000 0.52122  0.21028  0.15948  Biso   1.000  H
  H247     1.0000 0.63570  0.20232  0.21638  Biso   1.000  H
  N157     1.0000 0.49795  0.19817  0.29094  Biso   1.000  N
  H248     1.0000 0.63570  0.20225  0.21638  Biso   1.000  H
  C245     1.0000 0.24902  0.13810  0.37265  Biso   1.000  C
  C246     1.0000 0.37911  0.21797  0.28981  Biso   1.000  C
  N158     1.0000 0.62157  0.98046  0.79259  Biso   1.000  N
  H249     1.0000 0.72076  0.88131  0.83438  Biso   1.000  H
  H250     1.0000 0.78280  0.94940  0.77032  Biso   1.000  H
  C247     1.0000 0.34700  0.96362  0.78396  Biso   1.000  C
  C248     1.0000 0.52628  0.96480  0.85103  Biso   1.000  C
  C249     1.0000 0.55156  0.22725  0.36777  Biso   1.000  C
  N159     1.0000 0.27758  0.21172  0.42234  Biso   1.000  N
  O80      1.0000 0.18061  0.08264  0.39439  Biso   1.000  O
  N160     1.0000 0.27758  0.21166  0.42234  Biso   1.000  N
  H251     1.0000 0.35723  0.25587  0.23772  Biso   1.000  H
  C250     1.0000 0.36152  0.26541  0.38001  Biso   1.000  C
  C251     1.0000 0.64464  0.06843  0.78617  Biso   1.000  C
  O81      1.0000 0.26093  0.93723  0.74638  Biso   1.000  O
  N161     1.0000 0.37029  0.04974  0.80375  Biso   1.000  N
  H252     1.0000 0.55118  0.94151  0.91067  Biso   1.000  H
  H253     1.0000 0.55118  0.94144  0.91067  Biso   1.000  H
  C252     1.0000 0.47220  0.05757  0.85872  Biso   1.000  C
  N162     1.0000 0.47175  0.26212  0.42301  Biso   1.000  N
  O82      1.0000 0.65256  0.22258  0.38422  Biso   1.000  O
  C253     1.0000 0.21479  0.24127  0.49857  Biso   1.000  C
  H254     1.0000 0.33501  0.32732  0.37118  Biso   1.000  H
  H255     1.0000 0.33501  0.32726  0.37118  Biso   1.000  H
  N163     1.0000 0.55815  0.11527  0.82355  Biso   1.000  N
  O83      1.0000 0.72829  0.10060  0.75367  Biso   1.000  O
  C254     1.0000 0.28505  0.11751  0.79713  Biso   1.000  C
  C255     1.0000 0.28505  0.11744  0.79713  Biso   1.000  C
  H256     1.0000 0.45463  0.07237  0.92211  Biso   1.000  H
  C256     1.0000 0.49914  0.31535  0.50064  Biso   1.000  C
  H257     1.0000 0.19832  0.30482  0.49128  Biso   1.000  H
  H258     1.0000 0.14189  0.20982  0.49910  Biso   1.000  H
  N164     1.0000 0.27126  0.22811  0.58382  Biso   1.000  N
  H259     1.0000 0.19832  0.30476  0.49128  Biso   1.000  H
  H260     1.0000 0.14189  0.20975  0.49910  Biso   1.000  H
  C257     1.0000 0.54649  0.20850  0.80883  Biso   1.000  C
  H261     1.0000 0.28832  0.15422  0.85183  Biso   1.000  H
  H262     1.0000 0.20997  0.08941  0.79379  Biso   1.000  H
  N165     1.0000 0.29879  0.17363  0.71943  Biso   1.000  N
  H263     1.0000 0.28832  0.15415  0.85183  Biso   1.000  H
  H264     1.0000 0.20997  0.08935  0.79379  Biso   1.000  H
  N166     1.0000 0.29879  0.17356  0.71943  Biso   1.000  N
  H265     1.0000 0.46141  0.37312  0.49409  Biso   1.000  H
  H266     1.0000 0.58125  0.32601  0.50238  Biso   1.000  H
  N167     1.0000 0.46654  0.27633  0.58496  Biso   1.000  N
  H267     1.0000 0.46141  0.37305  0.49409  Biso   1.000  H
  H268     1.0000 0.58125  0.32594  0.50238  Biso   1.000  H
  N168     1.0000 0.46654  0.27627  0.58496  Biso   1.000  N
  C258     1.0000 0.24420  0.16113  0.63993  Biso   1.000  C
  C259     1.0000 0.35533  0.28653  0.62227  Biso   1.000  C
  C260     1.0000 0.35533  0.28647  0.62227  Biso   1.000  C
  H269     1.0000 0.62226  0.23541  0.80950  Biso   1.000  H
  H270     1.0000 0.50442  0.23409  0.85919  Biso   1.000  H
  N169     1.0000 0.48938  0.23232  0.72565  Biso   1.000  N
  H271     1.0000 0.62226  0.23534  0.80950  Biso   1.000  H
  C261     1.0000 0.37009  0.25100  0.71923  Biso   1.000  C
  C262     1.0000 0.37009  0.25094  0.71923  Biso   1.000  C
  C263     1.0000 0.54510  0.25304  0.64889  Biso   1.000  C
  C264     1.0000 0.54510  0.25298  0.64889  Biso   1.000  C
  O84      1.0000 0.17873  0.10086  0.62207  Biso   1.000  O
  O85      1.0000 0.17873  0.10080  0.62207  Biso   1.000  O
  H272     1.0000 0.33000  0.34930  0.62140  Biso   1.000  H
  H273     1.0000 0.33000  0.34923  0.62140  Biso   1.000  H
  H274     1.0000 0.34642  0.29522  0.76470  Biso   1.000  H
  H275     1.0000 0.34642  0.29515  0.76470  Biso   1.000  H
  O86      1.0000 0.64663  0.25186  0.63879  Biso   1.000  O
  O87      1.0000 0.35347  0.74808  0.36122  Biso   1.000  O
  C265     1.0000 0.45500  0.74696  0.35112  Biso   1.000  C
  N170     1.0000 0.51072  0.76768  0.27436  Biso   1.000  N
  N171     1.0000 0.53356  0.72367  0.41498  Biso   1.000  N
  O88      1.0000 0.35347  0.74814  0.36122  Biso   1.000  O
  C266     1.0000 0.45362  0.79150  0.19118  Biso   1.000  C
  C267     1.0000 0.63001  0.74900  0.28078  Biso   1.000  C
  C268     1.0000 0.64469  0.71347  0.37774  Biso   1.000  C
  C269     1.0000 0.50096  0.68465  0.49937  Biso   1.000  C
  H276     1.0000 0.37784  0.76459  0.19051  Biso   1.000  H
  H277     1.0000 0.49568  0.76591  0.14082  Biso   1.000  H
  N172     1.0000 0.44195  0.88473  0.17646  Biso   1.000  N
  N173     1.0000 0.44195  0.88466  0.17646  Biso   1.000  N
  H278     1.0000 0.65368  0.70478  0.23531  Biso   1.000  H
  N174     1.0000 0.70132  0.82637  0.28058  Biso   1.000  N
  H279     1.0000 0.67010  0.65070  0.37861  Biso   1.000  H
  N175     1.0000 0.72884  0.77189  0.41619  Biso   1.000  N
  N176     1.0000 0.72884  0.77183  0.41619  Biso   1.000  N
  H280     1.0000 0.53861  0.62688  0.50592  Biso   1.000  H
  H281     1.0000 0.41885  0.67399  0.49763  Biso   1.000  H
  N177     1.0000 0.52835  0.73788  0.57700  Biso   1.000  N
  C270     1.0000 0.52790  0.94243  0.14129  Biso   1.000  C
  C271     1.0000 0.35538  0.93157  0.21384  Biso   1.000  C
  C272     1.0000 0.52790  0.94236  0.14129  Biso   1.000  C
  C273     1.0000 0.35538  0.93151  0.21384  Biso   1.000  C
  C274     1.0000 0.71505  0.88249  0.20288  Biso   1.000  C
  C275     1.0000 0.75590  0.83887  0.36008  Biso   1.000  C
  C276     1.0000 0.75590  0.83881  0.36008  Biso   1.000  C
  C277     1.0000 0.78532  0.75873  0.50144  Biso   1.000  C
  C278     1.0000 0.78532  0.75867  0.50144  Biso   1.000  C
  C279     1.0000 0.63858  0.73459  0.62000  Biso   1.000  C
  C280     1.0000 0.44854  0.77275  0.63217  Biso   1.000  C
  C281     1.0000 0.63858  0.73452  0.62000  Biso   1.000  C
  C282     1.0000 0.44854  0.77268  0.63217  Biso   1.000  C
  H282     1.0000 0.54547  0.92763  0.07790  Biso   1.000  H
  N178     1.0000 0.62981  0.95026  0.19626  Biso   1.000  N
  H283     1.0000 0.54547  0.92756  0.07790  Biso   1.000  H
  N179     1.0000 0.62981  0.95019  0.19626  Biso   1.000  N
  C283     1.0000 0.47382  0.03520  0.14898  Biso   1.000  C
  C284     1.0000 0.47382  0.03513  0.14898  Biso   1.000  C
  O89      1.0000 0.27173  0.89940  0.24627  Biso   1.000  O
  O90      1.0000 0.27173  0.89934  0.24627  Biso   1.000  O
  N180     1.0000 0.37853  0.01954  0.20742  Biso   1.000  N
  N181     1.0000 0.37853  0.01947  0.20742  Biso   1.000  N
  H284     1.0000 0.71178  0.84578  0.14818  Biso   1.000  H
  H285     1.0000 0.79013  0.91059  0.20622  Biso   1.000  H
  O91      1.0000 0.82137  0.89914  0.37794  Biso   1.000  O
  H286     1.0000 0.80178  0.69518  0.50873  Biso   1.000  H
  H287     1.0000 0.85821  0.79018  0.50091  Biso   1.000  H
  N182     1.0000 0.72253  0.78828  0.57767  Biso   1.000  N
  H288     1.0000 0.66509  0.67268  0.62883  Biso   1.000  H
  C285     1.0000 0.62099  0.78203  0.71020  Biso   1.000  C
  C286     1.0000 0.62099  0.78196  0.71020  Biso   1.000  C
  N183     1.0000 0.50215  0.80183  0.70907  Biso   1.000  N
  O92      1.0000 0.34754  0.77742  0.61572  Biso   1.000  O
  N184     1.0000 0.50215  0.80176  0.70907  Biso   1.000  N
  O93      1.0000 0.34754  0.77735  0.61572  Biso   1.000  O
  C287     1.0000 0.65310  0.03638  0.21605  Biso   1.000  C
  H289     1.0000 0.44892  0.05849  0.08927  Biso   1.000  H
  N185     1.0000 0.56496  0.08705  0.18763  Biso   1.000  N
  N186     1.0000 0.56496  0.08698  0.18763  Biso   1.000  N
  C288     1.0000 0.28850  0.08283  0.22053  Biso   1.000  C
  C289     1.0000 0.75108  0.86190  0.62735  Biso   1.000  C
  N187     1.0000 0.69150  0.85900  0.70405  Biso   1.000  N
  H290     1.0000 0.64287  0.74413  0.76229  Biso   1.000  H
  H291     1.0000 0.64287  0.74406  0.76229  Biso   1.000  H
  C290     1.0000 0.44181  0.82117  0.79011  Biso   1.000  C
  O94      1.0000 0.73917  0.06277  0.25363  Biso   1.000  O
  O95      1.0000 0.73917  0.06270  0.25363  Biso   1.000  O
  C291     1.0000 0.55829  0.17883  0.20990  Biso   1.000  C
  H292     1.0000 0.27934  0.11869  0.16563  Biso   1.000  H
  H293     1.0000 0.21730  0.05060  0.22969  Biso   1.000  H
  N188     1.0000 0.30861  0.14100  0.29596  Biso   1.000  N
  O96      1.0000 0.81949  0.91736  0.60562  Biso   1.000  O
  O97      1.0000 0.81949  0.91730  0.60562  Biso   1.000  O
  C292     1.0000 0.71160  0.91717  0.77948  Biso   1.000  C
  N189     1.0000 0.43514  0.91295  0.81231  Biso   1.000  N
  H294     1.0000 0.36440  0.79768  0.78363  Biso   1.000  H
  H295     1.0000 0.47888  0.78972  0.84053  Biso   1.000  H
  H296     1.0000 0.47888  0.78966  0.84053  Biso   1.000  H
  H297     1.0000 0.52122  0.21028  0.15948  Biso   1.000  H
  H298     1.0000 0.63570  0.20232  0.21638  Biso   1.000  H
  N190     1.0000 0.49795  0.19817  0.29094  Biso   1.000  N
  H299     1.0000 0.63570  0.20225  0.21638  Biso   1.000  H
  C293     1.0000 0.24902  0.13810  0.37265  Biso   1.000  C
  C294     1.0000 0.37911  0.21797  0.28981  Biso   1.000  C
  N191     1.0000 0.62157  0.98046  0.79259  Biso   1.000  N
  H300     1.0000 0.72076  0.88131  0.83438  Biso   1.000  H
  H301     1.0000 0.78280  0.94940  0.77032  Biso   1.000  H
  C295     1.0000 0.34700  0.96362  0.78396  Biso   1.000  C
  C296     1.0000 0.52628  0.96480  0.85103  Biso   1.000  C
  C297     1.0000 0.55156  0.22725  0.36777  Biso   1.000  C
  N192     1.0000 0.27758  0.21172  0.42234  Biso   1.000  N
  O98      1.0000 0.18061  0.08264  0.39439  Biso   1.000  O
  N193     1.0000 0.27758  0.21166  0.42234  Biso   1.000  N
  H302     1.0000 0.35723  0.25587  0.23772  Biso   1.000  H
  C298     1.0000 0.36152  0.26541  0.38001  Biso   1.000  C
  C299     1.0000 0.64464  0.06843  0.78617  Biso   1.000  C
  O99      1.0000 0.26093  0.93723  0.74638  Biso   1.000  O
  N194     1.0000 0.37029  0.04974  0.80375  Biso   1.000  N
  H303     1.0000 0.55118  0.94151  0.91067  Biso   1.000  H
  H304     1.0000 0.55118  0.94144  0.91067  Biso   1.000  H
  C300     1.0000 0.47220  0.05757  0.85872  Biso   1.000  C
  N195     1.0000 0.47175  0.26212  0.42301  Biso   1.000  N
  O100     1.0000 0.65256  0.22258  0.38422  Biso   1.000  O
  C301     1.0000 0.21479  0.24127  0.49857  Biso   1.000  C
  H305     1.0000 0.33501  0.32732  0.37118  Biso   1.000  H
  H306     1.0000 0.33501  0.32726  0.37118  Biso   1.000  H
  N196     1.0000 0.55815  0.11527  0.82355  Biso   1.000  N
  O101     1.0000 0.72829  0.10060  0.75367  Biso   1.000  O
  C302     1.0000 0.28505  0.11751  0.79713  Biso   1.000  C
  C303     1.0000 0.28505  0.11744  0.79713  Biso   1.000  C
  H307     1.0000 0.45463  0.07237  0.92211  Biso   1.000  H
  C304     1.0000 0.49914  0.31535  0.50064  Biso   1.000  C
  H308     1.0000 0.19832  0.30482  0.49128  Biso   1.000  H
  H309     1.0000 0.14189  0.20982  0.49910  Biso   1.000  H
  N197     1.0000 0.27126  0.22811  0.58382  Biso   1.000  N
  H310     1.0000 0.19832  0.30476  0.49128  Biso   1.000  H
  H311     1.0000 0.14189  0.20975  0.49910  Biso   1.000  H
  C305     1.0000 0.54649  0.20850  0.80883  Biso   1.000  C
  H312     1.0000 0.28832  0.15422  0.85183  Biso   1.000  H
  H313     1.0000 0.20997  0.08941  0.79379  Biso   1.000  H
  N198     1.0000 0.29879  0.17363  0.71943  Biso   1.000  N
  H314     1.0000 0.28832  0.15415  0.85183  Biso   1.000  H
  H315     1.0000 0.20997  0.08935  0.79379  Biso   1.000  H
  N199     1.0000 0.29879  0.17356  0.71943  Biso   1.000  N
  H316     1.0000 0.46141  0.37312  0.49409  Biso   1.000  H
  H317     1.0000 0.58125  0.32601  0.50238  Biso   1.000  H
  N200     1.0000 0.46654  0.27633  0.58496  Biso   1.000  N
  H318     1.0000 0.46141  0.37305  0.49409  Biso   1.000  H
  H319     1.0000 0.58125  0.32594  0.50238  Biso   1.000  H
  N201     1.0000 0.46654  0.27627  0.58496  Biso   1.000  N
  C306     1.0000 0.24420  0.16113  0.63993  Biso   1.000  C
  C307     1.0000 0.35533  0.28653  0.62227  Biso   1.000  C
  C308     1.0000 0.35533  0.28647  0.62227  Biso   1.000  C
  H320     1.0000 0.62226  0.23541  0.80950  Biso   1.000  H
  H321     1.0000 0.50442  0.23409  0.85919  Biso   1.000  H
  N202     1.0000 0.48938  0.23232  0.72565  Biso   1.000  N
  H322     1.0000 0.62226  0.23534  0.80950  Biso   1.000  H
  C309     1.0000 0.37009  0.25100  0.71923  Biso   1.000  C
  C310     1.0000 0.37009  0.25094  0.71923  Biso   1.000  C
  C311     1.0000 0.54510  0.25304  0.64889  Biso   1.000  C
  C312     1.0000 0.54510  0.25298  0.64889  Biso   1.000  C
  O102     1.0000 0.17873  0.10086  0.62207  Biso   1.000  O
  O103     1.0000 0.17873  0.10080  0.62207  Biso   1.000  O
  H323     1.0000 0.33000  0.34930  0.62140  Biso   1.000  H
  H324     1.0000 0.33000  0.34923  0.62140  Biso   1.000  H
  H325     1.0000 0.34642  0.29522  0.76470  Biso   1.000  H
  H326     1.0000 0.34642  0.29515  0.76470  Biso   1.000  H
  O104     1.0000 0.64663  0.25186  0.63879  Biso   1.000  O
