data_image0
_cell_length_a       11.873
_cell_length_b       15.284
_cell_length_c       15.04
_cell_angle_alpha    90
_cell_angle_beta     90.67
_cell_angle_gamma    90

_symmetry_space_group_name_H-M    "P 1"
_symmetry_int_tables_number       1

loop_
  _symmetry_equiv_pos_as_xyz
  'x, y, z'

loop_
  _atom_site_label
  _atom_site_occupancy
  _atom_site_fract_x
  _atom_site_fract_y
  _atom_site_fract_z
  _atom_site_thermal_displace_type
  _atom_site_B_iso_or_equiv
  _atom_site_type_symbol
  N1       1.0000 0.69164  0.14329  0.20360  Biso   1.000  N
  C1       1.0000 0.61921  0.21958  0.20952  Biso   1.000  C
  C2       1.0000 0.61912  0.21958  0.20952  Biso   1.000  C
  C3       1.0000 0.71178  0.08532  0.27808  Biso   1.000  C
  C4       1.0000 0.75088  0.13988  0.12647  Biso   1.000  C
  C5       1.0000 0.71178  0.08532  0.27814  Biso   1.000  C
  C6       1.0000 0.75088  0.13988  0.12654  Biso   1.000  C
  C7       1.0000 0.71178  0.08525  0.27808  Biso   1.000  C
  C8       1.0000 0.71178  0.08525  0.27814  Biso   1.000  C
  N2       1.0000 0.50095  0.19942  0.20926  Biso   1.000  N
  N3       1.0000 0.50095  0.19942  0.20932  Biso   1.000  N
  C9       1.0000 0.63801  0.26610  0.11982  Biso   1.000  C
  C10      1.0000 0.63792  0.26610  0.11982  Biso   1.000  C
  H1       1.0000 0.64077  0.25779  0.26092  Biso   1.000  H
  N4       1.0000 0.69172  0.14329  0.20360  Biso   1.000  N
  N5       1.0000 0.62261  0.02159  0.29111  Biso   1.000  N
  N6       1.0000 0.62252  0.02159  0.29111  Biso   1.000  N
  N7       1.0000 0.62261  0.02153  0.29111  Biso   1.000  N
  N8       1.0000 0.62252  0.02153  0.29111  Biso   1.000  N
  H2       1.0000 0.72025  0.12091  0.33280  Biso   1.000  H
  H3       1.0000 0.78357  0.05391  0.26883  Biso   1.000  H
  H4       1.0000 0.72025  0.12085  0.33280  Biso   1.000  H
  H5       1.0000 0.78357  0.05385  0.26883  Biso   1.000  H
  N9       1.0000 0.72143  0.21290  0.07673  Biso   1.000  N
  N10      1.0000 0.72134  0.21290  0.07673  Biso   1.000  N
  O1       1.0000 0.82006  0.08525  0.10539  Biso   1.000  O
  O2       1.0000 0.82006  0.08525  0.10546  Biso   1.000  O
  C11      1.0000 0.44701  0.22782  0.13279  Biso   1.000  C
  C12      1.0000 0.44693  0.22782  0.13279  Biso   1.000  C
  C13      1.0000 0.44701  0.22775  0.13279  Biso   1.000  C
  C14      1.0000 0.44693  0.22775  0.13279  Biso   1.000  C
  C15      1.0000 0.43998  0.17862  0.28951  Biso   1.000  C
  C16      1.0000 0.43998  0.17855  0.28951  Biso   1.000  C
  N11      1.0000 0.52722  0.26224  0.07747  Biso   1.000  N
  N12      1.0000 0.52713  0.26224  0.07747  Biso   1.000  N
  H6       1.0000 0.66441  0.32766  0.12820  Biso   1.000  H
  H7       1.0000 0.66433  0.32766  0.12820  Biso   1.000  H
  C17      1.0000 0.52627  0.03559  0.34909  Biso   1.000  C
  C18      1.0000 0.64709  0.93398  0.28400  Biso   1.000  C
  C19      1.0000 0.64701  0.93398  0.28400  Biso   1.000  C
  C20      1.0000 0.78398  0.24117  0.00093  Biso   1.000  C
  O3       1.0000 0.34579  0.22206  0.11663  Biso   1.000  O
  O4       1.0000 0.34579  0.22200  0.11663  Biso   1.000  O
  H8       1.0000 0.47611  0.20950  0.34012  Biso   1.000  H
  H9       1.0000 0.36215  0.20119  0.28320  Biso   1.000  H
  N13      1.0000 0.43481  0.08643  0.31019  Biso   1.000  N
  H10      1.0000 0.47602  0.20950  0.34012  Biso   1.000  H
  N14      1.0000 0.43473  0.08643  0.31019  Biso   1.000  N
  N15      1.0000 0.43481  0.08636  0.31019  Biso   1.000  N
  N16      1.0000 0.43473  0.08636  0.31019  Biso   1.000  N
  C21      1.0000 0.49810  0.31451  0.00000  Biso   1.000  C
  C22      1.0000 0.49810  0.31445  0.00000  Biso   1.000  C
  C23      1.0000 0.49802  0.31451  0.00000  Biso   1.000  C
  C24      1.0000 0.49802  0.31445  0.00000  Biso   1.000  C
  H11      1.0000 0.54998  0.05889  0.40861  Biso   1.000  H
  C25      1.0000 0.47365  0.94340  0.35641  Biso   1.000  C
  N17      1.0000 0.55969  0.88674  0.31984  Biso   1.000  N
  N18      1.0000 0.55961  0.88674  0.31984  Biso   1.000  N
  N19      1.0000 0.55969  0.88668  0.31984  Biso   1.000  N
  N20      1.0000 0.55961  0.88668  0.31984  Biso   1.000  N
  O5       1.0000 0.73168  0.90277  0.25155  Biso   1.000  O
  O6       1.0000 0.73168  0.90271  0.25155  Biso   1.000  O
  H12      1.0000 0.80092  0.30437  0.00738  Biso   1.000  H
  H13      1.0000 0.85682  0.20950  0.00013  Biso   1.000  H
  H14      1.0000 0.80083  0.30437  0.00738  Biso   1.000  H
  H15      1.0000 0.85674  0.20950  0.00013  Biso   1.000  H
  N21      1.0000 0.72629  0.22736  0.91642  Biso   1.000  N
  N22      1.0000 0.72629  0.22730  0.91642  Biso   1.000  N
  C26      1.0000 0.34606  0.03599  0.28313  Biso   1.000  C
  H16      1.0000 0.53466  0.37242  0.00572  Biso   1.000  H
  H17      1.0000 0.53466  0.37235  0.00572  Biso   1.000  H
  H18      1.0000 0.41563  0.32406  0.99880  Biso   1.000  H
  N23      1.0000 0.53089  0.27545  0.91628  Biso   1.000  N
  H19      1.0000 0.41555  0.32406  0.99880  Biso   1.000  H
  N24      1.0000 0.37119  0.95073  0.30182  Biso   1.000  N
  N25      1.0000 0.37119  0.95067  0.30182  Biso   1.000  N
  H20      1.0000 0.45631  0.92790  0.41931  Biso   1.000  H
  H21      1.0000 0.45622  0.92790  0.41931  Biso   1.000  H
  C27      1.0000 0.55039  0.79357  0.30581  Biso   1.000  C
  C28      1.0000 0.64243  0.28559  0.87832  Biso   1.000  C
  C29      1.0000 0.64235  0.28559  0.87832  Biso   1.000  C
  C30      1.0000 0.75453  0.16082  0.86063  Biso   1.000  C
  C31      1.0000 0.75444  0.16082  0.86063  Biso   1.000  C
  C32      1.0000 0.75453  0.16076  0.86063  Biso   1.000  C
  C33      1.0000 0.75444  0.16076  0.86063  Biso   1.000  C
  O7       1.0000 0.25970  0.06242  0.24696  Biso   1.000  O
  O8       1.0000 0.25962  0.06242  0.24696  Biso   1.000  O
  C34      1.0000 0.45238  0.25137  0.85278  Biso   1.000  C
  C35      1.0000 0.28662  0.88282  0.29583  Biso   1.000  C
  C36      1.0000 0.28653  0.88282  0.29583  Biso   1.000  C
  C37      1.0000 0.28662  0.88275  0.29583  Biso   1.000  C
  C38      1.0000 0.28653  0.88275  0.29583  Biso   1.000  C
  H22      1.0000 0.50979  0.76760  0.35661  Biso   1.000  H
  H23      1.0000 0.62694  0.76812  0.30541  Biso   1.000  H
  N26      1.0000 0.49207  0.76904  0.22362  Biso   1.000  N
  H24      1.0000 0.62694  0.76806  0.30541  Biso   1.000  H
  C39      1.0000 0.62694  0.24987  0.78210  Biso   1.000  C
  H25      1.0000 0.66788  0.34788  0.87891  Biso   1.000  H
  C40      1.0000 0.62686  0.24987  0.78210  Biso   1.000  C
  N27      1.0000 0.69886  0.17306  0.78170  Biso   1.000  N
  O9       1.0000 0.82031  0.10135  0.87812  Biso   1.000  O
  O10      1.0000 0.82023  0.10135  0.87812  Biso   1.000  O
  N28      1.0000 0.50793  0.23096  0.77638  Biso   1.000  N
  O11      1.0000 0.35029  0.25000  0.86349  Biso   1.000  O
  N29      1.0000 0.50785  0.23096  0.77638  Biso   1.000  N
  H26      1.0000 0.21111  0.91023  0.29291  Biso   1.000  H
  H27      1.0000 0.29037  0.84638  0.35022  Biso   1.000  H
  N30      1.0000 0.30105  0.82694  0.21830  Biso   1.000  N
  H28      1.0000 0.21103  0.91023  0.29291  Biso   1.000  H
  H29      1.0000 0.21111  0.91017  0.29291  Biso   1.000  H
  H30      1.0000 0.21103  0.91017  0.29291  Biso   1.000  H
  C41      1.0000 0.37306  0.75013  0.21790  Biso   1.000  C
  C42      1.0000 0.37306  0.75007  0.21790  Biso   1.000  C
  C43      1.0000 0.54762  0.74863  0.14722  Biso   1.000  C
  C44      1.0000 0.54754  0.74863  0.14722  Biso   1.000  C
  C45      1.0000 0.54762  0.74856  0.14722  Biso   1.000  C
  C46      1.0000 0.54754  0.74856  0.14722  Biso   1.000  C
  H31      1.0000 0.65010  0.29377  0.73648  Biso   1.000  H
  C47      1.0000 0.71338  0.11718  0.70417  Biso   1.000  C
  C48      1.0000 0.71338  0.11718  0.70424  Biso   1.000  C
  C49      1.0000 0.44961  0.20643  0.69419  Biso   1.000  C
  C50      1.0000 0.44961  0.20636  0.69419  Biso   1.000  C
  C51      1.0000 0.24547  0.83918  0.13937  Biso   1.000  C
  C52      1.0000 0.24547  0.83918  0.13944  Biso   1.000  C
  H32      1.0000 0.34990  0.70623  0.26352  Biso   1.000  H
  C53      1.0000 0.35757  0.71441  0.12168  Biso   1.000  C
  H33      1.0000 0.34981  0.70623  0.26352  Biso   1.000  H
  H34      1.0000 0.34990  0.70616  0.26352  Biso   1.000  H
  H35      1.0000 0.34981  0.70616  0.26352  Biso   1.000  H
  N31      1.0000 0.46911  0.72455  0.08372  Biso   1.000  N
  O12      1.0000 0.64971  0.75000  0.13651  Biso   1.000  O
  N32      1.0000 0.46903  0.72455  0.08378  Biso   1.000  N
  O13      1.0000 0.64963  0.75000  0.13651  Biso   1.000  O
  H36      1.0000 0.78889  0.08977  0.70709  Biso   1.000  H
  H37      1.0000 0.70963  0.15362  0.64978  Biso   1.000  H
  N33      1.0000 0.62881  0.04927  0.69818  Biso   1.000  N
  H38      1.0000 0.70954  0.15362  0.64978  Biso   1.000  H
  H39      1.0000 0.70963  0.15356  0.64978  Biso   1.000  H
  H40      1.0000 0.70954  0.15356  0.64978  Biso   1.000  H
  H41      1.0000 0.49021  0.23240  0.64339  Biso   1.000  H
  H42      1.0000 0.37297  0.23188  0.69459  Biso   1.000  H
  N34      1.0000 0.44031  0.11326  0.68016  Biso   1.000  N
  N35      1.0000 0.27371  0.77264  0.08358  Biso   1.000  N
  O14      1.0000 0.17969  0.89865  0.12188  Biso   1.000  O
  N36      1.0000 0.27362  0.77264  0.08365  Biso   1.000  N
  O15      1.0000 0.17969  0.89859  0.12188  Biso   1.000  O
  H43      1.0000 0.33212  0.65212  0.12109  Biso   1.000  H
  H44      1.0000 0.33204  0.65212  0.12109  Biso   1.000  H
  C54      1.0000 0.50190  0.68549  0.00000  Biso   1.000  C
  C55      1.0000 0.52635  0.05660  0.64359  Biso   1.000  C
  C56      1.0000 0.52626  0.05660  0.64359  Biso   1.000  C
  C57      1.0000 0.65394  0.96401  0.71687  Biso   1.000  C
  C58      1.0000 0.65385  0.96401  0.71694  Biso   1.000  C
  C59      1.0000 0.65394  0.96395  0.71687  Biso   1.000  C
  C60      1.0000 0.65385  0.96395  0.71694  Biso   1.000  C
  C61      1.0000 0.35291  0.06602  0.71600  Biso   1.000  C
  C62      1.0000 0.35291  0.06595  0.71600  Biso   1.000  C
  C63      1.0000 0.21602  0.75883  0.99907  Biso   1.000  C
  C64      1.0000 0.21594  0.75883  0.99914  Biso   1.000  C
  C65      1.0000 0.21602  0.75877  0.99907  Biso   1.000  C
  C66      1.0000 0.21594  0.75877  0.99914  Biso   1.000  C
  H45      1.0000 0.46526  0.62758  0.99428  Biso   1.000  H
  N37      1.0000 0.47278  0.73776  0.92253  Biso   1.000  N
  N38      1.0000 0.47279  0.73776  0.92260  Biso   1.000  N
  N39      1.0000 0.47278  0.73770  0.92253  Biso   1.000  N
  N40      1.0000 0.47279  0.73770  0.92260  Biso   1.000  N
  H46      1.0000 0.58437  0.67594  0.00120  Biso   1.000  H
  H47      1.0000 0.58437  0.67587  0.00120  Biso   1.000  H
  C67      1.0000 0.47373  0.96441  0.65091  Biso   1.000  C
  C68      1.0000 0.47365  0.96441  0.65091  Biso   1.000  C
  H48      1.0000 0.54369  0.07210  0.58069  Biso   1.000  H
  N41      1.0000 0.56519  0.91357  0.68981  Biso   1.000  N
  O16      1.0000 0.74030  0.93758  0.75304  Biso   1.000  O
  N42      1.0000 0.37739  0.97841  0.70889  Biso   1.000  N
  O17      1.0000 0.26832  0.09723  0.74845  Biso   1.000  O
  O18      1.0000 0.26824  0.09723  0.74845  Biso   1.000  O
  H49      1.0000 0.19908  0.69563  0.99262  Biso   1.000  H
  H50      1.0000 0.14318  0.79050  0.99987  Biso   1.000  H
  N43      1.0000 0.27857  0.78710  0.92327  Biso   1.000  N
  H51      1.0000 0.14318  0.79050  0.99993  Biso   1.000  H
  H52      1.0000 0.19908  0.69556  0.99262  Biso   1.000  H
  C69      1.0000 0.36199  0.73390  0.88018  Biso   1.000  C
  C70      1.0000 0.55299  0.77218  0.86721  Biso   1.000  C
  H53      1.0000 0.45002  0.94111  0.59139  Biso   1.000  H
  H54      1.0000 0.44994  0.94111  0.59139  Biso   1.000  H
  H55      1.0000 0.45002  0.94105  0.59139  Biso   1.000  H
  H56      1.0000 0.44994  0.94105  0.59139  Biso   1.000  H
  C71      1.0000 0.56002  0.82138  0.71049  Biso   1.000  C
  C72      1.0000 0.55993  0.82138  0.71049  Biso   1.000  C
  C73      1.0000 0.28822  0.91468  0.72192  Biso   1.000  C
  C74      1.0000 0.28814  0.91468  0.72192  Biso   1.000  C
  C75      1.0000 0.24912  0.86012  0.87353  Biso   1.000  C
  C76      1.0000 0.24903  0.86012  0.87353  Biso   1.000  C
  C77      1.0000 0.38079  0.78042  0.79048  Biso   1.000  C
  C78      1.0000 0.38079  0.78036  0.79048  Biso   1.000  C
  H57      1.0000 0.33559  0.67234  0.87180  Biso   1.000  H
  H58      1.0000 0.33559  0.67227  0.87180  Biso   1.000  H
  N44      1.0000 0.49896  0.80058  0.79074  Biso   1.000  N
  O19      1.0000 0.65421  0.77794  0.88337  Biso   1.000  O
  O20      1.0000 0.65413  0.77794  0.88337  Biso   1.000  O
  H59      1.0000 0.52389  0.79050  0.65988  Biso   1.000  H
  H60      1.0000 0.63777  0.79881  0.71680  Biso   1.000  H
  N45      1.0000 0.30828  0.85671  0.79640  Biso   1.000  N
  H61      1.0000 0.27975  0.87909  0.66720  Biso   1.000  H
  H62      1.0000 0.21643  0.94609  0.73117  Biso   1.000  H
  H63      1.0000 0.27967  0.87909  0.66720  Biso   1.000  H
  H64      1.0000 0.21635  0.94609  0.73123  Biso   1.000  H
  O21      1.0000 0.17994  0.91475  0.89461  Biso   1.000  O
  O22      1.0000 0.17986  0.91475  0.89461  Biso   1.000  O
  H65      1.0000 0.35923  0.74221  0.73908  Biso   1.000  H
  H66      1.0000 0.35914  0.74221  0.73908  Biso   1.000  H
  N46      1.0000 0.69164  0.14329  0.20360  Biso   1.000  N
  C79      1.0000 0.61921  0.21958  0.20952  Biso   1.000  C
  C80      1.0000 0.61912  0.21958  0.20952  Biso   1.000  C
  C81      1.0000 0.75088  0.13988  0.12647  Biso   1.000  C
  C82      1.0000 0.75088  0.13988  0.12654  Biso   1.000  C
  C83      1.0000 0.71178  0.08532  0.27808  Biso   1.000  C
  C84      1.0000 0.71178  0.08532  0.27814  Biso   1.000  C
  C85      1.0000 0.71178  0.08525  0.27808  Biso   1.000  C
  C86      1.0000 0.71178  0.08525  0.27814  Biso   1.000  C
  N47      1.0000 0.50095  0.19942  0.20926  Biso   1.000  N
  N48      1.0000 0.50095  0.19942  0.20932  Biso   1.000  N
  C87      1.0000 0.63801  0.26610  0.11982  Biso   1.000  C
  C88      1.0000 0.63792  0.26610  0.11982  Biso   1.000  C
  H67      1.0000 0.64077  0.25779  0.26092  Biso   1.000  H
  N49      1.0000 0.69172  0.14329  0.20360  Biso   1.000  N
  N50      1.0000 0.72143  0.21290  0.07673  Biso   1.000  N
  N51      1.0000 0.72134  0.21290  0.07673  Biso   1.000  N
  O23      1.0000 0.82006  0.08525  0.10539  Biso   1.000  O
  O24      1.0000 0.82006  0.08525  0.10546  Biso   1.000  O
  N52      1.0000 0.62261  0.02159  0.29111  Biso   1.000  N
  N53      1.0000 0.62252  0.02159  0.29111  Biso   1.000  N
  N54      1.0000 0.62261  0.02153  0.29111  Biso   1.000  N
  N55      1.0000 0.62252  0.02153  0.29111  Biso   1.000  N
  H68      1.0000 0.72025  0.12091  0.33280  Biso   1.000  H
  H69      1.0000 0.78357  0.05391  0.26883  Biso   1.000  H
  H70      1.0000 0.72025  0.12085  0.33280  Biso   1.000  H
  H71      1.0000 0.78357  0.05385  0.26883  Biso   1.000  H
  C89      1.0000 0.44701  0.22782  0.13279  Biso   1.000  C
  C90      1.0000 0.44693  0.22782  0.13279  Biso   1.000  C
  C91      1.0000 0.44701  0.22775  0.13279  Biso   1.000  C
  C92      1.0000 0.44693  0.22775  0.13279  Biso   1.000  C
  C93      1.0000 0.43998  0.17862  0.28951  Biso   1.000  C
  C94      1.0000 0.43998  0.17855  0.28951  Biso   1.000  C
  N56      1.0000 0.52722  0.26224  0.07747  Biso   1.000  N
  N57      1.0000 0.52713  0.26224  0.07747  Biso   1.000  N
  H72      1.0000 0.66441  0.32766  0.12820  Biso   1.000  H
  H73      1.0000 0.66433  0.32766  0.12820  Biso   1.000  H
  C95      1.0000 0.78398  0.24117  0.00093  Biso   1.000  C
  C96      1.0000 0.52627  0.03559  0.34909  Biso   1.000  C
  C97      1.0000 0.64709  0.93398  0.28400  Biso   1.000  C
  C98      1.0000 0.64701  0.93398  0.28400  Biso   1.000  C
  O25      1.0000 0.34579  0.22206  0.11663  Biso   1.000  O
  O26      1.0000 0.34579  0.22200  0.11663  Biso   1.000  O
  H74      1.0000 0.36215  0.20119  0.28320  Biso   1.000  H
  H75      1.0000 0.47611  0.20950  0.34012  Biso   1.000  H
  H76      1.0000 0.47602  0.20950  0.34012  Biso   1.000  H
  N58      1.0000 0.43481  0.08643  0.31019  Biso   1.000  N
  N59      1.0000 0.43473  0.08643  0.31019  Biso   1.000  N
  N60      1.0000 0.43481  0.08636  0.31019  Biso   1.000  N
  N61      1.0000 0.43473  0.08636  0.31019  Biso   1.000  N
  C99      1.0000 0.49802  0.31451  0.00000  Biso   1.000  C
  C100     1.0000 0.49802  0.31445  0.00000  Biso   1.000  C
  C101     1.0000 0.49810  0.31451  0.00000  Biso   1.000  C
  C102     1.0000 0.49810  0.31445  0.00000  Biso   1.000  C
  H77      1.0000 0.80092  0.30437  0.00738  Biso   1.000  H
  H78      1.0000 0.85682  0.20950  0.00013  Biso   1.000  H
  H79      1.0000 0.80083  0.30437  0.00738  Biso   1.000  H
  H80      1.0000 0.85674  0.20950  0.00013  Biso   1.000  H
  N62      1.0000 0.72629  0.22736  0.91642  Biso   1.000  N
  N63      1.0000 0.72629  0.22730  0.91642  Biso   1.000  N
  H81      1.0000 0.54998  0.05889  0.40861  Biso   1.000  H
  C103     1.0000 0.47365  0.94340  0.35641  Biso   1.000  C
  N64      1.0000 0.55969  0.88674  0.31984  Biso   1.000  N
  N65      1.0000 0.55961  0.88674  0.31984  Biso   1.000  N
  N66      1.0000 0.55969  0.88668  0.31984  Biso   1.000  N
  N67      1.0000 0.55961  0.88668  0.31984  Biso   1.000  N
  O27      1.0000 0.73168  0.90277  0.25155  Biso   1.000  O
  O28      1.0000 0.73168  0.90271  0.25155  Biso   1.000  O
  C104     1.0000 0.34606  0.03599  0.28313  Biso   1.000  C
  H82      1.0000 0.53466  0.37242  0.00572  Biso   1.000  H
  H83      1.0000 0.53466  0.37235  0.00572  Biso   1.000  H
  H84      1.0000 0.41563  0.32406  0.99880  Biso   1.000  H
  N68      1.0000 0.53089  0.27545  0.91628  Biso   1.000  N
  H85      1.0000 0.41555  0.32406  0.99880  Biso   1.000  H
  C105     1.0000 0.64243  0.28559  0.87832  Biso   1.000  C
  C106     1.0000 0.64235  0.28559  0.87832  Biso   1.000  C
  C107     1.0000 0.75453  0.16082  0.86063  Biso   1.000  C
  C108     1.0000 0.75444  0.16082  0.86063  Biso   1.000  C
  C109     1.0000 0.75453  0.16076  0.86063  Biso   1.000  C
  C110     1.0000 0.75444  0.16076  0.86063  Biso   1.000  C
  N69      1.0000 0.37119  0.95073  0.30182  Biso   1.000  N
  N70      1.0000 0.37119  0.95067  0.30182  Biso   1.000  N
  H86      1.0000 0.45631  0.92790  0.41931  Biso   1.000  H
  H87      1.0000 0.45622  0.92790  0.41931  Biso   1.000  H
  C111     1.0000 0.55039  0.79357  0.30581  Biso   1.000  C
  O29      1.0000 0.25970  0.06242  0.24696  Biso   1.000  O
  O30      1.0000 0.25962  0.06242  0.24696  Biso   1.000  O
  C112     1.0000 0.45238  0.25137  0.85278  Biso   1.000  C
  C113     1.0000 0.62694  0.24987  0.78210  Biso   1.000  C
  H88      1.0000 0.66788  0.34788  0.87891  Biso   1.000  H
  C114     1.0000 0.62686  0.24987  0.78210  Biso   1.000  C
  N71      1.0000 0.69886  0.17306  0.78170  Biso   1.000  N
  O31      1.0000 0.82031  0.10135  0.87812  Biso   1.000  O
  O32      1.0000 0.82023  0.10135  0.87812  Biso   1.000  O
  C115     1.0000 0.28662  0.88282  0.29583  Biso   1.000  C
  C116     1.0000 0.28653  0.88282  0.29583  Biso   1.000  C
  C117     1.0000 0.28662  0.88275  0.29583  Biso   1.000  C
  C118     1.0000 0.28653  0.88275  0.29583  Biso   1.000  C
  H89      1.0000 0.50979  0.76760  0.35661  Biso   1.000  H
  H90      1.0000 0.62694  0.76812  0.30541  Biso   1.000  H
  N72      1.0000 0.49207  0.76904  0.22362  Biso   1.000  N
  H91      1.0000 0.62694  0.76806  0.30541  Biso   1.000  H
  N73      1.0000 0.50793  0.23096  0.77638  Biso   1.000  N
  O33      1.0000 0.35029  0.25000  0.86349  Biso   1.000  O
  N74      1.0000 0.50785  0.23096  0.77638  Biso   1.000  N
  H92      1.0000 0.65010  0.29377  0.73648  Biso   1.000  H
  C119     1.0000 0.71338  0.11718  0.70417  Biso   1.000  C
  C120     1.0000 0.71338  0.11718  0.70424  Biso   1.000  C
  H93      1.0000 0.21111  0.91023  0.29291  Biso   1.000  H
  H94      1.0000 0.29037  0.84638  0.35022  Biso   1.000  H
  N75      1.0000 0.30105  0.82694  0.21830  Biso   1.000  N
  H95      1.0000 0.21103  0.91023  0.29291  Biso   1.000  H
  H96      1.0000 0.21111  0.91017  0.29291  Biso   1.000  H
  H97      1.0000 0.21103  0.91017  0.29291  Biso   1.000  H
  C121     1.0000 0.37306  0.75013  0.21790  Biso   1.000  C
  C122     1.0000 0.37306  0.75007  0.21790  Biso   1.000  C
  C123     1.0000 0.54762  0.74863  0.14722  Biso   1.000  C
  C124     1.0000 0.54754  0.74863  0.14722  Biso   1.000  C
  C125     1.0000 0.54762  0.74856  0.14722  Biso   1.000  C
  C126     1.0000 0.54754  0.74856  0.14722  Biso   1.000  C
  C127     1.0000 0.44961  0.20643  0.69419  Biso   1.000  C
  C128     1.0000 0.44961  0.20636  0.69419  Biso   1.000  C
  H98      1.0000 0.78889  0.08977  0.70709  Biso   1.000  H
  H99      1.0000 0.70963  0.15362  0.64978  Biso   1.000  H
  N76      1.0000 0.62881  0.04927  0.69818  Biso   1.000  N
  H100     1.0000 0.70954  0.15362  0.64978  Biso   1.000  H
  H101     1.0000 0.70963  0.15356  0.64978  Biso   1.000  H
  H102     1.0000 0.70954  0.15356  0.64978  Biso   1.000  H
  C129     1.0000 0.24547  0.83918  0.13937  Biso   1.000  C
  C130     1.0000 0.24547  0.83918  0.13944  Biso   1.000  C
  H103     1.0000 0.34990  0.70623  0.26352  Biso   1.000  H
  C131     1.0000 0.35757  0.71441  0.12168  Biso   1.000  C
  H104     1.0000 0.34981  0.70623  0.26352  Biso   1.000  H
  H105     1.0000 0.34990  0.70616  0.26352  Biso   1.000  H
  H106     1.0000 0.34981  0.70616  0.26352  Biso   1.000  H
  N77      1.0000 0.46911  0.72455  0.08372  Biso   1.000  N
  O34      1.0000 0.64971  0.75000  0.13651  Biso   1.000  O
  N78      1.0000 0.46903  0.72455  0.08378  Biso   1.000  N
  O35      1.0000 0.64963  0.75000  0.13651  Biso   1.000  O
  H107     1.0000 0.49021  0.23240  0.64339  Biso   1.000  H
  H108     1.0000 0.37297  0.23188  0.69459  Biso   1.000  H
  N79      1.0000 0.44031  0.11326  0.68016  Biso   1.000  N
  C132     1.0000 0.52635  0.05660  0.64359  Biso   1.000  C
  C133     1.0000 0.52626  0.05660  0.64359  Biso   1.000  C
  C134     1.0000 0.65394  0.96401  0.71687  Biso   1.000  C
  C135     1.0000 0.65385  0.96401  0.71694  Biso   1.000  C
  C136     1.0000 0.65394  0.96395  0.71687  Biso   1.000  C
  C137     1.0000 0.65385  0.96395  0.71694  Biso   1.000  C
  N80      1.0000 0.27371  0.77264  0.08358  Biso   1.000  N
  O36      1.0000 0.17969  0.89865  0.12188  Biso   1.000  O
  N81      1.0000 0.27362  0.77264  0.08365  Biso   1.000  N
  O37      1.0000 0.17969  0.89859  0.12188  Biso   1.000  O
  H109     1.0000 0.33212  0.65212  0.12109  Biso   1.000  H
  H110     1.0000 0.33204  0.65212  0.12109  Biso   1.000  H
  C138     1.0000 0.50190  0.68549  0.00000  Biso   1.000  C
  C139     1.0000 0.35291  0.06602  0.71600  Biso   1.000  C
  C140     1.0000 0.35291  0.06595  0.71600  Biso   1.000  C
  C141     1.0000 0.47373  0.96441  0.65091  Biso   1.000  C
  C142     1.0000 0.47365  0.96441  0.65091  Biso   1.000  C
  H111     1.0000 0.54369  0.07210  0.58069  Biso   1.000  H
  N82      1.0000 0.56519  0.91357  0.68981  Biso   1.000  N
  O38      1.0000 0.74030  0.93758  0.75304  Biso   1.000  O
  C143     1.0000 0.21602  0.75883  0.99907  Biso   1.000  C
  C144     1.0000 0.21594  0.75883  0.99914  Biso   1.000  C
  C145     1.0000 0.21602  0.75877  0.99907  Biso   1.000  C
  C146     1.0000 0.21594  0.75877  0.99914  Biso   1.000  C
  H112     1.0000 0.46526  0.62758  0.99428  Biso   1.000  H
  N83      1.0000 0.47278  0.73776  0.92253  Biso   1.000  N
  N84      1.0000 0.47279  0.73776  0.92260  Biso   1.000  N
  N85      1.0000 0.47278  0.73770  0.92253  Biso   1.000  N
  N86      1.0000 0.47279  0.73770  0.92260  Biso   1.000  N
  H113     1.0000 0.58437  0.67594  0.00120  Biso   1.000  H
  H114     1.0000 0.58437  0.67587  0.00120  Biso   1.000  H
  N87      1.0000 0.37739  0.97841  0.70889  Biso   1.000  N
  O39      1.0000 0.26832  0.09723  0.74845  Biso   1.000  O
  O40      1.0000 0.26824  0.09723  0.74845  Biso   1.000  O
  H115     1.0000 0.45002  0.94111  0.59139  Biso   1.000  H
  H116     1.0000 0.44994  0.94111  0.59139  Biso   1.000  H
  H117     1.0000 0.45002  0.94105  0.59139  Biso   1.000  H
  H118     1.0000 0.44994  0.94105  0.59139  Biso   1.000  H
  C147     1.0000 0.56002  0.82138  0.71049  Biso   1.000  C
  C148     1.0000 0.55993  0.82138  0.71049  Biso   1.000  C
  H119     1.0000 0.19908  0.69563  0.99262  Biso   1.000  H
  H120     1.0000 0.14318  0.79050  0.99987  Biso   1.000  H
  N88      1.0000 0.27857  0.78710  0.92327  Biso   1.000  N
  H121     1.0000 0.14318  0.79050  0.99993  Biso   1.000  H
  H122     1.0000 0.19908  0.69556  0.99262  Biso   1.000  H
  C149     1.0000 0.36199  0.73390  0.88018  Biso   1.000  C
  C150     1.0000 0.55299  0.77218  0.86721  Biso   1.000  C
  C151     1.0000 0.28822  0.91468  0.72192  Biso   1.000  C
  C152     1.0000 0.28814  0.91468  0.72192  Biso   1.000  C
  N89      1.0000 0.49896  0.80058  0.79074  Biso   1.000  N
  H123     1.0000 0.52389  0.79050  0.65988  Biso   1.000  H
  H124     1.0000 0.63777  0.79881  0.71680  Biso   1.000  H
  C153     1.0000 0.24912  0.86012  0.87353  Biso   1.000  C
  C154     1.0000 0.24903  0.86012  0.87353  Biso   1.000  C
  C155     1.0000 0.38079  0.78042  0.79048  Biso   1.000  C
  C156     1.0000 0.38079  0.78036  0.79048  Biso   1.000  C
  H125     1.0000 0.33559  0.67234  0.87180  Biso   1.000  H
  H126     1.0000 0.33559  0.67227  0.87180  Biso   1.000  H
  O41      1.0000 0.65421  0.77794  0.88337  Biso   1.000  O
  O42      1.0000 0.65413  0.77794  0.88337  Biso   1.000  O
  N90      1.0000 0.30828  0.85671  0.79640  Biso   1.000  N
  H127     1.0000 0.27975  0.87909  0.66720  Biso   1.000  H
  H128     1.0000 0.21643  0.94609  0.73117  Biso   1.000  H
  H129     1.0000 0.27967  0.87909  0.66720  Biso   1.000  H
  H130     1.0000 0.21635  0.94609  0.73123  Biso   1.000  H
  O43      1.0000 0.17994  0.91475  0.89461  Biso   1.000  O
  O44      1.0000 0.17986  0.91475  0.89461  Biso   1.000  O
  H131     1.0000 0.35923  0.74221  0.73908  Biso   1.000  H
  H132     1.0000 0.35914  0.74221  0.73908  Biso   1.000  H
  N91      1.0000 0.69164  0.14329  0.20360  Biso   1.000  N
  C157     1.0000 0.71178  0.08532  0.27808  Biso   1.000  C
  C158     1.0000 0.71178  0.08532  0.27814  Biso   1.000  C
  C159     1.0000 0.71178  0.08525  0.27808  Biso   1.000  C
  C160     1.0000 0.71178  0.08525  0.27814  Biso   1.000  C
  C161     1.0000 0.61921  0.21958  0.20952  Biso   1.000  C
  C162     1.0000 0.61912  0.21958  0.20952  Biso   1.000  C
  C163     1.0000 0.75088  0.13988  0.12647  Biso   1.000  C
  C164     1.0000 0.75088  0.13988  0.12654  Biso   1.000  C
  N92      1.0000 0.62261  0.02159  0.29111  Biso   1.000  N
  N93      1.0000 0.62252  0.02159  0.29111  Biso   1.000  N
  N94      1.0000 0.62261  0.02153  0.29111  Biso   1.000  N
  N95      1.0000 0.62252  0.02153  0.29111  Biso   1.000  N
  H133     1.0000 0.72025  0.12091  0.33280  Biso   1.000  H
  H134     1.0000 0.78357  0.05391  0.26883  Biso   1.000  H
  N96      1.0000 0.69172  0.14329  0.20360  Biso   1.000  N
  H135     1.0000 0.72025  0.12085  0.33280  Biso   1.000  H
  H136     1.0000 0.78357  0.05385  0.26883  Biso   1.000  H
  N97      1.0000 0.50095  0.19942  0.20926  Biso   1.000  N
  N98      1.0000 0.50095  0.19942  0.20932  Biso   1.000  N
  H137     1.0000 0.64077  0.25779  0.26092  Biso   1.000  H
  C165     1.0000 0.63801  0.26610  0.11982  Biso   1.000  C
  C166     1.0000 0.63792  0.26610  0.11982  Biso   1.000  C
  N99      1.0000 0.72143  0.21290  0.07673  Biso   1.000  N
  N100     1.0000 0.72134  0.21290  0.07673  Biso   1.000  N
  O45      1.0000 0.82006  0.08525  0.10539  Biso   1.000  O
  O46      1.0000 0.82006  0.08525  0.10546  Biso   1.000  O
  C167     1.0000 0.52627  0.03559  0.34909  Biso   1.000  C
  C168     1.0000 0.64709  0.93398  0.28400  Biso   1.000  C
  C169     1.0000 0.64701  0.93398  0.28400  Biso   1.000  C
  C170     1.0000 0.43998  0.17862  0.28951  Biso   1.000  C
  C171     1.0000 0.43998  0.17855  0.28951  Biso   1.000  C
  C172     1.0000 0.44701  0.22782  0.13279  Biso   1.000  C
  C173     1.0000 0.44693  0.22782  0.13279  Biso   1.000  C
  C174     1.0000 0.44701  0.22775  0.13279  Biso   1.000  C
  C175     1.0000 0.44693  0.22775  0.13279  Biso   1.000  C
  N101     1.0000 0.52722  0.26224  0.07747  Biso   1.000  N
  N102     1.0000 0.52713  0.26224  0.07747  Biso   1.000  N
  H138     1.0000 0.66441  0.32766  0.12820  Biso   1.000  H
  H139     1.0000 0.66433  0.32766  0.12820  Biso   1.000  H
  C176     1.0000 0.78398  0.24117  0.00093  Biso   1.000  C
  N103     1.0000 0.43481  0.08643  0.31019  Biso   1.000  N
  N104     1.0000 0.43473  0.08643  0.31019  Biso   1.000  N
  N105     1.0000 0.43481  0.08636  0.31019  Biso   1.000  N
  N106     1.0000 0.43473  0.08636  0.31019  Biso   1.000  N
  C177     1.0000 0.47365  0.94340  0.35641  Biso   1.000  C
  H140     1.0000 0.54998  0.05889  0.40861  Biso   1.000  H
  N107     1.0000 0.55969  0.88674  0.31984  Biso   1.000  N
  N108     1.0000 0.55961  0.88674  0.31984  Biso   1.000  N
  N109     1.0000 0.55969  0.88668  0.31984  Biso   1.000  N
  N110     1.0000 0.55961  0.88668  0.31984  Biso   1.000  N
  O47      1.0000 0.73168  0.90277  0.25155  Biso   1.000  O
  O48      1.0000 0.73168  0.90271  0.25155  Biso   1.000  O
  H141     1.0000 0.36215  0.20119  0.28320  Biso   1.000  H
  H142     1.0000 0.47611  0.20950  0.34012  Biso   1.000  H
  H143     1.0000 0.47602  0.20950  0.34012  Biso   1.000  H
  O49      1.0000 0.34579  0.22206  0.11663  Biso   1.000  O
  O50      1.0000 0.34579  0.22200  0.11663  Biso   1.000  O
  C178     1.0000 0.49802  0.31451  0.00000  Biso   1.000  C
  C179     1.0000 0.49802  0.31445  0.00000  Biso   1.000  C
  C180     1.0000 0.49810  0.31451  0.00000  Biso   1.000  C
  C181     1.0000 0.49810  0.31445  0.00000  Biso   1.000  C
  N111     1.0000 0.72629  0.22736  0.91642  Biso   1.000  N
  N112     1.0000 0.72629  0.22730  0.91642  Biso   1.000  N
  H144     1.0000 0.80092  0.30437  0.00738  Biso   1.000  H
  H145     1.0000 0.85682  0.20950  0.00013  Biso   1.000  H
  H146     1.0000 0.80083  0.30437  0.00738  Biso   1.000  H
  H147     1.0000 0.85674  0.20950  0.00013  Biso   1.000  H
  C182     1.0000 0.34606  0.03599  0.28313  Biso   1.000  C
  N113     1.0000 0.37119  0.95073  0.30182  Biso   1.000  N
  N114     1.0000 0.37119  0.95067  0.30182  Biso   1.000  N
  H148     1.0000 0.45631  0.92790  0.41931  Biso   1.000  H
  H149     1.0000 0.45622  0.92790  0.41931  Biso   1.000  H
  C183     1.0000 0.55039  0.79357  0.30581  Biso   1.000  C
  H150     1.0000 0.41563  0.32406  0.99880  Biso   1.000  H
  N115     1.0000 0.53089  0.27545  0.91628  Biso   1.000  N
  H151     1.0000 0.41555  0.32406  0.99880  Biso   1.000  H
  H152     1.0000 0.53466  0.37242  0.00572  Biso   1.000  H
  H153     1.0000 0.53466  0.37235  0.00572  Biso   1.000  H
  C184     1.0000 0.64243  0.28559  0.87832  Biso   1.000  C
  C185     1.0000 0.64235  0.28559  0.87832  Biso   1.000  C
  C186     1.0000 0.75453  0.16082  0.86063  Biso   1.000  C
  C187     1.0000 0.75444  0.16082  0.86063  Biso   1.000  C
  C188     1.0000 0.75453  0.16076  0.86063  Biso   1.000  C
  C189     1.0000 0.75444  0.16076  0.86063  Biso   1.000  C
  O51      1.0000 0.25970  0.06242  0.24696  Biso   1.000  O
  O52      1.0000 0.25962  0.06242  0.24696  Biso   1.000  O
  C190     1.0000 0.28662  0.88282  0.29583  Biso   1.000  C
  C191     1.0000 0.28653  0.88282  0.29583  Biso   1.000  C
  C192     1.0000 0.28662  0.88275  0.29583  Biso   1.000  C
  C193     1.0000 0.28653  0.88275  0.29583  Biso   1.000  C
  N116     1.0000 0.49207  0.76904  0.22362  Biso   1.000  N
  H154     1.0000 0.50979  0.76760  0.35661  Biso   1.000  H
  H155     1.0000 0.62694  0.76812  0.30541  Biso   1.000  H
  H156     1.0000 0.62694  0.76806  0.30541  Biso   1.000  H
  C194     1.0000 0.45238  0.25137  0.85278  Biso   1.000  C
  C195     1.0000 0.62694  0.24987  0.78210  Biso   1.000  C
  H157     1.0000 0.66788  0.34788  0.87891  Biso   1.000  H
  C196     1.0000 0.62686  0.24987  0.78210  Biso   1.000  C
  N117     1.0000 0.69886  0.17306  0.78170  Biso   1.000  N
  O53      1.0000 0.82031  0.10135  0.87812  Biso   1.000  O
  O54      1.0000 0.82023  0.10135  0.87812  Biso   1.000  O
  H158     1.0000 0.21111  0.91023  0.29291  Biso   1.000  H
  H159     1.0000 0.29037  0.84638  0.35022  Biso   1.000  H
  N118     1.0000 0.30105  0.82694  0.21830  Biso   1.000  N
  H160     1.0000 0.21103  0.91023  0.29291  Biso   1.000  H
  H161     1.0000 0.21111  0.91017  0.29291  Biso   1.000  H
  H162     1.0000 0.21103  0.91017  0.29291  Biso   1.000  H
  C197     1.0000 0.37306  0.75013  0.21790  Biso   1.000  C
  C198     1.0000 0.37306  0.75007  0.21790  Biso   1.000  C
  C199     1.0000 0.54762  0.74863  0.14722  Biso   1.000  C
  C200     1.0000 0.54754  0.74863  0.14722  Biso   1.000  C
  C201     1.0000 0.54762  0.74856  0.14722  Biso   1.000  C
  C202     1.0000 0.54754  0.74856  0.14722  Biso   1.000  C
  N119     1.0000 0.50793  0.23096  0.77638  Biso   1.000  N
  O55      1.0000 0.35029  0.25000  0.86349  Biso   1.000  O
  N120     1.0000 0.50785  0.23096  0.77638  Biso   1.000  N
  H163     1.0000 0.65010  0.29377  0.73648  Biso   1.000  H
  C203     1.0000 0.71338  0.11718  0.70417  Biso   1.000  C
  C204     1.0000 0.71338  0.11718  0.70424  Biso   1.000  C
  C205     1.0000 0.24547  0.83918  0.13937  Biso   1.000  C
  C206     1.0000 0.24547  0.83918  0.13944  Biso   1.000  C
  H164     1.0000 0.34990  0.70623  0.26352  Biso   1.000  H
  C207     1.0000 0.35757  0.71441  0.12168  Biso   1.000  C
  H165     1.0000 0.34981  0.70623  0.26352  Biso   1.000  H
  H166     1.0000 0.34990  0.70616  0.26352  Biso   1.000  H
  H167     1.0000 0.34981  0.70616  0.26352  Biso   1.000  H
  N121     1.0000 0.46911  0.72455  0.08372  Biso   1.000  N
  N122     1.0000 0.46903  0.72455  0.08378  Biso   1.000  N
  O56      1.0000 0.64971  0.75000  0.13651  Biso   1.000  O
  O57      1.0000 0.64963  0.75000  0.13651  Biso   1.000  O
  C208     1.0000 0.44961  0.20643  0.69419  Biso   1.000  C
  C209     1.0000 0.44961  0.20636  0.69419  Biso   1.000  C
  H168     1.0000 0.78889  0.08977  0.70709  Biso   1.000  H
  H169     1.0000 0.70963  0.15362  0.64978  Biso   1.000  H
  N123     1.0000 0.62881  0.04927  0.69818  Biso   1.000  N
  H170     1.0000 0.70954  0.15362  0.64978  Biso   1.000  H
  H171     1.0000 0.70963  0.15356  0.64978  Biso   1.000  H
  H172     1.0000 0.70954  0.15356  0.64978  Biso   1.000  H
  N124     1.0000 0.27371  0.77264  0.08358  Biso   1.000  N
  O58      1.0000 0.17969  0.89865  0.12188  Biso   1.000  O
  N125     1.0000 0.27362  0.77264  0.08365  Biso   1.000  N
  O59      1.0000 0.17969  0.89859  0.12188  Biso   1.000  O
  H173     1.0000 0.33212  0.65212  0.12109  Biso   1.000  H
  H174     1.0000 0.33204  0.65212  0.12109  Biso   1.000  H
  C210     1.0000 0.50190  0.68549  0.00000  Biso   1.000  C
  H175     1.0000 0.49021  0.23240  0.64339  Biso   1.000  H
  H176     1.0000 0.37297  0.23188  0.69459  Biso   1.000  H
  N126     1.0000 0.44031  0.11326  0.68016  Biso   1.000  N
  C211     1.0000 0.52635  0.05660  0.64359  Biso   1.000  C
  C212     1.0000 0.52626  0.05660  0.64359  Biso   1.000  C
  C213     1.0000 0.65394  0.96401  0.71687  Biso   1.000  C
  C214     1.0000 0.65385  0.96401  0.71694  Biso   1.000  C
  C215     1.0000 0.65394  0.96395  0.71687  Biso   1.000  C
  C216     1.0000 0.65385  0.96395  0.71694  Biso   1.000  C
  C217     1.0000 0.21602  0.75883  0.99907  Biso   1.000  C
  C218     1.0000 0.21594  0.75883  0.99914  Biso   1.000  C
  C219     1.0000 0.21602  0.75877  0.99907  Biso   1.000  C
  C220     1.0000 0.21594  0.75877  0.99914  Biso   1.000  C
  H177     1.0000 0.46526  0.62758  0.99428  Biso   1.000  H
  N127     1.0000 0.47278  0.73776  0.92253  Biso   1.000  N
  N128     1.0000 0.47279  0.73776  0.92260  Biso   1.000  N
  N129     1.0000 0.47278  0.73770  0.92253  Biso   1.000  N
  N130     1.0000 0.47279  0.73770  0.92260  Biso   1.000  N
  H178     1.0000 0.58437  0.67594  0.00120  Biso   1.000  H
  H179     1.0000 0.58437  0.67587  0.00120  Biso   1.000  H
  C221     1.0000 0.35291  0.06602  0.71600  Biso   1.000  C
  C222     1.0000 0.35291  0.06595  0.71600  Biso   1.000  C
  C223     1.0000 0.47373  0.96441  0.65091  Biso   1.000  C
  C224     1.0000 0.47365  0.96441  0.65091  Biso   1.000  C
  H180     1.0000 0.54369  0.07210  0.58069  Biso   1.000  H
  N131     1.0000 0.56519  0.91357  0.68981  Biso   1.000  N
  O60      1.0000 0.74030  0.93758  0.75304  Biso   1.000  O
  H181     1.0000 0.19908  0.69563  0.99262  Biso   1.000  H
  H182     1.0000 0.14318  0.79050  0.99987  Biso   1.000  H
  N132     1.0000 0.27857  0.78710  0.92327  Biso   1.000  N
  H183     1.0000 0.14318  0.79050  0.99993  Biso   1.000  H
  H184     1.0000 0.19908  0.69556  0.99262  Biso   1.000  H
  C225     1.0000 0.36199  0.73390  0.88018  Biso   1.000  C
  C226     1.0000 0.55299  0.77218  0.86721  Biso   1.000  C
  N133     1.0000 0.37739  0.97841  0.70889  Biso   1.000  N
  O61      1.0000 0.26832  0.09723  0.74845  Biso   1.000  O
  O62      1.0000 0.26824  0.09723  0.74845  Biso   1.000  O
  H185     1.0000 0.45002  0.94111  0.59139  Biso   1.000  H
  H186     1.0000 0.44994  0.94111  0.59139  Biso   1.000  H
  H187     1.0000 0.45002  0.94105  0.59139  Biso   1.000  H
  H188     1.0000 0.44994  0.94105  0.59139  Biso   1.000  H
  C227     1.0000 0.56002  0.82138  0.71049  Biso   1.000  C
  C228     1.0000 0.55993  0.82138  0.71049  Biso   1.000  C
  C229     1.0000 0.24912  0.86012  0.87353  Biso   1.000  C
  C230     1.0000 0.24903  0.86012  0.87353  Biso   1.000  C
  H189     1.0000 0.33559  0.67234  0.87180  Biso   1.000  H
  C231     1.0000 0.38079  0.78042  0.79048  Biso   1.000  C
  H190     1.0000 0.33559  0.67227  0.87180  Biso   1.000  H
  C232     1.0000 0.38079  0.78036  0.79048  Biso   1.000  C
  N134     1.0000 0.49896  0.80058  0.79074  Biso   1.000  N
  O63      1.0000 0.65421  0.77794  0.88337  Biso   1.000  O
  O64      1.0000 0.65413  0.77794  0.88337  Biso   1.000  O
  C233     1.0000 0.28822  0.91468  0.72192  Biso   1.000  C
  C234     1.0000 0.28814  0.91468  0.72192  Biso   1.000  C
  H191     1.0000 0.52389  0.79050  0.65988  Biso   1.000  H
  H192     1.0000 0.63777  0.79881  0.71680  Biso   1.000  H
  N135     1.0000 0.30828  0.85671  0.79640  Biso   1.000  N
  O65      1.0000 0.17994  0.91475  0.89461  Biso   1.000  O
  O66      1.0000 0.17986  0.91475  0.89461  Biso   1.000  O
  H193     1.0000 0.35923  0.74221  0.73908  Biso   1.000  H
  H194     1.0000 0.35914  0.74221  0.73908  Biso   1.000  H
  H195     1.0000 0.27975  0.87909  0.66720  Biso   1.000  H
  H196     1.0000 0.21643  0.94609  0.73117  Biso   1.000  H
  H197     1.0000 0.27967  0.87909  0.66720  Biso   1.000  H
  H198     1.0000 0.21635  0.94609  0.73123  Biso   1.000  H
  N136     1.0000 0.69164  0.14329  0.20360  Biso   1.000  N
  C235     1.0000 0.71178  0.08532  0.27808  Biso   1.000  C
  C236     1.0000 0.71178  0.08532  0.27814  Biso   1.000  C
  C237     1.0000 0.71178  0.08525  0.27808  Biso   1.000  C
  C238     1.0000 0.71178  0.08525  0.27814  Biso   1.000  C
  C239     1.0000 0.61921  0.21958  0.20952  Biso   1.000  C
  C240     1.0000 0.61912  0.21958  0.20952  Biso   1.000  C
  C241     1.0000 0.75088  0.13988  0.12647  Biso   1.000  C
  C242     1.0000 0.75088  0.13988  0.12654  Biso   1.000  C
  N137     1.0000 0.62261  0.02159  0.29111  Biso   1.000  N
  N138     1.0000 0.62252  0.02159  0.29111  Biso   1.000  N
  N139     1.0000 0.62261  0.02153  0.29111  Biso   1.000  N
  N140     1.0000 0.62252  0.02153  0.29111  Biso   1.000  N
  H199     1.0000 0.72025  0.12091  0.33280  Biso   1.000  H
  H200     1.0000 0.78357  0.05391  0.26883  Biso   1.000  H
  N141     1.0000 0.69172  0.14329  0.20360  Biso   1.000  N
  H201     1.0000 0.72025  0.12085  0.33280  Biso   1.000  H
  H202     1.0000 0.78357  0.05385  0.26883  Biso   1.000  H
  N142     1.0000 0.50095  0.19942  0.20926  Biso   1.000  N
  N143     1.0000 0.50095  0.19942  0.20932  Biso   1.000  N
  H203     1.0000 0.64077  0.25779  0.26092  Biso   1.000  H
  C243     1.0000 0.63801  0.26610  0.11982  Biso   1.000  C
  C244     1.0000 0.63792  0.26610  0.11982  Biso   1.000  C
  N144     1.0000 0.72143  0.21290  0.07673  Biso   1.000  N
  N145     1.0000 0.72134  0.21290  0.07673  Biso   1.000  N
  O67      1.0000 0.82006  0.08525  0.10539  Biso   1.000  O
  O68      1.0000 0.82006  0.08525  0.10546  Biso   1.000  O
  C245     1.0000 0.52627  0.03559  0.34909  Biso   1.000  C
  C246     1.0000 0.64709  0.93398  0.28400  Biso   1.000  C
  C247     1.0000 0.64701  0.93398  0.28400  Biso   1.000  C
  C248     1.0000 0.43998  0.17862  0.28951  Biso   1.000  C
  C249     1.0000 0.43998  0.17855  0.28951  Biso   1.000  C
  C250     1.0000 0.44701  0.22782  0.13279  Biso   1.000  C
  C251     1.0000 0.44693  0.22782  0.13279  Biso   1.000  C
  C252     1.0000 0.44701  0.22775  0.13279  Biso   1.000  C
  C253     1.0000 0.44693  0.22775  0.13279  Biso   1.000  C
  N146     1.0000 0.52722  0.26224  0.07747  Biso   1.000  N
  N147     1.0000 0.52713  0.26224  0.07747  Biso   1.000  N
  H204     1.0000 0.66441  0.32766  0.12820  Biso   1.000  H
  H205     1.0000 0.66433  0.32766  0.12820  Biso   1.000  H
  C254     1.0000 0.78398  0.24117  0.00093  Biso   1.000  C
  N148     1.0000 0.43481  0.08643  0.31019  Biso   1.000  N
  N149     1.0000 0.43473  0.08643  0.31019  Biso   1.000  N
  N150     1.0000 0.43481  0.08636  0.31019  Biso   1.000  N
  N151     1.0000 0.43473  0.08636  0.31019  Biso   1.000  N
  C255     1.0000 0.47365  0.94340  0.35641  Biso   1.000  C
  H206     1.0000 0.54998  0.05889  0.40861  Biso   1.000  H
  N152     1.0000 0.55969  0.88674  0.31984  Biso   1.000  N
  N153     1.0000 0.55961  0.88674  0.31984  Biso   1.000  N
  N154     1.0000 0.55969  0.88668  0.31984  Biso   1.000  N
  N155     1.0000 0.55961  0.88668  0.31984  Biso   1.000  N
  O69      1.0000 0.73168  0.90277  0.25155  Biso   1.000  O
  O70      1.0000 0.73168  0.90271  0.25155  Biso   1.000  O
  H207     1.0000 0.36215  0.20119  0.28320  Biso   1.000  H
  H208     1.0000 0.47611  0.20950  0.34012  Biso   1.000  H
  H209     1.0000 0.47602  0.20950  0.34012  Biso   1.000  H
  O71      1.0000 0.34579  0.22206  0.11663  Biso   1.000  O
  O72      1.0000 0.34579  0.22200  0.11663  Biso   1.000  O
  C256     1.0000 0.49802  0.31451  0.00000  Biso   1.000  C
  C257     1.0000 0.49802  0.31445  0.00000  Biso   1.000  C
  C258     1.0000 0.49810  0.31451  0.00000  Biso   1.000  C
  C259     1.0000 0.49810  0.31445  0.00000  Biso   1.000  C
  N156     1.0000 0.72629  0.22736  0.91642  Biso   1.000  N
  N157     1.0000 0.72629  0.22730  0.91642  Biso   1.000  N
  H210     1.0000 0.80092  0.30437  0.00738  Biso   1.000  H
  H211     1.0000 0.85682  0.20950  0.00013  Biso   1.000  H
  H212     1.0000 0.80083  0.30437  0.00738  Biso   1.000  H
  H213     1.0000 0.85674  0.20950  0.00013  Biso   1.000  H
  C260     1.0000 0.34606  0.03599  0.28313  Biso   1.000  C
  N158     1.0000 0.37119  0.95073  0.30182  Biso   1.000  N
  N159     1.0000 0.37119  0.95067  0.30182  Biso   1.000  N
  H214     1.0000 0.45631  0.92790  0.41931  Biso   1.000  H
  H215     1.0000 0.45622  0.92790  0.41931  Biso   1.000  H
  C261     1.0000 0.55039  0.79357  0.30581  Biso   1.000  C
  H216     1.0000 0.41563  0.32406  0.99880  Biso   1.000  H
  N160     1.0000 0.53089  0.27545  0.91628  Biso   1.000  N
  H217     1.0000 0.41555  0.32406  0.99880  Biso   1.000  H
  H218     1.0000 0.53466  0.37242  0.00572  Biso   1.000  H
  H219     1.0000 0.53466  0.37235  0.00572  Biso   1.000  H
  C262     1.0000 0.64243  0.28559  0.87832  Biso   1.000  C
  C263     1.0000 0.64235  0.28559  0.87832  Biso   1.000  C
  C264     1.0000 0.75453  0.16082  0.86063  Biso   1.000  C
  C265     1.0000 0.75444  0.16082  0.86063  Biso   1.000  C
  C266     1.0000 0.75453  0.16076  0.86063  Biso   1.000  C
  C267     1.0000 0.75444  0.16076  0.86063  Biso   1.000  C
  O73      1.0000 0.25970  0.06242  0.24696  Biso   1.000  O
  O74      1.0000 0.25962  0.06242  0.24696  Biso   1.000  O
  C268     1.0000 0.28662  0.88282  0.29583  Biso   1.000  C
  C269     1.0000 0.28653  0.88282  0.29583  Biso   1.000  C
  C270     1.0000 0.28662  0.88275  0.29583  Biso   1.000  C
  C271     1.0000 0.28653  0.88275  0.29583  Biso   1.000  C
  N161     1.0000 0.49207  0.76904  0.22362  Biso   1.000  N
  H220     1.0000 0.50979  0.76760  0.35661  Biso   1.000  H
  H221     1.0000 0.62694  0.76812  0.30541  Biso   1.000  H
  H222     1.0000 0.62694  0.76806  0.30541  Biso   1.000  H
  C272     1.0000 0.45238  0.25137  0.85278  Biso   1.000  C
  C273     1.0000 0.62694  0.24987  0.78210  Biso   1.000  C
  H223     1.0000 0.66788  0.34788  0.87891  Biso   1.000  H
  C274     1.0000 0.62686  0.24987  0.78210  Biso   1.000  C
  N162     1.0000 0.69886  0.17306  0.78170  Biso   1.000  N
  O75      1.0000 0.82031  0.10135  0.87812  Biso   1.000  O
  O76      1.0000 0.82023  0.10135  0.87812  Biso   1.000  O
  H224     1.0000 0.21111  0.91023  0.29291  Biso   1.000  H
  H225     1.0000 0.29037  0.84638  0.35022  Biso   1.000  H
  N163     1.0000 0.30105  0.82694  0.21830  Biso   1.000  N
  H226     1.0000 0.21103  0.91023  0.29291  Biso   1.000  H
  H227     1.0000 0.21111  0.91017  0.29291  Biso   1.000  H
  H228     1.0000 0.21103  0.91017  0.29291  Biso   1.000  H
  C275     1.0000 0.37306  0.75013  0.21790  Biso   1.000  C
  C276     1.0000 0.37306  0.75007  0.21790  Biso   1.000  C
  C277     1.0000 0.54762  0.74863  0.14722  Biso   1.000  C
  C278     1.0000 0.54754  0.74863  0.14722  Biso   1.000  C
  C279     1.0000 0.54762  0.74856  0.14722  Biso   1.000  C
  C280     1.0000 0.54754  0.74856  0.14722  Biso   1.000  C
  N164     1.0000 0.50793  0.23096  0.77638  Biso   1.000  N
  O77      1.0000 0.35029  0.25000  0.86349  Biso   1.000  O
  N165     1.0000 0.50785  0.23096  0.77638  Biso   1.000  N
  H229     1.0000 0.65010  0.29377  0.73648  Biso   1.000  H
  C281     1.0000 0.71338  0.11718  0.70417  Biso   1.000  C
  C282     1.0000 0.71338  0.11718  0.70424  Biso   1.000  C
  C283     1.0000 0.24547  0.83918  0.13937  Biso   1.000  C
  C284     1.0000 0.24547  0.83918  0.13944  Biso   1.000  C
  H230     1.0000 0.34990  0.70623  0.26352  Biso   1.000  H
  C285     1.0000 0.35757  0.71441  0.12168  Biso   1.000  C
  H231     1.0000 0.34981  0.70623  0.26352  Biso   1.000  H
  H232     1.0000 0.34990  0.70616  0.26352  Biso   1.000  H
  H233     1.0000 0.34981  0.70616  0.26352  Biso   1.000  H
  N166     1.0000 0.46911  0.72455  0.08372  Biso   1.000  N
  N167     1.0000 0.46903  0.72455  0.08378  Biso   1.000  N
  O78      1.0000 0.64971  0.75000  0.13651  Biso   1.000  O
  O79      1.0000 0.64963  0.75000  0.13651  Biso   1.000  O
  C286     1.0000 0.44961  0.20643  0.69419  Biso   1.000  C
  C287     1.0000 0.44961  0.20636  0.69419  Biso   1.000  C
  H234     1.0000 0.78889  0.08977  0.70709  Biso   1.000  H
  H235     1.0000 0.70963  0.15362  0.64978  Biso   1.000  H
  N168     1.0000 0.62881  0.04927  0.69818  Biso   1.000  N
  H236     1.0000 0.70954  0.15362  0.64978  Biso   1.000  H
  H237     1.0000 0.70963  0.15356  0.64978  Biso   1.000  H
  H238     1.0000 0.70954  0.15356  0.64978  Biso   1.000  H
  N169     1.0000 0.27371  0.77264  0.08358  Biso   1.000  N
  O80      1.0000 0.17969  0.89865  0.12188  Biso   1.000  O
  N170     1.0000 0.27362  0.77264  0.08365  Biso   1.000  N
  O81      1.0000 0.17969  0.89859  0.12188  Biso   1.000  O
  H239     1.0000 0.33212  0.65212  0.12109  Biso   1.000  H
  H240     1.0000 0.33204  0.65212  0.12109  Biso   1.000  H
  C288     1.0000 0.50190  0.68549  0.00000  Biso   1.000  C
  H241     1.0000 0.49021  0.23240  0.64339  Biso   1.000  H
  H242     1.0000 0.37297  0.23188  0.69459  Biso   1.000  H
  N171     1.0000 0.44031  0.11326  0.68016  Biso   1.000  N
  C289     1.0000 0.52635  0.05660  0.64359  Biso   1.000  C
  C290     1.0000 0.52626  0.05660  0.64359  Biso   1.000  C
  C291     1.0000 0.65394  0.96401  0.71687  Biso   1.000  C
  C292     1.0000 0.65385  0.96401  0.71694  Biso   1.000  C
  C293     1.0000 0.65394  0.96395  0.71687  Biso   1.000  C
  C294     1.0000 0.65385  0.96395  0.71694  Biso   1.000  C
  C295     1.0000 0.21602  0.75883  0.99907  Biso   1.000  C
  C296     1.0000 0.21594  0.75883  0.99914  Biso   1.000  C
  C297     1.0000 0.21602  0.75877  0.99907  Biso   1.000  C
  C298     1.0000 0.21594  0.75877  0.99914  Biso   1.000  C
  H243     1.0000 0.46526  0.62758  0.99428  Biso   1.000  H
  N172     1.0000 0.47278  0.73776  0.92253  Biso   1.000  N
  N173     1.0000 0.47279  0.73776  0.92260  Biso   1.000  N
  N174     1.0000 0.47278  0.73770  0.92253  Biso   1.000  N
  N175     1.0000 0.47279  0.73770  0.92260  Biso   1.000  N
  H244     1.0000 0.58437  0.67594  0.00120  Biso   1.000  H
  H245     1.0000 0.58437  0.67587  0.00120  Biso   1.000  H
  C299     1.0000 0.35291  0.06602  0.71600  Biso   1.000  C
  C300     1.0000 0.35291  0.06595  0.71600  Biso   1.000  C
  C301     1.0000 0.47373  0.96441  0.65091  Biso   1.000  C
  C302     1.0000 0.47365  0.96441  0.65091  Biso   1.000  C
  H246     1.0000 0.54369  0.07210  0.58069  Biso   1.000  H
  N176     1.0000 0.56519  0.91357  0.68981  Biso   1.000  N
  O82      1.0000 0.74030  0.93758  0.75304  Biso   1.000  O
  H247     1.0000 0.19908  0.69563  0.99262  Biso   1.000  H
  H248     1.0000 0.14318  0.79050  0.99987  Biso   1.000  H
  N177     1.0000 0.27857  0.78710  0.92327  Biso   1.000  N
  H249     1.0000 0.14318  0.79050  0.99993  Biso   1.000  H
  H250     1.0000 0.19908  0.69556  0.99262  Biso   1.000  H
  C303     1.0000 0.36199  0.73390  0.88018  Biso   1.000  C
  C304     1.0000 0.55299  0.77218  0.86721  Biso   1.000  C
  N178     1.0000 0.37739  0.97841  0.70889  Biso   1.000  N
  O83      1.0000 0.26832  0.09723  0.74845  Biso   1.000  O
  O84      1.0000 0.26824  0.09723  0.74845  Biso   1.000  O
  H251     1.0000 0.45002  0.94111  0.59139  Biso   1.000  H
  H252     1.0000 0.44994  0.94111  0.59139  Biso   1.000  H
  H253     1.0000 0.45002  0.94105  0.59139  Biso   1.000  H
  H254     1.0000 0.44994  0.94105  0.59139  Biso   1.000  H
  C305     1.0000 0.56002  0.82138  0.71049  Biso   1.000  C
  C306     1.0000 0.55993  0.82138  0.71049  Biso   1.000  C
  C307     1.0000 0.24912  0.86012  0.87353  Biso   1.000  C
  C308     1.0000 0.24903  0.86012  0.87353  Biso   1.000  C
  H255     1.0000 0.33559  0.67234  0.87180  Biso   1.000  H
  C309     1.0000 0.38079  0.78042  0.79048  Biso   1.000  C
  H256     1.0000 0.33559  0.67227  0.87180  Biso   1.000  H
  C310     1.0000 0.38079  0.78036  0.79048  Biso   1.000  C
  N179     1.0000 0.49896  0.80058  0.79074  Biso   1.000  N
  O85      1.0000 0.65421  0.77794  0.88337  Biso   1.000  O
  O86      1.0000 0.65413  0.77794  0.88337  Biso   1.000  O
  C311     1.0000 0.28822  0.91468  0.72192  Biso   1.000  C
  C312     1.0000 0.28814  0.91468  0.72192  Biso   1.000  C
  H257     1.0000 0.52389  0.79050  0.65988  Biso   1.000  H
  H258     1.0000 0.63777  0.79881  0.71680  Biso   1.000  H
  N180     1.0000 0.30828  0.85671  0.79640  Biso   1.000  N
  O87      1.0000 0.17994  0.91475  0.89461  Biso   1.000  O
  O88      1.0000 0.17986  0.91475  0.89461  Biso   1.000  O
  H259     1.0000 0.35923  0.74221  0.73908  Biso   1.000  H
  H260     1.0000 0.35914  0.74221  0.73908  Biso   1.000  H
  H261     1.0000 0.27975  0.87909  0.66720  Biso   1.000  H
  H262     1.0000 0.21643  0.94609  0.73117  Biso   1.000  H
  H263     1.0000 0.27967  0.87909  0.66720  Biso   1.000  H
  H264     1.0000 0.21635  0.94609  0.73123  Biso   1.000  H
  O89      1.0000 0.76827  0.40277  0.24842  Biso   1.000  O
  C313     1.0000 0.85286  0.43398  0.21597  Biso   1.000  C
  N181     1.0000 0.94026  0.38668  0.18020  Biso   1.000  N
  N182     1.0000 0.87743  0.52153  0.20892  Biso   1.000  N
  N183     1.0000 0.87735  0.52153  0.20892  Biso   1.000  N
  C314     1.0000 0.94956  0.29357  0.19423  Biso   1.000  C
  C315     1.0000 0.02630  0.44340  0.14363  Biso   1.000  C
  C316     1.0000 0.97368  0.53559  0.15087  Biso   1.000  C
  C317     1.0000 0.78818  0.58532  0.22189  Biso   1.000  C
  H265     1.0000 0.99016  0.26760  0.14343  Biso   1.000  H
  H266     1.0000 0.87301  0.26812  0.19463  Biso   1.000  H
  N184     1.0000 0.00788  0.26904  0.27642  Biso   1.000  N
  H267     1.0000 0.04373  0.42790  0.08072  Biso   1.000  H
  N185     1.0000 0.12877  0.45073  0.19822  Biso   1.000  N
  H268     1.0000 0.94998  0.55889  0.09143  Biso   1.000  H
  N186     1.0000 0.06522  0.58636  0.18984  Biso   1.000  N
  H269     1.0000 0.77970  0.62091  0.16723  Biso   1.000  H
  H270     1.0000 0.71639  0.55391  0.23120  Biso   1.000  H
  N187     1.0000 0.80831  0.64329  0.29636  Biso   1.000  N
  C318     1.0000 0.95242  0.24863  0.35282  Biso   1.000  C
  C319     1.0000 0.12689  0.25007  0.28213  Biso   1.000  C
  C320     1.0000 0.21342  0.38282  0.20420  Biso   1.000  C
  C321     1.0000 0.15389  0.53599  0.21690  Biso   1.000  C
  C322     1.0000 0.05997  0.67862  0.21052  Biso   1.000  C
  C323     1.0000 0.88083  0.71958  0.29051  Biso   1.000  C
  C324     1.0000 0.74907  0.63988  0.37350  Biso   1.000  C
  C325     1.0000 0.88075  0.71958  0.29051  Biso   1.000  C
  O90      1.0000 0.85033  0.25000  0.36352  Biso   1.000  O
  O91      1.0000 0.85024  0.25000  0.36352  Biso   1.000  O
  N188     1.0000 0.03084  0.22455  0.41625  Biso   1.000  N
  H271     1.0000 0.15005  0.20616  0.23652  Biso   1.000  H
  C326     1.0000 0.14238  0.21441  0.37828  Biso   1.000  C
  N189     1.0000 0.19890  0.32694  0.28167  Biso   1.000  N
  H272     1.0000 0.28893  0.41017  0.20713  Biso   1.000  H
  H273     1.0000 0.20958  0.34638  0.14981  Biso   1.000  H
  H274     1.0000 0.28884  0.41017  0.20713  Biso   1.000  H
  O92      1.0000 0.24025  0.56242  0.25308  Biso   1.000  O
  N190     1.0000 0.99900  0.69942  0.29071  Biso   1.000  N
  H275     1.0000 0.02393  0.70950  0.15992  Biso   1.000  H
  H276     1.0000 0.13780  0.70119  0.21677  Biso   1.000  H
  H277     1.0000 0.02385  0.70950  0.15992  Biso   1.000  H
  C327     1.0000 0.86194  0.76610  0.38021  Biso   1.000  C
  H278     1.0000 0.85918  0.75779  0.23911  Biso   1.000  H
  N191     1.0000 0.77861  0.71290  0.42323  Biso   1.000  N
  O93      1.0000 0.67990  0.58525  0.39457  Biso   1.000  O
  C328     1.0000 0.99806  0.18549  0.50003  Biso   1.000  C
  H279     1.0000 0.16791  0.15212  0.37888  Biso   1.000  H
  N192     1.0000 0.22625  0.27264  0.41638  Biso   1.000  N
  C329     1.0000 0.25448  0.33918  0.36060  Biso   1.000  C
  C330     1.0000 0.05294  0.72775  0.36718  Biso   1.000  C
  H280     1.0000 0.83563  0.82766  0.37183  Biso   1.000  H
  N193     1.0000 0.97282  0.76224  0.42257  Biso   1.000  N
  H281     1.0000 0.83554  0.82766  0.37183  Biso   1.000  H
  N194     1.0000 0.97274  0.76224  0.42257  Biso   1.000  N
  C331     1.0000 0.71598  0.74117  0.49910  Biso   1.000  C
  H282     1.0000 0.91558  0.17587  0.49884  Biso   1.000  H
  H283     1.0000 0.03470  0.12758  0.50569  Biso   1.000  H
  N195     1.0000 0.02717  0.23776  0.57743  Biso   1.000  N
  C332     1.0000 0.28401  0.25877  0.50090  Biso   1.000  C
  C333     1.0000 0.28393  0.25877  0.50090  Biso   1.000  C
  O94      1.0000 0.32026  0.39859  0.37808  Biso   1.000  O
  O95      1.0000 0.15417  0.72200  0.38334  Biso   1.000  O
  C334     1.0000 0.00185  0.81451  0.50003  Biso   1.000  C
  H284     1.0000 0.69912  0.80437  0.49259  Biso   1.000  H
  H285     1.0000 0.64322  0.70950  0.49990  Biso   1.000  H
  N196     1.0000 0.77366  0.72730  0.58362  Biso   1.000  N
  H286     1.0000 0.69903  0.80437  0.49259  Biso   1.000  H
  H287     1.0000 0.64313  0.70950  0.49990  Biso   1.000  H
  C335     1.0000 0.94696  0.27218  0.63282  Biso   1.000  C
  C336     1.0000 0.13796  0.23390  0.61979  Biso   1.000  C
  H288     1.0000 0.30087  0.19556  0.50742  Biso   1.000  H
  H289     1.0000 0.35677  0.29050  0.50010  Biso   1.000  H
  N197     1.0000 0.22138  0.28710  0.57677  Biso   1.000  N
  H290     1.0000 0.96529  0.87235  0.49432  Biso   1.000  H
  N198     1.0000 0.96906  0.77545  0.58375  Biso   1.000  N
  H291     1.0000 0.08441  0.82406  0.50123  Biso   1.000  H
  C337     1.0000 0.85760  0.78559  0.62172  Biso   1.000  C
  C338     1.0000 0.74551  0.66076  0.63941  Biso   1.000  C
  C339     1.0000 0.74543  0.66076  0.63941  Biso   1.000  C
  O96      1.0000 0.84574  0.27794  0.61666  Biso   1.000  O
  N199     1.0000 0.00099  0.30058  0.70929  Biso   1.000  N
  H292     1.0000 0.16436  0.17227  0.62823  Biso   1.000  H
  C340     1.0000 0.11916  0.28042  0.70949  Biso   1.000  C
  C341     1.0000 0.25084  0.36012  0.62651  Biso   1.000  C
  C342     1.0000 0.04757  0.75137  0.64719  Biso   1.000  C
  C343     1.0000 0.87310  0.74987  0.71793  Biso   1.000  C
  H293     1.0000 0.83208  0.84788  0.62112  Biso   1.000  H
  N200     1.0000 0.80109  0.67306  0.71833  Biso   1.000  N
  O97      1.0000 0.67964  0.60135  0.62192  Biso   1.000  O
  C344     1.0000 0.93993  0.32138  0.78948  Biso   1.000  C
  H294     1.0000 0.14072  0.24221  0.76089  Biso   1.000  H
  N201     1.0000 0.19167  0.35671  0.70364  Biso   1.000  N
  O98      1.0000 0.32009  0.41475  0.60543  Biso   1.000  O
  N202     1.0000 0.99210  0.73096  0.72359  Biso   1.000  N
  N203     1.0000 0.99202  0.73096  0.72359  Biso   1.000  N
  O99      1.0000 0.14966  0.75000  0.63655  Biso   1.000  O
  H295     1.0000 0.84985  0.79377  0.76348  Biso   1.000  H
  C345     1.0000 0.78657  0.61718  0.79580  Biso   1.000  C
  H296     1.0000 0.97606  0.29050  0.84008  Biso   1.000  H
  H297     1.0000 0.86219  0.29881  0.78323  Biso   1.000  H
  N204     1.0000 0.93477  0.41357  0.81016  Biso   1.000  N
  C346     1.0000 0.21173  0.41468  0.77811  Biso   1.000  C
  C347     1.0000 0.05034  0.70636  0.80584  Biso   1.000  C
  H298     1.0000 0.71106  0.58977  0.79294  Biso   1.000  H
  H299     1.0000 0.79032  0.65356  0.85019  Biso   1.000  H
  N205     1.0000 0.87114  0.54927  0.80178  Biso   1.000  N
  C348     1.0000 0.84610  0.46401  0.78310  Biso   1.000  C
  C349     1.0000 0.02622  0.46441  0.84913  Biso   1.000  C
  H300     1.0000 0.22029  0.37909  0.83284  Biso   1.000  H
  H301     1.0000 0.28360  0.44609  0.76880  Biso   1.000  H
  N206     1.0000 0.12256  0.47841  0.79114  Biso   1.000  N
  H302     1.0000 0.28352  0.44609  0.76880  Biso   1.000  H
  H303     1.0000 0.00974  0.73240  0.85664  Biso   1.000  H
  H304     1.0000 0.12698  0.73188  0.80544  Biso   1.000  H
  N207     1.0000 0.05965  0.61326  0.81987  Biso   1.000  N
  C350     1.0000 0.97369  0.55660  0.85644  Biso   1.000  C
  O100     1.0000 0.75965  0.43758  0.74699  Biso   1.000  O
  H305     1.0000 0.04993  0.44111  0.90864  Biso   1.000  H
  C351     1.0000 0.14705  0.56602  0.78403  Biso   1.000  C
  H306     1.0000 0.95626  0.57210  0.91934  Biso   1.000  H
  O101     1.0000 0.23163  0.59723  0.75158  Biso   1.000  O
  O102     1.0000 0.76827  0.40277  0.24842  Biso   1.000  O
  C352     1.0000 0.85286  0.43398  0.21597  Biso   1.000  C
  N208     1.0000 0.94026  0.38668  0.18020  Biso   1.000  N
  N209     1.0000 0.87743  0.52153  0.20892  Biso   1.000  N
  N210     1.0000 0.87735  0.52153  0.20892  Biso   1.000  N
  C353     1.0000 0.94956  0.29357  0.19423  Biso   1.000  C
  C354     1.0000 0.02630  0.44340  0.14363  Biso   1.000  C
  C355     1.0000 0.97368  0.53559  0.15087  Biso   1.000  C
  C356     1.0000 0.78818  0.58532  0.22189  Biso   1.000  C
  H307     1.0000 0.99016  0.26760  0.14343  Biso   1.000  H
  H308     1.0000 0.87301  0.26812  0.19463  Biso   1.000  H
  N211     1.0000 0.00788  0.26904  0.27642  Biso   1.000  N
  H309     1.0000 0.04373  0.42790  0.08072  Biso   1.000  H
  N212     1.0000 0.12877  0.45073  0.19822  Biso   1.000  N
  H310     1.0000 0.94998  0.55889  0.09143  Biso   1.000  H
  N213     1.0000 0.06522  0.58636  0.18984  Biso   1.000  N
  H311     1.0000 0.77970  0.62091  0.16723  Biso   1.000  H
  H312     1.0000 0.71639  0.55391  0.23120  Biso   1.000  H
  N214     1.0000 0.80831  0.64329  0.29636  Biso   1.000  N
  C357     1.0000 0.95242  0.24863  0.35282  Biso   1.000  C
  C358     1.0000 0.12689  0.25007  0.28213  Biso   1.000  C
  C359     1.0000 0.21342  0.38282  0.20420  Biso   1.000  C
  C360     1.0000 0.15389  0.53599  0.21690  Biso   1.000  C
  C361     1.0000 0.05997  0.67862  0.21052  Biso   1.000  C
  C362     1.0000 0.74907  0.63988  0.37350  Biso   1.000  C
  C363     1.0000 0.88083  0.71958  0.29051  Biso   1.000  C
  C364     1.0000 0.88075  0.71958  0.29051  Biso   1.000  C
  O103     1.0000 0.85033  0.25000  0.36352  Biso   1.000  O
  O104     1.0000 0.85024  0.25000  0.36352  Biso   1.000  O
  N215     1.0000 0.03084  0.22455  0.41625  Biso   1.000  N
  H313     1.0000 0.15005  0.20616  0.23652  Biso   1.000  H
  C365     1.0000 0.14238  0.21441  0.37828  Biso   1.000  C
  N216     1.0000 0.19890  0.32694  0.28167  Biso   1.000  N
  H314     1.0000 0.28893  0.41017  0.20713  Biso   1.000  H
  H315     1.0000 0.20958  0.34638  0.14981  Biso   1.000  H
  H316     1.0000 0.28884  0.41017  0.20713  Biso   1.000  H
  O105     1.0000 0.24025  0.56242  0.25308  Biso   1.000  O
  N217     1.0000 0.99900  0.69942  0.29071  Biso   1.000  N
  H317     1.0000 0.02393  0.70950  0.15992  Biso   1.000  H
  H318     1.0000 0.13780  0.70119  0.21677  Biso   1.000  H
  H319     1.0000 0.02385  0.70950  0.15992  Biso   1.000  H
  N218     1.0000 0.77861  0.71290  0.42323  Biso   1.000  N
  O106     1.0000 0.67990  0.58525  0.39457  Biso   1.000  O
  C366     1.0000 0.86194  0.76610  0.38021  Biso   1.000  C
  H320     1.0000 0.85918  0.75779  0.23911  Biso   1.000  H
  C367     1.0000 0.99806  0.18549  0.50003  Biso   1.000  C
  H321     1.0000 0.16791  0.15212  0.37888  Biso   1.000  H
  N219     1.0000 0.22625  0.27264  0.41638  Biso   1.000  N
  C368     1.0000 0.25448  0.33918  0.36060  Biso   1.000  C
  C369     1.0000 0.05294  0.72775  0.36718  Biso   1.000  C
  C370     1.0000 0.71598  0.74117  0.49910  Biso   1.000  C
  H322     1.0000 0.83563  0.82766  0.37183  Biso   1.000  H
  N220     1.0000 0.97282  0.76224  0.42257  Biso   1.000  N
  H323     1.0000 0.83554  0.82766  0.37183  Biso   1.000  H
  N221     1.0000 0.97274  0.76224  0.42257  Biso   1.000  N
  H324     1.0000 0.91558  0.17587  0.49884  Biso   1.000  H
  H325     1.0000 0.03470  0.12758  0.50569  Biso   1.000  H
  N222     1.0000 0.02717  0.23776  0.57743  Biso   1.000  N
  C371     1.0000 0.28401  0.25877  0.50090  Biso   1.000  C
  C372     1.0000 0.28393  0.25877  0.50090  Biso   1.000  C
  O107     1.0000 0.32026  0.39859  0.37808  Biso   1.000  O
  O108     1.0000 0.15417  0.72200  0.38334  Biso   1.000  O
  N223     1.0000 0.77366  0.72730  0.58362  Biso   1.000  N
  H326     1.0000 0.69912  0.80437  0.49259  Biso   1.000  H
  H327     1.0000 0.64322  0.70950  0.49990  Biso   1.000  H
  H328     1.0000 0.69903  0.80437  0.49259  Biso   1.000  H
  H329     1.0000 0.64313  0.70950  0.49990  Biso   1.000  H
  C373     1.0000 0.00185  0.81451  0.50003  Biso   1.000  C
  C374     1.0000 0.94696  0.27218  0.63282  Biso   1.000  C
  C375     1.0000 0.13796  0.23390  0.61979  Biso   1.000  C
  H330     1.0000 0.30087  0.19556  0.50742  Biso   1.000  H
  H331     1.0000 0.35677  0.29050  0.50010  Biso   1.000  H
  N224     1.0000 0.22138  0.28710  0.57677  Biso   1.000  N
  C376     1.0000 0.85760  0.78559  0.62172  Biso   1.000  C
  C377     1.0000 0.74551  0.66076  0.63941  Biso   1.000  C
  C378     1.0000 0.74543  0.66076  0.63941  Biso   1.000  C
  H332     1.0000 0.96529  0.87235  0.49432  Biso   1.000  H
  N225     1.0000 0.96906  0.77545  0.58375  Biso   1.000  N
  H333     1.0000 0.08441  0.82406  0.50123  Biso   1.000  H
  O109     1.0000 0.84574  0.27794  0.61666  Biso   1.000  O
  N226     1.0000 0.00099  0.30058  0.70929  Biso   1.000  N
  H334     1.0000 0.16436  0.17227  0.62823  Biso   1.000  H
  C379     1.0000 0.11916  0.28042  0.70949  Biso   1.000  C
  C380     1.0000 0.25084  0.36012  0.62651  Biso   1.000  C
  C381     1.0000 0.87310  0.74987  0.71793  Biso   1.000  C
  H335     1.0000 0.83208  0.84788  0.62112  Biso   1.000  H
  N227     1.0000 0.80109  0.67306  0.71833  Biso   1.000  N
  O110     1.0000 0.67964  0.60135  0.62192  Biso   1.000  O
  C382     1.0000 0.04757  0.75137  0.64719  Biso   1.000  C
  C383     1.0000 0.93993  0.32138  0.78948  Biso   1.000  C
  H336     1.0000 0.14072  0.24221  0.76089  Biso   1.000  H
  N228     1.0000 0.19167  0.35671  0.70364  Biso   1.000  N
  O111     1.0000 0.32009  0.41475  0.60543  Biso   1.000  O
  H337     1.0000 0.84985  0.79377  0.76348  Biso   1.000  H
  N229     1.0000 0.99210  0.73096  0.72359  Biso   1.000  N
  N230     1.0000 0.99202  0.73096  0.72359  Biso   1.000  N
  C384     1.0000 0.78657  0.61718  0.79580  Biso   1.000  C
  O112     1.0000 0.14966  0.75000  0.63655  Biso   1.000  O
  H338     1.0000 0.97606  0.29050  0.84008  Biso   1.000  H
  H339     1.0000 0.86219  0.29881  0.78323  Biso   1.000  H
  N231     1.0000 0.93477  0.41357  0.81016  Biso   1.000  N
  C385     1.0000 0.21173  0.41468  0.77811  Biso   1.000  C
  C386     1.0000 0.05034  0.70636  0.80584  Biso   1.000  C
  H340     1.0000 0.71106  0.58977  0.79294  Biso   1.000  H
  H341     1.0000 0.79032  0.65356  0.85019  Biso   1.000  H
  N232     1.0000 0.87114  0.54927  0.80178  Biso   1.000  N
  C387     1.0000 0.84610  0.46401  0.78310  Biso   1.000  C
  C388     1.0000 0.02622  0.46441  0.84913  Biso   1.000  C
  H342     1.0000 0.22029  0.37909  0.83284  Biso   1.000  H
  H343     1.0000 0.28360  0.44609  0.76880  Biso   1.000  H
  N233     1.0000 0.12256  0.47841  0.79114  Biso   1.000  N
  H344     1.0000 0.28352  0.44609  0.76880  Biso   1.000  H
  H345     1.0000 0.00974  0.73240  0.85664  Biso   1.000  H
  H346     1.0000 0.12698  0.73188  0.80544  Biso   1.000  H
  N234     1.0000 0.05965  0.61326  0.81987  Biso   1.000  N
  C389     1.0000 0.97369  0.55660  0.85644  Biso   1.000  C
  O113     1.0000 0.75965  0.43758  0.74699  Biso   1.000  O
  H347     1.0000 0.04993  0.44111  0.90864  Biso   1.000  H
  C390     1.0000 0.14705  0.56602  0.78403  Biso   1.000  C
  H348     1.0000 0.95626  0.57210  0.91934  Biso   1.000  H
  O114     1.0000 0.23163  0.59723  0.75158  Biso   1.000  O
