data_image0
_cell_length_a       12.17
_cell_length_b       15.994
_cell_length_c       14.416
_cell_angle_alpha    90
_cell_angle_beta     92.46
_cell_angle_gamma    90

_symmetry_space_group_name_H-M    "P 1"
_symmetry_int_tables_number       1

loop_
  _symmetry_equiv_pos_as_xyz
  'x, y, z'

loop_
  _atom_site_label
  _atom_site_occupancy
  _atom_site_fract_x
  _atom_site_fract_y
  _atom_site_fract_z
  _atom_site_thermal_displace_type
  _atom_site_B_iso_or_equiv
  _atom_site_type_symbol
  C1       1.0000 0.60178  0.76579  0.22412  Biso   1.000  C
  N1       1.0000 0.48570  0.78698  0.21822  Biso   1.000  N
  C2       1.0000 0.61982  0.71977  0.13123  Biso   1.000  C
  C3       1.0000 0.61982  0.71983  0.13123  Biso   1.000  C
  H1       1.0000 0.62001  0.72909  0.27877  Biso   1.000  H
  N2       1.0000 0.67566  0.83681  0.22107  Biso   1.000  N
  H2       1.0000 0.62001  0.72909  0.27884  Biso   1.000  H
  N3       1.0000 0.67566  0.83681  0.22114  Biso   1.000  N
  H3       1.0000 0.62001  0.72915  0.27877  Biso   1.000  H
  H4       1.0000 0.62001  0.72915  0.27884  Biso   1.000  H
  C4       1.0000 0.43373  0.75666  0.13817  Biso   1.000  C
  C5       1.0000 0.43373  0.75666  0.13824  Biso   1.000  C
  C6       1.0000 0.43373  0.75672  0.13817  Biso   1.000  C
  C7       1.0000 0.43373  0.75672  0.13824  Biso   1.000  C
  C8       1.0000 0.42613  0.81524  0.29731  Biso   1.000  C
  N4       1.0000 0.51269  0.72496  0.08304  Biso   1.000  N
  N5       1.0000 0.51269  0.72496  0.08311  Biso   1.000  N
  H5       1.0000 0.64359  0.66050  0.14143  Biso   1.000  H
  N6       1.0000 0.70517  0.76948  0.09040  Biso   1.000  N
  N7       1.0000 0.70517  0.76954  0.09040  Biso   1.000  N
  C9       1.0000 0.73748  0.83700  0.14407  Biso   1.000  C
  C10      1.0000 0.69732  0.89202  0.29960  Biso   1.000  C
  C11      1.0000 0.73748  0.83700  0.14414  Biso   1.000  C
  C12      1.0000 0.73748  0.83706  0.14407  Biso   1.000  C
  C13      1.0000 0.69732  0.89208  0.29960  Biso   1.000  C
  C14      1.0000 0.73748  0.83706  0.14414  Biso   1.000  C
  O1       1.0000 0.33445  0.75828  0.12005  Biso   1.000  O
  O2       1.0000 0.33445  0.75828  0.11998  Biso   1.000  O
  O3       1.0000 0.33445  0.75835  0.11998  Biso   1.000  O
  O4       1.0000 0.33445  0.75835  0.12005  Biso   1.000  O
  H6       1.0000 0.34864  0.79680  0.28918  Biso   1.000  H
  H7       1.0000 0.45793  0.78792  0.35396  Biso   1.000  H
  N8       1.0000 0.42797  0.90453  0.31098  Biso   1.000  N
  H8       1.0000 0.34864  0.79680  0.28925  Biso   1.000  H
  H9       1.0000 0.45793  0.78792  0.35403  Biso   1.000  H
  N9       1.0000 0.42798  0.90453  0.31105  Biso   1.000  N
  C15      1.0000 0.48723  0.68251  0.99604  Biso   1.000  C
  C16      1.0000 0.76434  0.74328  0.00979  Biso   1.000  C
  C17      1.0000 0.76435  0.74328  0.00986  Biso   1.000  C
  C18      1.0000 0.76434  0.74334  0.00979  Biso   1.000  C
  C19      1.0000 0.76435  0.74334  0.00986  Biso   1.000  C
  O5       1.0000 0.80982  0.88614  0.12685  Biso   1.000  O
  H10      1.0000 0.77137  0.91678  0.29508  Biso   1.000  H
  H11      1.0000 0.69690  0.85901  0.35757  Biso   1.000  H
  N10      1.0000 0.61637  0.95905  0.30411  Biso   1.000  N
  H12      1.0000 0.77137  0.91678  0.29515  Biso   1.000  H
  H13      1.0000 0.69690  0.85901  0.35764  Biso   1.000  H
  N11      1.0000 0.61637  0.95905  0.30418  Biso   1.000  N
  H14      1.0000 0.77137  0.91684  0.29508  Biso   1.000  H
  N12      1.0000 0.61637  0.95911  0.30411  Biso   1.000  N
  H15      1.0000 0.77137  0.91684  0.29515  Biso   1.000  H
  N13      1.0000 0.61637  0.95911  0.30418  Biso   1.000  N
  C20      1.0000 0.51673  0.95167  0.35660  Biso   1.000  C
  C21      1.0000 0.34627  0.95517  0.27488  Biso   1.000  C
  C22      1.0000 0.34627  0.95517  0.27495  Biso   1.000  C
  C23      1.0000 0.51673  0.95173  0.35660  Biso   1.000  C
  C24      1.0000 0.34627  0.95523  0.27488  Biso   1.000  C
  C25      1.0000 0.34627  0.95523  0.27495  Biso   1.000  C
  H16      1.0000 0.52620  0.62811  0.99653  Biso   1.000  H
  H17      1.0000 0.40736  0.67088  0.99132  Biso   1.000  H
  N14      1.0000 0.51734  0.72952  0.91432  Biso   1.000  N
  H18      1.0000 0.40737  0.67088  0.99139  Biso   1.000  H
  H19      1.0000 0.40736  0.67094  0.99132  Biso   1.000  H
  H20      1.0000 0.40737  0.67094  0.99139  Biso   1.000  H
  H21      1.0000 0.77129  0.68157  0.01062  Biso   1.000  H
  H22      1.0000 0.83952  0.76710  0.01451  Biso   1.000  H
  H23      1.0000 0.77129  0.68163  0.01062  Biso   1.000  H
  N15      1.0000 0.71182  0.76879  0.92217  Biso   1.000  N
  N16      1.0000 0.71182  0.76879  0.92224  Biso   1.000  N
  C26      1.0000 0.64573  0.04070  0.29182  Biso   1.000  C
  H24      1.0000 0.53334  0.93141  0.42131  Biso   1.000  H
  C27      1.0000 0.47181  0.04245  0.35549  Biso   1.000  C
  C28      1.0000 0.47182  0.04245  0.35556  Biso   1.000  C
  C29      1.0000 0.47181  0.04252  0.35549  Biso   1.000  C
  C30      1.0000 0.47182  0.04252  0.35556  Biso   1.000  C
  O6       1.0000 0.26187  0.93066  0.23433  Biso   1.000  O
  N17      1.0000 0.37529  0.03670  0.29140  Biso   1.000  N
  N18      1.0000 0.37530  0.03670  0.29147  Biso   1.000  N
  N19      1.0000 0.37529  0.03676  0.29140  Biso   1.000  N
  N20      1.0000 0.37530  0.03676  0.29147  Biso   1.000  N
  C31      1.0000 0.44029  0.76466  0.85350  Biso   1.000  C
  C32      1.0000 0.62434  0.72208  0.87433  Biso   1.000  C
  C33      1.0000 0.44030  0.76466  0.85357  Biso   1.000  C
  C34      1.0000 0.62434  0.72215  0.87433  Biso   1.000  C
  C35      1.0000 0.74618  0.83638  0.87232  Biso   1.000  C
  C36      1.0000 0.74618  0.83638  0.87239  Biso   1.000  C
  C37      1.0000 0.74618  0.83644  0.87232  Biso   1.000  C
  C38      1.0000 0.74618  0.83644  0.87239  Biso   1.000  C
  N21      1.0000 0.56268  0.09047  0.32133  Biso   1.000  N
  N22      1.0000 0.56268  0.09047  0.32140  Biso   1.000  N
  O7       1.0000 0.73225  0.06540  0.26099  Biso   1.000  O
  O8       1.0000 0.73225  0.06546  0.26099  Biso   1.000  O
  H25      1.0000 0.45161  0.06121  0.41867  Biso   1.000  H
  H26      1.0000 0.45161  0.06121  0.41874  Biso   1.000  H
  C39      1.0000 0.29364  0.10323  0.28370  Biso   1.000  C
  N23      1.0000 0.49474  0.79198  0.77699  Biso   1.000  N
  O9       1.0000 0.34204  0.77135  0.86523  Biso   1.000  O
  O10      1.0000 0.34204  0.77135  0.86530  Biso   1.000  O
  C40      1.0000 0.60952  0.76904  0.78004  Biso   1.000  C
  H27      1.0000 0.64524  0.66231  0.86523  Biso   1.000  H
  N24      1.0000 0.68573  0.83863  0.79039  Biso   1.000  N
  N25      1.0000 0.68573  0.83869  0.79039  Biso   1.000  N
  O11      1.0000 0.82059  0.88433  0.89592  Biso   1.000  O
  O12      1.0000 0.82059  0.88439  0.89592  Biso   1.000  O
  C41      1.0000 0.56360  0.17957  0.30709  Biso   1.000  C
  C42      1.0000 0.56360  0.17963  0.30709  Biso   1.000  C
  H28      1.0000 0.21994  0.07803  0.27252  Biso   1.000  H
  H29      1.0000 0.29321  0.13399  0.34320  Biso   1.000  H
  N26      1.0000 0.31427  0.16137  0.20954  Biso   1.000  N
  N27      1.0000 0.31427  0.16137  0.20961  Biso   1.000  N
  H30      1.0000 0.29321  0.13405  0.34320  Biso   1.000  H
  C43      1.0000 0.43648  0.82043  0.69284  Biso   1.000  C
  H31      1.0000 0.62752  0.73240  0.72665  Biso   1.000  H
  C44      1.0000 0.70644  0.89677  0.71623  Biso   1.000  C
  C45      1.0000 0.70644  0.89684  0.71623  Biso   1.000  C
  H32      1.0000 0.64101  0.19839  0.30557  Biso   1.000  H
  H33      1.0000 0.53068  0.20683  0.36097  Biso   1.000  H
  N28      1.0000 0.50534  0.20802  0.22294  Biso   1.000  N
  H34      1.0000 0.64101  0.19839  0.30564  Biso   1.000  H
  H35      1.0000 0.53068  0.20683  0.36104  Biso   1.000  H
  N29      1.0000 0.50534  0.20802  0.22301  Biso   1.000  N
  H36      1.0000 0.64101  0.19845  0.30557  Biso   1.000  H
  H37      1.0000 0.64101  0.19845  0.30564  Biso   1.000  H
  C46      1.0000 0.39047  0.23096  0.21989  Biso   1.000  C
  C47      1.0000 0.25390  0.16362  0.12761  Biso   1.000  C
  C48      1.0000 0.39048  0.23096  0.21996  Biso   1.000  C
  H38      1.0000 0.35907  0.80161  0.69436  Biso   1.000  H
  H39      1.0000 0.46932  0.79317  0.63896  Biso   1.000  H
  N30      1.0000 0.43732  0.90953  0.67860  Biso   1.000  N
  H40      1.0000 0.46932  0.79323  0.63896  Biso   1.000  H
  N31      1.0000 0.43732  0.90959  0.67860  Biso   1.000  N
  H41      1.0000 0.78014  0.92197  0.72741  Biso   1.000  H
  H42      1.0000 0.70687  0.86601  0.65673  Biso   1.000  H
  N32      1.0000 0.62479  0.96330  0.70853  Biso   1.000  N
  H43      1.0000 0.78015  0.92197  0.72748  Biso   1.000  H
  H44      1.0000 0.70687  0.86601  0.65680  Biso   1.000  H
  H45      1.0000 0.78014  0.92203  0.72741  Biso   1.000  H
  H46      1.0000 0.78015  0.92203  0.72748  Biso   1.000  H
  C49      1.0000 0.55979  0.23534  0.14643  Biso   1.000  C
  H47      1.0000 0.37248  0.26760  0.27328  Biso   1.000  H
  C50      1.0000 0.37574  0.27792  0.12560  Biso   1.000  C
  H48      1.0000 0.37248  0.26760  0.27335  Biso   1.000  H
  H49      1.0000 0.37248  0.26766  0.27328  Biso   1.000  H
  H50      1.0000 0.37248  0.26766  0.27335  Biso   1.000  H
  N33      1.0000 0.28818  0.23121  0.07776  Biso   1.000  N
  O13      1.0000 0.17949  0.11567  0.10401  Biso   1.000  O
  O14      1.0000 0.17949  0.11567  0.10408  Biso   1.000  O
  C51      1.0000 0.35435  0.95930  0.70811  Biso   1.000  C
  C52      1.0000 0.52827  0.95755  0.64444  Biso   1.000  C
  C53      1.0000 0.35435  0.95930  0.70818  Biso   1.000  C
  C54      1.0000 0.65373  0.04483  0.72505  Biso   1.000  C
  N34      1.0000 0.48266  0.27048  0.08561  Biso   1.000  N
  O15      1.0000 0.65804  0.22865  0.13470  Biso   1.000  O
  N35      1.0000 0.48266  0.27048  0.08568  Biso   1.000  N
  O16      1.0000 0.65804  0.22871  0.13470  Biso   1.000  O
  H51      1.0000 0.35484  0.33769  0.13470  Biso   1.000  H
  H52      1.0000 0.35484  0.33775  0.13470  Biso   1.000  H
  C55      1.0000 0.23565  0.25672  0.99014  Biso   1.000  C
  O17      1.0000 0.26783  0.93460  0.73894  Biso   1.000  O
  N36      1.0000 0.38363  0.04095  0.69582  Biso   1.000  N
  H53      1.0000 0.54847  0.93879  0.58126  Biso   1.000  H
  H54      1.0000 0.54847  0.93885  0.58126  Biso   1.000  H
  C56      1.0000 0.48334  0.04833  0.64333  Biso   1.000  C
  C57      1.0000 0.48335  0.04833  0.64340  Biso   1.000  C
  N37      1.0000 0.57202  0.09547  0.68895  Biso   1.000  N
  N38      1.0000 0.57202  0.09554  0.68895  Biso   1.000  N
  O18      1.0000 0.73821  0.06934  0.76560  Biso   1.000  O
  O19      1.0000 0.73821  0.06934  0.76567  Biso   1.000  O
  O20      1.0000 0.73821  0.06940  0.76560  Biso   1.000  O
  O21      1.0000 0.73821  0.06940  0.76567  Biso   1.000  O
  C58      1.0000 0.51277  0.31749  0.00389  Biso   1.000  C
  C59      1.0000 0.51277  0.31749  0.00396  Biso   1.000  C
  H55      1.0000 0.22879  0.31843  0.98931  Biso   1.000  H
  H56      1.0000 0.16056  0.23290  0.98542  Biso   1.000  H
  N39      1.0000 0.29483  0.23052  0.90953  Biso   1.000  N
  H57      1.0000 0.22879  0.31843  0.98938  Biso   1.000  H
  H58      1.0000 0.16056  0.23290  0.98549  Biso   1.000  H
  N40      1.0000 0.29483  0.23052  0.90960  Biso   1.000  N
  C60      1.0000 0.30276  0.10798  0.70033  Biso   1.000  C
  H59      1.0000 0.46674  0.06859  0.57862  Biso   1.000  H
  H60      1.0000 0.46675  0.06859  0.57869  Biso   1.000  H
  H61      1.0000 0.46674  0.06865  0.57862  Biso   1.000  H
  H62      1.0000 0.46675  0.06865  0.57869  Biso   1.000  H
  C61      1.0000 0.57395  0.18476  0.70263  Biso   1.000  C
  C62      1.0000 0.57396  0.18476  0.70269  Biso   1.000  C
  C63      1.0000 0.57395  0.18482  0.70263  Biso   1.000  C
  C64      1.0000 0.57396  0.18482  0.70269  Biso   1.000  C
  N41      1.0000 0.48739  0.27504  0.91689  Biso   1.000  N
  H63      1.0000 0.47388  0.37189  0.00340  Biso   1.000  H
  H64      1.0000 0.59271  0.32912  0.00861  Biso   1.000  H
  H65      1.0000 0.47388  0.37195  0.00340  Biso   1.000  H
  C65      1.0000 0.26260  0.16300  0.85586  Biso   1.000  C
  C66      1.0000 0.38026  0.28023  0.86871  Biso   1.000  C
  C67      1.0000 0.38026  0.28023  0.86877  Biso   1.000  C
  H66      1.0000 0.22863  0.08322  0.70485  Biso   1.000  H
  H67      1.0000 0.30318  0.14099  0.64236  Biso   1.000  H
  N42      1.0000 0.32434  0.16319  0.77886  Biso   1.000  N
  H68      1.0000 0.30318  0.14105  0.64236  Biso   1.000  H
  H69      1.0000 0.65144  0.20320  0.71075  Biso   1.000  H
  H70      1.0000 0.54215  0.21208  0.64597  Biso   1.000  H
  N43      1.0000 0.51437  0.21302  0.78171  Biso   1.000  N
  N44      1.0000 0.51438  0.21302  0.78178  Biso   1.000  N
  H71      1.0000 0.54215  0.21214  0.64597  Biso   1.000  H
  N45      1.0000 0.51437  0.21308  0.78171  Biso   1.000  N
  N46      1.0000 0.51438  0.21308  0.78178  Biso   1.000  N
  C68      1.0000 0.56635  0.24334  0.86176  Biso   1.000  C
  O22      1.0000 0.19026  0.11386  0.87308  Biso   1.000  O
  O23      1.0000 0.19026  0.11386  0.87315  Biso   1.000  O
  O24      1.0000 0.19026  0.11392  0.87308  Biso   1.000  O
  O25      1.0000 0.19026  0.11392  0.87315  Biso   1.000  O
  C69      1.0000 0.39822  0.23421  0.77581  Biso   1.000  C
  C70      1.0000 0.39822  0.23421  0.77588  Biso   1.000  C
  H72      1.0000 0.35649  0.33950  0.85850  Biso   1.000  H
  H73      1.0000 0.35649  0.33950  0.85857  Biso   1.000  H
  O26      1.0000 0.66563  0.24172  0.87995  Biso   1.000  O
  H74      1.0000 0.38007  0.27091  0.72116  Biso   1.000  H
  C71      1.0000 0.60178  0.76579  0.22412  Biso   1.000  C
  C72      1.0000 0.61982  0.71977  0.13123  Biso   1.000  C
  C73      1.0000 0.61982  0.71983  0.13123  Biso   1.000  C
  N47      1.0000 0.48570  0.78698  0.21822  Biso   1.000  N
  N48      1.0000 0.67566  0.83681  0.22107  Biso   1.000  N
  N49      1.0000 0.67566  0.83681  0.22114  Biso   1.000  N
  H75      1.0000 0.62001  0.72909  0.27877  Biso   1.000  H
  H76      1.0000 0.62001  0.72909  0.27884  Biso   1.000  H
  H77      1.0000 0.62001  0.72915  0.27877  Biso   1.000  H
  H78      1.0000 0.62001  0.72915  0.27884  Biso   1.000  H
  N50      1.0000 0.51269  0.72496  0.08311  Biso   1.000  N
  H79      1.0000 0.64359  0.66050  0.14143  Biso   1.000  H
  N51      1.0000 0.70517  0.76948  0.09040  Biso   1.000  N
  N52      1.0000 0.51269  0.72496  0.08304  Biso   1.000  N
  N53      1.0000 0.70517  0.76954  0.09040  Biso   1.000  N
  C74      1.0000 0.43373  0.75666  0.13817  Biso   1.000  C
  C75      1.0000 0.43373  0.75666  0.13824  Biso   1.000  C
  C76      1.0000 0.43373  0.75672  0.13817  Biso   1.000  C
  C77      1.0000 0.43373  0.75672  0.13824  Biso   1.000  C
  C78      1.0000 0.42613  0.81524  0.29731  Biso   1.000  C
  C79      1.0000 0.73748  0.83700  0.14407  Biso   1.000  C
  C80      1.0000 0.73748  0.83700  0.14414  Biso   1.000  C
  C81      1.0000 0.73748  0.83706  0.14407  Biso   1.000  C
  C82      1.0000 0.73748  0.83706  0.14414  Biso   1.000  C
  C83      1.0000 0.69732  0.89202  0.29960  Biso   1.000  C
  C84      1.0000 0.69732  0.89208  0.29960  Biso   1.000  C
  C85      1.0000 0.48723  0.68251  0.99604  Biso   1.000  C
  C86      1.0000 0.76434  0.74328  0.00979  Biso   1.000  C
  C87      1.0000 0.76435  0.74328  0.00986  Biso   1.000  C
  C88      1.0000 0.76434  0.74334  0.00979  Biso   1.000  C
  C89      1.0000 0.76435  0.74334  0.00986  Biso   1.000  C
  O27      1.0000 0.33445  0.75828  0.11998  Biso   1.000  O
  O28      1.0000 0.33445  0.75828  0.12005  Biso   1.000  O
  O29      1.0000 0.33445  0.75835  0.11998  Biso   1.000  O
  O30      1.0000 0.33445  0.75835  0.12005  Biso   1.000  O
  H80      1.0000 0.34864  0.79680  0.28918  Biso   1.000  H
  H81      1.0000 0.45793  0.78792  0.35396  Biso   1.000  H
  N54      1.0000 0.42797  0.90453  0.31098  Biso   1.000  N
  H82      1.0000 0.34864  0.79680  0.28925  Biso   1.000  H
  H83      1.0000 0.45793  0.78792  0.35403  Biso   1.000  H
  N55      1.0000 0.42798  0.90453  0.31105  Biso   1.000  N
  O31      1.0000 0.80982  0.88614  0.12685  Biso   1.000  O
  H84      1.0000 0.69690  0.85901  0.35757  Biso   1.000  H
  H85      1.0000 0.69690  0.85901  0.35764  Biso   1.000  H
  H86      1.0000 0.77137  0.91678  0.29508  Biso   1.000  H
  N56      1.0000 0.61637  0.95905  0.30411  Biso   1.000  N
  H87      1.0000 0.77137  0.91678  0.29515  Biso   1.000  H
  N57      1.0000 0.61637  0.95905  0.30418  Biso   1.000  N
  H88      1.0000 0.77137  0.91684  0.29508  Biso   1.000  H
  N58      1.0000 0.61637  0.95911  0.30411  Biso   1.000  N
  H89      1.0000 0.77137  0.91684  0.29515  Biso   1.000  H
  N59      1.0000 0.61637  0.95911  0.30418  Biso   1.000  N
  H90      1.0000 0.52620  0.62811  0.99653  Biso   1.000  H
  H91      1.0000 0.40736  0.67088  0.99132  Biso   1.000  H
  N60      1.0000 0.51734  0.72952  0.91432  Biso   1.000  N
  H92      1.0000 0.40737  0.67088  0.99139  Biso   1.000  H
  H93      1.0000 0.40736  0.67094  0.99132  Biso   1.000  H
  H94      1.0000 0.40737  0.67094  0.99139  Biso   1.000  H
  H95      1.0000 0.77129  0.68157  0.01062  Biso   1.000  H
  H96      1.0000 0.83952  0.76710  0.01451  Biso   1.000  H
  H97      1.0000 0.77129  0.68163  0.01062  Biso   1.000  H
  N61      1.0000 0.71182  0.76879  0.92217  Biso   1.000  N
  N62      1.0000 0.71182  0.76879  0.92224  Biso   1.000  N
  C90      1.0000 0.51673  0.95167  0.35660  Biso   1.000  C
  C91      1.0000 0.51673  0.95173  0.35660  Biso   1.000  C
  C92      1.0000 0.34627  0.95517  0.27488  Biso   1.000  C
  C93      1.0000 0.34627  0.95517  0.27495  Biso   1.000  C
  C94      1.0000 0.34627  0.95523  0.27488  Biso   1.000  C
  C95      1.0000 0.34627  0.95523  0.27495  Biso   1.000  C
  C96      1.0000 0.64573  0.04070  0.29182  Biso   1.000  C
  C97      1.0000 0.44029  0.76466  0.85350  Biso   1.000  C
  C98      1.0000 0.62434  0.72208  0.87433  Biso   1.000  C
  C99      1.0000 0.44030  0.76466  0.85357  Biso   1.000  C
  C100     1.0000 0.62434  0.72215  0.87433  Biso   1.000  C
  C101     1.0000 0.74618  0.83638  0.87232  Biso   1.000  C
  C102     1.0000 0.74618  0.83638  0.87239  Biso   1.000  C
  C103     1.0000 0.74618  0.83644  0.87232  Biso   1.000  C
  C104     1.0000 0.74618  0.83644  0.87239  Biso   1.000  C
  H98      1.0000 0.53334  0.93141  0.42131  Biso   1.000  H
  C105     1.0000 0.47181  0.04245  0.35549  Biso   1.000  C
  C106     1.0000 0.47182  0.04245  0.35556  Biso   1.000  C
  C107     1.0000 0.47181  0.04252  0.35549  Biso   1.000  C
  C108     1.0000 0.47182  0.04252  0.35556  Biso   1.000  C
  O32      1.0000 0.26187  0.93066  0.23433  Biso   1.000  O
  N63      1.0000 0.37529  0.03670  0.29140  Biso   1.000  N
  N64      1.0000 0.37530  0.03670  0.29147  Biso   1.000  N
  N65      1.0000 0.37529  0.03676  0.29140  Biso   1.000  N
  N66      1.0000 0.37530  0.03676  0.29147  Biso   1.000  N
  N67      1.0000 0.56268  0.09047  0.32133  Biso   1.000  N
  O33      1.0000 0.73225  0.06540  0.26099  Biso   1.000  O
  N68      1.0000 0.56268  0.09047  0.32140  Biso   1.000  N
  O34      1.0000 0.73225  0.06546  0.26099  Biso   1.000  O
  N69      1.0000 0.49474  0.79198  0.77699  Biso   1.000  N
  O35      1.0000 0.34204  0.77135  0.86523  Biso   1.000  O
  O36      1.0000 0.34204  0.77135  0.86530  Biso   1.000  O
  C109     1.0000 0.60952  0.76904  0.78004  Biso   1.000  C
  H99      1.0000 0.64524  0.66231  0.86523  Biso   1.000  H
  N70      1.0000 0.68573  0.83863  0.79039  Biso   1.000  N
  N71      1.0000 0.68573  0.83869  0.79039  Biso   1.000  N
  O37      1.0000 0.82059  0.88433  0.89592  Biso   1.000  O
  O38      1.0000 0.82059  0.88439  0.89592  Biso   1.000  O
  H100     1.0000 0.45161  0.06121  0.41867  Biso   1.000  H
  H101     1.0000 0.45161  0.06121  0.41874  Biso   1.000  H
  C110     1.0000 0.29364  0.10323  0.28370  Biso   1.000  C
  C111     1.0000 0.56360  0.17957  0.30709  Biso   1.000  C
  C112     1.0000 0.56360  0.17963  0.30709  Biso   1.000  C
  C113     1.0000 0.43648  0.82043  0.69284  Biso   1.000  C
  H102     1.0000 0.62752  0.73240  0.72665  Biso   1.000  H
  C114     1.0000 0.70644  0.89677  0.71623  Biso   1.000  C
  C115     1.0000 0.70644  0.89684  0.71623  Biso   1.000  C
  H103     1.0000 0.21994  0.07803  0.27252  Biso   1.000  H
  H104     1.0000 0.29321  0.13399  0.34320  Biso   1.000  H
  N72      1.0000 0.31427  0.16137  0.20954  Biso   1.000  N
  N73      1.0000 0.31427  0.16137  0.20961  Biso   1.000  N
  H105     1.0000 0.29321  0.13405  0.34320  Biso   1.000  H
  H106     1.0000 0.64101  0.19839  0.30557  Biso   1.000  H
  H107     1.0000 0.53068  0.20683  0.36097  Biso   1.000  H
  N74      1.0000 0.50534  0.20802  0.22294  Biso   1.000  N
  H108     1.0000 0.64101  0.19839  0.30564  Biso   1.000  H
  H109     1.0000 0.53068  0.20683  0.36104  Biso   1.000  H
  N75      1.0000 0.50534  0.20802  0.22301  Biso   1.000  N
  H110     1.0000 0.64101  0.19845  0.30557  Biso   1.000  H
  H111     1.0000 0.64101  0.19845  0.30564  Biso   1.000  H
  H112     1.0000 0.35907  0.80161  0.69436  Biso   1.000  H
  H113     1.0000 0.46932  0.79317  0.63896  Biso   1.000  H
  N76      1.0000 0.43732  0.90953  0.67860  Biso   1.000  N
  H114     1.0000 0.46932  0.79323  0.63896  Biso   1.000  H
  N77      1.0000 0.43732  0.90959  0.67860  Biso   1.000  N
  H115     1.0000 0.78014  0.92197  0.72741  Biso   1.000  H
  H116     1.0000 0.70687  0.86601  0.65673  Biso   1.000  H
  N78      1.0000 0.62479  0.96330  0.70853  Biso   1.000  N
  H117     1.0000 0.78015  0.92197  0.72748  Biso   1.000  H
  H118     1.0000 0.70687  0.86601  0.65680  Biso   1.000  H
  H119     1.0000 0.78014  0.92203  0.72741  Biso   1.000  H
  H120     1.0000 0.78015  0.92203  0.72748  Biso   1.000  H
  C116     1.0000 0.39047  0.23096  0.21989  Biso   1.000  C
  C117     1.0000 0.25390  0.16362  0.12761  Biso   1.000  C
  C118     1.0000 0.39048  0.23096  0.21996  Biso   1.000  C
  C119     1.0000 0.55979  0.23534  0.14643  Biso   1.000  C
  C120     1.0000 0.35435  0.95930  0.70811  Biso   1.000  C
  C121     1.0000 0.52827  0.95755  0.64444  Biso   1.000  C
  C122     1.0000 0.35435  0.95930  0.70818  Biso   1.000  C
  C123     1.0000 0.65373  0.04483  0.72505  Biso   1.000  C
  H121     1.0000 0.37248  0.26760  0.27328  Biso   1.000  H
  C124     1.0000 0.37574  0.27792  0.12560  Biso   1.000  C
  H122     1.0000 0.37248  0.26760  0.27335  Biso   1.000  H
  H123     1.0000 0.37248  0.26766  0.27328  Biso   1.000  H
  H124     1.0000 0.37248  0.26766  0.27335  Biso   1.000  H
  N79      1.0000 0.28818  0.23121  0.07776  Biso   1.000  N
  O39      1.0000 0.17949  0.11567  0.10401  Biso   1.000  O
  O40      1.0000 0.17949  0.11567  0.10408  Biso   1.000  O
  N80      1.0000 0.48266  0.27048  0.08561  Biso   1.000  N
  O41      1.0000 0.65804  0.22865  0.13470  Biso   1.000  O
  N81      1.0000 0.48266  0.27048  0.08568  Biso   1.000  N
  O42      1.0000 0.65804  0.22871  0.13470  Biso   1.000  O
  O43      1.0000 0.26783  0.93460  0.73894  Biso   1.000  O
  N82      1.0000 0.38363  0.04095  0.69582  Biso   1.000  N
  H125     1.0000 0.54847  0.93879  0.58126  Biso   1.000  H
  H126     1.0000 0.54847  0.93885  0.58126  Biso   1.000  H
  C125     1.0000 0.48334  0.04833  0.64333  Biso   1.000  C
  C126     1.0000 0.48335  0.04833  0.64340  Biso   1.000  C
  N83      1.0000 0.57202  0.09547  0.68895  Biso   1.000  N
  N84      1.0000 0.57202  0.09554  0.68895  Biso   1.000  N
  O44      1.0000 0.73821  0.06934  0.76560  Biso   1.000  O
  O45      1.0000 0.73821  0.06934  0.76567  Biso   1.000  O
  O46      1.0000 0.73821  0.06940  0.76560  Biso   1.000  O
  O47      1.0000 0.73821  0.06940  0.76567  Biso   1.000  O
  H127     1.0000 0.35484  0.33769  0.13470  Biso   1.000  H
  H128     1.0000 0.35484  0.33775  0.13470  Biso   1.000  H
  C127     1.0000 0.23565  0.25672  0.99014  Biso   1.000  C
  C128     1.0000 0.51277  0.31749  0.00389  Biso   1.000  C
  C129     1.0000 0.51277  0.31749  0.00396  Biso   1.000  C
  C130     1.0000 0.30276  0.10798  0.70033  Biso   1.000  C
  H129     1.0000 0.46674  0.06859  0.57862  Biso   1.000  H
  H130     1.0000 0.46675  0.06859  0.57869  Biso   1.000  H
  H131     1.0000 0.46674  0.06865  0.57862  Biso   1.000  H
  H132     1.0000 0.46675  0.06865  0.57869  Biso   1.000  H
  C131     1.0000 0.57395  0.18476  0.70263  Biso   1.000  C
  C132     1.0000 0.57396  0.18476  0.70269  Biso   1.000  C
  C133     1.0000 0.57395  0.18482  0.70263  Biso   1.000  C
  C134     1.0000 0.57396  0.18482  0.70269  Biso   1.000  C
  N85      1.0000 0.29483  0.23052  0.90953  Biso   1.000  N
  N86      1.0000 0.29483  0.23052  0.90960  Biso   1.000  N
  H133     1.0000 0.22879  0.31843  0.98931  Biso   1.000  H
  H134     1.0000 0.16056  0.23290  0.98542  Biso   1.000  H
  H135     1.0000 0.22879  0.31843  0.98938  Biso   1.000  H
  H136     1.0000 0.16056  0.23290  0.98549  Biso   1.000  H
  N87      1.0000 0.48739  0.27504  0.91689  Biso   1.000  N
  H137     1.0000 0.47388  0.37189  0.00340  Biso   1.000  H
  H138     1.0000 0.59271  0.32912  0.00861  Biso   1.000  H
  H139     1.0000 0.47388  0.37195  0.00340  Biso   1.000  H
  H140     1.0000 0.22863  0.08322  0.70485  Biso   1.000  H
  H141     1.0000 0.30318  0.14099  0.64236  Biso   1.000  H
  N88      1.0000 0.32434  0.16319  0.77886  Biso   1.000  N
  H142     1.0000 0.30318  0.14105  0.64236  Biso   1.000  H
  H143     1.0000 0.65144  0.20320  0.71075  Biso   1.000  H
  H144     1.0000 0.54215  0.21208  0.64597  Biso   1.000  H
  N89      1.0000 0.51437  0.21302  0.78171  Biso   1.000  N
  N90      1.0000 0.51438  0.21302  0.78178  Biso   1.000  N
  H145     1.0000 0.54215  0.21214  0.64597  Biso   1.000  H
  N91      1.0000 0.51437  0.21308  0.78171  Biso   1.000  N
  N92      1.0000 0.51438  0.21308  0.78178  Biso   1.000  N
  C135     1.0000 0.26260  0.16300  0.85586  Biso   1.000  C
  C136     1.0000 0.38026  0.28023  0.86871  Biso   1.000  C
  C137     1.0000 0.38026  0.28023  0.86877  Biso   1.000  C
  C138     1.0000 0.56635  0.24334  0.86176  Biso   1.000  C
  C139     1.0000 0.39822  0.23421  0.77581  Biso   1.000  C
  C140     1.0000 0.39822  0.23421  0.77588  Biso   1.000  C
  O48      1.0000 0.19026  0.11386  0.87308  Biso   1.000  O
  O49      1.0000 0.19026  0.11386  0.87315  Biso   1.000  O
  O50      1.0000 0.19026  0.11392  0.87308  Biso   1.000  O
  O51      1.0000 0.19026  0.11392  0.87315  Biso   1.000  O
  H146     1.0000 0.35649  0.33950  0.85850  Biso   1.000  H
  H147     1.0000 0.35649  0.33950  0.85857  Biso   1.000  H
  O52      1.0000 0.66563  0.24172  0.87995  Biso   1.000  O
  H148     1.0000 0.38007  0.27091  0.72116  Biso   1.000  H
  C141     1.0000 0.60178  0.76579  0.22412  Biso   1.000  C
  N93      1.0000 0.48570  0.78698  0.21822  Biso   1.000  N
  C142     1.0000 0.61982  0.71977  0.13123  Biso   1.000  C
  H149     1.0000 0.62001  0.72909  0.27877  Biso   1.000  H
  N94      1.0000 0.67566  0.83681  0.22107  Biso   1.000  N
  H150     1.0000 0.62001  0.72909  0.27884  Biso   1.000  H
  N95      1.0000 0.67566  0.83681  0.22114  Biso   1.000  N
  C143     1.0000 0.61982  0.71983  0.13123  Biso   1.000  C
  H151     1.0000 0.62001  0.72915  0.27877  Biso   1.000  H
  H152     1.0000 0.62001  0.72915  0.27884  Biso   1.000  H
  C144     1.0000 0.42613  0.81524  0.29731  Biso   1.000  C
  C145     1.0000 0.43373  0.75666  0.13817  Biso   1.000  C
  C146     1.0000 0.43373  0.75666  0.13824  Biso   1.000  C
  C147     1.0000 0.43373  0.75672  0.13817  Biso   1.000  C
  C148     1.0000 0.43373  0.75672  0.13824  Biso   1.000  C
  N96      1.0000 0.51269  0.72496  0.08304  Biso   1.000  N
  N97      1.0000 0.51269  0.72496  0.08311  Biso   1.000  N
  H153     1.0000 0.64359  0.66050  0.14143  Biso   1.000  H
  N98      1.0000 0.70517  0.76948  0.09040  Biso   1.000  N
  N99      1.0000 0.70517  0.76954  0.09040  Biso   1.000  N
  C149     1.0000 0.73748  0.83700  0.14407  Biso   1.000  C
  C150     1.0000 0.69732  0.89202  0.29960  Biso   1.000  C
  C151     1.0000 0.73748  0.83700  0.14414  Biso   1.000  C
  C152     1.0000 0.73748  0.83706  0.14407  Biso   1.000  C
  C153     1.0000 0.69732  0.89208  0.29960  Biso   1.000  C
  C154     1.0000 0.73748  0.83706  0.14414  Biso   1.000  C
  H154     1.0000 0.34864  0.79680  0.28918  Biso   1.000  H
  H155     1.0000 0.45793  0.78792  0.35396  Biso   1.000  H
  N100     1.0000 0.42797  0.90453  0.31098  Biso   1.000  N
  H156     1.0000 0.34864  0.79680  0.28925  Biso   1.000  H
  H157     1.0000 0.45793  0.78792  0.35403  Biso   1.000  H
  N101     1.0000 0.42798  0.90453  0.31105  Biso   1.000  N
  O53      1.0000 0.33445  0.75828  0.11998  Biso   1.000  O
  O54      1.0000 0.33445  0.75828  0.12005  Biso   1.000  O
  O55      1.0000 0.33445  0.75835  0.11998  Biso   1.000  O
  O56      1.0000 0.33445  0.75835  0.12005  Biso   1.000  O
  C155     1.0000 0.48723  0.68251  0.99604  Biso   1.000  C
  C156     1.0000 0.76434  0.74328  0.00979  Biso   1.000  C
  C157     1.0000 0.76435  0.74328  0.00986  Biso   1.000  C
  C158     1.0000 0.76434  0.74334  0.00979  Biso   1.000  C
  C159     1.0000 0.76435  0.74334  0.00986  Biso   1.000  C
  O57      1.0000 0.80982  0.88614  0.12685  Biso   1.000  O
  H158     1.0000 0.77137  0.91678  0.29508  Biso   1.000  H
  H159     1.0000 0.69690  0.85901  0.35757  Biso   1.000  H
  N102     1.0000 0.61637  0.95905  0.30411  Biso   1.000  N
  H160     1.0000 0.77137  0.91678  0.29515  Biso   1.000  H
  H161     1.0000 0.69690  0.85901  0.35764  Biso   1.000  H
  N103     1.0000 0.61637  0.95905  0.30418  Biso   1.000  N
  H162     1.0000 0.77137  0.91684  0.29508  Biso   1.000  H
  N104     1.0000 0.61637  0.95911  0.30411  Biso   1.000  N
  H163     1.0000 0.77137  0.91684  0.29515  Biso   1.000  H
  N105     1.0000 0.61637  0.95911  0.30418  Biso   1.000  N
  C160     1.0000 0.51673  0.95167  0.35660  Biso   1.000  C
  C161     1.0000 0.34627  0.95517  0.27488  Biso   1.000  C
  C162     1.0000 0.34627  0.95517  0.27495  Biso   1.000  C
  C163     1.0000 0.51673  0.95173  0.35660  Biso   1.000  C
  C164     1.0000 0.34627  0.95523  0.27488  Biso   1.000  C
  C165     1.0000 0.34627  0.95523  0.27495  Biso   1.000  C
  H164     1.0000 0.52620  0.62811  0.99653  Biso   1.000  H
  H165     1.0000 0.40736  0.67088  0.99132  Biso   1.000  H
  N106     1.0000 0.51734  0.72952  0.91432  Biso   1.000  N
  H166     1.0000 0.40737  0.67088  0.99139  Biso   1.000  H
  H167     1.0000 0.40736  0.67094  0.99132  Biso   1.000  H
  H168     1.0000 0.40737  0.67094  0.99139  Biso   1.000  H
  H169     1.0000 0.83952  0.76710  0.01451  Biso   1.000  H
  N107     1.0000 0.71182  0.76879  0.92217  Biso   1.000  N
  N108     1.0000 0.71182  0.76879  0.92224  Biso   1.000  N
  H170     1.0000 0.77129  0.68157  0.01062  Biso   1.000  H
  H171     1.0000 0.77129  0.68163  0.01062  Biso   1.000  H
  C166     1.0000 0.64573  0.04070  0.29182  Biso   1.000  C
  H172     1.0000 0.53334  0.93141  0.42131  Biso   1.000  H
  C167     1.0000 0.47181  0.04245  0.35549  Biso   1.000  C
  C168     1.0000 0.47182  0.04245  0.35556  Biso   1.000  C
  C169     1.0000 0.47181  0.04252  0.35549  Biso   1.000  C
  C170     1.0000 0.47182  0.04252  0.35556  Biso   1.000  C
  O58      1.0000 0.26187  0.93066  0.23433  Biso   1.000  O
  N109     1.0000 0.37529  0.03670  0.29140  Biso   1.000  N
  N110     1.0000 0.37530  0.03670  0.29147  Biso   1.000  N
  N111     1.0000 0.37529  0.03676  0.29140  Biso   1.000  N
  N112     1.0000 0.37530  0.03676  0.29147  Biso   1.000  N
  C171     1.0000 0.44029  0.76466  0.85350  Biso   1.000  C
  C172     1.0000 0.62434  0.72208  0.87433  Biso   1.000  C
  C173     1.0000 0.44030  0.76466  0.85357  Biso   1.000  C
  C174     1.0000 0.62434  0.72215  0.87433  Biso   1.000  C
  C175     1.0000 0.74618  0.83638  0.87232  Biso   1.000  C
  C176     1.0000 0.74618  0.83638  0.87239  Biso   1.000  C
  C177     1.0000 0.74618  0.83644  0.87232  Biso   1.000  C
  C178     1.0000 0.74618  0.83644  0.87239  Biso   1.000  C
  N113     1.0000 0.56268  0.09047  0.32133  Biso   1.000  N
  N114     1.0000 0.56268  0.09047  0.32140  Biso   1.000  N
  O59      1.0000 0.73225  0.06540  0.26099  Biso   1.000  O
  O60      1.0000 0.73225  0.06546  0.26099  Biso   1.000  O
  H173     1.0000 0.45161  0.06121  0.41867  Biso   1.000  H
  H174     1.0000 0.45161  0.06121  0.41874  Biso   1.000  H
  C179     1.0000 0.29364  0.10323  0.28370  Biso   1.000  C
  N115     1.0000 0.49474  0.79198  0.77699  Biso   1.000  N
  O61      1.0000 0.34204  0.77135  0.86523  Biso   1.000  O
  O62      1.0000 0.34204  0.77135  0.86530  Biso   1.000  O
  C180     1.0000 0.60952  0.76904  0.78004  Biso   1.000  C
  H175     1.0000 0.64524  0.66231  0.86523  Biso   1.000  H
  N116     1.0000 0.68573  0.83863  0.79039  Biso   1.000  N
  O63      1.0000 0.82059  0.88433  0.89592  Biso   1.000  O
  N117     1.0000 0.68573  0.83869  0.79039  Biso   1.000  N
  O64      1.0000 0.82059  0.88439  0.89592  Biso   1.000  O
  C181     1.0000 0.56360  0.17957  0.30709  Biso   1.000  C
  C182     1.0000 0.56360  0.17963  0.30709  Biso   1.000  C
  H176     1.0000 0.21994  0.07803  0.27252  Biso   1.000  H
  H177     1.0000 0.29321  0.13399  0.34320  Biso   1.000  H
  N118     1.0000 0.31427  0.16137  0.20954  Biso   1.000  N
  N119     1.0000 0.31427  0.16137  0.20961  Biso   1.000  N
  H178     1.0000 0.29321  0.13405  0.34320  Biso   1.000  H
  C183     1.0000 0.43648  0.82043  0.69284  Biso   1.000  C
  H179     1.0000 0.62752  0.73240  0.72665  Biso   1.000  H
  C184     1.0000 0.70644  0.89677  0.71623  Biso   1.000  C
  C185     1.0000 0.70644  0.89684  0.71623  Biso   1.000  C
  H180     1.0000 0.64101  0.19839  0.30557  Biso   1.000  H
  H181     1.0000 0.53068  0.20683  0.36097  Biso   1.000  H
  N120     1.0000 0.50534  0.20802  0.22294  Biso   1.000  N
  H182     1.0000 0.64101  0.19839  0.30564  Biso   1.000  H
  H183     1.0000 0.53068  0.20683  0.36104  Biso   1.000  H
  N121     1.0000 0.50534  0.20802  0.22301  Biso   1.000  N
  H184     1.0000 0.64101  0.19845  0.30557  Biso   1.000  H
  H185     1.0000 0.64101  0.19845  0.30564  Biso   1.000  H
  C186     1.0000 0.39047  0.23096  0.21989  Biso   1.000  C
  C187     1.0000 0.25390  0.16362  0.12761  Biso   1.000  C
  C188     1.0000 0.39048  0.23096  0.21996  Biso   1.000  C
  H186     1.0000 0.35907  0.80161  0.69436  Biso   1.000  H
  H187     1.0000 0.46932  0.79317  0.63896  Biso   1.000  H
  N122     1.0000 0.43732  0.90953  0.67860  Biso   1.000  N
  H188     1.0000 0.46932  0.79323  0.63896  Biso   1.000  H
  N123     1.0000 0.43732  0.90959  0.67860  Biso   1.000  N
  H189     1.0000 0.78014  0.92197  0.72741  Biso   1.000  H
  H190     1.0000 0.70687  0.86601  0.65673  Biso   1.000  H
  N124     1.0000 0.62479  0.96330  0.70853  Biso   1.000  N
  H191     1.0000 0.78015  0.92197  0.72748  Biso   1.000  H
  H192     1.0000 0.70687  0.86601  0.65680  Biso   1.000  H
  H193     1.0000 0.78014  0.92203  0.72741  Biso   1.000  H
  H194     1.0000 0.78015  0.92203  0.72748  Biso   1.000  H
  C189     1.0000 0.55979  0.23534  0.14643  Biso   1.000  C
  H195     1.0000 0.37248  0.26760  0.27328  Biso   1.000  H
  C190     1.0000 0.37574  0.27792  0.12560  Biso   1.000  C
  H196     1.0000 0.37248  0.26760  0.27335  Biso   1.000  H
  H197     1.0000 0.37248  0.26766  0.27328  Biso   1.000  H
  H198     1.0000 0.37248  0.26766  0.27335  Biso   1.000  H
  N125     1.0000 0.28818  0.23121  0.07776  Biso   1.000  N
  O65      1.0000 0.17949  0.11567  0.10401  Biso   1.000  O
  O66      1.0000 0.17949  0.11567  0.10408  Biso   1.000  O
  C191     1.0000 0.35435  0.95930  0.70811  Biso   1.000  C
  C192     1.0000 0.52827  0.95755  0.64444  Biso   1.000  C
  C193     1.0000 0.35435  0.95930  0.70818  Biso   1.000  C
  C194     1.0000 0.65373  0.04483  0.72505  Biso   1.000  C
  N126     1.0000 0.48266  0.27048  0.08561  Biso   1.000  N
  O67      1.0000 0.65804  0.22865  0.13470  Biso   1.000  O
  N127     1.0000 0.48266  0.27048  0.08568  Biso   1.000  N
  O68      1.0000 0.65804  0.22871  0.13470  Biso   1.000  O
  H199     1.0000 0.35484  0.33769  0.13470  Biso   1.000  H
  H200     1.0000 0.35484  0.33775  0.13470  Biso   1.000  H
  C195     1.0000 0.23565  0.25672  0.99014  Biso   1.000  C
  O69      1.0000 0.26783  0.93460  0.73894  Biso   1.000  O
  N128     1.0000 0.38363  0.04095  0.69582  Biso   1.000  N
  H201     1.0000 0.54847  0.93879  0.58126  Biso   1.000  H
  H202     1.0000 0.54847  0.93885  0.58126  Biso   1.000  H
  C196     1.0000 0.48334  0.04833  0.64333  Biso   1.000  C
  C197     1.0000 0.48335  0.04833  0.64340  Biso   1.000  C
  N129     1.0000 0.57202  0.09547  0.68895  Biso   1.000  N
  O70      1.0000 0.73821  0.06934  0.76560  Biso   1.000  O
  O71      1.0000 0.73821  0.06934  0.76567  Biso   1.000  O
  N130     1.0000 0.57202  0.09554  0.68895  Biso   1.000  N
  O72      1.0000 0.73821  0.06940  0.76560  Biso   1.000  O
  O73      1.0000 0.73821  0.06940  0.76567  Biso   1.000  O
  C198     1.0000 0.51277  0.31749  0.00389  Biso   1.000  C
  C199     1.0000 0.51277  0.31749  0.00396  Biso   1.000  C
  H203     1.0000 0.22879  0.31843  0.98931  Biso   1.000  H
  H204     1.0000 0.16056  0.23290  0.98542  Biso   1.000  H
  N131     1.0000 0.29483  0.23052  0.90953  Biso   1.000  N
  H205     1.0000 0.22879  0.31843  0.98938  Biso   1.000  H
  H206     1.0000 0.16056  0.23290  0.98549  Biso   1.000  H
  N132     1.0000 0.29483  0.23052  0.90960  Biso   1.000  N
  C200     1.0000 0.30276  0.10798  0.70033  Biso   1.000  C
  H207     1.0000 0.46674  0.06859  0.57862  Biso   1.000  H
  H208     1.0000 0.46675  0.06859  0.57869  Biso   1.000  H
  H209     1.0000 0.46674  0.06865  0.57862  Biso   1.000  H
  H210     1.0000 0.46675  0.06865  0.57869  Biso   1.000  H
  C201     1.0000 0.57395  0.18476  0.70263  Biso   1.000  C
  C202     1.0000 0.57396  0.18476  0.70269  Biso   1.000  C
  C203     1.0000 0.57395  0.18482  0.70263  Biso   1.000  C
  C204     1.0000 0.57396  0.18482  0.70269  Biso   1.000  C
  N133     1.0000 0.48739  0.27504  0.91689  Biso   1.000  N
  H211     1.0000 0.47388  0.37189  0.00340  Biso   1.000  H
  H212     1.0000 0.59271  0.32912  0.00861  Biso   1.000  H
  H213     1.0000 0.47388  0.37195  0.00340  Biso   1.000  H
  C205     1.0000 0.26260  0.16300  0.85586  Biso   1.000  C
  C206     1.0000 0.38026  0.28023  0.86871  Biso   1.000  C
  C207     1.0000 0.38026  0.28023  0.86877  Biso   1.000  C
  N134     1.0000 0.32434  0.16319  0.77886  Biso   1.000  N
  H214     1.0000 0.22863  0.08322  0.70485  Biso   1.000  H
  H215     1.0000 0.30318  0.14099  0.64236  Biso   1.000  H
  H216     1.0000 0.30318  0.14105  0.64236  Biso   1.000  H
  H217     1.0000 0.65144  0.20320  0.71075  Biso   1.000  H
  H218     1.0000 0.54215  0.21208  0.64597  Biso   1.000  H
  N135     1.0000 0.51437  0.21302  0.78171  Biso   1.000  N
  N136     1.0000 0.51438  0.21302  0.78178  Biso   1.000  N
  H219     1.0000 0.54215  0.21214  0.64597  Biso   1.000  H
  N137     1.0000 0.51437  0.21308  0.78171  Biso   1.000  N
  N138     1.0000 0.51438  0.21308  0.78178  Biso   1.000  N
  C208     1.0000 0.56635  0.24334  0.86176  Biso   1.000  C
  O74      1.0000 0.19026  0.11386  0.87308  Biso   1.000  O
  O75      1.0000 0.19026  0.11386  0.87315  Biso   1.000  O
  O76      1.0000 0.19026  0.11392  0.87308  Biso   1.000  O
  O77      1.0000 0.19026  0.11392  0.87315  Biso   1.000  O
  H220     1.0000 0.35649  0.33950  0.85850  Biso   1.000  H
  C209     1.0000 0.39822  0.23421  0.77581  Biso   1.000  C
  H221     1.0000 0.35649  0.33950  0.85857  Biso   1.000  H
  C210     1.0000 0.39822  0.23421  0.77588  Biso   1.000  C
  O78      1.0000 0.66563  0.24172  0.87995  Biso   1.000  O
  H222     1.0000 0.38007  0.27091  0.72116  Biso   1.000  H
  C211     1.0000 0.60178  0.76579  0.22412  Biso   1.000  C
  N139     1.0000 0.48570  0.78698  0.21822  Biso   1.000  N
  C212     1.0000 0.61982  0.71977  0.13123  Biso   1.000  C
  H223     1.0000 0.62001  0.72909  0.27877  Biso   1.000  H
  N140     1.0000 0.67566  0.83681  0.22107  Biso   1.000  N
  H224     1.0000 0.62001  0.72909  0.27884  Biso   1.000  H
  N141     1.0000 0.67566  0.83681  0.22114  Biso   1.000  N
  C213     1.0000 0.61982  0.71983  0.13123  Biso   1.000  C
  H225     1.0000 0.62001  0.72915  0.27877  Biso   1.000  H
  H226     1.0000 0.62001  0.72915  0.27884  Biso   1.000  H
  C214     1.0000 0.42613  0.81524  0.29731  Biso   1.000  C
  C215     1.0000 0.43373  0.75666  0.13817  Biso   1.000  C
  C216     1.0000 0.43373  0.75666  0.13824  Biso   1.000  C
  C217     1.0000 0.43373  0.75672  0.13817  Biso   1.000  C
  C218     1.0000 0.43373  0.75672  0.13824  Biso   1.000  C
  N142     1.0000 0.51269  0.72496  0.08304  Biso   1.000  N
  N143     1.0000 0.51269  0.72496  0.08311  Biso   1.000  N
  H227     1.0000 0.64359  0.66050  0.14143  Biso   1.000  H
  N144     1.0000 0.70517  0.76948  0.09040  Biso   1.000  N
  N145     1.0000 0.70517  0.76954  0.09040  Biso   1.000  N
  C219     1.0000 0.73748  0.83700  0.14407  Biso   1.000  C
  C220     1.0000 0.69732  0.89202  0.29960  Biso   1.000  C
  C221     1.0000 0.73748  0.83700  0.14414  Biso   1.000  C
  C222     1.0000 0.73748  0.83706  0.14407  Biso   1.000  C
  C223     1.0000 0.69732  0.89208  0.29960  Biso   1.000  C
  C224     1.0000 0.73748  0.83706  0.14414  Biso   1.000  C
  H228     1.0000 0.34864  0.79680  0.28918  Biso   1.000  H
  H229     1.0000 0.45793  0.78792  0.35396  Biso   1.000  H
  N146     1.0000 0.42797  0.90453  0.31098  Biso   1.000  N
  H230     1.0000 0.34864  0.79680  0.28925  Biso   1.000  H
  H231     1.0000 0.45793  0.78792  0.35403  Biso   1.000  H
  N147     1.0000 0.42798  0.90453  0.31105  Biso   1.000  N
  O79      1.0000 0.33445  0.75828  0.11998  Biso   1.000  O
  O80      1.0000 0.33445  0.75828  0.12005  Biso   1.000  O
  O81      1.0000 0.33445  0.75835  0.11998  Biso   1.000  O
  O82      1.0000 0.33445  0.75835  0.12005  Biso   1.000  O
  C225     1.0000 0.48723  0.68251  0.99604  Biso   1.000  C
  C226     1.0000 0.76434  0.74328  0.00979  Biso   1.000  C
  C227     1.0000 0.76435  0.74328  0.00986  Biso   1.000  C
  C228     1.0000 0.76434  0.74334  0.00979  Biso   1.000  C
  C229     1.0000 0.76435  0.74334  0.00986  Biso   1.000  C
  O83      1.0000 0.80982  0.88614  0.12685  Biso   1.000  O
  H232     1.0000 0.77137  0.91678  0.29508  Biso   1.000  H
  H233     1.0000 0.69690  0.85901  0.35757  Biso   1.000  H
  N148     1.0000 0.61637  0.95905  0.30411  Biso   1.000  N
  H234     1.0000 0.77137  0.91678  0.29515  Biso   1.000  H
  H235     1.0000 0.69690  0.85901  0.35764  Biso   1.000  H
  N149     1.0000 0.61637  0.95905  0.30418  Biso   1.000  N
  H236     1.0000 0.77137  0.91684  0.29508  Biso   1.000  H
  N150     1.0000 0.61637  0.95911  0.30411  Biso   1.000  N
  H237     1.0000 0.77137  0.91684  0.29515  Biso   1.000  H
  N151     1.0000 0.61637  0.95911  0.30418  Biso   1.000  N
  C230     1.0000 0.51673  0.95167  0.35660  Biso   1.000  C
  C231     1.0000 0.34627  0.95517  0.27488  Biso   1.000  C
  C232     1.0000 0.34627  0.95517  0.27495  Biso   1.000  C
  C233     1.0000 0.51673  0.95173  0.35660  Biso   1.000  C
  C234     1.0000 0.34627  0.95523  0.27488  Biso   1.000  C
  C235     1.0000 0.34627  0.95523  0.27495  Biso   1.000  C
  H238     1.0000 0.52620  0.62811  0.99653  Biso   1.000  H
  H239     1.0000 0.40736  0.67088  0.99132  Biso   1.000  H
  N152     1.0000 0.51734  0.72952  0.91432  Biso   1.000  N
  H240     1.0000 0.40737  0.67088  0.99139  Biso   1.000  H
  H241     1.0000 0.40736  0.67094  0.99132  Biso   1.000  H
  H242     1.0000 0.40737  0.67094  0.99139  Biso   1.000  H
  H243     1.0000 0.83952  0.76710  0.01451  Biso   1.000  H
  N153     1.0000 0.71182  0.76879  0.92217  Biso   1.000  N
  N154     1.0000 0.71182  0.76879  0.92224  Biso   1.000  N
  H244     1.0000 0.77129  0.68157  0.01062  Biso   1.000  H
  H245     1.0000 0.77129  0.68163  0.01062  Biso   1.000  H
  C236     1.0000 0.64573  0.04070  0.29182  Biso   1.000  C
  H246     1.0000 0.53334  0.93141  0.42131  Biso   1.000  H
  C237     1.0000 0.47181  0.04245  0.35549  Biso   1.000  C
  C238     1.0000 0.47182  0.04245  0.35556  Biso   1.000  C
  C239     1.0000 0.47181  0.04252  0.35549  Biso   1.000  C
  C240     1.0000 0.47182  0.04252  0.35556  Biso   1.000  C
  O84      1.0000 0.26187  0.93066  0.23433  Biso   1.000  O
  N155     1.0000 0.37529  0.03670  0.29140  Biso   1.000  N
  N156     1.0000 0.37530  0.03670  0.29147  Biso   1.000  N
  N157     1.0000 0.37529  0.03676  0.29140  Biso   1.000  N
  N158     1.0000 0.37530  0.03676  0.29147  Biso   1.000  N
  C241     1.0000 0.44029  0.76466  0.85350  Biso   1.000  C
  C242     1.0000 0.62434  0.72208  0.87433  Biso   1.000  C
  C243     1.0000 0.44030  0.76466  0.85357  Biso   1.000  C
  C244     1.0000 0.62434  0.72215  0.87433  Biso   1.000  C
  C245     1.0000 0.74618  0.83638  0.87232  Biso   1.000  C
  C246     1.0000 0.74618  0.83638  0.87239  Biso   1.000  C
  C247     1.0000 0.74618  0.83644  0.87232  Biso   1.000  C
  C248     1.0000 0.74618  0.83644  0.87239  Biso   1.000  C
  N159     1.0000 0.56268  0.09047  0.32133  Biso   1.000  N
  N160     1.0000 0.56268  0.09047  0.32140  Biso   1.000  N
  O85      1.0000 0.73225  0.06540  0.26099  Biso   1.000  O
  O86      1.0000 0.73225  0.06546  0.26099  Biso   1.000  O
  H247     1.0000 0.45161  0.06121  0.41867  Biso   1.000  H
  H248     1.0000 0.45161  0.06121  0.41874  Biso   1.000  H
  C249     1.0000 0.29364  0.10323  0.28370  Biso   1.000  C
  N161     1.0000 0.49474  0.79198  0.77699  Biso   1.000  N
  O87      1.0000 0.34204  0.77135  0.86523  Biso   1.000  O
  O88      1.0000 0.34204  0.77135  0.86530  Biso   1.000  O
  C250     1.0000 0.60952  0.76904  0.78004  Biso   1.000  C
  H249     1.0000 0.64524  0.66231  0.86523  Biso   1.000  H
  N162     1.0000 0.68573  0.83863  0.79039  Biso   1.000  N
  O89      1.0000 0.82059  0.88433  0.89592  Biso   1.000  O
  N163     1.0000 0.68573  0.83869  0.79039  Biso   1.000  N
  O90      1.0000 0.82059  0.88439  0.89592  Biso   1.000  O
  C251     1.0000 0.56360  0.17957  0.30709  Biso   1.000  C
  C252     1.0000 0.56360  0.17963  0.30709  Biso   1.000  C
  H250     1.0000 0.21994  0.07803  0.27252  Biso   1.000  H
  H251     1.0000 0.29321  0.13399  0.34320  Biso   1.000  H
  N164     1.0000 0.31427  0.16137  0.20954  Biso   1.000  N
  N165     1.0000 0.31427  0.16137  0.20961  Biso   1.000  N
  H252     1.0000 0.29321  0.13405  0.34320  Biso   1.000  H
  C253     1.0000 0.43648  0.82043  0.69284  Biso   1.000  C
  H253     1.0000 0.62752  0.73240  0.72665  Biso   1.000  H
  C254     1.0000 0.70644  0.89677  0.71623  Biso   1.000  C
  C255     1.0000 0.70644  0.89684  0.71623  Biso   1.000  C
  H254     1.0000 0.64101  0.19839  0.30557  Biso   1.000  H
  H255     1.0000 0.53068  0.20683  0.36097  Biso   1.000  H
  N166     1.0000 0.50534  0.20802  0.22294  Biso   1.000  N
  H256     1.0000 0.64101  0.19839  0.30564  Biso   1.000  H
  H257     1.0000 0.53068  0.20683  0.36104  Biso   1.000  H
  N167     1.0000 0.50534  0.20802  0.22301  Biso   1.000  N
  H258     1.0000 0.64101  0.19845  0.30557  Biso   1.000  H
  H259     1.0000 0.64101  0.19845  0.30564  Biso   1.000  H
  C256     1.0000 0.39047  0.23096  0.21989  Biso   1.000  C
  C257     1.0000 0.25390  0.16362  0.12761  Biso   1.000  C
  C258     1.0000 0.39048  0.23096  0.21996  Biso   1.000  C
  H260     1.0000 0.35907  0.80161  0.69436  Biso   1.000  H
  H261     1.0000 0.46932  0.79317  0.63896  Biso   1.000  H
  N168     1.0000 0.43732  0.90953  0.67860  Biso   1.000  N
  H262     1.0000 0.46932  0.79323  0.63896  Biso   1.000  H
  N169     1.0000 0.43732  0.90959  0.67860  Biso   1.000  N
  H263     1.0000 0.78014  0.92197  0.72741  Biso   1.000  H
  H264     1.0000 0.70687  0.86601  0.65673  Biso   1.000  H
  N170     1.0000 0.62479  0.96330  0.70853  Biso   1.000  N
  H265     1.0000 0.78015  0.92197  0.72748  Biso   1.000  H
  H266     1.0000 0.70687  0.86601  0.65680  Biso   1.000  H
  H267     1.0000 0.78014  0.92203  0.72741  Biso   1.000  H
  H268     1.0000 0.78015  0.92203  0.72748  Biso   1.000  H
  C259     1.0000 0.55979  0.23534  0.14643  Biso   1.000  C
  H269     1.0000 0.37248  0.26760  0.27328  Biso   1.000  H
  C260     1.0000 0.37574  0.27792  0.12560  Biso   1.000  C
  H270     1.0000 0.37248  0.26760  0.27335  Biso   1.000  H
  H271     1.0000 0.37248  0.26766  0.27328  Biso   1.000  H
  H272     1.0000 0.37248  0.26766  0.27335  Biso   1.000  H
  N171     1.0000 0.28818  0.23121  0.07776  Biso   1.000  N
  O91      1.0000 0.17949  0.11567  0.10401  Biso   1.000  O
  O92      1.0000 0.17949  0.11567  0.10408  Biso   1.000  O
  C261     1.0000 0.35435  0.95930  0.70811  Biso   1.000  C
  C262     1.0000 0.52827  0.95755  0.64444  Biso   1.000  C
  C263     1.0000 0.35435  0.95930  0.70818  Biso   1.000  C
  C264     1.0000 0.65373  0.04483  0.72505  Biso   1.000  C
  N172     1.0000 0.48266  0.27048  0.08561  Biso   1.000  N
  O93      1.0000 0.65804  0.22865  0.13470  Biso   1.000  O
  N173     1.0000 0.48266  0.27048  0.08568  Biso   1.000  N
  O94      1.0000 0.65804  0.22871  0.13470  Biso   1.000  O
  H273     1.0000 0.35484  0.33769  0.13470  Biso   1.000  H
  H274     1.0000 0.35484  0.33775  0.13470  Biso   1.000  H
  C265     1.0000 0.23565  0.25672  0.99014  Biso   1.000  C
  O95      1.0000 0.26783  0.93460  0.73894  Biso   1.000  O
  N174     1.0000 0.38363  0.04095  0.69582  Biso   1.000  N
  H275     1.0000 0.54847  0.93879  0.58126  Biso   1.000  H
  H276     1.0000 0.54847  0.93885  0.58126  Biso   1.000  H
  C266     1.0000 0.48334  0.04833  0.64333  Biso   1.000  C
  C267     1.0000 0.48335  0.04833  0.64340  Biso   1.000  C
  N175     1.0000 0.57202  0.09547  0.68895  Biso   1.000  N
  O96      1.0000 0.73821  0.06934  0.76560  Biso   1.000  O
  O97      1.0000 0.73821  0.06934  0.76567  Biso   1.000  O
  N176     1.0000 0.57202  0.09554  0.68895  Biso   1.000  N
  O98      1.0000 0.73821  0.06940  0.76560  Biso   1.000  O
  O99      1.0000 0.73821  0.06940  0.76567  Biso   1.000  O
  C268     1.0000 0.51277  0.31749  0.00389  Biso   1.000  C
  C269     1.0000 0.51277  0.31749  0.00396  Biso   1.000  C
  H277     1.0000 0.22879  0.31843  0.98931  Biso   1.000  H
  H278     1.0000 0.16056  0.23290  0.98542  Biso   1.000  H
  N177     1.0000 0.29483  0.23052  0.90953  Biso   1.000  N
  H279     1.0000 0.22879  0.31843  0.98938  Biso   1.000  H
  H280     1.0000 0.16056  0.23290  0.98549  Biso   1.000  H
  N178     1.0000 0.29483  0.23052  0.90960  Biso   1.000  N
  C270     1.0000 0.30276  0.10798  0.70033  Biso   1.000  C
  H281     1.0000 0.46674  0.06859  0.57862  Biso   1.000  H
  H282     1.0000 0.46675  0.06859  0.57869  Biso   1.000  H
  H283     1.0000 0.46674  0.06865  0.57862  Biso   1.000  H
  H284     1.0000 0.46675  0.06865  0.57869  Biso   1.000  H
  C271     1.0000 0.57395  0.18476  0.70263  Biso   1.000  C
  C272     1.0000 0.57396  0.18476  0.70269  Biso   1.000  C
  C273     1.0000 0.57395  0.18482  0.70263  Biso   1.000  C
  C274     1.0000 0.57396  0.18482  0.70269  Biso   1.000  C
  N179     1.0000 0.48739  0.27504  0.91689  Biso   1.000  N
  H285     1.0000 0.47388  0.37189  0.00340  Biso   1.000  H
  H286     1.0000 0.59271  0.32912  0.00861  Biso   1.000  H
  H287     1.0000 0.47388  0.37195  0.00340  Biso   1.000  H
  C275     1.0000 0.26260  0.16300  0.85586  Biso   1.000  C
  C276     1.0000 0.38026  0.28023  0.86871  Biso   1.000  C
  C277     1.0000 0.38026  0.28023  0.86877  Biso   1.000  C
  N180     1.0000 0.32434  0.16319  0.77886  Biso   1.000  N
  H288     1.0000 0.22863  0.08322  0.70485  Biso   1.000  H
  H289     1.0000 0.30318  0.14099  0.64236  Biso   1.000  H
  H290     1.0000 0.30318  0.14105  0.64236  Biso   1.000  H
  H291     1.0000 0.65144  0.20320  0.71075  Biso   1.000  H
  H292     1.0000 0.54215  0.21208  0.64597  Biso   1.000  H
  N181     1.0000 0.51437  0.21302  0.78171  Biso   1.000  N
  N182     1.0000 0.51438  0.21302  0.78178  Biso   1.000  N
  H293     1.0000 0.54215  0.21214  0.64597  Biso   1.000  H
  N183     1.0000 0.51437  0.21308  0.78171  Biso   1.000  N
  N184     1.0000 0.51438  0.21308  0.78178  Biso   1.000  N
  C278     1.0000 0.56635  0.24334  0.86176  Biso   1.000  C
  O100     1.0000 0.19026  0.11386  0.87308  Biso   1.000  O
  O101     1.0000 0.19026  0.11386  0.87315  Biso   1.000  O
  O102     1.0000 0.19026  0.11392  0.87308  Biso   1.000  O
  O103     1.0000 0.19026  0.11392  0.87315  Biso   1.000  O
  H294     1.0000 0.35649  0.33950  0.85850  Biso   1.000  H
  C279     1.0000 0.39822  0.23421  0.77581  Biso   1.000  C
  H295     1.0000 0.35649  0.33950  0.85857  Biso   1.000  H
  C280     1.0000 0.39822  0.23421  0.77588  Biso   1.000  C
  O104     1.0000 0.66563  0.24172  0.87995  Biso   1.000  O
  H296     1.0000 0.38007  0.27091  0.72116  Biso   1.000  H
  O105     1.0000 0.84191  0.72871  0.36528  Biso   1.000  O
  C281     1.0000 0.94025  0.73534  0.35361  Biso   1.000  C
  C282     1.0000 0.94016  0.73534  0.35361  Biso   1.000  C
  N185     1.0000 0.99469  0.70802  0.27703  Biso   1.000  N
  O106     1.0000 0.84199  0.72871  0.36528  Biso   1.000  O
  N186     1.0000 0.01729  0.77048  0.41437  Biso   1.000  N
  C283     1.0000 0.93643  0.67963  0.19288  Biso   1.000  C
  C284     1.0000 0.93635  0.67963  0.19288  Biso   1.000  C
  C285     1.0000 0.10947  0.73096  0.28009  Biso   1.000  C
  C286     1.0000 0.12429  0.77792  0.37437  Biso   1.000  C
  C287     1.0000 0.98726  0.81749  0.49609  Biso   1.000  C
  C288     1.0000 0.98718  0.81749  0.49609  Biso   1.000  C
  N187     1.0000 0.93735  0.59047  0.17865  Biso   1.000  N
  N188     1.0000 0.93727  0.59047  0.17865  Biso   1.000  N
  H297     1.0000 0.85902  0.69839  0.19441  Biso   1.000  H
  H298     1.0000 0.96927  0.70683  0.13900  Biso   1.000  H
  N189     1.0000 0.18568  0.66137  0.29043  Biso   1.000  N
  H299     1.0000 0.12755  0.76760  0.22669  Biso   1.000  H
  H300     1.0000 0.12747  0.76760  0.22669  Biso   1.000  H
  H301     1.0000 0.14519  0.83775  0.36528  Biso   1.000  H
  N190     1.0000 0.21185  0.73121  0.42221  Biso   1.000  N
  N191     1.0000 0.21177  0.73121  0.42221  Biso   1.000  N
  H302     1.0000 0.90732  0.82912  0.49137  Biso   1.000  H
  H303     1.0000 0.02615  0.87195  0.49657  Biso   1.000  H
  N192     1.0000 0.01272  0.77504  0.58302  Biso   1.000  N
  H304     1.0000 0.02607  0.87195  0.49657  Biso   1.000  H
  C289     1.0000 0.85430  0.54070  0.20822  Biso   1.000  C
  C290     1.0000 0.02822  0.54252  0.14449  Biso   1.000  C
  C291     1.0000 0.20639  0.60323  0.21628  Biso   1.000  C
  C292     1.0000 0.24613  0.66362  0.37236  Biso   1.000  C
  C293     1.0000 0.26446  0.75672  0.50977  Biso   1.000  C
  C294     1.0000 0.26437  0.75672  0.50977  Biso   1.000  C
  C295     1.0000 0.93376  0.74334  0.63821  Biso   1.000  C
  C296     1.0000 0.93368  0.74334  0.63821  Biso   1.000  C
  C297     1.0000 0.11985  0.78023  0.63120  Biso   1.000  C
  N193     1.0000 0.88358  0.45905  0.19587  Biso   1.000  N
  O107     1.0000 0.76778  0.56546  0.23898  Biso   1.000  O
  C298     1.0000 0.98330  0.45167  0.14338  Biso   1.000  C
  H305     1.0000 0.04842  0.56121  0.08130  Biso   1.000  H
  N194     1.0000 0.12474  0.53676  0.20857  Biso   1.000  N
  H306     1.0000 0.04834  0.56121  0.08130  Biso   1.000  H
  N195     1.0000 0.12466  0.53676  0.20857  Biso   1.000  N
  H307     1.0000 0.28010  0.57803  0.22753  Biso   1.000  H
  H308     1.0000 0.20682  0.63399  0.15678  Biso   1.000  H
  H309     1.0000 0.20674  0.63399  0.15678  Biso   1.000  H
  O108     1.0000 0.32054  0.61567  0.39597  Biso   1.000  O
  H310     1.0000 0.27132  0.81843  0.51060  Biso   1.000  H
  H311     1.0000 0.33955  0.73290  0.51449  Biso   1.000  H
  N196     1.0000 0.20520  0.73052  0.59037  Biso   1.000  N
  H312     1.0000 0.33947  0.73290  0.51449  Biso   1.000  H
  N197     1.0000 0.98573  0.71302  0.71820  Biso   1.000  N
  O109     1.0000 0.83448  0.74172  0.62002  Biso   1.000  O
  C299     1.0000 0.10181  0.73421  0.72410  Biso   1.000  C
  H313     1.0000 0.14362  0.83950  0.64141  Biso   1.000  H
  C300     1.0000 0.80271  0.39208  0.20038  Biso   1.000  C
  N198     1.0000 0.07198  0.40453  0.18899  Biso   1.000  N
  H314     1.0000 0.96669  0.43141  0.07867  Biso   1.000  H
  C301     1.0000 0.15368  0.45523  0.22510  Biso   1.000  C
  C302     1.0000 0.23751  0.66300  0.64411  Biso   1.000  C
  C303     1.0000 0.92616  0.68476  0.79728  Biso   1.000  C
  N199     1.0000 0.17577  0.66319  0.72104  Biso   1.000  N
  N200     1.0000 0.17569  0.66319  0.72104  Biso   1.000  N
  H315     1.0000 0.12004  0.77091  0.77881  Biso   1.000  H
  N201     1.0000 0.82429  0.33681  0.27891  Biso   1.000  N
  H316     1.0000 0.72866  0.41678  0.20489  Biso   1.000  H
  H317     1.0000 0.80313  0.35901  0.14240  Biso   1.000  H
  H318     1.0000 0.72858  0.41678  0.20489  Biso   1.000  H
  H319     1.0000 0.80305  0.35901  0.14240  Biso   1.000  H
  C304     1.0000 0.07390  0.31524  0.20267  Biso   1.000  C
  O110     1.0000 0.23816  0.43066  0.26564  Biso   1.000  O
  O111     1.0000 0.30985  0.61386  0.62683  Biso   1.000  O
  N202     1.0000 0.92809  0.59554  0.81103  Biso   1.000  N
  N203     1.0000 0.92801  0.59554  0.81103  Biso   1.000  N
  H320     1.0000 0.84867  0.70320  0.78916  Biso   1.000  H
  H321     1.0000 0.95796  0.71214  0.85401  Biso   1.000  H
  H322     1.0000 0.84859  0.70320  0.78916  Biso   1.000  H
  C305     1.0000 0.19735  0.60798  0.79957  Biso   1.000  C
  C306     1.0000 0.76255  0.33700  0.35591  Biso   1.000  C
  C307     1.0000 0.76247  0.33700  0.35591  Biso   1.000  C
  C308     1.0000 0.89825  0.26579  0.27592  Biso   1.000  C
  C309     1.0000 0.89817  0.26579  0.27592  Biso   1.000  C
  N204     1.0000 0.01433  0.28698  0.28175  Biso   1.000  N
  H323     1.0000 0.15139  0.29680  0.21079  Biso   1.000  H
  H324     1.0000 0.04210  0.28792  0.14601  Biso   1.000  H
  C310     1.0000 0.84638  0.54483  0.77485  Biso   1.000  C
  C311     1.0000 0.84630  0.54483  0.77485  Biso   1.000  C
  C312     1.0000 0.01676  0.54833  0.85657  Biso   1.000  C
  N205     1.0000 0.11648  0.54095  0.80415  Biso   1.000  N
  N206     1.0000 0.11640  0.54095  0.80415  Biso   1.000  N
  H325     1.0000 0.27140  0.58322  0.79506  Biso   1.000  H
  H326     1.0000 0.19693  0.64099  0.85762  Biso   1.000  H
  O112     1.0000 0.69013  0.38614  0.37312  Biso   1.000  O
  N207     1.0000 0.79486  0.26954  0.40964  Biso   1.000  N
  O113     1.0000 0.69021  0.38614  0.37312  Biso   1.000  O
  N208     1.0000 0.79478  0.26954  0.40964  Biso   1.000  N
  C313     1.0000 0.88021  0.21983  0.36882  Biso   1.000  C
  H327     1.0000 0.88002  0.22909  0.22121  Biso   1.000  H
  C314     1.0000 0.06630  0.25672  0.36181  Biso   1.000  C
  N209     1.0000 0.87532  0.46330  0.79138  Biso   1.000  N
  O114     1.0000 0.76190  0.56934  0.73431  Biso   1.000  O
  O115     1.0000 0.76182  0.56934  0.73431  Biso   1.000  O
  C315     1.0000 0.97184  0.45755  0.85546  Biso   1.000  C
  H328     1.0000 0.03337  0.56859  0.92128  Biso   1.000  H
  C316     1.0000 0.14576  0.45930  0.79180  Biso   1.000  C
  C317     1.0000 0.14568  0.45930  0.79180  Biso   1.000  C
  C318     1.0000 0.73560  0.24328  0.49019  Biso   1.000  C
  H329     1.0000 0.85644  0.16050  0.35861  Biso   1.000  H
  N210     1.0000 0.98734  0.22496  0.41694  Biso   1.000  N
  N211     1.0000 0.98726  0.22496  0.41694  Biso   1.000  N
  O116     1.0000 0.16558  0.25828  0.38000  Biso   1.000  O
  C319     1.0000 0.79367  0.39684  0.78367  Biso   1.000  C
  N212     1.0000 0.06271  0.40959  0.82130  Biso   1.000  N
  H330     1.0000 0.95164  0.43879  0.91872  Biso   1.000  H
  O117     1.0000 0.23228  0.43460  0.76097  Biso   1.000  O
  O118     1.0000 0.23220  0.43460  0.76097  Biso   1.000  O
  H331     1.0000 0.72875  0.18163  0.48942  Biso   1.000  H
  H332     1.0000 0.66051  0.26710  0.48546  Biso   1.000  H
  N213     1.0000 0.78821  0.26879  0.57774  Biso   1.000  N
  C320     1.0000 0.01280  0.18251  0.50386  Biso   1.000  C
  N214     1.0000 0.81439  0.33863  0.70959  Biso   1.000  N
  N215     1.0000 0.81430  0.33863  0.70959  Biso   1.000  N
  H333     1.0000 0.71997  0.42203  0.77249  Biso   1.000  H
  H334     1.0000 0.79324  0.36601  0.84317  Biso   1.000  H
  C321     1.0000 0.06363  0.32043  0.80707  Biso   1.000  C
  C322     1.0000 0.87577  0.22215  0.62558  Biso   1.000  C
  C323     1.0000 0.75393  0.33644  0.62759  Biso   1.000  C
  C324     1.0000 0.87568  0.22215  0.62558  Biso   1.000  C
  H335     1.0000 0.97391  0.12811  0.50338  Biso   1.000  H
  N216     1.0000 0.98278  0.22952  0.58565  Biso   1.000  N
  N217     1.0000 0.98269  0.22952  0.58565  Biso   1.000  N
  H336     1.0000 0.09274  0.17088  0.50858  Biso   1.000  H
  C325     1.0000 0.89059  0.26904  0.71986  Biso   1.000  C
  C326     1.0000 0.89050  0.26904  0.71986  Biso   1.000  C
  N218     1.0000 0.00537  0.29198  0.72299  Biso   1.000  N
  N219     1.0000 0.00529  0.29198  0.72299  Biso   1.000  N
  H337     1.0000 0.14104  0.30161  0.80561  Biso   1.000  H
  H338     1.0000 0.03079  0.29323  0.86102  Biso   1.000  H
  H339     1.0000 0.03071  0.29323  0.86102  Biso   1.000  H
  H340     1.0000 0.85487  0.16231  0.63467  Biso   1.000  H
  H341     1.0000 0.85478  0.16231  0.63467  Biso   1.000  H
  O119     1.0000 0.67952  0.38439  0.60405  Biso   1.000  O
  C327     1.0000 0.05982  0.26466  0.64641  Biso   1.000  C
  H342     1.0000 0.87251  0.23240  0.77326  Biso   1.000  H
  O120     1.0000 0.15807  0.27135  0.63467  Biso   1.000  O
  O121     1.0000 0.84191  0.72871  0.36528  Biso   1.000  O
  C328     1.0000 0.94025  0.73534  0.35361  Biso   1.000  C
  C329     1.0000 0.94016  0.73534  0.35361  Biso   1.000  C
  N220     1.0000 0.99469  0.70802  0.27703  Biso   1.000  N
  O122     1.0000 0.84199  0.72871  0.36528  Biso   1.000  O
  N221     1.0000 0.01729  0.77048  0.41437  Biso   1.000  N
  C330     1.0000 0.93643  0.67963  0.19288  Biso   1.000  C
  C331     1.0000 0.93635  0.67963  0.19288  Biso   1.000  C
  C332     1.0000 0.10947  0.73096  0.28009  Biso   1.000  C
  C333     1.0000 0.12429  0.77792  0.37437  Biso   1.000  C
  C334     1.0000 0.98726  0.81749  0.49609  Biso   1.000  C
  C335     1.0000 0.98718  0.81749  0.49609  Biso   1.000  C
  N222     1.0000 0.93735  0.59047  0.17865  Biso   1.000  N
  N223     1.0000 0.93727  0.59047  0.17865  Biso   1.000  N
  H343     1.0000 0.85902  0.69839  0.19441  Biso   1.000  H
  H344     1.0000 0.96927  0.70683  0.13900  Biso   1.000  H
  N224     1.0000 0.18568  0.66137  0.29043  Biso   1.000  N
  H345     1.0000 0.12755  0.76760  0.22669  Biso   1.000  H
  H346     1.0000 0.12747  0.76760  0.22669  Biso   1.000  H
  N225     1.0000 0.21185  0.73121  0.42221  Biso   1.000  N
  N226     1.0000 0.21177  0.73121  0.42221  Biso   1.000  N
  H347     1.0000 0.14519  0.83775  0.36528  Biso   1.000  H
  N227     1.0000 0.01272  0.77504  0.58302  Biso   1.000  N
  H348     1.0000 0.90732  0.82912  0.49137  Biso   1.000  H
  H349     1.0000 0.02615  0.87195  0.49657  Biso   1.000  H
  H350     1.0000 0.02607  0.87195  0.49657  Biso   1.000  H
  C336     1.0000 0.85430  0.54070  0.20822  Biso   1.000  C
  C337     1.0000 0.02822  0.54252  0.14449  Biso   1.000  C
  C338     1.0000 0.20639  0.60323  0.21628  Biso   1.000  C
  C339     1.0000 0.24613  0.66362  0.37236  Biso   1.000  C
  C340     1.0000 0.26446  0.75672  0.50977  Biso   1.000  C
  C341     1.0000 0.26437  0.75672  0.50977  Biso   1.000  C
  C342     1.0000 0.93376  0.74334  0.63821  Biso   1.000  C
  C343     1.0000 0.93368  0.74334  0.63821  Biso   1.000  C
  C344     1.0000 0.11985  0.78023  0.63120  Biso   1.000  C
  N228     1.0000 0.88358  0.45905  0.19587  Biso   1.000  N
  O123     1.0000 0.76778  0.56546  0.23898  Biso   1.000  O
  C345     1.0000 0.98330  0.45167  0.14338  Biso   1.000  C
  N229     1.0000 0.12474  0.53676  0.20857  Biso   1.000  N
  N230     1.0000 0.12466  0.53676  0.20857  Biso   1.000  N
  H351     1.0000 0.04842  0.56121  0.08130  Biso   1.000  H
  H352     1.0000 0.04834  0.56121  0.08130  Biso   1.000  H
  H353     1.0000 0.28010  0.57803  0.22753  Biso   1.000  H
  H354     1.0000 0.20682  0.63399  0.15678  Biso   1.000  H
  H355     1.0000 0.20674  0.63399  0.15678  Biso   1.000  H
  O124     1.0000 0.32054  0.61567  0.39597  Biso   1.000  O
  N231     1.0000 0.20520  0.73052  0.59037  Biso   1.000  N
  H356     1.0000 0.27132  0.81843  0.51060  Biso   1.000  H
  H357     1.0000 0.33955  0.73290  0.51449  Biso   1.000  H
  H358     1.0000 0.33947  0.73290  0.51449  Biso   1.000  H
  N232     1.0000 0.98573  0.71302  0.71820  Biso   1.000  N
  O125     1.0000 0.83448  0.74172  0.62002  Biso   1.000  O
  C346     1.0000 0.10181  0.73421  0.72410  Biso   1.000  C
  H359     1.0000 0.14362  0.83950  0.64141  Biso   1.000  H
  C347     1.0000 0.80271  0.39208  0.20038  Biso   1.000  C
  N233     1.0000 0.07198  0.40453  0.18899  Biso   1.000  N
  H360     1.0000 0.96669  0.43141  0.07867  Biso   1.000  H
  C348     1.0000 0.15368  0.45523  0.22510  Biso   1.000  C
  C349     1.0000 0.23751  0.66300  0.64411  Biso   1.000  C
  C350     1.0000 0.92616  0.68476  0.79728  Biso   1.000  C
  N234     1.0000 0.17577  0.66319  0.72104  Biso   1.000  N
  N235     1.0000 0.17569  0.66319  0.72104  Biso   1.000  N
  H361     1.0000 0.12004  0.77091  0.77881  Biso   1.000  H
  N236     1.0000 0.82429  0.33681  0.27891  Biso   1.000  N
  H362     1.0000 0.72866  0.41678  0.20489  Biso   1.000  H
  H363     1.0000 0.80313  0.35901  0.14240  Biso   1.000  H
  H364     1.0000 0.72858  0.41678  0.20489  Biso   1.000  H
  H365     1.0000 0.80305  0.35901  0.14240  Biso   1.000  H
  C351     1.0000 0.07390  0.31524  0.20267  Biso   1.000  C
  O126     1.0000 0.23816  0.43066  0.26564  Biso   1.000  O
  O127     1.0000 0.30985  0.61386  0.62683  Biso   1.000  O
  N237     1.0000 0.92809  0.59554  0.81103  Biso   1.000  N
  N238     1.0000 0.92801  0.59554  0.81103  Biso   1.000  N
  H366     1.0000 0.95796  0.71214  0.85401  Biso   1.000  H
  H367     1.0000 0.84867  0.70320  0.78916  Biso   1.000  H
  H368     1.0000 0.84859  0.70320  0.78916  Biso   1.000  H
  C352     1.0000 0.19735  0.60798  0.79957  Biso   1.000  C
  C353     1.0000 0.76255  0.33700  0.35591  Biso   1.000  C
  C354     1.0000 0.76247  0.33700  0.35591  Biso   1.000  C
  C355     1.0000 0.89825  0.26579  0.27592  Biso   1.000  C
  C356     1.0000 0.89817  0.26579  0.27592  Biso   1.000  C
  N239     1.0000 0.01433  0.28698  0.28175  Biso   1.000  N
  H369     1.0000 0.15139  0.29680  0.21079  Biso   1.000  H
  H370     1.0000 0.04210  0.28792  0.14601  Biso   1.000  H
  C357     1.0000 0.84638  0.54483  0.77485  Biso   1.000  C
  C358     1.0000 0.84630  0.54483  0.77485  Biso   1.000  C
  C359     1.0000 0.01676  0.54833  0.85657  Biso   1.000  C
  N240     1.0000 0.11648  0.54095  0.80415  Biso   1.000  N
  N241     1.0000 0.11640  0.54095  0.80415  Biso   1.000  N
  H371     1.0000 0.27140  0.58322  0.79506  Biso   1.000  H
  H372     1.0000 0.19693  0.64099  0.85762  Biso   1.000  H
  N242     1.0000 0.79486  0.26954  0.40964  Biso   1.000  N
  N243     1.0000 0.79478  0.26954  0.40964  Biso   1.000  N
  O128     1.0000 0.69021  0.38614  0.37312  Biso   1.000  O
  O129     1.0000 0.69013  0.38614  0.37312  Biso   1.000  O
  C360     1.0000 0.88021  0.21983  0.36882  Biso   1.000  C
  H373     1.0000 0.88002  0.22909  0.22121  Biso   1.000  H
  C361     1.0000 0.06630  0.25672  0.36181  Biso   1.000  C
  N244     1.0000 0.87532  0.46330  0.79138  Biso   1.000  N
  O130     1.0000 0.76190  0.56934  0.73431  Biso   1.000  O
  O131     1.0000 0.76182  0.56934  0.73431  Biso   1.000  O
  C362     1.0000 0.97184  0.45755  0.85546  Biso   1.000  C
  H374     1.0000 0.03337  0.56859  0.92128  Biso   1.000  H
  C363     1.0000 0.14576  0.45930  0.79180  Biso   1.000  C
  C364     1.0000 0.14568  0.45930  0.79180  Biso   1.000  C
  C365     1.0000 0.73560  0.24328  0.49019  Biso   1.000  C
  H375     1.0000 0.85644  0.16050  0.35861  Biso   1.000  H
  N245     1.0000 0.98734  0.22496  0.41694  Biso   1.000  N
  N246     1.0000 0.98726  0.22496  0.41694  Biso   1.000  N
  O132     1.0000 0.16558  0.25828  0.38000  Biso   1.000  O
  C366     1.0000 0.79367  0.39684  0.78367  Biso   1.000  C
  N247     1.0000 0.06271  0.40959  0.82130  Biso   1.000  N
  H376     1.0000 0.95164  0.43879  0.91872  Biso   1.000  H
  O133     1.0000 0.23228  0.43460  0.76097  Biso   1.000  O
  O134     1.0000 0.23220  0.43460  0.76097  Biso   1.000  O
  H377     1.0000 0.72875  0.18163  0.48942  Biso   1.000  H
  H378     1.0000 0.66051  0.26710  0.48546  Biso   1.000  H
  N248     1.0000 0.78821  0.26879  0.57774  Biso   1.000  N
  C367     1.0000 0.01280  0.18251  0.50386  Biso   1.000  C
  N249     1.0000 0.81439  0.33863  0.70959  Biso   1.000  N
  N250     1.0000 0.81430  0.33863  0.70959  Biso   1.000  N
  H379     1.0000 0.71997  0.42203  0.77249  Biso   1.000  H
  H380     1.0000 0.79324  0.36601  0.84317  Biso   1.000  H
  C368     1.0000 0.06363  0.32043  0.80707  Biso   1.000  C
  C369     1.0000 0.75393  0.33644  0.62759  Biso   1.000  C
  C370     1.0000 0.87577  0.22215  0.62558  Biso   1.000  C
  C371     1.0000 0.87568  0.22215  0.62558  Biso   1.000  C
  N251     1.0000 0.98278  0.22952  0.58565  Biso   1.000  N
  N252     1.0000 0.98269  0.22952  0.58565  Biso   1.000  N
  H381     1.0000 0.97391  0.12811  0.50338  Biso   1.000  H
  H382     1.0000 0.09274  0.17088  0.50858  Biso   1.000  H
  C372     1.0000 0.89059  0.26904  0.71986  Biso   1.000  C
  C373     1.0000 0.89050  0.26904  0.71986  Biso   1.000  C
  N253     1.0000 0.00537  0.29198  0.72299  Biso   1.000  N
  N254     1.0000 0.00529  0.29198  0.72299  Biso   1.000  N
  H383     1.0000 0.14104  0.30161  0.80561  Biso   1.000  H
  H384     1.0000 0.03079  0.29323  0.86102  Biso   1.000  H
  H385     1.0000 0.03071  0.29323  0.86102  Biso   1.000  H
  O135     1.0000 0.67952  0.38439  0.60405  Biso   1.000  O
  H386     1.0000 0.85487  0.16231  0.63467  Biso   1.000  H
  H387     1.0000 0.85478  0.16231  0.63467  Biso   1.000  H
  C374     1.0000 0.05982  0.26466  0.64641  Biso   1.000  C
  H388     1.0000 0.87251  0.23240  0.77326  Biso   1.000  H
  O136     1.0000 0.15807  0.27135  0.63467  Biso   1.000  O
