data_image0
_cell_length_a       25.876
_cell_length_b       26.739
_cell_length_c       13.21
_cell_angle_alpha    90
_cell_angle_beta     90
_cell_angle_gamma    90

_symmetry_space_group_name_H-M    "P 1"
_symmetry_int_tables_number       1

loop_
  _symmetry_equiv_pos_as_xyz
  'x, y, z'

loop_
  _atom_site_label
  _atom_site_occupancy
  _atom_site_fract_x
  _atom_site_fract_y
  _atom_site_fract_z
  _atom_site_thermal_displace_type
  _atom_site_B_iso_or_equiv
  _atom_site_type_symbol
  C1       1.0000 0.14620  0.32469  0.14762  Biso   1.000  C
  N1       1.0000 0.12919  0.32649  0.04322  Biso   1.000  N
  N2       1.0000 0.10740  0.33790  0.21908  Biso   1.000  N
  H1       1.0000 0.16220  0.29261  0.16412  Biso   1.000  H
  C2       1.0000 0.18488  0.36789  0.15572  Biso   1.000  C
  C3       1.0000 0.15740  0.36060  0.98827  Biso   1.000  C
  C4       1.0000 0.10280  0.28412  0.99538  Biso   1.000  C
  C5       1.0000 0.11729  0.38210  0.26601  Biso   1.000  C
  C6       1.0000 0.07061  0.30222  0.25814  Biso   1.000  C
  N3       1.0000 0.18890  0.38629  0.05140  Biso   1.000  N
  N4       1.0000 0.15968  0.40263  0.22218  Biso   1.000  N
  H2       1.0000 0.21831  0.35678  0.18244  Biso   1.000  H
  O1       1.0000 0.15288  0.36744  0.89667  Biso   1.000  O
  N5       1.0000 0.04912  0.28243  0.01408  Biso   1.000  N
  H3       1.0000 0.11822  0.25330  0.01961  Biso   1.000  H
  H4       1.0000 0.10840  0.28580  0.92279  Biso   1.000  H
  O2       1.0000 0.09120  0.40099  0.33512  Biso   1.000  O
  N6       1.0000 0.02690  0.29564  0.19137  Biso   1.000  N
  H5       1.0000 0.05839  0.31351  0.32369  Biso   1.000  H
  H6       1.0000 0.08769  0.27032  0.26760  Biso   1.000  H
  C7       1.0000 0.23261  0.41509  0.01734  Biso   1.000  C
  C8       1.0000 0.18890  0.44160  0.27176  Biso   1.000  C
  C9       1.0000 0.02690  0.26160  0.10742  Biso   1.000  C
  C10      1.0000 0.01349  0.28341  0.93808  Biso   1.000  C
  C11      1.0000 0.97751  0.31018  0.21840  Biso   1.000  C
  N7       1.0000 0.22921  0.46726  0.04042  Biso   1.000  N
  H7       1.0000 0.26372  0.40181  0.04807  Biso   1.000  H
  H8       1.0000 0.23601  0.41131  0.94451  Biso   1.000  H
  N8       1.0000 0.19659  0.48510  0.20893  Biso   1.000  N
  H9       1.0000 0.22229  0.42840  0.29160  Biso   1.000  H
  H10      1.0000 0.17081  0.45159  0.33301  Biso   1.000  H
  H11      1.0000 0.04290  0.22959  0.12544  Biso   1.000  H
  C12      1.0000 0.96932  0.25528  0.08138  Biso   1.000  C
  N9       1.0000 0.96642  0.27065  0.97600  Biso   1.000  N
  O3       1.0000 0.02269  0.29448  0.84913  Biso   1.000  O
  O4       1.0000 0.96630  0.33565  0.29137  Biso   1.000  O
  N10      1.0000 0.94365  0.28988  0.15004  Biso   1.000  N
  N11      1.0000 0.94365  0.28988  0.14996  Biso   1.000  N
  C13      1.0000 0.23980  0.48801  0.14027  Biso   1.000  C
  C14      1.0000 0.22820  0.50350  0.96730  Biso   1.000  C
  C15      1.0000 0.18121  0.53181  0.24171  Biso   1.000  C
  H12      1.0000 0.95761  0.22080  0.09107  Biso   1.000  H
  C16      1.0000 0.92252  0.26029  0.91098  Biso   1.000  C
  C17      1.0000 0.88858  0.29029  0.16737  Biso   1.000  C
  H13      1.0000 0.27129  0.47391  0.17002  Biso   1.000  H
  C18      1.0000 0.24548  0.54501  0.11908  Biso   1.000  C
  N12      1.0000 0.23350  0.54886  0.01226  Biso   1.000  N
  O5       1.0000 0.22411  0.49579  0.87721  Biso   1.000  O
  O6       1.0000 0.14998  0.54037  0.30712  Biso   1.000  O
  N13      1.0000 0.20764  0.56663  0.18607  Biso   1.000  N
  N14      1.0000 0.88178  0.29661  0.91862  Biso   1.000  N
  H14      1.0000 0.93442  0.25899  0.84133  Biso   1.000  H
  H15      1.0000 0.90880  0.22761  0.92801  Biso   1.000  H
  N15      1.0000 0.86068  0.31893  0.09190  Biso   1.000  N
  H16      1.0000 0.88178  0.30439  0.23376  Biso   1.000  H
  H17      1.0000 0.87591  0.25622  0.16722  Biso   1.000  H
  H18      1.0000 0.28041  0.55701  0.13407  Biso   1.000  H
  C19      1.0000 0.24262  0.59389  0.95360  Biso   1.000  C
  C20      1.0000 0.20459  0.61928  0.20787  Biso   1.000  C
  C21      1.0000 0.86942  0.32840  0.84111  Biso   1.000  C
  C22      1.0000 0.84348  0.29672  0.99788  Biso   1.000  C
  C23      1.0000 0.83031  0.35895  0.11893  Biso   1.000  C
  N16      1.0000 0.20088  0.63005  0.96086  Biso   1.000  N
  H19      1.0000 0.27431  0.60941  0.97684  Biso   1.000  H
  H20      1.0000 0.24729  0.58469  0.88319  Biso   1.000  H
  N17      1.0000 0.17398  0.64688  0.13323  Biso   1.000  N
  H21      1.0000 0.18929  0.62381  0.27434  Biso   1.000  H
  H22      1.0000 0.23922  0.63308  0.20992  Biso   1.000  H
  O7       1.0000 0.89423  0.33311  0.76223  Biso   1.000  O
  N18      1.0000 0.82602  0.35312  0.86677  Biso   1.000  N
  C24      1.0000 0.80298  0.33393  0.95882  Biso   1.000  C
  H23      1.0000 0.82868  0.26340  0.00848  Biso   1.000  H
  O8       1.0000 0.83089  0.38102  0.19962  Biso   1.000  O
  N19      1.0000 0.79912  0.36995  0.03914  Biso   1.000  N
  C25      1.0000 0.19702  0.66607  0.04118  Biso   1.000  C
  C26      1.0000 0.16969  0.64105  0.88107  Biso   1.000  C
  C27      1.0000 0.13058  0.67160  0.15889  Biso   1.000  C
  C28      1.0000 0.79541  0.38072  0.79213  Biso   1.000  C
  H24      1.0000 0.76979  0.31759  0.94557  Biso   1.000  H
  C29      1.0000 0.75738  0.40611  0.04640  Biso   1.000  C
  H25      1.0000 0.23021  0.68241  0.05443  Biso   1.000  H
  C30      1.0000 0.15652  0.70328  0.00212  Biso   1.000  C
  O9       1.0000 0.16911  0.61898  0.80038  Biso   1.000  O
  N20      1.0000 0.13932  0.68107  0.90810  Biso   1.000  N
  O10      1.0000 0.10577  0.66689  0.23777  Biso   1.000  O
  N21      1.0000 0.11822  0.70339  0.08138  Biso   1.000  N
  N22      1.0000 0.79236  0.43337  0.81393  Biso   1.000  N
  H26      1.0000 0.81071  0.37619  0.72566  Biso   1.000  H
  H27      1.0000 0.76078  0.36692  0.79008  Biso   1.000  H
  N23      1.0000 0.76650  0.45114  0.98774  Biso   1.000  N
  H28      1.0000 0.72569  0.39059  0.02316  Biso   1.000  H
  H29      1.0000 0.75271  0.41531  0.11681  Biso   1.000  H
  H30      1.0000 0.17132  0.73660  0.99152  Biso   1.000  H
  C31      1.0000 0.11142  0.70971  0.83263  Biso   1.000  C
  C32      1.0000 0.07748  0.73971  0.08902  Biso   1.000  C
  C33      1.0000 0.81879  0.46819  0.75829  Biso   1.000  C
  C34      1.0000 0.75452  0.45499  0.88092  Biso   1.000  C
  C35      1.0000 0.77180  0.49650  0.03270  Biso   1.000  C
  N24      1.0000 0.05635  0.71012  0.84996  Biso   1.000  N
  H31      1.0000 0.11822  0.69561  0.76624  Biso   1.000  H
  H32      1.0000 0.12409  0.74378  0.83278  Biso   1.000  H
  N25      1.0000 0.05635  0.71012  0.85004  Biso   1.000  N
  N26      1.0000 0.03358  0.72935  0.02400  Biso   1.000  N
  H33      1.0000 0.06558  0.74101  0.15867  Biso   1.000  H
  H34      1.0000 0.09120  0.77239  0.07199  Biso   1.000  H
  O11      1.0000 0.85002  0.45963  0.69288  Biso   1.000  O
  N27      1.0000 0.80341  0.51490  0.79107  Biso   1.000  N
  C36      1.0000 0.76020  0.51199  0.85973  Biso   1.000  C
  H35      1.0000 0.71959  0.44299  0.86593  Biso   1.000  H
  N28      1.0000 0.77079  0.53274  0.95958  Biso   1.000  N
  O12      1.0000 0.77589  0.50421  0.12279  Biso   1.000  O
  C37      1.0000 0.03068  0.74472  0.91862  Biso   1.000  C
  C38      1.0000 0.02249  0.68982  0.78160  Biso   1.000  C
  C39      1.0000 0.98651  0.71659  0.06192  Biso   1.000  C
  C40      1.0000 0.81110  0.55840  0.72824  Biso   1.000  C
  H36      1.0000 0.72871  0.52609  0.82998  Biso   1.000  H
  C41      1.0000 0.76739  0.58491  0.98266  Biso   1.000  C
  C42      1.0000 0.97310  0.73840  0.89258  Biso   1.000  C
  H37      1.0000 0.04239  0.77920  0.90893  Biso   1.000  H
  N29      1.0000 0.97310  0.70436  0.80863  Biso   1.000  N
  O13      1.0000 0.03370  0.66435  0.70863  Biso   1.000  O
  N30      1.0000 0.95088  0.71757  0.98592  Biso   1.000  N
  O14      1.0000 0.97731  0.70552  0.15087  Biso   1.000  O
  H38      1.0000 0.77771  0.57160  0.70840  Biso   1.000  H
  H39      1.0000 0.82919  0.54841  0.66699  Biso   1.000  H
  N31      1.0000 0.84032  0.59737  0.77782  Biso   1.000  N
  H40      1.0000 0.73628  0.59819  0.95193  Biso   1.000  H
  N32      1.0000 0.81110  0.61371  0.94860  Biso   1.000  N
  H41      1.0000 0.76399  0.58869  0.05549  Biso   1.000  H
  H42      1.0000 0.95710  0.77041  0.87456  Biso   1.000  H
  C43      1.0000 0.92939  0.69778  0.74186  Biso   1.000  C
  C44      1.0000 0.89720  0.71588  0.00462  Biso   1.000  C
  C45      1.0000 0.88271  0.61790  0.73399  Biso   1.000  C
  C46      1.0000 0.81512  0.63211  0.84428  Biso   1.000  C
  C47      1.0000 0.84260  0.63940  0.01173  Biso   1.000  C
  N33      1.0000 0.89260  0.66210  0.78092  Biso   1.000  N
  H43      1.0000 0.94161  0.68649  0.67631  Biso   1.000  H
  H44      1.0000 0.91231  0.72968  0.73240  Biso   1.000  H
  N34      1.0000 0.87081  0.67351  0.95678  Biso   1.000  N
  H45      1.0000 0.88178  0.74670  0.98039  Biso   1.000  H
  H46      1.0000 0.89160  0.71420  0.07721  Biso   1.000  H
  O15      1.0000 0.90880  0.59901  0.66488  Biso   1.000  O
  C48      1.0000 0.85380  0.67531  0.85238  Biso   1.000  C
  H47      1.0000 0.78169  0.64322  0.81756  Biso   1.000  H
  O16      1.0000 0.84712  0.63256  0.10333  Biso   1.000  O
  H48      1.0000 0.83780  0.70739  0.83588  Biso   1.000  H
  C49      1.0000 0.14620  0.32469  0.14762  Biso   1.000  C
  N35      1.0000 0.12919  0.32649  0.04322  Biso   1.000  N
  N36      1.0000 0.10740  0.33790  0.21908  Biso   1.000  N
  H49      1.0000 0.16220  0.29261  0.16412  Biso   1.000  H
  C50      1.0000 0.18488  0.36789  0.15572  Biso   1.000  C
  C51      1.0000 0.15740  0.36060  0.98827  Biso   1.000  C
  C52      1.0000 0.10280  0.28412  0.99538  Biso   1.000  C
  C53      1.0000 0.11729  0.38210  0.26601  Biso   1.000  C
  C54      1.0000 0.07061  0.30222  0.25814  Biso   1.000  C
  N37      1.0000 0.18890  0.38629  0.05140  Biso   1.000  N
  N38      1.0000 0.15968  0.40263  0.22218  Biso   1.000  N
  H50      1.0000 0.21831  0.35678  0.18244  Biso   1.000  H
  O17      1.0000 0.15288  0.36744  0.89667  Biso   1.000  O
  N39      1.0000 0.04912  0.28243  0.01408  Biso   1.000  N
  H51      1.0000 0.11822  0.25330  0.01961  Biso   1.000  H
  H52      1.0000 0.10840  0.28580  0.92279  Biso   1.000  H
  O18      1.0000 0.09120  0.40099  0.33512  Biso   1.000  O
  N40      1.0000 0.02690  0.29564  0.19137  Biso   1.000  N
  H53      1.0000 0.05839  0.31351  0.32369  Biso   1.000  H
  H54      1.0000 0.08769  0.27032  0.26760  Biso   1.000  H
  C55      1.0000 0.23261  0.41509  0.01734  Biso   1.000  C
  C56      1.0000 0.18890  0.44160  0.27176  Biso   1.000  C
  C57      1.0000 0.02690  0.26160  0.10742  Biso   1.000  C
  C58      1.0000 0.01349  0.28341  0.93808  Biso   1.000  C
  C59      1.0000 0.97751  0.31018  0.21840  Biso   1.000  C
  N41      1.0000 0.22921  0.46726  0.04042  Biso   1.000  N
  H55      1.0000 0.26372  0.40181  0.04807  Biso   1.000  H
  H56      1.0000 0.23601  0.41131  0.94451  Biso   1.000  H
  N42      1.0000 0.19659  0.48510  0.20893  Biso   1.000  N
  H57      1.0000 0.22229  0.42840  0.29160  Biso   1.000  H
  H58      1.0000 0.17081  0.45159  0.33301  Biso   1.000  H
  H59      1.0000 0.04290  0.22959  0.12544  Biso   1.000  H
  C60      1.0000 0.96932  0.25528  0.08138  Biso   1.000  C
  N43      1.0000 0.96642  0.27065  0.97600  Biso   1.000  N
  O19      1.0000 0.02269  0.29448  0.84913  Biso   1.000  O
  O20      1.0000 0.96630  0.33565  0.29137  Biso   1.000  O
  N44      1.0000 0.94365  0.28988  0.15004  Biso   1.000  N
  N45      1.0000 0.94365  0.28988  0.14996  Biso   1.000  N
  C61      1.0000 0.23980  0.48801  0.14027  Biso   1.000  C
  C62      1.0000 0.22820  0.50350  0.96730  Biso   1.000  C
  C63      1.0000 0.18121  0.53181  0.24171  Biso   1.000  C
  H60      1.0000 0.95761  0.22080  0.09107  Biso   1.000  H
  C64      1.0000 0.92252  0.26029  0.91098  Biso   1.000  C
  C65      1.0000 0.88858  0.29029  0.16737  Biso   1.000  C
  H61      1.0000 0.27129  0.47391  0.17002  Biso   1.000  H
  C66      1.0000 0.24548  0.54501  0.11908  Biso   1.000  C
  N46      1.0000 0.23350  0.54886  0.01226  Biso   1.000  N
  O21      1.0000 0.22411  0.49579  0.87721  Biso   1.000  O
  O22      1.0000 0.14998  0.54037  0.30712  Biso   1.000  O
  N47      1.0000 0.20764  0.56663  0.18607  Biso   1.000  N
  N48      1.0000 0.88178  0.29661  0.91862  Biso   1.000  N
  H62      1.0000 0.93442  0.25899  0.84133  Biso   1.000  H
  H63      1.0000 0.90880  0.22761  0.92801  Biso   1.000  H
  N49      1.0000 0.86068  0.31893  0.09190  Biso   1.000  N
  H64      1.0000 0.88178  0.30439  0.23376  Biso   1.000  H
  H65      1.0000 0.87591  0.25622  0.16722  Biso   1.000  H
  H66      1.0000 0.28041  0.55701  0.13407  Biso   1.000  H
  C67      1.0000 0.24262  0.59389  0.95360  Biso   1.000  C
  C68      1.0000 0.20459  0.61928  0.20787  Biso   1.000  C
  C69      1.0000 0.86942  0.32840  0.84111  Biso   1.000  C
  C70      1.0000 0.84348  0.29672  0.99788  Biso   1.000  C
  C71      1.0000 0.83031  0.35895  0.11893  Biso   1.000  C
  N50      1.0000 0.20088  0.63005  0.96086  Biso   1.000  N
  H67      1.0000 0.27431  0.60941  0.97684  Biso   1.000  H
  H68      1.0000 0.24729  0.58469  0.88319  Biso   1.000  H
  N51      1.0000 0.17398  0.64688  0.13323  Biso   1.000  N
  H69      1.0000 0.18929  0.62381  0.27434  Biso   1.000  H
  H70      1.0000 0.23922  0.63308  0.20992  Biso   1.000  H
  O23      1.0000 0.89423  0.33311  0.76223  Biso   1.000  O
  N52      1.0000 0.82602  0.35312  0.86677  Biso   1.000  N
  C72      1.0000 0.80298  0.33393  0.95882  Biso   1.000  C
  H71      1.0000 0.82868  0.26340  0.00848  Biso   1.000  H
  O24      1.0000 0.83089  0.38102  0.19962  Biso   1.000  O
  N53      1.0000 0.79912  0.36995  0.03914  Biso   1.000  N
  C73      1.0000 0.19702  0.66607  0.04118  Biso   1.000  C
  C74      1.0000 0.16969  0.64105  0.88107  Biso   1.000  C
  C75      1.0000 0.13058  0.67160  0.15889  Biso   1.000  C
  C76      1.0000 0.79541  0.38072  0.79213  Biso   1.000  C
  H72      1.0000 0.76979  0.31759  0.94557  Biso   1.000  H
  C77      1.0000 0.75738  0.40611  0.04640  Biso   1.000  C
  H73      1.0000 0.23021  0.68241  0.05443  Biso   1.000  H
  C78      1.0000 0.15652  0.70328  0.00212  Biso   1.000  C
  O25      1.0000 0.16911  0.61898  0.80038  Biso   1.000  O
  N54      1.0000 0.13932  0.68107  0.90810  Biso   1.000  N
  O26      1.0000 0.10577  0.66689  0.23777  Biso   1.000  O
  N55      1.0000 0.11822  0.70339  0.08138  Biso   1.000  N
  N56      1.0000 0.79236  0.43337  0.81393  Biso   1.000  N
  H74      1.0000 0.81071  0.37619  0.72566  Biso   1.000  H
  H75      1.0000 0.76078  0.36692  0.79008  Biso   1.000  H
  N57      1.0000 0.76650  0.45114  0.98774  Biso   1.000  N
  H76      1.0000 0.72569  0.39059  0.02316  Biso   1.000  H
  H77      1.0000 0.75271  0.41531  0.11681  Biso   1.000  H
  H78      1.0000 0.17132  0.73660  0.99152  Biso   1.000  H
  C79      1.0000 0.11142  0.70971  0.83263  Biso   1.000  C
  C80      1.0000 0.07748  0.73971  0.08902  Biso   1.000  C
  C81      1.0000 0.81879  0.46819  0.75829  Biso   1.000  C
  C82      1.0000 0.75452  0.45499  0.88092  Biso   1.000  C
  C83      1.0000 0.77180  0.49650  0.03270  Biso   1.000  C
  N58      1.0000 0.05635  0.71012  0.84996  Biso   1.000  N
  H79      1.0000 0.11822  0.69561  0.76624  Biso   1.000  H
  H80      1.0000 0.12409  0.74378  0.83278  Biso   1.000  H
  N59      1.0000 0.05635  0.71012  0.85004  Biso   1.000  N
  N60      1.0000 0.03358  0.72935  0.02400  Biso   1.000  N
  H81      1.0000 0.06558  0.74101  0.15867  Biso   1.000  H
  H82      1.0000 0.09120  0.77239  0.07199  Biso   1.000  H
  O27      1.0000 0.85002  0.45963  0.69288  Biso   1.000  O
  N61      1.0000 0.80341  0.51490  0.79107  Biso   1.000  N
  C84      1.0000 0.76020  0.51199  0.85973  Biso   1.000  C
  H83      1.0000 0.71959  0.44299  0.86593  Biso   1.000  H
  N62      1.0000 0.77079  0.53274  0.95958  Biso   1.000  N
  O28      1.0000 0.77589  0.50421  0.12279  Biso   1.000  O
  C85      1.0000 0.03068  0.74472  0.91862  Biso   1.000  C
  C86      1.0000 0.02249  0.68982  0.78160  Biso   1.000  C
  C87      1.0000 0.98651  0.71659  0.06192  Biso   1.000  C
  C88      1.0000 0.81110  0.55840  0.72824  Biso   1.000  C
  H84      1.0000 0.72871  0.52609  0.82998  Biso   1.000  H
  C89      1.0000 0.76739  0.58491  0.98266  Biso   1.000  C
  C90      1.0000 0.97310  0.73840  0.89258  Biso   1.000  C
  H85      1.0000 0.04239  0.77920  0.90893  Biso   1.000  H
  N63      1.0000 0.97310  0.70436  0.80863  Biso   1.000  N
  O29      1.0000 0.03370  0.66435  0.70863  Biso   1.000  O
  N64      1.0000 0.95088  0.71757  0.98592  Biso   1.000  N
  O30      1.0000 0.97731  0.70552  0.15087  Biso   1.000  O
  H86      1.0000 0.77771  0.57160  0.70840  Biso   1.000  H
  H87      1.0000 0.82919  0.54841  0.66699  Biso   1.000  H
  N65      1.0000 0.84032  0.59737  0.77782  Biso   1.000  N
  H88      1.0000 0.73628  0.59819  0.95193  Biso   1.000  H
  N66      1.0000 0.81110  0.61371  0.94860  Biso   1.000  N
  H89      1.0000 0.76399  0.58869  0.05549  Biso   1.000  H
  H90      1.0000 0.95710  0.77041  0.87456  Biso   1.000  H
  C91      1.0000 0.92939  0.69778  0.74186  Biso   1.000  C
  C92      1.0000 0.89720  0.71588  0.00462  Biso   1.000  C
  C93      1.0000 0.88271  0.61790  0.73399  Biso   1.000  C
  C94      1.0000 0.81512  0.63211  0.84428  Biso   1.000  C
  C95      1.0000 0.84260  0.63940  0.01173  Biso   1.000  C
  N67      1.0000 0.89260  0.66210  0.78092  Biso   1.000  N
  H91      1.0000 0.94161  0.68649  0.67631  Biso   1.000  H
  H92      1.0000 0.91231  0.72968  0.73240  Biso   1.000  H
  N68      1.0000 0.87081  0.67351  0.95678  Biso   1.000  N
  H93      1.0000 0.88178  0.74670  0.98039  Biso   1.000  H
  H94      1.0000 0.89160  0.71420  0.07721  Biso   1.000  H
  O31      1.0000 0.90880  0.59901  0.66488  Biso   1.000  O
  C96      1.0000 0.85380  0.67531  0.85238  Biso   1.000  C
  H95      1.0000 0.78169  0.64322  0.81756  Biso   1.000  H
  O32      1.0000 0.84712  0.63256  0.10333  Biso   1.000  O
  H96      1.0000 0.83780  0.70739  0.83588  Biso   1.000  H
  C97      1.0000 0.14620  0.32469  0.14762  Biso   1.000  C
  N69      1.0000 0.12919  0.32649  0.04322  Biso   1.000  N
  N70      1.0000 0.10740  0.33790  0.21908  Biso   1.000  N
  H97      1.0000 0.16220  0.29261  0.16412  Biso   1.000  H
  C98      1.0000 0.18488  0.36789  0.15572  Biso   1.000  C
  C99      1.0000 0.15740  0.36060  0.98827  Biso   1.000  C
  C100     1.0000 0.10280  0.28412  0.99538  Biso   1.000  C
  C101     1.0000 0.11729  0.38210  0.26601  Biso   1.000  C
  C102     1.0000 0.07061  0.30222  0.25814  Biso   1.000  C
  N71      1.0000 0.18890  0.38629  0.05140  Biso   1.000  N
  N72      1.0000 0.15968  0.40263  0.22218  Biso   1.000  N
  H98      1.0000 0.21831  0.35678  0.18244  Biso   1.000  H
  O33      1.0000 0.15288  0.36744  0.89667  Biso   1.000  O
  N73      1.0000 0.04912  0.28243  0.01408  Biso   1.000  N
  H99      1.0000 0.11822  0.25330  0.01961  Biso   1.000  H
  H100     1.0000 0.10840  0.28580  0.92279  Biso   1.000  H
  O34      1.0000 0.09120  0.40099  0.33512  Biso   1.000  O
  N74      1.0000 0.02690  0.29564  0.19137  Biso   1.000  N
  H101     1.0000 0.05839  0.31351  0.32369  Biso   1.000  H
  H102     1.0000 0.08769  0.27032  0.26760  Biso   1.000  H
  C103     1.0000 0.23261  0.41509  0.01734  Biso   1.000  C
  C104     1.0000 0.18890  0.44160  0.27176  Biso   1.000  C
  C105     1.0000 0.02690  0.26160  0.10742  Biso   1.000  C
  C106     1.0000 0.01349  0.28341  0.93808  Biso   1.000  C
  C107     1.0000 0.97751  0.31018  0.21840  Biso   1.000  C
  N75      1.0000 0.22921  0.46726  0.04042  Biso   1.000  N
  H103     1.0000 0.26372  0.40181  0.04807  Biso   1.000  H
  H104     1.0000 0.23601  0.41131  0.94451  Biso   1.000  H
  N76      1.0000 0.19659  0.48510  0.20893  Biso   1.000  N
  H105     1.0000 0.22229  0.42840  0.29160  Biso   1.000  H
  H106     1.0000 0.17081  0.45159  0.33301  Biso   1.000  H
  H107     1.0000 0.04290  0.22959  0.12544  Biso   1.000  H
  C108     1.0000 0.96932  0.25528  0.08138  Biso   1.000  C
  N77      1.0000 0.96642  0.27065  0.97600  Biso   1.000  N
  O35      1.0000 0.02269  0.29448  0.84913  Biso   1.000  O
  O36      1.0000 0.96630  0.33565  0.29137  Biso   1.000  O
  N78      1.0000 0.94365  0.28988  0.15004  Biso   1.000  N
  N79      1.0000 0.94365  0.28988  0.14996  Biso   1.000  N
  C109     1.0000 0.23980  0.48801  0.14027  Biso   1.000  C
  C110     1.0000 0.22820  0.50350  0.96730  Biso   1.000  C
  C111     1.0000 0.18121  0.53181  0.24171  Biso   1.000  C
  H108     1.0000 0.95761  0.22080  0.09107  Biso   1.000  H
  C112     1.0000 0.92252  0.26029  0.91098  Biso   1.000  C
  C113     1.0000 0.88858  0.29029  0.16737  Biso   1.000  C
  H109     1.0000 0.27129  0.47391  0.17002  Biso   1.000  H
  C114     1.0000 0.24548  0.54501  0.11908  Biso   1.000  C
  N80      1.0000 0.23350  0.54886  0.01226  Biso   1.000  N
  O37      1.0000 0.22411  0.49579  0.87721  Biso   1.000  O
  O38      1.0000 0.14998  0.54037  0.30712  Biso   1.000  O
  N81      1.0000 0.20764  0.56663  0.18607  Biso   1.000  N
  N82      1.0000 0.88178  0.29661  0.91862  Biso   1.000  N
  H110     1.0000 0.93442  0.25899  0.84133  Biso   1.000  H
  H111     1.0000 0.90880  0.22761  0.92801  Biso   1.000  H
  N83      1.0000 0.86068  0.31893  0.09190  Biso   1.000  N
  H112     1.0000 0.88178  0.30439  0.23376  Biso   1.000  H
  H113     1.0000 0.87591  0.25622  0.16722  Biso   1.000  H
  H114     1.0000 0.28041  0.55701  0.13407  Biso   1.000  H
  C115     1.0000 0.24262  0.59389  0.95360  Biso   1.000  C
  C116     1.0000 0.20459  0.61928  0.20787  Biso   1.000  C
  C117     1.0000 0.86942  0.32840  0.84111  Biso   1.000  C
  C118     1.0000 0.84348  0.29672  0.99788  Biso   1.000  C
  C119     1.0000 0.83031  0.35895  0.11893  Biso   1.000  C
  N84      1.0000 0.20088  0.63005  0.96086  Biso   1.000  N
  H115     1.0000 0.27431  0.60941  0.97684  Biso   1.000  H
  H116     1.0000 0.24729  0.58469  0.88319  Biso   1.000  H
  N85      1.0000 0.17398  0.64688  0.13323  Biso   1.000  N
  H117     1.0000 0.18929  0.62381  0.27434  Biso   1.000  H
  H118     1.0000 0.23922  0.63308  0.20992  Biso   1.000  H
  O39      1.0000 0.89423  0.33311  0.76223  Biso   1.000  O
  N86      1.0000 0.82602  0.35312  0.86677  Biso   1.000  N
  C120     1.0000 0.80298  0.33393  0.95882  Biso   1.000  C
  H119     1.0000 0.82868  0.26340  0.00848  Biso   1.000  H
  O40      1.0000 0.83089  0.38102  0.19962  Biso   1.000  O
  N87      1.0000 0.79912  0.36995  0.03914  Biso   1.000  N
  C121     1.0000 0.19702  0.66607  0.04118  Biso   1.000  C
  C122     1.0000 0.16969  0.64105  0.88107  Biso   1.000  C
  C123     1.0000 0.13058  0.67160  0.15889  Biso   1.000  C
  C124     1.0000 0.79541  0.38072  0.79213  Biso   1.000  C
  H120     1.0000 0.76979  0.31759  0.94557  Biso   1.000  H
  C125     1.0000 0.75738  0.40611  0.04640  Biso   1.000  C
  H121     1.0000 0.23021  0.68241  0.05443  Biso   1.000  H
  C126     1.0000 0.15652  0.70328  0.00212  Biso   1.000  C
  O41      1.0000 0.16911  0.61898  0.80038  Biso   1.000  O
  N88      1.0000 0.13932  0.68107  0.90810  Biso   1.000  N
  O42      1.0000 0.10577  0.66689  0.23777  Biso   1.000  O
  N89      1.0000 0.11822  0.70339  0.08138  Biso   1.000  N
  N90      1.0000 0.79236  0.43337  0.81393  Biso   1.000  N
  H122     1.0000 0.81071  0.37619  0.72566  Biso   1.000  H
  H123     1.0000 0.76078  0.36692  0.79008  Biso   1.000  H
  N91      1.0000 0.76650  0.45114  0.98774  Biso   1.000  N
  H124     1.0000 0.72569  0.39059  0.02316  Biso   1.000  H
  H125     1.0000 0.75271  0.41531  0.11681  Biso   1.000  H
  H126     1.0000 0.17132  0.73660  0.99152  Biso   1.000  H
  C127     1.0000 0.11142  0.70971  0.83263  Biso   1.000  C
  C128     1.0000 0.07748  0.73971  0.08902  Biso   1.000  C
  C129     1.0000 0.81879  0.46819  0.75829  Biso   1.000  C
  C130     1.0000 0.75452  0.45499  0.88092  Biso   1.000  C
  C131     1.0000 0.77180  0.49650  0.03270  Biso   1.000  C
  N92      1.0000 0.05635  0.71012  0.84996  Biso   1.000  N
  H127     1.0000 0.11822  0.69561  0.76624  Biso   1.000  H
  H128     1.0000 0.12409  0.74378  0.83278  Biso   1.000  H
  N93      1.0000 0.05635  0.71012  0.85004  Biso   1.000  N
  N94      1.0000 0.03358  0.72935  0.02400  Biso   1.000  N
  H129     1.0000 0.06558  0.74101  0.15867  Biso   1.000  H
  H130     1.0000 0.09120  0.77239  0.07199  Biso   1.000  H
  O43      1.0000 0.85002  0.45963  0.69288  Biso   1.000  O
  N95      1.0000 0.80341  0.51490  0.79107  Biso   1.000  N
  C132     1.0000 0.76020  0.51199  0.85973  Biso   1.000  C
  H131     1.0000 0.71959  0.44299  0.86593  Biso   1.000  H
  N96      1.0000 0.77079  0.53274  0.95958  Biso   1.000  N
  O44      1.0000 0.77589  0.50421  0.12279  Biso   1.000  O
  C133     1.0000 0.03068  0.74472  0.91862  Biso   1.000  C
  C134     1.0000 0.02249  0.68982  0.78160  Biso   1.000  C
  C135     1.0000 0.98651  0.71659  0.06192  Biso   1.000  C
  C136     1.0000 0.81110  0.55840  0.72824  Biso   1.000  C
  H132     1.0000 0.72871  0.52609  0.82998  Biso   1.000  H
  C137     1.0000 0.76739  0.58491  0.98266  Biso   1.000  C
  C138     1.0000 0.97310  0.73840  0.89258  Biso   1.000  C
  H133     1.0000 0.04239  0.77920  0.90893  Biso   1.000  H
  N97      1.0000 0.97310  0.70436  0.80863  Biso   1.000  N
  O45      1.0000 0.03370  0.66435  0.70863  Biso   1.000  O
  N98      1.0000 0.95088  0.71757  0.98592  Biso   1.000  N
  O46      1.0000 0.97731  0.70552  0.15087  Biso   1.000  O
  H134     1.0000 0.77771  0.57160  0.70840  Biso   1.000  H
  H135     1.0000 0.82919  0.54841  0.66699  Biso   1.000  H
  N99      1.0000 0.84032  0.59737  0.77782  Biso   1.000  N
  H136     1.0000 0.73628  0.59819  0.95193  Biso   1.000  H
  N100     1.0000 0.81110  0.61371  0.94860  Biso   1.000  N
  H137     1.0000 0.76399  0.58869  0.05549  Biso   1.000  H
  H138     1.0000 0.95710  0.77041  0.87456  Biso   1.000  H
  C139     1.0000 0.92939  0.69778  0.74186  Biso   1.000  C
  C140     1.0000 0.89720  0.71588  0.00462  Biso   1.000  C
  C141     1.0000 0.88271  0.61790  0.73399  Biso   1.000  C
  C142     1.0000 0.81512  0.63211  0.84428  Biso   1.000  C
  C143     1.0000 0.84260  0.63940  0.01173  Biso   1.000  C
  N101     1.0000 0.89260  0.66210  0.78092  Biso   1.000  N
  H139     1.0000 0.94161  0.68649  0.67631  Biso   1.000  H
  H140     1.0000 0.91231  0.72968  0.73240  Biso   1.000  H
  N102     1.0000 0.87081  0.67351  0.95678  Biso   1.000  N
  H141     1.0000 0.88178  0.74670  0.98039  Biso   1.000  H
  H142     1.0000 0.89160  0.71420  0.07721  Biso   1.000  H
  O47      1.0000 0.90880  0.59901  0.66488  Biso   1.000  O
  C144     1.0000 0.85380  0.67531  0.85238  Biso   1.000  C
  H143     1.0000 0.78169  0.64322  0.81756  Biso   1.000  H
  O48      1.0000 0.84712  0.63256  0.10333  Biso   1.000  O
  H144     1.0000 0.83780  0.70739  0.83588  Biso   1.000  H
  C145     1.0000 0.14620  0.32469  0.14762  Biso   1.000  C
  N103     1.0000 0.12919  0.32649  0.04322  Biso   1.000  N
  N104     1.0000 0.10740  0.33790  0.21908  Biso   1.000  N
  H145     1.0000 0.16220  0.29261  0.16412  Biso   1.000  H
  C146     1.0000 0.18488  0.36789  0.15572  Biso   1.000  C
  C147     1.0000 0.15740  0.36060  0.98827  Biso   1.000  C
  C148     1.0000 0.10280  0.28412  0.99538  Biso   1.000  C
  C149     1.0000 0.11729  0.38210  0.26601  Biso   1.000  C
  C150     1.0000 0.07061  0.30222  0.25814  Biso   1.000  C
  N105     1.0000 0.18890  0.38629  0.05140  Biso   1.000  N
  N106     1.0000 0.15968  0.40263  0.22218  Biso   1.000  N
  H146     1.0000 0.21831  0.35678  0.18244  Biso   1.000  H
  O49      1.0000 0.15288  0.36744  0.89667  Biso   1.000  O
  N107     1.0000 0.04912  0.28243  0.01408  Biso   1.000  N
  H147     1.0000 0.11822  0.25330  0.01961  Biso   1.000  H
  H148     1.0000 0.10840  0.28580  0.92279  Biso   1.000  H
  O50      1.0000 0.09120  0.40099  0.33512  Biso   1.000  O
  N108     1.0000 0.02690  0.29564  0.19137  Biso   1.000  N
  H149     1.0000 0.05839  0.31351  0.32369  Biso   1.000  H
  H150     1.0000 0.08769  0.27032  0.26760  Biso   1.000  H
  C151     1.0000 0.23261  0.41509  0.01734  Biso   1.000  C
  C152     1.0000 0.18890  0.44160  0.27176  Biso   1.000  C
  C153     1.0000 0.02690  0.26160  0.10742  Biso   1.000  C
  C154     1.0000 0.01349  0.28341  0.93808  Biso   1.000  C
  C155     1.0000 0.97751  0.31018  0.21840  Biso   1.000  C
  N109     1.0000 0.22921  0.46726  0.04042  Biso   1.000  N
  H151     1.0000 0.26372  0.40181  0.04807  Biso   1.000  H
  H152     1.0000 0.23601  0.41131  0.94451  Biso   1.000  H
  N110     1.0000 0.19659  0.48510  0.20893  Biso   1.000  N
  H153     1.0000 0.22229  0.42840  0.29160  Biso   1.000  H
  H154     1.0000 0.17081  0.45159  0.33301  Biso   1.000  H
  H155     1.0000 0.04290  0.22959  0.12544  Biso   1.000  H
  C156     1.0000 0.96932  0.25528  0.08138  Biso   1.000  C
  N111     1.0000 0.96642  0.27065  0.97600  Biso   1.000  N
  O51      1.0000 0.02269  0.29448  0.84913  Biso   1.000  O
  O52      1.0000 0.96630  0.33565  0.29137  Biso   1.000  O
  N112     1.0000 0.94365  0.28988  0.15004  Biso   1.000  N
  N113     1.0000 0.94365  0.28988  0.14996  Biso   1.000  N
  C157     1.0000 0.23980  0.48801  0.14027  Biso   1.000  C
  C158     1.0000 0.22820  0.50350  0.96730  Biso   1.000  C
  C159     1.0000 0.18121  0.53181  0.24171  Biso   1.000  C
  H156     1.0000 0.95761  0.22080  0.09107  Biso   1.000  H
  C160     1.0000 0.92252  0.26029  0.91098  Biso   1.000  C
  C161     1.0000 0.88858  0.29029  0.16737  Biso   1.000  C
  H157     1.0000 0.27129  0.47391  0.17002  Biso   1.000  H
  C162     1.0000 0.24548  0.54501  0.11908  Biso   1.000  C
  N114     1.0000 0.23350  0.54886  0.01226  Biso   1.000  N
  O53      1.0000 0.22411  0.49579  0.87721  Biso   1.000  O
  O54      1.0000 0.14998  0.54037  0.30712  Biso   1.000  O
  N115     1.0000 0.20764  0.56663  0.18607  Biso   1.000  N
  N116     1.0000 0.88178  0.29661  0.91862  Biso   1.000  N
  H158     1.0000 0.93442  0.25899  0.84133  Biso   1.000  H
  H159     1.0000 0.90880  0.22761  0.92801  Biso   1.000  H
  N117     1.0000 0.86068  0.31893  0.09190  Biso   1.000  N
  H160     1.0000 0.88178  0.30439  0.23376  Biso   1.000  H
  H161     1.0000 0.87591  0.25622  0.16722  Biso   1.000  H
  H162     1.0000 0.28041  0.55701  0.13407  Biso   1.000  H
  C163     1.0000 0.24262  0.59389  0.95360  Biso   1.000  C
  C164     1.0000 0.20459  0.61928  0.20787  Biso   1.000  C
  C165     1.0000 0.86942  0.32840  0.84111  Biso   1.000  C
  C166     1.0000 0.84348  0.29672  0.99788  Biso   1.000  C
  C167     1.0000 0.83031  0.35895  0.11893  Biso   1.000  C
  N118     1.0000 0.20088  0.63005  0.96086  Biso   1.000  N
  H163     1.0000 0.27431  0.60941  0.97684  Biso   1.000  H
  H164     1.0000 0.24729  0.58469  0.88319  Biso   1.000  H
  N119     1.0000 0.17398  0.64688  0.13323  Biso   1.000  N
  H165     1.0000 0.18929  0.62381  0.27434  Biso   1.000  H
  H166     1.0000 0.23922  0.63308  0.20992  Biso   1.000  H
  O55      1.0000 0.89423  0.33311  0.76223  Biso   1.000  O
  N120     1.0000 0.82602  0.35312  0.86677  Biso   1.000  N
  C168     1.0000 0.80298  0.33393  0.95882  Biso   1.000  C
  H167     1.0000 0.82868  0.26340  0.00848  Biso   1.000  H
  O56      1.0000 0.83089  0.38102  0.19962  Biso   1.000  O
  N121     1.0000 0.79912  0.36995  0.03914  Biso   1.000  N
  C169     1.0000 0.19702  0.66607  0.04118  Biso   1.000  C
  C170     1.0000 0.16969  0.64105  0.88107  Biso   1.000  C
  C171     1.0000 0.13058  0.67160  0.15889  Biso   1.000  C
  C172     1.0000 0.79541  0.38072  0.79213  Biso   1.000  C
  H168     1.0000 0.76979  0.31759  0.94557  Biso   1.000  H
  C173     1.0000 0.75738  0.40611  0.04640  Biso   1.000  C
  H169     1.0000 0.23021  0.68241  0.05443  Biso   1.000  H
  C174     1.0000 0.15652  0.70328  0.00212  Biso   1.000  C
  O57      1.0000 0.16911  0.61898  0.80038  Biso   1.000  O
  N122     1.0000 0.13932  0.68107  0.90810  Biso   1.000  N
  O58      1.0000 0.10577  0.66689  0.23777  Biso   1.000  O
  N123     1.0000 0.11822  0.70339  0.08138  Biso   1.000  N
  N124     1.0000 0.79236  0.43337  0.81393  Biso   1.000  N
  H170     1.0000 0.81071  0.37619  0.72566  Biso   1.000  H
  H171     1.0000 0.76078  0.36692  0.79008  Biso   1.000  H
  N125     1.0000 0.76650  0.45114  0.98774  Biso   1.000  N
  H172     1.0000 0.72569  0.39059  0.02316  Biso   1.000  H
  H173     1.0000 0.75271  0.41531  0.11681  Biso   1.000  H
  H174     1.0000 0.17132  0.73660  0.99152  Biso   1.000  H
  C175     1.0000 0.11142  0.70971  0.83263  Biso   1.000  C
  C176     1.0000 0.07748  0.73971  0.08902  Biso   1.000  C
  C177     1.0000 0.81879  0.46819  0.75829  Biso   1.000  C
  C178     1.0000 0.75452  0.45499  0.88092  Biso   1.000  C
  C179     1.0000 0.77180  0.49650  0.03270  Biso   1.000  C
  N126     1.0000 0.05635  0.71012  0.84996  Biso   1.000  N
  H175     1.0000 0.11822  0.69561  0.76624  Biso   1.000  H
  H176     1.0000 0.12409  0.74378  0.83278  Biso   1.000  H
  N127     1.0000 0.05635  0.71012  0.85004  Biso   1.000  N
  N128     1.0000 0.03358  0.72935  0.02400  Biso   1.000  N
  H177     1.0000 0.06558  0.74101  0.15867  Biso   1.000  H
  H178     1.0000 0.09120  0.77239  0.07199  Biso   1.000  H
  O59      1.0000 0.85002  0.45963  0.69288  Biso   1.000  O
  N129     1.0000 0.80341  0.51490  0.79107  Biso   1.000  N
  C180     1.0000 0.76020  0.51199  0.85973  Biso   1.000  C
  H179     1.0000 0.71959  0.44299  0.86593  Biso   1.000  H
  N130     1.0000 0.77079  0.53274  0.95958  Biso   1.000  N
  O60      1.0000 0.77589  0.50421  0.12279  Biso   1.000  O
  C181     1.0000 0.03068  0.74472  0.91862  Biso   1.000  C
  C182     1.0000 0.02249  0.68982  0.78160  Biso   1.000  C
  C183     1.0000 0.98651  0.71659  0.06192  Biso   1.000  C
  C184     1.0000 0.81110  0.55840  0.72824  Biso   1.000  C
  H180     1.0000 0.72871  0.52609  0.82998  Biso   1.000  H
  C185     1.0000 0.76739  0.58491  0.98266  Biso   1.000  C
  C186     1.0000 0.97310  0.73840  0.89258  Biso   1.000  C
  H181     1.0000 0.04239  0.77920  0.90893  Biso   1.000  H
  N131     1.0000 0.97310  0.70436  0.80863  Biso   1.000  N
  O61      1.0000 0.03370  0.66435  0.70863  Biso   1.000  O
  N132     1.0000 0.95088  0.71757  0.98592  Biso   1.000  N
  O62      1.0000 0.97731  0.70552  0.15087  Biso   1.000  O
  H182     1.0000 0.77771  0.57160  0.70840  Biso   1.000  H
  H183     1.0000 0.82919  0.54841  0.66699  Biso   1.000  H
  N133     1.0000 0.84032  0.59737  0.77782  Biso   1.000  N
  H184     1.0000 0.73628  0.59819  0.95193  Biso   1.000  H
  N134     1.0000 0.81110  0.61371  0.94860  Biso   1.000  N
  H185     1.0000 0.76399  0.58869  0.05549  Biso   1.000  H
  H186     1.0000 0.95710  0.77041  0.87456  Biso   1.000  H
  C187     1.0000 0.92939  0.69778  0.74186  Biso   1.000  C
  C188     1.0000 0.89720  0.71588  0.00462  Biso   1.000  C
  C189     1.0000 0.88271  0.61790  0.73399  Biso   1.000  C
  C190     1.0000 0.81512  0.63211  0.84428  Biso   1.000  C
  C191     1.0000 0.84260  0.63940  0.01173  Biso   1.000  C
  N135     1.0000 0.89260  0.66210  0.78092  Biso   1.000  N
  H187     1.0000 0.94161  0.68649  0.67631  Biso   1.000  H
  H188     1.0000 0.91231  0.72968  0.73240  Biso   1.000  H
  N136     1.0000 0.87081  0.67351  0.95678  Biso   1.000  N
  H189     1.0000 0.88178  0.74670  0.98039  Biso   1.000  H
  H190     1.0000 0.89160  0.71420  0.07721  Biso   1.000  H
  O63      1.0000 0.90880  0.59901  0.66488  Biso   1.000  O
  C192     1.0000 0.85380  0.67531  0.85238  Biso   1.000  C
  H191     1.0000 0.78169  0.64322  0.81756  Biso   1.000  H
  O64      1.0000 0.84712  0.63256  0.10333  Biso   1.000  O
  H192     1.0000 0.83780  0.70739  0.83588  Biso   1.000  H
  C193     1.0000 0.35380  0.17529  0.14762  Biso   1.000  C
  N137     1.0000 0.37081  0.17353  0.04322  Biso   1.000  N
  N138     1.0000 0.39260  0.16209  0.21908  Biso   1.000  N
  H193     1.0000 0.33780  0.20741  0.16412  Biso   1.000  H
  C194     1.0000 0.31512  0.13209  0.15572  Biso   1.000  C
  C195     1.0000 0.34260  0.13938  0.98827  Biso   1.000  C
  C196     1.0000 0.39720  0.21590  0.99538  Biso   1.000  C
  C197     1.0000 0.38271  0.11792  0.26601  Biso   1.000  C
  C198     1.0000 0.42939  0.19780  0.25814  Biso   1.000  C
  N139     1.0000 0.31110  0.11369  0.05140  Biso   1.000  N
  N140     1.0000 0.34032  0.09739  0.22218  Biso   1.000  N
  H194     1.0000 0.28169  0.14320  0.18244  Biso   1.000  H
  O65      1.0000 0.34712  0.13258  0.89667  Biso   1.000  O
  N141     1.0000 0.45088  0.21755  0.01408  Biso   1.000  N
  H195     1.0000 0.38178  0.24672  0.01961  Biso   1.000  H
  H196     1.0000 0.39160  0.21418  0.92279  Biso   1.000  H
  O66      1.0000 0.40880  0.09899  0.33512  Biso   1.000  O
  N142     1.0000 0.47310  0.20435  0.19137  Biso   1.000  N
  H197     1.0000 0.44161  0.18651  0.32369  Biso   1.000  H
  H198     1.0000 0.41231  0.22970  0.26760  Biso   1.000  H
  C199     1.0000 0.26739  0.08489  0.01734  Biso   1.000  C
  C200     1.0000 0.31110  0.05842  0.27176  Biso   1.000  C
  C201     1.0000 0.47310  0.23842  0.10742  Biso   1.000  C
  C202     1.0000 0.48651  0.21661  0.93808  Biso   1.000  C
  C203     1.0000 0.52249  0.18984  0.21840  Biso   1.000  C
  N143     1.0000 0.27079  0.03276  0.04042  Biso   1.000  N
  H199     1.0000 0.23628  0.09821  0.04807  Biso   1.000  H
  H200     1.0000 0.26399  0.08871  0.94451  Biso   1.000  H
  N144     1.0000 0.30341  0.01492  0.20893  Biso   1.000  N
  H201     1.0000 0.27771  0.07162  0.29160  Biso   1.000  H
  H202     1.0000 0.32919  0.04839  0.33301  Biso   1.000  H
  C204     1.0000 0.53068  0.24470  0.08138  Biso   1.000  C
  H203     1.0000 0.45710  0.27039  0.12544  Biso   1.000  H
  O67      1.0000 0.47731  0.20551  0.84913  Biso   1.000  O
  N145     1.0000 0.53358  0.22937  0.97600  Biso   1.000  N
  O68      1.0000 0.53370  0.16433  0.29137  Biso   1.000  O
  N146     1.0000 0.55635  0.21014  0.15004  Biso   1.000  N
  N147     1.0000 0.55635  0.21014  0.14996  Biso   1.000  N
  C205     1.0000 0.26020  0.01197  0.14027  Biso   1.000  C
  C206     1.0000 0.27180  0.99648  0.96730  Biso   1.000  C
  C207     1.0000 0.31879  0.96821  0.24171  Biso   1.000  C
  H204     1.0000 0.54239  0.27922  0.09107  Biso   1.000  H
  C208     1.0000 0.57748  0.23969  0.91098  Biso   1.000  C
  C209     1.0000 0.61142  0.20969  0.16737  Biso   1.000  C
  H205     1.0000 0.22871  0.02610  0.17002  Biso   1.000  H
  C210     1.0000 0.25452  0.95501  0.11908  Biso   1.000  C
  N148     1.0000 0.26650  0.95112  0.01226  Biso   1.000  N
  O69      1.0000 0.27589  0.00423  0.87721  Biso   1.000  O
  O70      1.0000 0.35002  0.95965  0.30712  Biso   1.000  O
  N149     1.0000 0.29236  0.93336  0.18607  Biso   1.000  N
  N150     1.0000 0.61822  0.20341  0.91862  Biso   1.000  N
  H206     1.0000 0.56558  0.24100  0.84133  Biso   1.000  H
  H207     1.0000 0.59120  0.27241  0.92801  Biso   1.000  H
  N151     1.0000 0.63932  0.18105  0.09190  Biso   1.000  N
  H208     1.0000 0.61822  0.19559  0.23376  Biso   1.000  H
  H209     1.0000 0.62409  0.24380  0.16722  Biso   1.000  H
  H210     1.0000 0.21959  0.94300  0.13407  Biso   1.000  H
  C211     1.0000 0.25738  0.90609  0.95360  Biso   1.000  C
  C212     1.0000 0.29541  0.88070  0.20787  Biso   1.000  C
  C213     1.0000 0.63058  0.17158  0.84111  Biso   1.000  C
  C214     1.0000 0.65652  0.20330  0.99788  Biso   1.000  C
  C215     1.0000 0.66969  0.14103  0.11893  Biso   1.000  C
  N152     1.0000 0.29912  0.86997  0.96086  Biso   1.000  N
  H211     1.0000 0.22569  0.89061  0.97684  Biso   1.000  H
  H212     1.0000 0.25271  0.91529  0.88319  Biso   1.000  H
  N153     1.0000 0.32602  0.85310  0.13323  Biso   1.000  N
  H213     1.0000 0.31071  0.87621  0.27434  Biso   1.000  H
  H214     1.0000 0.26078  0.86690  0.20992  Biso   1.000  H
  O71      1.0000 0.60577  0.16691  0.76223  Biso   1.000  O
  N154     1.0000 0.67398  0.14690  0.86677  Biso   1.000  N
  H215     1.0000 0.67132  0.23658  0.00848  Biso   1.000  H
  C216     1.0000 0.69702  0.16605  0.95882  Biso   1.000  C
  O72      1.0000 0.66911  0.11900  0.19962  Biso   1.000  O
  N155     1.0000 0.70088  0.13003  0.03914  Biso   1.000  N
  C217     1.0000 0.33031  0.85897  0.88107  Biso   1.000  C
  C218     1.0000 0.30298  0.83395  0.04118  Biso   1.000  C
  C219     1.0000 0.36942  0.82842  0.15889  Biso   1.000  C
  C220     1.0000 0.70459  0.11930  0.79213  Biso   1.000  C
  H216     1.0000 0.73021  0.18239  0.94557  Biso   1.000  H
  C221     1.0000 0.74262  0.09391  0.04640  Biso   1.000  C
  O73      1.0000 0.33089  0.88100  0.80038  Biso   1.000  O
  N156     1.0000 0.36068  0.81895  0.90810  Biso   1.000  N
  H217     1.0000 0.26979  0.81761  0.05443  Biso   1.000  H
  C222     1.0000 0.34348  0.79670  0.00212  Biso   1.000  C
  O74      1.0000 0.39423  0.83309  0.23777  Biso   1.000  O
  N157     1.0000 0.38178  0.79659  0.08138  Biso   1.000  N
  N158     1.0000 0.70764  0.06664  0.81393  Biso   1.000  N
  H218     1.0000 0.68929  0.12379  0.72566  Biso   1.000  H
  H219     1.0000 0.73922  0.13310  0.79008  Biso   1.000  H
  H220     1.0000 0.77431  0.10939  0.02316  Biso   1.000  H
  H221     1.0000 0.74729  0.08471  0.11681  Biso   1.000  H
  N159     1.0000 0.73350  0.04888  0.98774  Biso   1.000  N
  C223     1.0000 0.38858  0.79031  0.83263  Biso   1.000  C
  H222     1.0000 0.32868  0.76342  0.99152  Biso   1.000  H
  C224     1.0000 0.42252  0.76031  0.08902  Biso   1.000  C
  C225     1.0000 0.68121  0.03179  0.75829  Biso   1.000  C
  C226     1.0000 0.74548  0.04499  0.88092  Biso   1.000  C
  C227     1.0000 0.72820  0.00352  0.03270  Biso   1.000  C
  N160     1.0000 0.44365  0.78986  0.84996  Biso   1.000  N
  H223     1.0000 0.38178  0.80441  0.76624  Biso   1.000  H
  H224     1.0000 0.37591  0.75620  0.83278  Biso   1.000  H
  N161     1.0000 0.44365  0.78986  0.85004  Biso   1.000  N
  N162     1.0000 0.46642  0.77063  0.02400  Biso   1.000  N
  H225     1.0000 0.43442  0.75900  0.15867  Biso   1.000  H
  H226     1.0000 0.40880  0.72759  0.07199  Biso   1.000  H
  N163     1.0000 0.69659  0.98508  0.79107  Biso   1.000  N
  O75      1.0000 0.64998  0.04035  0.69288  Biso   1.000  O
  C228     1.0000 0.73980  0.98803  0.85973  Biso   1.000  C
  H227     1.0000 0.78041  0.05700  0.86593  Biso   1.000  H
  N164     1.0000 0.72921  0.96724  0.95958  Biso   1.000  N
  O76      1.0000 0.72411  0.99577  0.12279  Biso   1.000  O
  C229     1.0000 0.46932  0.75530  0.91862  Biso   1.000  C
  C230     1.0000 0.47751  0.81016  0.78160  Biso   1.000  C
  C231     1.0000 0.51349  0.78339  0.06192  Biso   1.000  C
  C232     1.0000 0.68890  0.94158  0.72824  Biso   1.000  C
  H228     1.0000 0.77129  0.97390  0.82998  Biso   1.000  H
  C233     1.0000 0.73261  0.91511  0.98266  Biso   1.000  C
  H229     1.0000 0.45761  0.72078  0.90893  Biso   1.000  H
  C234     1.0000 0.52690  0.76158  0.89258  Biso   1.000  C
  O77      1.0000 0.46630  0.83567  0.70863  Biso   1.000  O
  N165     1.0000 0.52690  0.79565  0.80863  Biso   1.000  N
  N166     1.0000 0.54912  0.78245  0.98592  Biso   1.000  N
  O78      1.0000 0.52269  0.79449  0.15087  Biso   1.000  O
  H230     1.0000 0.72229  0.92838  0.70840  Biso   1.000  H
  H231     1.0000 0.67081  0.95161  0.66699  Biso   1.000  H
  N167     1.0000 0.65968  0.90261  0.77782  Biso   1.000  N
  H232     1.0000 0.76372  0.90179  0.95193  Biso   1.000  H
  N168     1.0000 0.68890  0.88631  0.94860  Biso   1.000  N
  H233     1.0000 0.73601  0.91129  0.05549  Biso   1.000  H
  H234     1.0000 0.54290  0.72961  0.87456  Biso   1.000  H
  C235     1.0000 0.57061  0.80220  0.74186  Biso   1.000  C
  C236     1.0000 0.60280  0.78410  0.00462  Biso   1.000  C
  C237     1.0000 0.61729  0.88208  0.73399  Biso   1.000  C
  C238     1.0000 0.68488  0.86791  0.84428  Biso   1.000  C
  C239     1.0000 0.65740  0.86062  0.01173  Biso   1.000  C
  N169     1.0000 0.60740  0.83791  0.78092  Biso   1.000  N
  H235     1.0000 0.55839  0.81349  0.67631  Biso   1.000  H
  H236     1.0000 0.58769  0.77030  0.73240  Biso   1.000  H
  N170     1.0000 0.62919  0.82647  0.95678  Biso   1.000  N
  H237     1.0000 0.61822  0.75328  0.98039  Biso   1.000  H
  H238     1.0000 0.60840  0.78582  0.07721  Biso   1.000  H
  O79      1.0000 0.59120  0.90101  0.66488  Biso   1.000  O
  C240     1.0000 0.64620  0.82471  0.85238  Biso   1.000  C
  H239     1.0000 0.71831  0.85680  0.81756  Biso   1.000  H
  O80      1.0000 0.65288  0.86742  0.10333  Biso   1.000  O
  H240     1.0000 0.66220  0.79259  0.83588  Biso   1.000  H
  C241     1.0000 0.35380  0.17529  0.14762  Biso   1.000  C
  N171     1.0000 0.37081  0.17353  0.04322  Biso   1.000  N
  N172     1.0000 0.39260  0.16209  0.21908  Biso   1.000  N
  H241     1.0000 0.33780  0.20741  0.16412  Biso   1.000  H
  C242     1.0000 0.31512  0.13209  0.15572  Biso   1.000  C
  C243     1.0000 0.34260  0.13938  0.98827  Biso   1.000  C
  C244     1.0000 0.39720  0.21590  0.99538  Biso   1.000  C
  C245     1.0000 0.38271  0.11792  0.26601  Biso   1.000  C
  C246     1.0000 0.42939  0.19780  0.25814  Biso   1.000  C
  N173     1.0000 0.31110  0.11369  0.05140  Biso   1.000  N
  N174     1.0000 0.34032  0.09739  0.22218  Biso   1.000  N
  H242     1.0000 0.28169  0.14320  0.18244  Biso   1.000  H
  O81      1.0000 0.34712  0.13258  0.89667  Biso   1.000  O
  N175     1.0000 0.45088  0.21755  0.01408  Biso   1.000  N
  H243     1.0000 0.38178  0.24672  0.01961  Biso   1.000  H
  H244     1.0000 0.39160  0.21418  0.92279  Biso   1.000  H
  O82      1.0000 0.40880  0.09899  0.33512  Biso   1.000  O
  N176     1.0000 0.47310  0.20435  0.19137  Biso   1.000  N
  H245     1.0000 0.44161  0.18651  0.32369  Biso   1.000  H
  H246     1.0000 0.41231  0.22970  0.26760  Biso   1.000  H
  C247     1.0000 0.26739  0.08489  0.01734  Biso   1.000  C
  C248     1.0000 0.31110  0.05842  0.27176  Biso   1.000  C
  C249     1.0000 0.47310  0.23842  0.10742  Biso   1.000  C
  C250     1.0000 0.48651  0.21661  0.93808  Biso   1.000  C
  C251     1.0000 0.52249  0.18984  0.21840  Biso   1.000  C
  N177     1.0000 0.27079  0.03276  0.04042  Biso   1.000  N
  H247     1.0000 0.23628  0.09821  0.04807  Biso   1.000  H
  H248     1.0000 0.26399  0.08871  0.94451  Biso   1.000  H
  N178     1.0000 0.30341  0.01492  0.20893  Biso   1.000  N
  H249     1.0000 0.27771  0.07162  0.29160  Biso   1.000  H
  H250     1.0000 0.32919  0.04839  0.33301  Biso   1.000  H
  C252     1.0000 0.53068  0.24470  0.08138  Biso   1.000  C
  H251     1.0000 0.45710  0.27039  0.12544  Biso   1.000  H
  O83      1.0000 0.47731  0.20551  0.84913  Biso   1.000  O
  N179     1.0000 0.53358  0.22937  0.97600  Biso   1.000  N
  O84      1.0000 0.53370  0.16433  0.29137  Biso   1.000  O
  N180     1.0000 0.55635  0.21014  0.15004  Biso   1.000  N
  N181     1.0000 0.55635  0.21014  0.14996  Biso   1.000  N
  C253     1.0000 0.26020  0.01197  0.14027  Biso   1.000  C
  C254     1.0000 0.27180  0.99648  0.96730  Biso   1.000  C
  C255     1.0000 0.31879  0.96821  0.24171  Biso   1.000  C
  H252     1.0000 0.54239  0.27922  0.09107  Biso   1.000  H
  C256     1.0000 0.57748  0.23969  0.91098  Biso   1.000  C
  C257     1.0000 0.61142  0.20969  0.16737  Biso   1.000  C
  H253     1.0000 0.22871  0.02610  0.17002  Biso   1.000  H
  C258     1.0000 0.25452  0.95501  0.11908  Biso   1.000  C
  N182     1.0000 0.26650  0.95112  0.01226  Biso   1.000  N
  O85      1.0000 0.27589  0.00423  0.87721  Biso   1.000  O
  O86      1.0000 0.35002  0.95965  0.30712  Biso   1.000  O
  N183     1.0000 0.29236  0.93336  0.18607  Biso   1.000  N
  N184     1.0000 0.61822  0.20341  0.91862  Biso   1.000  N
  H254     1.0000 0.56558  0.24100  0.84133  Biso   1.000  H
  H255     1.0000 0.59120  0.27241  0.92801  Biso   1.000  H
  N185     1.0000 0.63932  0.18105  0.09190  Biso   1.000  N
  H256     1.0000 0.61822  0.19559  0.23376  Biso   1.000  H
  H257     1.0000 0.62409  0.24380  0.16722  Biso   1.000  H
  H258     1.0000 0.21959  0.94300  0.13407  Biso   1.000  H
  C259     1.0000 0.25738  0.90609  0.95360  Biso   1.000  C
  C260     1.0000 0.29541  0.88070  0.20787  Biso   1.000  C
  C261     1.0000 0.63058  0.17158  0.84111  Biso   1.000  C
  C262     1.0000 0.65652  0.20330  0.99788  Biso   1.000  C
  C263     1.0000 0.66969  0.14103  0.11893  Biso   1.000  C
  N186     1.0000 0.29912  0.86997  0.96086  Biso   1.000  N
  H259     1.0000 0.22569  0.89061  0.97684  Biso   1.000  H
  H260     1.0000 0.25271  0.91529  0.88319  Biso   1.000  H
  N187     1.0000 0.32602  0.85310  0.13323  Biso   1.000  N
  H261     1.0000 0.31071  0.87621  0.27434  Biso   1.000  H
  H262     1.0000 0.26078  0.86690  0.20992  Biso   1.000  H
  O87      1.0000 0.60577  0.16691  0.76223  Biso   1.000  O
  N188     1.0000 0.67398  0.14690  0.86677  Biso   1.000  N
  H263     1.0000 0.67132  0.23658  0.00848  Biso   1.000  H
  C264     1.0000 0.69702  0.16605  0.95882  Biso   1.000  C
  O88      1.0000 0.66911  0.11900  0.19962  Biso   1.000  O
  N189     1.0000 0.70088  0.13003  0.03914  Biso   1.000  N
  C265     1.0000 0.33031  0.85897  0.88107  Biso   1.000  C
  C266     1.0000 0.30298  0.83395  0.04118  Biso   1.000  C
  C267     1.0000 0.36942  0.82842  0.15889  Biso   1.000  C
  C268     1.0000 0.70459  0.11930  0.79213  Biso   1.000  C
  H264     1.0000 0.73021  0.18239  0.94557  Biso   1.000  H
  C269     1.0000 0.74262  0.09391  0.04640  Biso   1.000  C
  O89      1.0000 0.33089  0.88100  0.80038  Biso   1.000  O
  N190     1.0000 0.36068  0.81895  0.90810  Biso   1.000  N
  H265     1.0000 0.26979  0.81761  0.05443  Biso   1.000  H
  C270     1.0000 0.34348  0.79670  0.00212  Biso   1.000  C
  O90      1.0000 0.39423  0.83309  0.23777  Biso   1.000  O
  N191     1.0000 0.38178  0.79659  0.08138  Biso   1.000  N
  N192     1.0000 0.70764  0.06664  0.81393  Biso   1.000  N
  H266     1.0000 0.68929  0.12379  0.72566  Biso   1.000  H
  H267     1.0000 0.73922  0.13310  0.79008  Biso   1.000  H
  H268     1.0000 0.77431  0.10939  0.02316  Biso   1.000  H
  H269     1.0000 0.74729  0.08471  0.11681  Biso   1.000  H
  N193     1.0000 0.73350  0.04888  0.98774  Biso   1.000  N
  C271     1.0000 0.38858  0.79031  0.83263  Biso   1.000  C
  H270     1.0000 0.32868  0.76342  0.99152  Biso   1.000  H
  C272     1.0000 0.42252  0.76031  0.08902  Biso   1.000  C
  C273     1.0000 0.68121  0.03179  0.75829  Biso   1.000  C
  C274     1.0000 0.74548  0.04499  0.88092  Biso   1.000  C
  C275     1.0000 0.72820  0.00352  0.03270  Biso   1.000  C
  N194     1.0000 0.44365  0.78986  0.84996  Biso   1.000  N
  H271     1.0000 0.38178  0.80441  0.76624  Biso   1.000  H
  H272     1.0000 0.37591  0.75620  0.83278  Biso   1.000  H
  N195     1.0000 0.44365  0.78986  0.85004  Biso   1.000  N
  N196     1.0000 0.46642  0.77063  0.02400  Biso   1.000  N
  H273     1.0000 0.43442  0.75900  0.15867  Biso   1.000  H
  H274     1.0000 0.40880  0.72759  0.07199  Biso   1.000  H
  N197     1.0000 0.69659  0.98508  0.79107  Biso   1.000  N
  O91      1.0000 0.64998  0.04035  0.69288  Biso   1.000  O
  C276     1.0000 0.73980  0.98803  0.85973  Biso   1.000  C
  H275     1.0000 0.78041  0.05700  0.86593  Biso   1.000  H
  N198     1.0000 0.72921  0.96724  0.95958  Biso   1.000  N
  O92      1.0000 0.72411  0.99577  0.12279  Biso   1.000  O
  C277     1.0000 0.46932  0.75530  0.91862  Biso   1.000  C
  C278     1.0000 0.47751  0.81016  0.78160  Biso   1.000  C
  C279     1.0000 0.51349  0.78339  0.06192  Biso   1.000  C
  C280     1.0000 0.68890  0.94158  0.72824  Biso   1.000  C
  H276     1.0000 0.77129  0.97390  0.82998  Biso   1.000  H
  C281     1.0000 0.73261  0.91511  0.98266  Biso   1.000  C
  H277     1.0000 0.45761  0.72078  0.90893  Biso   1.000  H
  C282     1.0000 0.52690  0.76158  0.89258  Biso   1.000  C
  O93      1.0000 0.46630  0.83567  0.70863  Biso   1.000  O
  N199     1.0000 0.52690  0.79565  0.80863  Biso   1.000  N
  N200     1.0000 0.54912  0.78245  0.98592  Biso   1.000  N
  O94      1.0000 0.52269  0.79449  0.15087  Biso   1.000  O
  H278     1.0000 0.72229  0.92838  0.70840  Biso   1.000  H
  H279     1.0000 0.67081  0.95161  0.66699  Biso   1.000  H
  N201     1.0000 0.65968  0.90261  0.77782  Biso   1.000  N
  H280     1.0000 0.76372  0.90179  0.95193  Biso   1.000  H
  N202     1.0000 0.68890  0.88631  0.94860  Biso   1.000  N
  H281     1.0000 0.73601  0.91129  0.05549  Biso   1.000  H
  H282     1.0000 0.54290  0.72961  0.87456  Biso   1.000  H
  C283     1.0000 0.57061  0.80220  0.74186  Biso   1.000  C
  C284     1.0000 0.60280  0.78410  0.00462  Biso   1.000  C
  C285     1.0000 0.61729  0.88208  0.73399  Biso   1.000  C
  C286     1.0000 0.68488  0.86791  0.84428  Biso   1.000  C
  C287     1.0000 0.65740  0.86062  0.01173  Biso   1.000  C
  N203     1.0000 0.60740  0.83791  0.78092  Biso   1.000  N
  H283     1.0000 0.55839  0.81349  0.67631  Biso   1.000  H
  H284     1.0000 0.58769  0.77030  0.73240  Biso   1.000  H
  N204     1.0000 0.62919  0.82647  0.95678  Biso   1.000  N
  H285     1.0000 0.61822  0.75328  0.98039  Biso   1.000  H
  H286     1.0000 0.60840  0.78582  0.07721  Biso   1.000  H
  O95      1.0000 0.59120  0.90101  0.66488  Biso   1.000  O
  C288     1.0000 0.64620  0.82471  0.85238  Biso   1.000  C
  H287     1.0000 0.71831  0.85680  0.81756  Biso   1.000  H
  O96      1.0000 0.65288  0.86742  0.10333  Biso   1.000  O
  H288     1.0000 0.66220  0.79259  0.83588  Biso   1.000  H
  C289     1.0000 0.35380  0.17529  0.14762  Biso   1.000  C
  N205     1.0000 0.37081  0.17353  0.04322  Biso   1.000  N
  N206     1.0000 0.39260  0.16209  0.21908  Biso   1.000  N
  H289     1.0000 0.33780  0.20741  0.16412  Biso   1.000  H
  C290     1.0000 0.31512  0.13209  0.15572  Biso   1.000  C
  C291     1.0000 0.34260  0.13938  0.98827  Biso   1.000  C
  C292     1.0000 0.39720  0.21590  0.99538  Biso   1.000  C
  C293     1.0000 0.38271  0.11792  0.26601  Biso   1.000  C
  C294     1.0000 0.42939  0.19780  0.25814  Biso   1.000  C
  N207     1.0000 0.31110  0.11369  0.05140  Biso   1.000  N
  N208     1.0000 0.34032  0.09739  0.22218  Biso   1.000  N
  H290     1.0000 0.28169  0.14320  0.18244  Biso   1.000  H
  O97      1.0000 0.34712  0.13258  0.89667  Biso   1.000  O
  N209     1.0000 0.45088  0.21755  0.01408  Biso   1.000  N
  H291     1.0000 0.38178  0.24672  0.01961  Biso   1.000  H
  H292     1.0000 0.39160  0.21418  0.92279  Biso   1.000  H
  O98      1.0000 0.40880  0.09899  0.33512  Biso   1.000  O
  N210     1.0000 0.47310  0.20435  0.19137  Biso   1.000  N
  H293     1.0000 0.44161  0.18651  0.32369  Biso   1.000  H
  H294     1.0000 0.41231  0.22970  0.26760  Biso   1.000  H
  C295     1.0000 0.26739  0.08489  0.01734  Biso   1.000  C
  C296     1.0000 0.31110  0.05842  0.27176  Biso   1.000  C
  C297     1.0000 0.47310  0.23842  0.10742  Biso   1.000  C
  C298     1.0000 0.48651  0.21661  0.93808  Biso   1.000  C
  C299     1.0000 0.52249  0.18984  0.21840  Biso   1.000  C
  N211     1.0000 0.27079  0.03276  0.04042  Biso   1.000  N
  H295     1.0000 0.23628  0.09821  0.04807  Biso   1.000  H
  H296     1.0000 0.26399  0.08871  0.94451  Biso   1.000  H
  N212     1.0000 0.30341  0.01492  0.20893  Biso   1.000  N
  H297     1.0000 0.27771  0.07162  0.29160  Biso   1.000  H
  H298     1.0000 0.32919  0.04839  0.33301  Biso   1.000  H
  C300     1.0000 0.53068  0.24470  0.08138  Biso   1.000  C
  H299     1.0000 0.45710  0.27039  0.12544  Biso   1.000  H
  O99      1.0000 0.47731  0.20551  0.84913  Biso   1.000  O
  N213     1.0000 0.53358  0.22937  0.97600  Biso   1.000  N
  O100     1.0000 0.53370  0.16433  0.29137  Biso   1.000  O
  N214     1.0000 0.55635  0.21014  0.15004  Biso   1.000  N
  N215     1.0000 0.55635  0.21014  0.14996  Biso   1.000  N
  C301     1.0000 0.26020  0.01197  0.14027  Biso   1.000  C
  C302     1.0000 0.27180  0.99648  0.96730  Biso   1.000  C
  C303     1.0000 0.31879  0.96821  0.24171  Biso   1.000  C
  H300     1.0000 0.54239  0.27922  0.09107  Biso   1.000  H
  C304     1.0000 0.57748  0.23969  0.91098  Biso   1.000  C
  C305     1.0000 0.61142  0.20969  0.16737  Biso   1.000  C
  H301     1.0000 0.22871  0.02610  0.17002  Biso   1.000  H
  C306     1.0000 0.25452  0.95501  0.11908  Biso   1.000  C
  N216     1.0000 0.26650  0.95112  0.01226  Biso   1.000  N
  O101     1.0000 0.27589  0.00423  0.87721  Biso   1.000  O
  O102     1.0000 0.35002  0.95965  0.30712  Biso   1.000  O
  N217     1.0000 0.29236  0.93336  0.18607  Biso   1.000  N
  N218     1.0000 0.61822  0.20341  0.91862  Biso   1.000  N
  H302     1.0000 0.56558  0.24100  0.84133  Biso   1.000  H
  H303     1.0000 0.59120  0.27241  0.92801  Biso   1.000  H
  N219     1.0000 0.63932  0.18105  0.09190  Biso   1.000  N
  H304     1.0000 0.61822  0.19559  0.23376  Biso   1.000  H
  H305     1.0000 0.62409  0.24380  0.16722  Biso   1.000  H
  H306     1.0000 0.21959  0.94300  0.13407  Biso   1.000  H
  C307     1.0000 0.25738  0.90609  0.95360  Biso   1.000  C
  C308     1.0000 0.29541  0.88070  0.20787  Biso   1.000  C
  C309     1.0000 0.63058  0.17158  0.84111  Biso   1.000  C
  C310     1.0000 0.65652  0.20330  0.99788  Biso   1.000  C
  C311     1.0000 0.66969  0.14103  0.11893  Biso   1.000  C
  N220     1.0000 0.29912  0.86997  0.96086  Biso   1.000  N
  H307     1.0000 0.22569  0.89061  0.97684  Biso   1.000  H
  H308     1.0000 0.25271  0.91529  0.88319  Biso   1.000  H
  N221     1.0000 0.32602  0.85310  0.13323  Biso   1.000  N
  H309     1.0000 0.31071  0.87621  0.27434  Biso   1.000  H
  H310     1.0000 0.26078  0.86690  0.20992  Biso   1.000  H
  O103     1.0000 0.60577  0.16691  0.76223  Biso   1.000  O
  N222     1.0000 0.67398  0.14690  0.86677  Biso   1.000  N
  H311     1.0000 0.67132  0.23658  0.00848  Biso   1.000  H
  C312     1.0000 0.69702  0.16605  0.95882  Biso   1.000  C
  O104     1.0000 0.66911  0.11900  0.19962  Biso   1.000  O
  N223     1.0000 0.70088  0.13003  0.03914  Biso   1.000  N
  C313     1.0000 0.33031  0.85897  0.88107  Biso   1.000  C
  C314     1.0000 0.30298  0.83395  0.04118  Biso   1.000  C
  C315     1.0000 0.36942  0.82842  0.15889  Biso   1.000  C
  C316     1.0000 0.70459  0.11930  0.79213  Biso   1.000  C
  H312     1.0000 0.73021  0.18239  0.94557  Biso   1.000  H
  C317     1.0000 0.74262  0.09391  0.04640  Biso   1.000  C
  O105     1.0000 0.33089  0.88100  0.80038  Biso   1.000  O
  N224     1.0000 0.36068  0.81895  0.90810  Biso   1.000  N
  H313     1.0000 0.26979  0.81761  0.05443  Biso   1.000  H
  C318     1.0000 0.34348  0.79670  0.00212  Biso   1.000  C
  O106     1.0000 0.39423  0.83309  0.23777  Biso   1.000  O
  N225     1.0000 0.38178  0.79659  0.08138  Biso   1.000  N
  N226     1.0000 0.70764  0.06664  0.81393  Biso   1.000  N
  H314     1.0000 0.68929  0.12379  0.72566  Biso   1.000  H
  H315     1.0000 0.73922  0.13310  0.79008  Biso   1.000  H
  H316     1.0000 0.77431  0.10939  0.02316  Biso   1.000  H
  H317     1.0000 0.74729  0.08471  0.11681  Biso   1.000  H
  N227     1.0000 0.73350  0.04888  0.98774  Biso   1.000  N
  C319     1.0000 0.38858  0.79031  0.83263  Biso   1.000  C
  H318     1.0000 0.32868  0.76342  0.99152  Biso   1.000  H
  C320     1.0000 0.42252  0.76031  0.08902  Biso   1.000  C
  C321     1.0000 0.68121  0.03179  0.75829  Biso   1.000  C
  C322     1.0000 0.74548  0.04499  0.88092  Biso   1.000  C
  C323     1.0000 0.72820  0.00352  0.03270  Biso   1.000  C
  N228     1.0000 0.44365  0.78986  0.84996  Biso   1.000  N
  H319     1.0000 0.38178  0.80441  0.76624  Biso   1.000  H
  H320     1.0000 0.37591  0.75620  0.83278  Biso   1.000  H
  N229     1.0000 0.44365  0.78986  0.85004  Biso   1.000  N
  N230     1.0000 0.46642  0.77063  0.02400  Biso   1.000  N
  H321     1.0000 0.43442  0.75900  0.15867  Biso   1.000  H
  H322     1.0000 0.40880  0.72759  0.07199  Biso   1.000  H
  N231     1.0000 0.69659  0.98508  0.79107  Biso   1.000  N
  O107     1.0000 0.64998  0.04035  0.69288  Biso   1.000  O
  C324     1.0000 0.73980  0.98803  0.85973  Biso   1.000  C
  H323     1.0000 0.78041  0.05700  0.86593  Biso   1.000  H
  N232     1.0000 0.72921  0.96724  0.95958  Biso   1.000  N
  O108     1.0000 0.72411  0.99577  0.12279  Biso   1.000  O
  C325     1.0000 0.46932  0.75530  0.91862  Biso   1.000  C
  C326     1.0000 0.47751  0.81016  0.78160  Biso   1.000  C
  C327     1.0000 0.51349  0.78339  0.06192  Biso   1.000  C
  C328     1.0000 0.68890  0.94158  0.72824  Biso   1.000  C
  H324     1.0000 0.77129  0.97390  0.82998  Biso   1.000  H
  C329     1.0000 0.73261  0.91511  0.98266  Biso   1.000  C
  H325     1.0000 0.45761  0.72078  0.90893  Biso   1.000  H
  C330     1.0000 0.52690  0.76158  0.89258  Biso   1.000  C
  O109     1.0000 0.46630  0.83567  0.70863  Biso   1.000  O
  N233     1.0000 0.52690  0.79565  0.80863  Biso   1.000  N
  N234     1.0000 0.54912  0.78245  0.98592  Biso   1.000  N
  O110     1.0000 0.52269  0.79449  0.15087  Biso   1.000  O
  H326     1.0000 0.72229  0.92838  0.70840  Biso   1.000  H
  H327     1.0000 0.67081  0.95161  0.66699  Biso   1.000  H
  N235     1.0000 0.65968  0.90261  0.77782  Biso   1.000  N
  H328     1.0000 0.76372  0.90179  0.95193  Biso   1.000  H
  N236     1.0000 0.68890  0.88631  0.94860  Biso   1.000  N
  H329     1.0000 0.73601  0.91129  0.05549  Biso   1.000  H
  H330     1.0000 0.54290  0.72961  0.87456  Biso   1.000  H
  C331     1.0000 0.57061  0.80220  0.74186  Biso   1.000  C
  C332     1.0000 0.60280  0.78410  0.00462  Biso   1.000  C
  C333     1.0000 0.61729  0.88208  0.73399  Biso   1.000  C
  C334     1.0000 0.68488  0.86791  0.84428  Biso   1.000  C
  C335     1.0000 0.65740  0.86062  0.01173  Biso   1.000  C
  N237     1.0000 0.60740  0.83791  0.78092  Biso   1.000  N
  H331     1.0000 0.55839  0.81349  0.67631  Biso   1.000  H
  H332     1.0000 0.58769  0.77030  0.73240  Biso   1.000  H
  N238     1.0000 0.62919  0.82647  0.95678  Biso   1.000  N
  H333     1.0000 0.61822  0.75328  0.98039  Biso   1.000  H
  H334     1.0000 0.60840  0.78582  0.07721  Biso   1.000  H
  O111     1.0000 0.59120  0.90101  0.66488  Biso   1.000  O
  C336     1.0000 0.64620  0.82471  0.85238  Biso   1.000  C
  H335     1.0000 0.71831  0.85680  0.81756  Biso   1.000  H
  O112     1.0000 0.65288  0.86742  0.10333  Biso   1.000  O
  H336     1.0000 0.66220  0.79259  0.83588  Biso   1.000  H
  C337     1.0000 0.35380  0.17529  0.14762  Biso   1.000  C
  N239     1.0000 0.37081  0.17353  0.04322  Biso   1.000  N
  N240     1.0000 0.39260  0.16209  0.21908  Biso   1.000  N
  H337     1.0000 0.33780  0.20741  0.16412  Biso   1.000  H
  C338     1.0000 0.31512  0.13209  0.15572  Biso   1.000  C
  C339     1.0000 0.34260  0.13938  0.98827  Biso   1.000  C
  C340     1.0000 0.39720  0.21590  0.99538  Biso   1.000  C
  C341     1.0000 0.38271  0.11792  0.26601  Biso   1.000  C
  C342     1.0000 0.42939  0.19780  0.25814  Biso   1.000  C
  N241     1.0000 0.31110  0.11369  0.05140  Biso   1.000  N
  N242     1.0000 0.34032  0.09739  0.22218  Biso   1.000  N
  H338     1.0000 0.28169  0.14320  0.18244  Biso   1.000  H
  O113     1.0000 0.34712  0.13258  0.89667  Biso   1.000  O
  N243     1.0000 0.45088  0.21755  0.01408  Biso   1.000  N
  H339     1.0000 0.38178  0.24672  0.01961  Biso   1.000  H
  H340     1.0000 0.39160  0.21418  0.92279  Biso   1.000  H
  O114     1.0000 0.40880  0.09899  0.33512  Biso   1.000  O
  N244     1.0000 0.47310  0.20435  0.19137  Biso   1.000  N
  H341     1.0000 0.44161  0.18651  0.32369  Biso   1.000  H
  H342     1.0000 0.41231  0.22970  0.26760  Biso   1.000  H
  C343     1.0000 0.26739  0.08489  0.01734  Biso   1.000  C
  C344     1.0000 0.31110  0.05842  0.27176  Biso   1.000  C
  C345     1.0000 0.47310  0.23842  0.10742  Biso   1.000  C
  C346     1.0000 0.48651  0.21661  0.93808  Biso   1.000  C
  C347     1.0000 0.52249  0.18984  0.21840  Biso   1.000  C
  N245     1.0000 0.27079  0.03276  0.04042  Biso   1.000  N
  H343     1.0000 0.23628  0.09821  0.04807  Biso   1.000  H
  H344     1.0000 0.26399  0.08871  0.94451  Biso   1.000  H
  N246     1.0000 0.30341  0.01492  0.20893  Biso   1.000  N
  H345     1.0000 0.27771  0.07162  0.29160  Biso   1.000  H
  H346     1.0000 0.32919  0.04839  0.33301  Biso   1.000  H
  C348     1.0000 0.53068  0.24470  0.08138  Biso   1.000  C
  H347     1.0000 0.45710  0.27039  0.12544  Biso   1.000  H
  O115     1.0000 0.47731  0.20551  0.84913  Biso   1.000  O
  N247     1.0000 0.53358  0.22937  0.97600  Biso   1.000  N
  O116     1.0000 0.53370  0.16433  0.29137  Biso   1.000  O
  N248     1.0000 0.55635  0.21014  0.15004  Biso   1.000  N
  N249     1.0000 0.55635  0.21014  0.14996  Biso   1.000  N
  C349     1.0000 0.26020  0.01197  0.14027  Biso   1.000  C
  C350     1.0000 0.27180  0.99648  0.96730  Biso   1.000  C
  C351     1.0000 0.31879  0.96821  0.24171  Biso   1.000  C
  H348     1.0000 0.54239  0.27922  0.09107  Biso   1.000  H
  C352     1.0000 0.57748  0.23969  0.91098  Biso   1.000  C
  C353     1.0000 0.61142  0.20969  0.16737  Biso   1.000  C
  H349     1.0000 0.22871  0.02610  0.17002  Biso   1.000  H
  C354     1.0000 0.25452  0.95501  0.11908  Biso   1.000  C
  N250     1.0000 0.26650  0.95112  0.01226  Biso   1.000  N
  O117     1.0000 0.27589  0.00423  0.87721  Biso   1.000  O
  O118     1.0000 0.35002  0.95965  0.30712  Biso   1.000  O
  N251     1.0000 0.29236  0.93336  0.18607  Biso   1.000  N
  N252     1.0000 0.61822  0.20341  0.91862  Biso   1.000  N
  H350     1.0000 0.56558  0.24100  0.84133  Biso   1.000  H
  H351     1.0000 0.59120  0.27241  0.92801  Biso   1.000  H
  N253     1.0000 0.63932  0.18105  0.09190  Biso   1.000  N
  H352     1.0000 0.61822  0.19559  0.23376  Biso   1.000  H
  H353     1.0000 0.62409  0.24380  0.16722  Biso   1.000  H
  H354     1.0000 0.21959  0.94300  0.13407  Biso   1.000  H
  C355     1.0000 0.25738  0.90609  0.95360  Biso   1.000  C
  C356     1.0000 0.29541  0.88070  0.20787  Biso   1.000  C
  C357     1.0000 0.63058  0.17158  0.84111  Biso   1.000  C
  C358     1.0000 0.65652  0.20330  0.99788  Biso   1.000  C
  C359     1.0000 0.66969  0.14103  0.11893  Biso   1.000  C
  N254     1.0000 0.29912  0.86997  0.96086  Biso   1.000  N
  H355     1.0000 0.22569  0.89061  0.97684  Biso   1.000  H
  H356     1.0000 0.25271  0.91529  0.88319  Biso   1.000  H
  N255     1.0000 0.32602  0.85310  0.13323  Biso   1.000  N
  H357     1.0000 0.31071  0.87621  0.27434  Biso   1.000  H
  H358     1.0000 0.26078  0.86690  0.20992  Biso   1.000  H
  O119     1.0000 0.60577  0.16691  0.76223  Biso   1.000  O
  N256     1.0000 0.67398  0.14690  0.86677  Biso   1.000  N
  H359     1.0000 0.67132  0.23658  0.00848  Biso   1.000  H
  C360     1.0000 0.69702  0.16605  0.95882  Biso   1.000  C
  O120     1.0000 0.66911  0.11900  0.19962  Biso   1.000  O
  N257     1.0000 0.70088  0.13003  0.03914  Biso   1.000  N
  C361     1.0000 0.33031  0.85897  0.88107  Biso   1.000  C
  C362     1.0000 0.30298  0.83395  0.04118  Biso   1.000  C
  C363     1.0000 0.36942  0.82842  0.15889  Biso   1.000  C
  C364     1.0000 0.70459  0.11930  0.79213  Biso   1.000  C
  H360     1.0000 0.73021  0.18239  0.94557  Biso   1.000  H
  C365     1.0000 0.74262  0.09391  0.04640  Biso   1.000  C
  O121     1.0000 0.33089  0.88100  0.80038  Biso   1.000  O
  N258     1.0000 0.36068  0.81895  0.90810  Biso   1.000  N
  H361     1.0000 0.26979  0.81761  0.05443  Biso   1.000  H
  C366     1.0000 0.34348  0.79670  0.00212  Biso   1.000  C
  O122     1.0000 0.39423  0.83309  0.23777  Biso   1.000  O
  N259     1.0000 0.38178  0.79659  0.08138  Biso   1.000  N
  N260     1.0000 0.70764  0.06664  0.81393  Biso   1.000  N
  H362     1.0000 0.68929  0.12379  0.72566  Biso   1.000  H
  H363     1.0000 0.73922  0.13310  0.79008  Biso   1.000  H
  H364     1.0000 0.77431  0.10939  0.02316  Biso   1.000  H
  H365     1.0000 0.74729  0.08471  0.11681  Biso   1.000  H
  N261     1.0000 0.73350  0.04888  0.98774  Biso   1.000  N
  C367     1.0000 0.38858  0.79031  0.83263  Biso   1.000  C
  H366     1.0000 0.32868  0.76342  0.99152  Biso   1.000  H
  C368     1.0000 0.42252  0.76031  0.08902  Biso   1.000  C
  C369     1.0000 0.68121  0.03179  0.75829  Biso   1.000  C
  C370     1.0000 0.74548  0.04499  0.88092  Biso   1.000  C
  C371     1.0000 0.72820  0.00352  0.03270  Biso   1.000  C
  N262     1.0000 0.44365  0.78986  0.84996  Biso   1.000  N
  H367     1.0000 0.38178  0.80441  0.76624  Biso   1.000  H
  H368     1.0000 0.37591  0.75620  0.83278  Biso   1.000  H
  N263     1.0000 0.44365  0.78986  0.85004  Biso   1.000  N
  N264     1.0000 0.46642  0.77063  0.02400  Biso   1.000  N
  H369     1.0000 0.43442  0.75900  0.15867  Biso   1.000  H
  H370     1.0000 0.40880  0.72759  0.07199  Biso   1.000  H
  N265     1.0000 0.69659  0.98508  0.79107  Biso   1.000  N
  O123     1.0000 0.64998  0.04035  0.69288  Biso   1.000  O
  C372     1.0000 0.73980  0.98803  0.85973  Biso   1.000  C
  H371     1.0000 0.78041  0.05700  0.86593  Biso   1.000  H
  N266     1.0000 0.72921  0.96724  0.95958  Biso   1.000  N
  O124     1.0000 0.72411  0.99577  0.12279  Biso   1.000  O
  C373     1.0000 0.46932  0.75530  0.91862  Biso   1.000  C
  C374     1.0000 0.47751  0.81016  0.78160  Biso   1.000  C
  C375     1.0000 0.51349  0.78339  0.06192  Biso   1.000  C
  C376     1.0000 0.68890  0.94158  0.72824  Biso   1.000  C
  H372     1.0000 0.77129  0.97390  0.82998  Biso   1.000  H
  C377     1.0000 0.73261  0.91511  0.98266  Biso   1.000  C
  H373     1.0000 0.45761  0.72078  0.90893  Biso   1.000  H
  C378     1.0000 0.52690  0.76158  0.89258  Biso   1.000  C
  O125     1.0000 0.46630  0.83567  0.70863  Biso   1.000  O
  N267     1.0000 0.52690  0.79565  0.80863  Biso   1.000  N
  N268     1.0000 0.54912  0.78245  0.98592  Biso   1.000  N
  O126     1.0000 0.52269  0.79449  0.15087  Biso   1.000  O
  H374     1.0000 0.72229  0.92838  0.70840  Biso   1.000  H
  H375     1.0000 0.67081  0.95161  0.66699  Biso   1.000  H
  N269     1.0000 0.65968  0.90261  0.77782  Biso   1.000  N
  H376     1.0000 0.76372  0.90179  0.95193  Biso   1.000  H
  N270     1.0000 0.68890  0.88631  0.94860  Biso   1.000  N
  H377     1.0000 0.73601  0.91129  0.05549  Biso   1.000  H
  H378     1.0000 0.54290  0.72961  0.87456  Biso   1.000  H
  C379     1.0000 0.57061  0.80220  0.74186  Biso   1.000  C
  C380     1.0000 0.60280  0.78410  0.00462  Biso   1.000  C
  C381     1.0000 0.61729  0.88208  0.73399  Biso   1.000  C
  C382     1.0000 0.68488  0.86791  0.84428  Biso   1.000  C
  C383     1.0000 0.65740  0.86062  0.01173  Biso   1.000  C
  N271     1.0000 0.60740  0.83791  0.78092  Biso   1.000  N
  H379     1.0000 0.55839  0.81349  0.67631  Biso   1.000  H
  H380     1.0000 0.58769  0.77030  0.73240  Biso   1.000  H
  N272     1.0000 0.62919  0.82647  0.95678  Biso   1.000  N
  H381     1.0000 0.61822  0.75328  0.98039  Biso   1.000  H
  H382     1.0000 0.60840  0.78582  0.07721  Biso   1.000  H
  O127     1.0000 0.59120  0.90101  0.66488  Biso   1.000  O
  C384     1.0000 0.64620  0.82471  0.85238  Biso   1.000  C
  H383     1.0000 0.71831  0.85680  0.81756  Biso   1.000  H
  O128     1.0000 0.65288  0.86742  0.10333  Biso   1.000  O
  H384     1.0000 0.66220  0.79259  0.83588  Biso   1.000  H
  O129     1.0000 0.15288  0.13258  0.39667  Biso   1.000  O
  C385     1.0000 0.15740  0.13938  0.48827  Biso   1.000  C
  N273     1.0000 0.18890  0.11369  0.55140  Biso   1.000  N
  N274     1.0000 0.12919  0.17353  0.54322  Biso   1.000  N
  C386     1.0000 0.23261  0.08489  0.51734  Biso   1.000  C
  C387     1.0000 0.18488  0.13209  0.65572  Biso   1.000  C
  C388     1.0000 0.14620  0.17529  0.64762  Biso   1.000  C
  C389     1.0000 0.10280  0.21590  0.49538  Biso   1.000  C
  N275     1.0000 0.22921  0.03276  0.54042  Biso   1.000  N
  H385     1.0000 0.23601  0.08871  0.44451  Biso   1.000  H
  H386     1.0000 0.26372  0.09821  0.54807  Biso   1.000  H
  N276     1.0000 0.15968  0.09739  0.72218  Biso   1.000  N
  H387     1.0000 0.21831  0.14320  0.68244  Biso   1.000  H
  N277     1.0000 0.10740  0.16209  0.71908  Biso   1.000  N
  H388     1.0000 0.16220  0.20741  0.66412  Biso   1.000  H
  N278     1.0000 0.04912  0.21755  0.51408  Biso   1.000  N
  H389     1.0000 0.10840  0.21418  0.42279  Biso   1.000  H
  H390     1.0000 0.11822  0.24672  0.51961  Biso   1.000  H
  C390     1.0000 0.23980  0.01197  0.64027  Biso   1.000  C
  C391     1.0000 0.22820  0.99648  0.46730  Biso   1.000  C
  C392     1.0000 0.18890  0.05842  0.77176  Biso   1.000  C
  C393     1.0000 0.11729  0.11792  0.76601  Biso   1.000  C
  C394     1.0000 0.07061  0.19780  0.75814  Biso   1.000  C
  C395     1.0000 0.01349  0.21661  0.43808  Biso   1.000  C
  C396     1.0000 0.02690  0.23842  0.60742  Biso   1.000  C
  N279     1.0000 0.19659  0.01492  0.70893  Biso   1.000  N
  H391     1.0000 0.27129  0.02610  0.67002  Biso   1.000  H
  C397     1.0000 0.24548  0.95501  0.61908  Biso   1.000  C
  O130     1.0000 0.22411  0.00423  0.37721  Biso   1.000  O
  N280     1.0000 0.23350  0.95112  0.51226  Biso   1.000  N
  H392     1.0000 0.22229  0.07162  0.79160  Biso   1.000  H
  H393     1.0000 0.17081  0.04839  0.83301  Biso   1.000  H
  O131     1.0000 0.09120  0.09899  0.83512  Biso   1.000  O
  N281     1.0000 0.02690  0.20435  0.69137  Biso   1.000  N
  H394     1.0000 0.05839  0.18651  0.82369  Biso   1.000  H
  H395     1.0000 0.08769  0.22970  0.76760  Biso   1.000  H
  O132     1.0000 0.02269  0.20551  0.34913  Biso   1.000  O
  N282     1.0000 0.96642  0.22937  0.47600  Biso   1.000  N
  H396     1.0000 0.04290  0.27039  0.62544  Biso   1.000  H
  C398     1.0000 0.96932  0.24470  0.58138  Biso   1.000  C
  C399     1.0000 0.18121  0.96821  0.74171  Biso   1.000  C
  N283     1.0000 0.20764  0.93336  0.68607  Biso   1.000  N
  H397     1.0000 0.28041  0.94300  0.63407  Biso   1.000  H
  C400     1.0000 0.24262  0.90609  0.45360  Biso   1.000  C
  C401     1.0000 0.97751  0.18984  0.71840  Biso   1.000  C
  C402     1.0000 0.92252  0.23969  0.41098  Biso   1.000  C
  N284     1.0000 0.94365  0.21014  0.65004  Biso   1.000  N
  H398     1.0000 0.95761  0.27922  0.59107  Biso   1.000  H
  O133     1.0000 0.14998  0.95965  0.80712  Biso   1.000  O
  C403     1.0000 0.20459  0.88070  0.70787  Biso   1.000  C
  N285     1.0000 0.20088  0.86997  0.46086  Biso   1.000  N
  H399     1.0000 0.27431  0.89061  0.47684  Biso   1.000  H
  H400     1.0000 0.24729  0.91529  0.38319  Biso   1.000  H
  O134     1.0000 0.96630  0.16433  0.79137  Biso   1.000  O
  N286     1.0000 0.88178  0.20341  0.41862  Biso   1.000  N
  H401     1.0000 0.93442  0.24100  0.34133  Biso   1.000  H
  H402     1.0000 0.90880  0.27241  0.42801  Biso   1.000  H
  C404     1.0000 0.88858  0.20969  0.66737  Biso   1.000  C
  N287     1.0000 0.17398  0.85310  0.63323  Biso   1.000  N
  H403     1.0000 0.18929  0.87621  0.77434  Biso   1.000  H
  H404     1.0000 0.23922  0.86690  0.70992  Biso   1.000  H
  C405     1.0000 0.19702  0.83395  0.54118  Biso   1.000  C
  C406     1.0000 0.16969  0.85897  0.38107  Biso   1.000  C
  C407     1.0000 0.86942  0.17158  0.34111  Biso   1.000  C
  C408     1.0000 0.84348  0.20330  0.49788  Biso   1.000  C
  N288     1.0000 0.86068  0.18105  0.59190  Biso   1.000  N
  H405     1.0000 0.88178  0.19559  0.73376  Biso   1.000  H
  H406     1.0000 0.87591  0.24380  0.66722  Biso   1.000  H
  C409     1.0000 0.13058  0.82842  0.65889  Biso   1.000  C
  H407     1.0000 0.23021  0.81761  0.55443  Biso   1.000  H
  C410     1.0000 0.15652  0.79670  0.50212  Biso   1.000  C
  O135     1.0000 0.16911  0.88100  0.30038  Biso   1.000  O
  N289     1.0000 0.13932  0.81895  0.40810  Biso   1.000  N
  O136     1.0000 0.89423  0.16691  0.26223  Biso   1.000  O
  N290     1.0000 0.82602  0.14690  0.36677  Biso   1.000  N
  C411     1.0000 0.80298  0.16605  0.45882  Biso   1.000  C
  H408     1.0000 0.82868  0.23658  0.50848  Biso   1.000  H
  C412     1.0000 0.83031  0.14103  0.61893  Biso   1.000  C
  O137     1.0000 0.10577  0.83309  0.73777  Biso   1.000  O
  N291     1.0000 0.11822  0.79659  0.58138  Biso   1.000  N
  H409     1.0000 0.17132  0.76342  0.49152  Biso   1.000  H
  C413     1.0000 0.11142  0.79031  0.33263  Biso   1.000  C
  C414     1.0000 0.79541  0.11930  0.29213  Biso   1.000  C
  N292     1.0000 0.79912  0.13003  0.53914  Biso   1.000  N
  H410     1.0000 0.76979  0.18239  0.44557  Biso   1.000  H
  O138     1.0000 0.83089  0.11900  0.69962  Biso   1.000  O
  C415     1.0000 0.07748  0.76031  0.58902  Biso   1.000  C
  N293     1.0000 0.05635  0.78986  0.34996  Biso   1.000  N
  H411     1.0000 0.11822  0.80441  0.26624  Biso   1.000  H
  H412     1.0000 0.12409  0.75620  0.33278  Biso   1.000  H
  N294     1.0000 0.79236  0.06664  0.31393  Biso   1.000  N
  H413     1.0000 0.81071  0.12379  0.22566  Biso   1.000  H
  H414     1.0000 0.76078  0.13310  0.29008  Biso   1.000  H
  C416     1.0000 0.75738  0.09391  0.54640  Biso   1.000  C
  N295     1.0000 0.03358  0.77063  0.52400  Biso   1.000  N
  H415     1.0000 0.06558  0.75900  0.65867  Biso   1.000  H
  H416     1.0000 0.09120  0.72759  0.57199  Biso   1.000  H
  C417     1.0000 0.03068  0.75530  0.41862  Biso   1.000  C
  C418     1.0000 0.02249  0.81016  0.28160  Biso   1.000  C
  C419     1.0000 0.81879  0.03179  0.25829  Biso   1.000  C
  C420     1.0000 0.75452  0.04499  0.38092  Biso   1.000  C
  N296     1.0000 0.76650  0.04888  0.48774  Biso   1.000  N
  H417     1.0000 0.72569  0.10939  0.52316  Biso   1.000  H
  H418     1.0000 0.75271  0.08471  0.61681  Biso   1.000  H
  C421     1.0000 0.98651  0.78339  0.56192  Biso   1.000  C
  C422     1.0000 0.97310  0.76158  0.39258  Biso   1.000  C
  H419     1.0000 0.04239  0.72078  0.40893  Biso   1.000  H
  N297     1.0000 0.97310  0.79565  0.30863  Biso   1.000  N
  O139     1.0000 0.03370  0.83567  0.20863  Biso   1.000  O
  N298     1.0000 0.80341  0.98508  0.29107  Biso   1.000  N
  O140     1.0000 0.85002  0.04035  0.19288  Biso   1.000  O
  C423     1.0000 0.76020  0.98803  0.35973  Biso   1.000  C
  H420     1.0000 0.71959  0.05700  0.36593  Biso   1.000  H
  C424     1.0000 0.77180  0.00352  0.53270  Biso   1.000  C
  O141     1.0000 0.97731  0.79449  0.65087  Biso   1.000  O
  N299     1.0000 0.95088  0.78245  0.48592  Biso   1.000  N
  H421     1.0000 0.95710  0.72961  0.37456  Biso   1.000  H
  C425     1.0000 0.92939  0.80220  0.24186  Biso   1.000  C
  C426     1.0000 0.81110  0.94158  0.22824  Biso   1.000  C
  N300     1.0000 0.77079  0.96724  0.45958  Biso   1.000  N
  H422     1.0000 0.72871  0.97390  0.32998  Biso   1.000  H
  O142     1.0000 0.77589  0.99577  0.62279  Biso   1.000  O
  C427     1.0000 0.89720  0.78410  0.50462  Biso   1.000  C
  N301     1.0000 0.89260  0.83791  0.28092  Biso   1.000  N
  H423     1.0000 0.94161  0.81349  0.17631  Biso   1.000  H
  H424     1.0000 0.91231  0.77030  0.23240  Biso   1.000  H
  N302     1.0000 0.84032  0.90261  0.27782  Biso   1.000  N
  H425     1.0000 0.77771  0.92838  0.20840  Biso   1.000  H
  H426     1.0000 0.82919  0.95161  0.16699  Biso   1.000  H
  C428     1.0000 0.76739  0.91511  0.48266  Biso   1.000  C
  N303     1.0000 0.87081  0.82647  0.45678  Biso   1.000  N
  H427     1.0000 0.89160  0.78582  0.57721  Biso   1.000  H
  H428     1.0000 0.88178  0.75328  0.48039  Biso   1.000  H
  C429     1.0000 0.85380  0.82471  0.35238  Biso   1.000  C
  C430     1.0000 0.88271  0.88208  0.23399  Biso   1.000  C
  C431     1.0000 0.81512  0.86791  0.34428  Biso   1.000  C
  N304     1.0000 0.81110  0.88631  0.44860  Biso   1.000  N
  H429     1.0000 0.76399  0.91129  0.55549  Biso   1.000  H
  H430     1.0000 0.73628  0.90179  0.45193  Biso   1.000  H
  C432     1.0000 0.84260  0.86062  0.51173  Biso   1.000  C
  H431     1.0000 0.83780  0.79259  0.33588  Biso   1.000  H
  O143     1.0000 0.90880  0.90101  0.16488  Biso   1.000  O
  H432     1.0000 0.78169  0.85680  0.31756  Biso   1.000  H
  O144     1.0000 0.84712  0.86742  0.60333  Biso   1.000  O
  O145     1.0000 0.15288  0.13258  0.39667  Biso   1.000  O
  C433     1.0000 0.15740  0.13938  0.48827  Biso   1.000  C
  N305     1.0000 0.18890  0.11369  0.55140  Biso   1.000  N
  N306     1.0000 0.12919  0.17353  0.54322  Biso   1.000  N
  C434     1.0000 0.23261  0.08489  0.51734  Biso   1.000  C
  C435     1.0000 0.18488  0.13209  0.65572  Biso   1.000  C
  C436     1.0000 0.14620  0.17529  0.64762  Biso   1.000  C
  C437     1.0000 0.10280  0.21590  0.49538  Biso   1.000  C
  N307     1.0000 0.22921  0.03276  0.54042  Biso   1.000  N
  H433     1.0000 0.23601  0.08871  0.44451  Biso   1.000  H
  H434     1.0000 0.26372  0.09821  0.54807  Biso   1.000  H
  N308     1.0000 0.15968  0.09739  0.72218  Biso   1.000  N
  H435     1.0000 0.21831  0.14320  0.68244  Biso   1.000  H
  N309     1.0000 0.10740  0.16209  0.71908  Biso   1.000  N
  H436     1.0000 0.16220  0.20741  0.66412  Biso   1.000  H
  N310     1.0000 0.04912  0.21755  0.51408  Biso   1.000  N
  H437     1.0000 0.10840  0.21418  0.42279  Biso   1.000  H
  H438     1.0000 0.11822  0.24672  0.51961  Biso   1.000  H
  C438     1.0000 0.23980  0.01197  0.64027  Biso   1.000  C
  C439     1.0000 0.22820  0.99648  0.46730  Biso   1.000  C
  C440     1.0000 0.18890  0.05842  0.77176  Biso   1.000  C
  C441     1.0000 0.11729  0.11792  0.76601  Biso   1.000  C
  C442     1.0000 0.07061  0.19780  0.75814  Biso   1.000  C
  C443     1.0000 0.01349  0.21661  0.43808  Biso   1.000  C
  C444     1.0000 0.02690  0.23842  0.60742  Biso   1.000  C
  N311     1.0000 0.19659  0.01492  0.70893  Biso   1.000  N
  H439     1.0000 0.27129  0.02610  0.67002  Biso   1.000  H
  C445     1.0000 0.24548  0.95501  0.61908  Biso   1.000  C
  O146     1.0000 0.22411  0.00423  0.37721  Biso   1.000  O
  N312     1.0000 0.23350  0.95112  0.51226  Biso   1.000  N
  H440     1.0000 0.22229  0.07162  0.79160  Biso   1.000  H
  H441     1.0000 0.17081  0.04839  0.83301  Biso   1.000  H
  O147     1.0000 0.09120  0.09899  0.83512  Biso   1.000  O
  N313     1.0000 0.02690  0.20435  0.69137  Biso   1.000  N
  H442     1.0000 0.05839  0.18651  0.82369  Biso   1.000  H
  H443     1.0000 0.08769  0.22970  0.76760  Biso   1.000  H
  O148     1.0000 0.02269  0.20551  0.34913  Biso   1.000  O
  N314     1.0000 0.96642  0.22937  0.47600  Biso   1.000  N
  H444     1.0000 0.04290  0.27039  0.62544  Biso   1.000  H
  C446     1.0000 0.96932  0.24470  0.58138  Biso   1.000  C
  C447     1.0000 0.18121  0.96821  0.74171  Biso   1.000  C
  N315     1.0000 0.20764  0.93336  0.68607  Biso   1.000  N
  H445     1.0000 0.28041  0.94300  0.63407  Biso   1.000  H
  C448     1.0000 0.24262  0.90609  0.45360  Biso   1.000  C
  C449     1.0000 0.97751  0.18984  0.71840  Biso   1.000  C
  C450     1.0000 0.92252  0.23969  0.41098  Biso   1.000  C
  N316     1.0000 0.94365  0.21014  0.65004  Biso   1.000  N
  H446     1.0000 0.95761  0.27922  0.59107  Biso   1.000  H
  O149     1.0000 0.14998  0.95965  0.80712  Biso   1.000  O
  C451     1.0000 0.20459  0.88070  0.70787  Biso   1.000  C
  N317     1.0000 0.20088  0.86997  0.46086  Biso   1.000  N
  H447     1.0000 0.27431  0.89061  0.47684  Biso   1.000  H
  H448     1.0000 0.24729  0.91529  0.38319  Biso   1.000  H
  O150     1.0000 0.96630  0.16433  0.79137  Biso   1.000  O
  N318     1.0000 0.88178  0.20341  0.41862  Biso   1.000  N
  H449     1.0000 0.93442  0.24100  0.34133  Biso   1.000  H
  H450     1.0000 0.90880  0.27241  0.42801  Biso   1.000  H
  C452     1.0000 0.88858  0.20969  0.66737  Biso   1.000  C
  N319     1.0000 0.17398  0.85310  0.63323  Biso   1.000  N
  H451     1.0000 0.18929  0.87621  0.77434  Biso   1.000  H
  H452     1.0000 0.23922  0.86690  0.70992  Biso   1.000  H
  C453     1.0000 0.19702  0.83395  0.54118  Biso   1.000  C
  C454     1.0000 0.16969  0.85897  0.38107  Biso   1.000  C
  C455     1.0000 0.86942  0.17158  0.34111  Biso   1.000  C
  C456     1.0000 0.84348  0.20330  0.49788  Biso   1.000  C
  N320     1.0000 0.86068  0.18105  0.59190  Biso   1.000  N
  H453     1.0000 0.88178  0.19559  0.73376  Biso   1.000  H
  H454     1.0000 0.87591  0.24380  0.66722  Biso   1.000  H
  C457     1.0000 0.13058  0.82842  0.65889  Biso   1.000  C
  H455     1.0000 0.23021  0.81761  0.55443  Biso   1.000  H
  C458     1.0000 0.15652  0.79670  0.50212  Biso   1.000  C
  O151     1.0000 0.16911  0.88100  0.30038  Biso   1.000  O
  N321     1.0000 0.13932  0.81895  0.40810  Biso   1.000  N
  O152     1.0000 0.89423  0.16691  0.26223  Biso   1.000  O
  N322     1.0000 0.82602  0.14690  0.36677  Biso   1.000  N
  C459     1.0000 0.80298  0.16605  0.45882  Biso   1.000  C
  H456     1.0000 0.82868  0.23658  0.50848  Biso   1.000  H
  C460     1.0000 0.83031  0.14103  0.61893  Biso   1.000  C
  O153     1.0000 0.10577  0.83309  0.73777  Biso   1.000  O
  N323     1.0000 0.11822  0.79659  0.58138  Biso   1.000  N
  H457     1.0000 0.17132  0.76342  0.49152  Biso   1.000  H
  C461     1.0000 0.11142  0.79031  0.33263  Biso   1.000  C
  C462     1.0000 0.79541  0.11930  0.29213  Biso   1.000  C
  N324     1.0000 0.79912  0.13003  0.53914  Biso   1.000  N
  H458     1.0000 0.76979  0.18239  0.44557  Biso   1.000  H
  O154     1.0000 0.83089  0.11900  0.69962  Biso   1.000  O
  C463     1.0000 0.07748  0.76031  0.58902  Biso   1.000  C
  N325     1.0000 0.05635  0.78986  0.34996  Biso   1.000  N
  H459     1.0000 0.11822  0.80441  0.26624  Biso   1.000  H
  H460     1.0000 0.12409  0.75620  0.33278  Biso   1.000  H
  N326     1.0000 0.79236  0.06664  0.31393  Biso   1.000  N
  H461     1.0000 0.81071  0.12379  0.22566  Biso   1.000  H
  H462     1.0000 0.76078  0.13310  0.29008  Biso   1.000  H
  C464     1.0000 0.75738  0.09391  0.54640  Biso   1.000  C
  N327     1.0000 0.03358  0.77063  0.52400  Biso   1.000  N
  H463     1.0000 0.06558  0.75900  0.65867  Biso   1.000  H
  H464     1.0000 0.09120  0.72759  0.57199  Biso   1.000  H
  C465     1.0000 0.03068  0.75530  0.41862  Biso   1.000  C
  C466     1.0000 0.02249  0.81016  0.28160  Biso   1.000  C
  C467     1.0000 0.81879  0.03179  0.25829  Biso   1.000  C
  C468     1.0000 0.75452  0.04499  0.38092  Biso   1.000  C
  N328     1.0000 0.76650  0.04888  0.48774  Biso   1.000  N
  H465     1.0000 0.72569  0.10939  0.52316  Biso   1.000  H
  H466     1.0000 0.75271  0.08471  0.61681  Biso   1.000  H
  C469     1.0000 0.98651  0.78339  0.56192  Biso   1.000  C
  C470     1.0000 0.97310  0.76158  0.39258  Biso   1.000  C
  H467     1.0000 0.04239  0.72078  0.40893  Biso   1.000  H
  N329     1.0000 0.97310  0.79565  0.30863  Biso   1.000  N
  O155     1.0000 0.03370  0.83567  0.20863  Biso   1.000  O
  N330     1.0000 0.80341  0.98508  0.29107  Biso   1.000  N
  O156     1.0000 0.85002  0.04035  0.19288  Biso   1.000  O
  C471     1.0000 0.76020  0.98803  0.35973  Biso   1.000  C
  H468     1.0000 0.71959  0.05700  0.36593  Biso   1.000  H
  C472     1.0000 0.77180  0.00352  0.53270  Biso   1.000  C
  O157     1.0000 0.97731  0.79449  0.65087  Biso   1.000  O
  N331     1.0000 0.95088  0.78245  0.48592  Biso   1.000  N
  H469     1.0000 0.95710  0.72961  0.37456  Biso   1.000  H
  C473     1.0000 0.92939  0.80220  0.24186  Biso   1.000  C
  C474     1.0000 0.81110  0.94158  0.22824  Biso   1.000  C
  N332     1.0000 0.77079  0.96724  0.45958  Biso   1.000  N
  H470     1.0000 0.72871  0.97390  0.32998  Biso   1.000  H
  O158     1.0000 0.77589  0.99577  0.62279  Biso   1.000  O
  C475     1.0000 0.89720  0.78410  0.50462  Biso   1.000  C
  N333     1.0000 0.89260  0.83791  0.28092  Biso   1.000  N
  H471     1.0000 0.94161  0.81349  0.17631  Biso   1.000  H
  H472     1.0000 0.91231  0.77030  0.23240  Biso   1.000  H
  N334     1.0000 0.84032  0.90261  0.27782  Biso   1.000  N
  H473     1.0000 0.77771  0.92838  0.20840  Biso   1.000  H
  H474     1.0000 0.82919  0.95161  0.16699  Biso   1.000  H
  C476     1.0000 0.76739  0.91511  0.48266  Biso   1.000  C
  N335     1.0000 0.87081  0.82647  0.45678  Biso   1.000  N
  H475     1.0000 0.89160  0.78582  0.57721  Biso   1.000  H
  H476     1.0000 0.88178  0.75328  0.48039  Biso   1.000  H
  C477     1.0000 0.85380  0.82471  0.35238  Biso   1.000  C
  C478     1.0000 0.88271  0.88208  0.23399  Biso   1.000  C
  C479     1.0000 0.81512  0.86791  0.34428  Biso   1.000  C
  N336     1.0000 0.81110  0.88631  0.44860  Biso   1.000  N
  H477     1.0000 0.76399  0.91129  0.55549  Biso   1.000  H
  H478     1.0000 0.73628  0.90179  0.45193  Biso   1.000  H
  C480     1.0000 0.84260  0.86062  0.51173  Biso   1.000  C
  H479     1.0000 0.83780  0.79259  0.33588  Biso   1.000  H
  O159     1.0000 0.90880  0.90101  0.16488  Biso   1.000  O
  H480     1.0000 0.78169  0.85680  0.31756  Biso   1.000  H
  O160     1.0000 0.84712  0.86742  0.60333  Biso   1.000  O
  O161     1.0000 0.15288  0.13258  0.39667  Biso   1.000  O
  C481     1.0000 0.15740  0.13938  0.48827  Biso   1.000  C
  N337     1.0000 0.18890  0.11369  0.55140  Biso   1.000  N
  N338     1.0000 0.12919  0.17353  0.54322  Biso   1.000  N
  C482     1.0000 0.23261  0.08489  0.51734  Biso   1.000  C
  C483     1.0000 0.18488  0.13209  0.65572  Biso   1.000  C
  C484     1.0000 0.14620  0.17529  0.64762  Biso   1.000  C
  C485     1.0000 0.10280  0.21590  0.49538  Biso   1.000  C
  N339     1.0000 0.22921  0.03276  0.54042  Biso   1.000  N
  H481     1.0000 0.23601  0.08871  0.44451  Biso   1.000  H
  H482     1.0000 0.26372  0.09821  0.54807  Biso   1.000  H
  N340     1.0000 0.15968  0.09739  0.72218  Biso   1.000  N
  H483     1.0000 0.21831  0.14320  0.68244  Biso   1.000  H
  N341     1.0000 0.10740  0.16209  0.71908  Biso   1.000  N
  H484     1.0000 0.16220  0.20741  0.66412  Biso   1.000  H
  N342     1.0000 0.04912  0.21755  0.51408  Biso   1.000  N
  H485     1.0000 0.10840  0.21418  0.42279  Biso   1.000  H
  H486     1.0000 0.11822  0.24672  0.51961  Biso   1.000  H
  C486     1.0000 0.23980  0.01197  0.64027  Biso   1.000  C
  C487     1.0000 0.22820  0.99648  0.46730  Biso   1.000  C
  C488     1.0000 0.18890  0.05842  0.77176  Biso   1.000  C
  C489     1.0000 0.11729  0.11792  0.76601  Biso   1.000  C
  C490     1.0000 0.07061  0.19780  0.75814  Biso   1.000  C
  C491     1.0000 0.01349  0.21661  0.43808  Biso   1.000  C
  C492     1.0000 0.02690  0.23842  0.60742  Biso   1.000  C
  N343     1.0000 0.19659  0.01492  0.70893  Biso   1.000  N
  H487     1.0000 0.27129  0.02610  0.67002  Biso   1.000  H
  C493     1.0000 0.24548  0.95501  0.61908  Biso   1.000  C
  O162     1.0000 0.22411  0.00423  0.37721  Biso   1.000  O
  N344     1.0000 0.23350  0.95112  0.51226  Biso   1.000  N
  H488     1.0000 0.22229  0.07162  0.79160  Biso   1.000  H
  H489     1.0000 0.17081  0.04839  0.83301  Biso   1.000  H
  O163     1.0000 0.09120  0.09899  0.83512  Biso   1.000  O
  N345     1.0000 0.02690  0.20435  0.69137  Biso   1.000  N
  H490     1.0000 0.05839  0.18651  0.82369  Biso   1.000  H
  H491     1.0000 0.08769  0.22970  0.76760  Biso   1.000  H
  O164     1.0000 0.02269  0.20551  0.34913  Biso   1.000  O
  N346     1.0000 0.96642  0.22937  0.47600  Biso   1.000  N
  H492     1.0000 0.04290  0.27039  0.62544  Biso   1.000  H
  C494     1.0000 0.96932  0.24470  0.58138  Biso   1.000  C
  C495     1.0000 0.18121  0.96821  0.74171  Biso   1.000  C
  N347     1.0000 0.20764  0.93336  0.68607  Biso   1.000  N
  H493     1.0000 0.28041  0.94300  0.63407  Biso   1.000  H
  C496     1.0000 0.24262  0.90609  0.45360  Biso   1.000  C
  C497     1.0000 0.97751  0.18984  0.71840  Biso   1.000  C
  C498     1.0000 0.92252  0.23969  0.41098  Biso   1.000  C
  N348     1.0000 0.94365  0.21014  0.65004  Biso   1.000  N
  H494     1.0000 0.95761  0.27922  0.59107  Biso   1.000  H
  O165     1.0000 0.14998  0.95965  0.80712  Biso   1.000  O
  C499     1.0000 0.20459  0.88070  0.70787  Biso   1.000  C
  N349     1.0000 0.20088  0.86997  0.46086  Biso   1.000  N
  H495     1.0000 0.27431  0.89061  0.47684  Biso   1.000  H
  H496     1.0000 0.24729  0.91529  0.38319  Biso   1.000  H
  O166     1.0000 0.96630  0.16433  0.79137  Biso   1.000  O
  N350     1.0000 0.88178  0.20341  0.41862  Biso   1.000  N
  H497     1.0000 0.93442  0.24100  0.34133  Biso   1.000  H
  H498     1.0000 0.90880  0.27241  0.42801  Biso   1.000  H
  C500     1.0000 0.88858  0.20969  0.66737  Biso   1.000  C
  N351     1.0000 0.17398  0.85310  0.63323  Biso   1.000  N
  H499     1.0000 0.18929  0.87621  0.77434  Biso   1.000  H
  H500     1.0000 0.23922  0.86690  0.70992  Biso   1.000  H
  C501     1.0000 0.19702  0.83395  0.54118  Biso   1.000  C
  C502     1.0000 0.16969  0.85897  0.38107  Biso   1.000  C
  C503     1.0000 0.86942  0.17158  0.34111  Biso   1.000  C
  C504     1.0000 0.84348  0.20330  0.49788  Biso   1.000  C
  N352     1.0000 0.86068  0.18105  0.59190  Biso   1.000  N
  H501     1.0000 0.88178  0.19559  0.73376  Biso   1.000  H
  H502     1.0000 0.87591  0.24380  0.66722  Biso   1.000  H
  C505     1.0000 0.13058  0.82842  0.65889  Biso   1.000  C
  H503     1.0000 0.23021  0.81761  0.55443  Biso   1.000  H
  C506     1.0000 0.15652  0.79670  0.50212  Biso   1.000  C
  O167     1.0000 0.16911  0.88100  0.30038  Biso   1.000  O
  N353     1.0000 0.13932  0.81895  0.40810  Biso   1.000  N
  O168     1.0000 0.89423  0.16691  0.26223  Biso   1.000  O
  N354     1.0000 0.82602  0.14690  0.36677  Biso   1.000  N
  C507     1.0000 0.80298  0.16605  0.45882  Biso   1.000  C
  H504     1.0000 0.82868  0.23658  0.50848  Biso   1.000  H
  C508     1.0000 0.83031  0.14103  0.61893  Biso   1.000  C
  O169     1.0000 0.10577  0.83309  0.73777  Biso   1.000  O
  N355     1.0000 0.11822  0.79659  0.58138  Biso   1.000  N
  H505     1.0000 0.17132  0.76342  0.49152  Biso   1.000  H
  C509     1.0000 0.11142  0.79031  0.33263  Biso   1.000  C
  C510     1.0000 0.79541  0.11930  0.29213  Biso   1.000  C
  N356     1.0000 0.79912  0.13003  0.53914  Biso   1.000  N
  H506     1.0000 0.76979  0.18239  0.44557  Biso   1.000  H
  O170     1.0000 0.83089  0.11900  0.69962  Biso   1.000  O
  C511     1.0000 0.07748  0.76031  0.58902  Biso   1.000  C
  N357     1.0000 0.05635  0.78986  0.34996  Biso   1.000  N
  H507     1.0000 0.11822  0.80441  0.26624  Biso   1.000  H
  H508     1.0000 0.12409  0.75620  0.33278  Biso   1.000  H
  N358     1.0000 0.79236  0.06664  0.31393  Biso   1.000  N
  H509     1.0000 0.81071  0.12379  0.22566  Biso   1.000  H
  H510     1.0000 0.76078  0.13310  0.29008  Biso   1.000  H
  C512     1.0000 0.75738  0.09391  0.54640  Biso   1.000  C
  N359     1.0000 0.03358  0.77063  0.52400  Biso   1.000  N
  H511     1.0000 0.06558  0.75900  0.65867  Biso   1.000  H
  H512     1.0000 0.09120  0.72759  0.57199  Biso   1.000  H
  C513     1.0000 0.03068  0.75530  0.41862  Biso   1.000  C
  C514     1.0000 0.02249  0.81016  0.28160  Biso   1.000  C
  C515     1.0000 0.81879  0.03179  0.25829  Biso   1.000  C
  C516     1.0000 0.75452  0.04499  0.38092  Biso   1.000  C
  N360     1.0000 0.76650  0.04888  0.48774  Biso   1.000  N
  H513     1.0000 0.72569  0.10939  0.52316  Biso   1.000  H
  H514     1.0000 0.75271  0.08471  0.61681  Biso   1.000  H
  C517     1.0000 0.98651  0.78339  0.56192  Biso   1.000  C
  C518     1.0000 0.97310  0.76158  0.39258  Biso   1.000  C
  H515     1.0000 0.04239  0.72078  0.40893  Biso   1.000  H
  N361     1.0000 0.97310  0.79565  0.30863  Biso   1.000  N
  O171     1.0000 0.03370  0.83567  0.20863  Biso   1.000  O
  N362     1.0000 0.80341  0.98508  0.29107  Biso   1.000  N
  O172     1.0000 0.85002  0.04035  0.19288  Biso   1.000  O
  C519     1.0000 0.76020  0.98803  0.35973  Biso   1.000  C
  H516     1.0000 0.71959  0.05700  0.36593  Biso   1.000  H
  C520     1.0000 0.77180  0.00352  0.53270  Biso   1.000  C
  O173     1.0000 0.97731  0.79449  0.65087  Biso   1.000  O
  N363     1.0000 0.95088  0.78245  0.48592  Biso   1.000  N
  H517     1.0000 0.95710  0.72961  0.37456  Biso   1.000  H
  C521     1.0000 0.92939  0.80220  0.24186  Biso   1.000  C
  C522     1.0000 0.81110  0.94158  0.22824  Biso   1.000  C
  N364     1.0000 0.77079  0.96724  0.45958  Biso   1.000  N
  H518     1.0000 0.72871  0.97390  0.32998  Biso   1.000  H
  O174     1.0000 0.77589  0.99577  0.62279  Biso   1.000  O
  C523     1.0000 0.89720  0.78410  0.50462  Biso   1.000  C
  N365     1.0000 0.89260  0.83791  0.28092  Biso   1.000  N
  H519     1.0000 0.94161  0.81349  0.17631  Biso   1.000  H
  H520     1.0000 0.91231  0.77030  0.23240  Biso   1.000  H
  N366     1.0000 0.84032  0.90261  0.27782  Biso   1.000  N
  H521     1.0000 0.77771  0.92838  0.20840  Biso   1.000  H
  H522     1.0000 0.82919  0.95161  0.16699  Biso   1.000  H
  C524     1.0000 0.76739  0.91511  0.48266  Biso   1.000  C
  N367     1.0000 0.87081  0.82647  0.45678  Biso   1.000  N
  H523     1.0000 0.89160  0.78582  0.57721  Biso   1.000  H
  H524     1.0000 0.88178  0.75328  0.48039  Biso   1.000  H
  C525     1.0000 0.85380  0.82471  0.35238  Biso   1.000  C
  C526     1.0000 0.88271  0.88208  0.23399  Biso   1.000  C
  C527     1.0000 0.81512  0.86791  0.34428  Biso   1.000  C
  N368     1.0000 0.81110  0.88631  0.44860  Biso   1.000  N
  H525     1.0000 0.76399  0.91129  0.55549  Biso   1.000  H
  H526     1.0000 0.73628  0.90179  0.45193  Biso   1.000  H
  C528     1.0000 0.84260  0.86062  0.51173  Biso   1.000  C
  H527     1.0000 0.83780  0.79259  0.33588  Biso   1.000  H
  O175     1.0000 0.90880  0.90101  0.16488  Biso   1.000  O
  H528     1.0000 0.78169  0.85680  0.31756  Biso   1.000  H
  O176     1.0000 0.84712  0.86742  0.60333  Biso   1.000  O
  O177     1.0000 0.15288  0.13258  0.39667  Biso   1.000  O
  C529     1.0000 0.15740  0.13938  0.48827  Biso   1.000  C
  N369     1.0000 0.18890  0.11369  0.55140  Biso   1.000  N
  N370     1.0000 0.12919  0.17353  0.54322  Biso   1.000  N
  C530     1.0000 0.23261  0.08489  0.51734  Biso   1.000  C
  C531     1.0000 0.18488  0.13209  0.65572  Biso   1.000  C
  C532     1.0000 0.14620  0.17529  0.64762  Biso   1.000  C
  C533     1.0000 0.10280  0.21590  0.49538  Biso   1.000  C
  N371     1.0000 0.22921  0.03276  0.54042  Biso   1.000  N
  H529     1.0000 0.23601  0.08871  0.44451  Biso   1.000  H
  H530     1.0000 0.26372  0.09821  0.54807  Biso   1.000  H
  N372     1.0000 0.15968  0.09739  0.72218  Biso   1.000  N
  H531     1.0000 0.21831  0.14320  0.68244  Biso   1.000  H
  N373     1.0000 0.10740  0.16209  0.71908  Biso   1.000  N
  H532     1.0000 0.16220  0.20741  0.66412  Biso   1.000  H
  N374     1.0000 0.04912  0.21755  0.51408  Biso   1.000  N
  H533     1.0000 0.10840  0.21418  0.42279  Biso   1.000  H
  H534     1.0000 0.11822  0.24672  0.51961  Biso   1.000  H
  C534     1.0000 0.23980  0.01197  0.64027  Biso   1.000  C
  C535     1.0000 0.22820  0.99648  0.46730  Biso   1.000  C
  C536     1.0000 0.18890  0.05842  0.77176  Biso   1.000  C
  C537     1.0000 0.11729  0.11792  0.76601  Biso   1.000  C
  C538     1.0000 0.07061  0.19780  0.75814  Biso   1.000  C
  C539     1.0000 0.01349  0.21661  0.43808  Biso   1.000  C
  C540     1.0000 0.02690  0.23842  0.60742  Biso   1.000  C
  N375     1.0000 0.19659  0.01492  0.70893  Biso   1.000  N
  H535     1.0000 0.27129  0.02610  0.67002  Biso   1.000  H
  C541     1.0000 0.24548  0.95501  0.61908  Biso   1.000  C
  O178     1.0000 0.22411  0.00423  0.37721  Biso   1.000  O
  N376     1.0000 0.23350  0.95112  0.51226  Biso   1.000  N
  H536     1.0000 0.22229  0.07162  0.79160  Biso   1.000  H
  H537     1.0000 0.17081  0.04839  0.83301  Biso   1.000  H
  O179     1.0000 0.09120  0.09899  0.83512  Biso   1.000  O
  N377     1.0000 0.02690  0.20435  0.69137  Biso   1.000  N
  H538     1.0000 0.05839  0.18651  0.82369  Biso   1.000  H
  H539     1.0000 0.08769  0.22970  0.76760  Biso   1.000  H
  O180     1.0000 0.02269  0.20551  0.34913  Biso   1.000  O
  N378     1.0000 0.96642  0.22937  0.47600  Biso   1.000  N
  H540     1.0000 0.04290  0.27039  0.62544  Biso   1.000  H
  C542     1.0000 0.96932  0.24470  0.58138  Biso   1.000  C
  C543     1.0000 0.18121  0.96821  0.74171  Biso   1.000  C
  N379     1.0000 0.20764  0.93336  0.68607  Biso   1.000  N
  H541     1.0000 0.28041  0.94300  0.63407  Biso   1.000  H
  C544     1.0000 0.24262  0.90609  0.45360  Biso   1.000  C
  C545     1.0000 0.97751  0.18984  0.71840  Biso   1.000  C
  C546     1.0000 0.92252  0.23969  0.41098  Biso   1.000  C
  N380     1.0000 0.94365  0.21014  0.65004  Biso   1.000  N
  H542     1.0000 0.95761  0.27922  0.59107  Biso   1.000  H
  O181     1.0000 0.14998  0.95965  0.80712  Biso   1.000  O
  C547     1.0000 0.20459  0.88070  0.70787  Biso   1.000  C
  N381     1.0000 0.20088  0.86997  0.46086  Biso   1.000  N
  H543     1.0000 0.27431  0.89061  0.47684  Biso   1.000  H
  H544     1.0000 0.24729  0.91529  0.38319  Biso   1.000  H
  O182     1.0000 0.96630  0.16433  0.79137  Biso   1.000  O
  N382     1.0000 0.88178  0.20341  0.41862  Biso   1.000  N
  H545     1.0000 0.93442  0.24100  0.34133  Biso   1.000  H
  H546     1.0000 0.90880  0.27241  0.42801  Biso   1.000  H
  C548     1.0000 0.88858  0.20969  0.66737  Biso   1.000  C
  N383     1.0000 0.17398  0.85310  0.63323  Biso   1.000  N
  H547     1.0000 0.18929  0.87621  0.77434  Biso   1.000  H
  H548     1.0000 0.23922  0.86690  0.70992  Biso   1.000  H
  C549     1.0000 0.19702  0.83395  0.54118  Biso   1.000  C
  C550     1.0000 0.16969  0.85897  0.38107  Biso   1.000  C
  C551     1.0000 0.86942  0.17158  0.34111  Biso   1.000  C
  C552     1.0000 0.84348  0.20330  0.49788  Biso   1.000  C
  N384     1.0000 0.86068  0.18105  0.59190  Biso   1.000  N
  H549     1.0000 0.88178  0.19559  0.73376  Biso   1.000  H
  H550     1.0000 0.87591  0.24380  0.66722  Biso   1.000  H
  C553     1.0000 0.13058  0.82842  0.65889  Biso   1.000  C
  H551     1.0000 0.23021  0.81761  0.55443  Biso   1.000  H
  C554     1.0000 0.15652  0.79670  0.50212  Biso   1.000  C
  O183     1.0000 0.16911  0.88100  0.30038  Biso   1.000  O
  N385     1.0000 0.13932  0.81895  0.40810  Biso   1.000  N
  O184     1.0000 0.89423  0.16691  0.26223  Biso   1.000  O
  N386     1.0000 0.82602  0.14690  0.36677  Biso   1.000  N
  C555     1.0000 0.80298  0.16605  0.45882  Biso   1.000  C
  H552     1.0000 0.82868  0.23658  0.50848  Biso   1.000  H
  C556     1.0000 0.83031  0.14103  0.61893  Biso   1.000  C
  O185     1.0000 0.10577  0.83309  0.73777  Biso   1.000  O
  N387     1.0000 0.11822  0.79659  0.58138  Biso   1.000  N
  H553     1.0000 0.17132  0.76342  0.49152  Biso   1.000  H
  C557     1.0000 0.11142  0.79031  0.33263  Biso   1.000  C
  C558     1.0000 0.79541  0.11930  0.29213  Biso   1.000  C
  N388     1.0000 0.79912  0.13003  0.53914  Biso   1.000  N
  H554     1.0000 0.76979  0.18239  0.44557  Biso   1.000  H
  O186     1.0000 0.83089  0.11900  0.69962  Biso   1.000  O
  C559     1.0000 0.07748  0.76031  0.58902  Biso   1.000  C
  N389     1.0000 0.05635  0.78986  0.34996  Biso   1.000  N
  H555     1.0000 0.11822  0.80441  0.26624  Biso   1.000  H
  H556     1.0000 0.12409  0.75620  0.33278  Biso   1.000  H
  N390     1.0000 0.79236  0.06664  0.31393  Biso   1.000  N
  H557     1.0000 0.81071  0.12379  0.22566  Biso   1.000  H
  H558     1.0000 0.76078  0.13310  0.29008  Biso   1.000  H
  C560     1.0000 0.75738  0.09391  0.54640  Biso   1.000  C
  N391     1.0000 0.03358  0.77063  0.52400  Biso   1.000  N
  H559     1.0000 0.06558  0.75900  0.65867  Biso   1.000  H
  H560     1.0000 0.09120  0.72759  0.57199  Biso   1.000  H
  C561     1.0000 0.03068  0.75530  0.41862  Biso   1.000  C
  C562     1.0000 0.02249  0.81016  0.28160  Biso   1.000  C
  C563     1.0000 0.81879  0.03179  0.25829  Biso   1.000  C
  C564     1.0000 0.75452  0.04499  0.38092  Biso   1.000  C
  N392     1.0000 0.76650  0.04888  0.48774  Biso   1.000  N
  H561     1.0000 0.72569  0.10939  0.52316  Biso   1.000  H
  H562     1.0000 0.75271  0.08471  0.61681  Biso   1.000  H
  C565     1.0000 0.98651  0.78339  0.56192  Biso   1.000  C
  C566     1.0000 0.97310  0.76158  0.39258  Biso   1.000  C
  H563     1.0000 0.04239  0.72078  0.40893  Biso   1.000  H
  N393     1.0000 0.97310  0.79565  0.30863  Biso   1.000  N
  O187     1.0000 0.03370  0.83567  0.20863  Biso   1.000  O
  N394     1.0000 0.80341  0.98508  0.29107  Biso   1.000  N
  O188     1.0000 0.85002  0.04035  0.19288  Biso   1.000  O
  C567     1.0000 0.76020  0.98803  0.35973  Biso   1.000  C
  H564     1.0000 0.71959  0.05700  0.36593  Biso   1.000  H
  C568     1.0000 0.77180  0.00352  0.53270  Biso   1.000  C
  O189     1.0000 0.97731  0.79449  0.65087  Biso   1.000  O
  N395     1.0000 0.95088  0.78245  0.48592  Biso   1.000  N
  H565     1.0000 0.95710  0.72961  0.37456  Biso   1.000  H
  C569     1.0000 0.92939  0.80220  0.24186  Biso   1.000  C
  C570     1.0000 0.81110  0.94158  0.22824  Biso   1.000  C
  N396     1.0000 0.77079  0.96724  0.45958  Biso   1.000  N
  H566     1.0000 0.72871  0.97390  0.32998  Biso   1.000  H
  O190     1.0000 0.77589  0.99577  0.62279  Biso   1.000  O
  C571     1.0000 0.89720  0.78410  0.50462  Biso   1.000  C
  N397     1.0000 0.89260  0.83791  0.28092  Biso   1.000  N
  H567     1.0000 0.94161  0.81349  0.17631  Biso   1.000  H
  H568     1.0000 0.91231  0.77030  0.23240  Biso   1.000  H
  N398     1.0000 0.84032  0.90261  0.27782  Biso   1.000  N
  H569     1.0000 0.77771  0.92838  0.20840  Biso   1.000  H
  H570     1.0000 0.82919  0.95161  0.16699  Biso   1.000  H
  C572     1.0000 0.76739  0.91511  0.48266  Biso   1.000  C
  N399     1.0000 0.87081  0.82647  0.45678  Biso   1.000  N
  H571     1.0000 0.89160  0.78582  0.57721  Biso   1.000  H
  H572     1.0000 0.88178  0.75328  0.48039  Biso   1.000  H
  C573     1.0000 0.85380  0.82471  0.35238  Biso   1.000  C
  C574     1.0000 0.88271  0.88208  0.23399  Biso   1.000  C
  C575     1.0000 0.81512  0.86791  0.34428  Biso   1.000  C
  N400     1.0000 0.81110  0.88631  0.44860  Biso   1.000  N
  H573     1.0000 0.76399  0.91129  0.55549  Biso   1.000  H
  H574     1.0000 0.73628  0.90179  0.45193  Biso   1.000  H
  C576     1.0000 0.84260  0.86062  0.51173  Biso   1.000  C
  H575     1.0000 0.83780  0.79259  0.33588  Biso   1.000  H
  O191     1.0000 0.90880  0.90101  0.16488  Biso   1.000  O
  H576     1.0000 0.78169  0.85680  0.31756  Biso   1.000  H
  O192     1.0000 0.84712  0.86742  0.60333  Biso   1.000  O
  O193     1.0000 0.34712  0.36744  0.39667  Biso   1.000  O
  C577     1.0000 0.34260  0.36060  0.48827  Biso   1.000  C
  N401     1.0000 0.31110  0.38629  0.55140  Biso   1.000  N
  N402     1.0000 0.37081  0.32649  0.54322  Biso   1.000  N
  C578     1.0000 0.26739  0.41509  0.51734  Biso   1.000  C
  C579     1.0000 0.31512  0.36789  0.65572  Biso   1.000  C
  C580     1.0000 0.35380  0.32469  0.64762  Biso   1.000  C
  C581     1.0000 0.39720  0.28412  0.49538  Biso   1.000  C
  N403     1.0000 0.27079  0.46726  0.54042  Biso   1.000  N
  H577     1.0000 0.26399  0.41131  0.44451  Biso   1.000  H
  H578     1.0000 0.23628  0.40181  0.54807  Biso   1.000  H
  N404     1.0000 0.34032  0.40263  0.72218  Biso   1.000  N
  H579     1.0000 0.28169  0.35678  0.68244  Biso   1.000  H
  N405     1.0000 0.39260  0.33790  0.71908  Biso   1.000  N
  H580     1.0000 0.33780  0.29261  0.66412  Biso   1.000  H
  N406     1.0000 0.45088  0.28243  0.51408  Biso   1.000  N
  H581     1.0000 0.39160  0.28580  0.42279  Biso   1.000  H
  H582     1.0000 0.38178  0.25330  0.51961  Biso   1.000  H
  C582     1.0000 0.26020  0.48801  0.64027  Biso   1.000  C
  C583     1.0000 0.27180  0.50350  0.46730  Biso   1.000  C
  C584     1.0000 0.31110  0.44160  0.77176  Biso   1.000  C
  C585     1.0000 0.38271  0.38210  0.76601  Biso   1.000  C
  C586     1.0000 0.42939  0.30222  0.75814  Biso   1.000  C
  C587     1.0000 0.48651  0.28341  0.43808  Biso   1.000  C
  C588     1.0000 0.47310  0.26160  0.60742  Biso   1.000  C
  N407     1.0000 0.30341  0.48510  0.70893  Biso   1.000  N
  H583     1.0000 0.22871  0.47391  0.67002  Biso   1.000  H
  C589     1.0000 0.25452  0.54501  0.61908  Biso   1.000  C
  O194     1.0000 0.27589  0.49579  0.37721  Biso   1.000  O
  N408     1.0000 0.26650  0.54886  0.51226  Biso   1.000  N
  H584     1.0000 0.27771  0.42840  0.79160  Biso   1.000  H
  H585     1.0000 0.32919  0.45159  0.83301  Biso   1.000  H
  O195     1.0000 0.40880  0.40099  0.83512  Biso   1.000  O
  N409     1.0000 0.47310  0.29564  0.69137  Biso   1.000  N
  H586     1.0000 0.44161  0.31351  0.82369  Biso   1.000  H
  H587     1.0000 0.41231  0.27032  0.76760  Biso   1.000  H
  O196     1.0000 0.47731  0.29448  0.34913  Biso   1.000  O
  N410     1.0000 0.53358  0.27065  0.47600  Biso   1.000  N
  C590     1.0000 0.53068  0.25528  0.58138  Biso   1.000  C
  H588     1.0000 0.45710  0.22959  0.62544  Biso   1.000  H
  C591     1.0000 0.31879  0.53181  0.74171  Biso   1.000  C
  N411     1.0000 0.29236  0.56663  0.68607  Biso   1.000  N
  H589     1.0000 0.21959  0.55701  0.63407  Biso   1.000  H
  C592     1.0000 0.25738  0.59389  0.45360  Biso   1.000  C
  C593     1.0000 0.52249  0.31018  0.71840  Biso   1.000  C
  C594     1.0000 0.57748  0.26029  0.41098  Biso   1.000  C
  N412     1.0000 0.55635  0.28988  0.65004  Biso   1.000  N
  H590     1.0000 0.54239  0.22080  0.59107  Biso   1.000  H
  O197     1.0000 0.35002  0.54037  0.80712  Biso   1.000  O
  C595     1.0000 0.29541  0.61928  0.70787  Biso   1.000  C
  N413     1.0000 0.29912  0.63005  0.46086  Biso   1.000  N
  H591     1.0000 0.22569  0.60941  0.47684  Biso   1.000  H
  H592     1.0000 0.25271  0.58469  0.38319  Biso   1.000  H
  O198     1.0000 0.53370  0.33565  0.79137  Biso   1.000  O
  N414     1.0000 0.61822  0.29661  0.41862  Biso   1.000  N
  H593     1.0000 0.56558  0.25899  0.34133  Biso   1.000  H
  H594     1.0000 0.59120  0.22761  0.42801  Biso   1.000  H
  C596     1.0000 0.61142  0.29029  0.66737  Biso   1.000  C
  N415     1.0000 0.32602  0.64688  0.63323  Biso   1.000  N
  H595     1.0000 0.31071  0.62381  0.77434  Biso   1.000  H
  H596     1.0000 0.26078  0.63308  0.70992  Biso   1.000  H
  C597     1.0000 0.30298  0.66607  0.54118  Biso   1.000  C
  C598     1.0000 0.33031  0.64105  0.38107  Biso   1.000  C
  C599     1.0000 0.63058  0.32840  0.34111  Biso   1.000  C
  C600     1.0000 0.65652  0.29672  0.49788  Biso   1.000  C
  N416     1.0000 0.63932  0.31893  0.59190  Biso   1.000  N
  H597     1.0000 0.61822  0.30439  0.73376  Biso   1.000  H
  H598     1.0000 0.62409  0.25622  0.66722  Biso   1.000  H
  C601     1.0000 0.36942  0.67160  0.65889  Biso   1.000  C
  H599     1.0000 0.26979  0.68241  0.55443  Biso   1.000  H
  C602     1.0000 0.34348  0.70328  0.50212  Biso   1.000  C
  O199     1.0000 0.33089  0.61898  0.30038  Biso   1.000  O
  N417     1.0000 0.36068  0.68107  0.40810  Biso   1.000  N
  O200     1.0000 0.60577  0.33311  0.26223  Biso   1.000  O
  N418     1.0000 0.67398  0.35312  0.36677  Biso   1.000  N
  C603     1.0000 0.69702  0.33393  0.45882  Biso   1.000  C
  H600     1.0000 0.67132  0.26340  0.50848  Biso   1.000  H
  C604     1.0000 0.66969  0.35895  0.61893  Biso   1.000  C
  O201     1.0000 0.39423  0.66689  0.73777  Biso   1.000  O
  N419     1.0000 0.38178  0.70339  0.58138  Biso   1.000  N
  H601     1.0000 0.32868  0.73660  0.49152  Biso   1.000  H
  C605     1.0000 0.38858  0.70971  0.33263  Biso   1.000  C
  C606     1.0000 0.70459  0.38072  0.29213  Biso   1.000  C
  N420     1.0000 0.70088  0.36995  0.53914  Biso   1.000  N
  H602     1.0000 0.73021  0.31759  0.44557  Biso   1.000  H
  O202     1.0000 0.66911  0.38102  0.69962  Biso   1.000  O
  C607     1.0000 0.42252  0.73971  0.58902  Biso   1.000  C
  N421     1.0000 0.44365  0.71012  0.34996  Biso   1.000  N
  H603     1.0000 0.38178  0.69561  0.26624  Biso   1.000  H
  H604     1.0000 0.37591  0.74378  0.33278  Biso   1.000  H
  N422     1.0000 0.70764  0.43337  0.31393  Biso   1.000  N
  H605     1.0000 0.68929  0.37619  0.22566  Biso   1.000  H
  H606     1.0000 0.73922  0.36692  0.29008  Biso   1.000  H
  C608     1.0000 0.74262  0.40611  0.54640  Biso   1.000  C
  N423     1.0000 0.46642  0.72935  0.52400  Biso   1.000  N
  H607     1.0000 0.43442  0.74101  0.65867  Biso   1.000  H
  H608     1.0000 0.40880  0.77239  0.57199  Biso   1.000  H
  C609     1.0000 0.46932  0.74472  0.41862  Biso   1.000  C
  C610     1.0000 0.47751  0.68982  0.28160  Biso   1.000  C
  C611     1.0000 0.68121  0.46819  0.25829  Biso   1.000  C
  C612     1.0000 0.74548  0.45499  0.38092  Biso   1.000  C
  N424     1.0000 0.73350  0.45114  0.48774  Biso   1.000  N
  H609     1.0000 0.77431  0.39059  0.52316  Biso   1.000  H
  H610     1.0000 0.74729  0.41531  0.61681  Biso   1.000  H
  C613     1.0000 0.51349  0.71659  0.56192  Biso   1.000  C
  H611     1.0000 0.45761  0.77920  0.40893  Biso   1.000  H
  C614     1.0000 0.52690  0.73840  0.39258  Biso   1.000  C
  O203     1.0000 0.46630  0.66435  0.20863  Biso   1.000  O
  N425     1.0000 0.52690  0.70436  0.30863  Biso   1.000  N
  O204     1.0000 0.64998  0.45963  0.19288  Biso   1.000  O
  N426     1.0000 0.69659  0.51490  0.29107  Biso   1.000  N
  C615     1.0000 0.73980  0.51199  0.35973  Biso   1.000  C
  H612     1.0000 0.78041  0.44299  0.36593  Biso   1.000  H
  C616     1.0000 0.72820  0.49650  0.53270  Biso   1.000  C
  O205     1.0000 0.52269  0.70552  0.65087  Biso   1.000  O
  N427     1.0000 0.54912  0.71757  0.48592  Biso   1.000  N
  H613     1.0000 0.54290  0.77041  0.37456  Biso   1.000  H
  C617     1.0000 0.57061  0.69778  0.24186  Biso   1.000  C
  C618     1.0000 0.68890  0.55840  0.22824  Biso   1.000  C
  N428     1.0000 0.72921  0.53274  0.45958  Biso   1.000  N
  H614     1.0000 0.77129  0.52609  0.32998  Biso   1.000  H
  O206     1.0000 0.72411  0.50421  0.62279  Biso   1.000  O
  C619     1.0000 0.60280  0.71588  0.50462  Biso   1.000  C
  N429     1.0000 0.60740  0.66210  0.28092  Biso   1.000  N
  H615     1.0000 0.55839  0.68649  0.17631  Biso   1.000  H
  H616     1.0000 0.58769  0.72968  0.23240  Biso   1.000  H
  N430     1.0000 0.65968  0.59737  0.27782  Biso   1.000  N
  H617     1.0000 0.72229  0.57160  0.20840  Biso   1.000  H
  H618     1.0000 0.67081  0.54841  0.16699  Biso   1.000  H
  C620     1.0000 0.73261  0.58491  0.48266  Biso   1.000  C
  N431     1.0000 0.62919  0.67351  0.45678  Biso   1.000  N
  H619     1.0000 0.60840  0.71420  0.57721  Biso   1.000  H
  H620     1.0000 0.61822  0.74670  0.48039  Biso   1.000  H
  C621     1.0000 0.64620  0.67531  0.35238  Biso   1.000  C
  C622     1.0000 0.61729  0.61790  0.23399  Biso   1.000  C
  C623     1.0000 0.68488  0.63211  0.34428  Biso   1.000  C
  N432     1.0000 0.68890  0.61371  0.44860  Biso   1.000  N
  H621     1.0000 0.73601  0.58869  0.55549  Biso   1.000  H
  H622     1.0000 0.76372  0.59819  0.45193  Biso   1.000  H
  C624     1.0000 0.65740  0.63940  0.51173  Biso   1.000  C
  H623     1.0000 0.66220  0.70739  0.33588  Biso   1.000  H
  O207     1.0000 0.59120  0.59901  0.16488  Biso   1.000  O
  H624     1.0000 0.71831  0.64322  0.31756  Biso   1.000  H
  O208     1.0000 0.65288  0.63256  0.60333  Biso   1.000  O
