data_image0
_cell_length_a       17.037
_cell_length_b       17.037
_cell_length_c       51.238
_cell_angle_alpha    90
_cell_angle_beta     90
_cell_angle_gamma    120

_symmetry_space_group_name_H-M    "P 1"
_symmetry_int_tables_number       1

loop_
  _symmetry_equiv_pos_as_xyz
  'x, y, z'

loop_
  _atom_site_label
  _atom_site_occupancy
  _atom_site_fract_x
  _atom_site_fract_y
  _atom_site_fract_z
  _atom_site_thermal_displace_type
  _atom_site_B_iso_or_equiv
  _atom_site_type_symbol
  C1       1.0000 0.52211  0.37907  0.49614  Biso   1.000  C
  C2       1.0000 0.49399  0.39127  0.46893  Biso   1.000  C
  C3       1.0000 0.59712  0.35501  0.49582  Biso   1.000  C
  H1       1.0000 0.54271  0.43472  0.50589  Biso   1.000  H
  H2       1.0000 0.46966  0.33136  0.50500  Biso   1.000  H
  H3       1.0000 0.44690  0.40639  0.47030  Biso   1.000  H
  H4       1.0000 0.54527  0.43926  0.46011  Biso   1.000  H
  H5       1.0000 0.47221  0.33610  0.45919  Biso   1.000  H
  C4       1.0000 0.68841  0.42407  0.49567  Biso   1.000  C
  C5       1.0000 0.57590  0.26433  0.49567  Biso   1.000  C
  C6       1.0000 0.71125  0.52221  0.49510  Biso   1.000  C
  C7       1.0000 0.75787  0.40286  0.49582  Biso   1.000  C
  C8       1.0000 0.47780  0.18903  0.49510  Biso   1.000  C
  C9       1.0000 0.64497  0.24210  0.49582  Biso   1.000  C
  H6       1.0000 0.66478  0.52696  0.48550  Biso   1.000  H
  H7       1.0000 0.76858  0.55847  0.48620  Biso   1.000  H
  N1       1.0000 0.71736  0.55698  0.52143  Biso   1.000  N
  C10      1.0000 0.73564  0.31157  0.49567  Biso   1.000  C
  C11      1.0000 0.85689  0.47789  0.49614  Biso   1.000  C
  H8       1.0000 0.47296  0.13779  0.48550  Biso   1.000  H
  H9       1.0000 0.44150  0.21011  0.48620  Biso   1.000  H
  N2       1.0000 0.44298  0.16036  0.52143  Biso   1.000  N
  C12      1.0000 0.62093  0.14308  0.49614  Biso   1.000  C
  C13      1.0000 0.73408  0.64279  0.52639  Biso   1.000  C
  H10      1.0000 0.71009  0.52201  0.53441  Biso   1.000  H
  C14      1.0000 0.81097  0.28873  0.49510  Biso   1.000  C
  H11      1.0000 0.89196  0.45728  0.50589  Biso   1.000  H
  H12      1.0000 0.86167  0.53028  0.50500  Biso   1.000  H
  C15      1.0000 0.89728  0.50595  0.46893  Biso   1.000  C
  C16      1.0000 0.35715  0.09129  0.52639  Biso   1.000  C
  H13      1.0000 0.47797  0.18808  0.53441  Biso   1.000  H
  H14      1.0000 0.56528  0.10797  0.50589  Biso   1.000  H
  H15      1.0000 0.66859  0.13826  0.50500  Biso   1.000  H
  C17      1.0000 0.60866  0.10268  0.46893  Biso   1.000  C
  C18      1.0000 0.74216  0.67491  0.55207  Biso   1.000  C
  C19      1.0000 0.74224  0.70196  0.50617  Biso   1.000  C
  H16      1.0000 0.86222  0.33522  0.48550  Biso   1.000  H
  H17      1.0000 0.78987  0.23139  0.48620  Biso   1.000  H
  N3       1.0000 0.83962  0.28263  0.52143  Biso   1.000  N
  H18      1.0000 0.95945  0.55305  0.47030  Biso   1.000  H
  H19      1.0000 0.89396  0.45471  0.46011  Biso   1.000  H
  H20      1.0000 0.86387  0.52777  0.45919  Biso   1.000  H
  C20      1.0000 0.32508  0.06730  0.55207  Biso   1.000  C
  C21      1.0000 0.29800  0.04026  0.50617  Biso   1.000  C
  H21      1.0000 0.59361  0.04053  0.47030  Biso   1.000  H
  H22      1.0000 0.56066  0.10600  0.46011  Biso   1.000  H
  H23      1.0000 0.66387  0.13609  0.45919  Biso   1.000  H
  C22      1.0000 0.75896  0.76228  0.55666  Biso   1.000  C
  S1       1.0000 0.73459  0.60388  0.57850  Biso   1.000  S
  C23      1.0000 0.75766  0.78796  0.51109  Biso   1.000  C
  H24      1.0000 0.73698  0.68250  0.48899  Biso   1.000  H
  C24      1.0000 0.90867  0.26589  0.52639  Biso   1.000  C
  H25      1.0000 0.81184  0.28988  0.53441  Biso   1.000  H
  S2       1.0000 0.39609  0.13067  0.57850  Biso   1.000  S
  C25      1.0000 0.23776  0.99668  0.55666  Biso   1.000  C
  H26      1.0000 0.31750  0.05449  0.48899  Biso   1.000  H
  C26      1.0000 0.21200  0.96970  0.51109  Biso   1.000  C
  H27      1.0000 0.76759  0.78410  0.57370  Biso   1.000  H
  C27      1.0000 0.76305  0.81718  0.53646  Biso   1.000  C
  S3       1.0000 0.59874  0.53597  0.58816  Biso   1.000  S
  H28      1.0000 0.76449  0.82639  0.49731  Biso   1.000  H
  C28      1.0000 0.93269  0.25782  0.55207  Biso   1.000  C
  C29      1.0000 0.95971  0.25775  0.50617  Biso   1.000  C
  S4       1.0000 0.46403  0.06276  0.58816  Biso   1.000  S
  H29      1.0000 0.21598  0.98353  0.57370  Biso   1.000  H
  C30      1.0000 0.18279  0.94591  0.53646  Biso   1.000  C
  H30      1.0000 0.17367  0.93812  0.49731  Biso   1.000  H
  H31      1.0000 0.76948  0.87370  0.53989  Biso   1.000  H
  C31      1.0000 0.59113  0.59941  0.61460  Biso   1.000  C
  S5       1.0000 0.86934  0.26541  0.57850  Biso   1.000  S
  C32      1.0000 0.00329  0.24101  0.55666  Biso   1.000  C
  H32      1.0000 0.94548  0.26297  0.48899  Biso   1.000  H
  C33      1.0000 0.03035  0.24230  0.51109  Biso   1.000  C
  C34      1.0000 0.40063  0.99173  0.61460  Biso   1.000  C
  H33      1.0000 0.12629  0.89583  0.53989  Biso   1.000  H
  C35      1.0000 0.57434  0.66997  0.61002  Biso   1.000  C
  C36      1.0000 0.59917  0.57535  0.64027  Biso   1.000  C
  S6       1.0000 0.93725  0.40123  0.58816  Biso   1.000  S
  H34      1.0000 0.01648  0.23240  0.57370  Biso   1.000  H
  C37      1.0000 0.05411  0.23688  0.53646  Biso   1.000  C
  H35      1.0000 0.06194  0.23552  0.49731  Biso   1.000  H
  C38      1.0000 0.42462  0.02386  0.64027  Biso   1.000  C
  C39      1.0000 0.33007  0.90437  0.61002  Biso   1.000  C
  H36      1.0000 0.56572  0.68311  0.59296  Biso   1.000  H
  C40      1.0000 0.57020  0.72073  0.63022  Biso   1.000  C
  C41      1.0000 0.59106  0.62639  0.66051  Biso   1.000  C
  N4       1.0000 0.61594  0.50629  0.64524  Biso   1.000  N
  C42      1.0000 0.00825  0.40883  0.61460  Biso   1.000  C
  H37      1.0000 0.10416  0.23051  0.53989  Biso   1.000  H
  N5       1.0000 0.49370  0.10966  0.64524  Biso   1.000  N
  C43      1.0000 0.37367  0.96469  0.66051  Biso   1.000  C
  H38      1.0000 0.31687  0.88254  0.59296  Biso   1.000  H
  C44      1.0000 0.27926  0.84947  0.63022  Biso   1.000  C
  H39      1.0000 0.56378  0.77082  0.62676  Biso   1.000  H
  C45      1.0000 0.57562  0.69694  0.65559  Biso   1.000  C
  H40      1.0000 0.59633  0.61215  0.67766  Biso   1.000  H
  C46      1.0000 0.62209  0.47762  0.67157  Biso   1.000  C
  H41      1.0000 0.62321  0.47857  0.63227  Biso   1.000  H
  C47      1.0000 0.97610  0.40076  0.64027  Biso   1.000  C
  C48      1.0000 0.09560  0.42563  0.61002  Biso   1.000  C
  C49      1.0000 0.52235  0.14443  0.67157  Biso   1.000  C
  H42      1.0000 0.52140  0.14463  0.63227  Biso   1.000  H
  C50      1.0000 0.30308  0.87868  0.65559  Biso   1.000  C
  H43      1.0000 0.38780  0.98414  0.67766  Biso   1.000  H
  H44      1.0000 0.22916  0.79294  0.62676  Biso   1.000  H
  H45      1.0000 0.56882  0.72852  0.66937  Biso   1.000  H
  H46      1.0000 0.66849  0.52886  0.68117  Biso   1.000  H
  H47      1.0000 0.56471  0.45654  0.68047  Biso   1.000  H
  C51      1.0000 0.64490  0.40232  0.67101  Biso   1.000  C
  N6       1.0000 0.89031  0.38402  0.64524  Biso   1.000  N
  C52      1.0000 0.03529  0.40889  0.66051  Biso   1.000  C
  H48      1.0000 0.11746  0.43424  0.59296  Biso   1.000  H
  C53      1.0000 0.15055  0.42977  0.63022  Biso   1.000  C
  H49      1.0000 0.47115  0.13969  0.68117  Biso   1.000  H
  H50      1.0000 0.54343  0.10817  0.68047  Biso   1.000  H
  C54      1.0000 0.59766  0.24257  0.67101  Biso   1.000  C
  H51      1.0000 0.27148  0.84025  0.66937  Biso   1.000  H
  C55      1.0000 0.73619  0.42455  0.67085  Biso   1.000  C
  C56      1.0000 0.57543  0.31163  0.67085  Biso   1.000  C
  C57      1.0000 0.85557  0.37792  0.67157  Biso   1.000  C
  H52      1.0000 0.85528  0.37677  0.63227  Biso   1.000  H
  C58      1.0000 0.12131  0.42435  0.65559  Biso   1.000  C
  H53      1.0000 0.01589  0.40367  0.67766  Biso   1.000  H
  H54      1.0000 0.20698  0.43614  0.62676  Biso   1.000  H
  C59      1.0000 0.68833  0.26378  0.67085  Biso   1.000  C
  C60      1.0000 0.75739  0.35508  0.67101  Biso   1.000  C
  C61      1.0000 0.81118  0.52357  0.67054  Biso   1.000  C
  C62      1.0000 0.47636  0.28757  0.67054  Biso   1.000  C
  H55      1.0000 0.86032  0.33142  0.68117  Biso   1.000  H
  H56      1.0000 0.89181  0.43526  0.68047  Biso   1.000  H
  H57      1.0000 0.15974  0.43112  0.66937  Biso   1.000  H
  C63      1.0000 0.71236  0.18882  0.67054  Biso   1.000  C
  H58      1.0000 0.79064  0.55868  0.66076  Biso   1.000  H
  H59      1.0000 0.86365  0.52838  0.66166  Biso   1.000  H
  C64      1.0000 0.83930  0.56396  0.69774  Biso   1.000  C
  H60      1.0000 0.44132  0.23193  0.66076  Biso   1.000  H
  H61      1.0000 0.47163  0.33529  0.66166  Biso   1.000  H
  C65      1.0000 0.43604  0.27537  0.69774  Biso   1.000  C
  H62      1.0000 0.76800  0.20936  0.66076  Biso   1.000  H
  H63      1.0000 0.66471  0.13637  0.66166  Biso   1.000  H
  C66      1.0000 0.72465  0.16070  0.69774  Biso   1.000  C
  H64      1.0000 0.88640  0.62612  0.69636  Biso   1.000  H
  H65      1.0000 0.78798  0.56064  0.70657  Biso   1.000  H
  H66      1.0000 0.86110  0.53055  0.70746  Biso   1.000  H
  H67      1.0000 0.37383  0.26026  0.69636  Biso   1.000  H
  H68      1.0000 0.43934  0.22739  0.70657  Biso   1.000  H
  H69      1.0000 0.46943  0.33054  0.70746  Biso   1.000  H
  H70      1.0000 0.73972  0.11359  0.69636  Biso   1.000  H
  H71      1.0000 0.77258  0.21194  0.70657  Biso   1.000  H
  H72      1.0000 0.66942  0.13887  0.70746  Biso   1.000  H
  C67      1.0000 0.47785  0.62090  0.50386  Biso   1.000  C
  C68      1.0000 0.40283  0.64496  0.50418  Biso   1.000  C
  H73      1.0000 0.45725  0.56525  0.49411  Biso   1.000  H
  H74      1.0000 0.53029  0.66861  0.49500  Biso   1.000  H
  C69      1.0000 0.50597  0.60870  0.53107  Biso   1.000  C
  C70      1.0000 0.31154  0.57589  0.50433  Biso   1.000  C
  C71      1.0000 0.42405  0.73564  0.50433  Biso   1.000  C
  H75      1.0000 0.55306  0.59358  0.52970  Biso   1.000  H
  H76      1.0000 0.45468  0.56071  0.53989  Biso   1.000  H
  H77      1.0000 0.52780  0.66387  0.54081  Biso   1.000  H
  C72      1.0000 0.28877  0.47775  0.50490  Biso   1.000  C
  C73      1.0000 0.24209  0.59711  0.50418  Biso   1.000  C
  C74      1.0000 0.35505  0.75787  0.50418  Biso   1.000  C
  C75      1.0000 0.52222  0.81094  0.50490  Biso   1.000  C
  N7       1.0000 0.28259  0.44298  0.47857  Biso   1.000  N
  H78      1.0000 0.33523  0.47301  0.51450  Biso   1.000  H
  H79      1.0000 0.23137  0.44149  0.51380  Biso   1.000  H
  C76      1.0000 0.26432  0.68840  0.50433  Biso   1.000  C
  C77      1.0000 0.14309  0.52215  0.50386  Biso   1.000  C
  C78      1.0000 0.37902  0.85689  0.50386  Biso   1.000  C
  N8       1.0000 0.55698  0.83961  0.47857  Biso   1.000  N
  H80      1.0000 0.52700  0.86218  0.51450  Biso   1.000  H
  H81      1.0000 0.55846  0.78986  0.51380  Biso   1.000  H
  C79      1.0000 0.26587  0.35718  0.47361  Biso   1.000  C
  H82      1.0000 0.28987  0.47796  0.46559  Biso   1.000  H
  C80      1.0000 0.18904  0.71124  0.50490  Biso   1.000  C
  H83      1.0000 0.10799  0.54268  0.49411  Biso   1.000  H
  H84      1.0000 0.13829  0.46969  0.49500  Biso   1.000  H
  C81      1.0000 0.10274  0.49402  0.53107  Biso   1.000  C
  H85      1.0000 0.43467  0.89200  0.49411  Biso   1.000  H
  H86      1.0000 0.33142  0.86170  0.49500  Biso   1.000  H
  C82      1.0000 0.39130  0.89729  0.53107  Biso   1.000  C
  C83      1.0000 0.64281  0.90867  0.47361  Biso   1.000  C
  H87      1.0000 0.52199  0.81189  0.46559  Biso   1.000  H
  C84      1.0000 0.25779  0.32505  0.44793  Biso   1.000  C
  C85      1.0000 0.25777  0.29801  0.49383  Biso   1.000  C
  N9       1.0000 0.16040  0.71734  0.47857  Biso   1.000  N
  H88      1.0000 0.13780  0.66475  0.51450  Biso   1.000  H
  H89      1.0000 0.21008  0.76858  0.51380  Biso   1.000  H
  H90      1.0000 0.04050  0.44692  0.52970  Biso   1.000  H
  H91      1.0000 0.10599  0.54526  0.53989  Biso   1.000  H
  H92      1.0000 0.13608  0.47220  0.54081  Biso   1.000  H
  H93      1.0000 0.40638  0.95951  0.52970  Biso   1.000  H
  H94      1.0000 0.43929  0.89397  0.53989  Biso   1.000  H
  H95      1.0000 0.33609  0.86387  0.54081  Biso   1.000  H
  C86      1.0000 0.67491  0.93273  0.44793  Biso   1.000  C
  C87      1.0000 0.70196  0.95971  0.49383  Biso   1.000  C
  S7       1.0000 0.26542  0.39608  0.42150  Biso   1.000  S
  C88      1.0000 0.24099  0.23769  0.44334  Biso   1.000  C
  C89      1.0000 0.24229  0.21200  0.48891  Biso   1.000  C
  H96      1.0000 0.26298  0.31746  0.51101  Biso   1.000  H
  C90      1.0000 0.09129  0.73408  0.47361  Biso   1.000  C
  H97      1.0000 0.18811  0.71009  0.46559  Biso   1.000  H
  S8       1.0000 0.60393  0.86930  0.42150  Biso   1.000  S
  C91      1.0000 0.76231  0.00329  0.44334  Biso   1.000  C
  H98      1.0000 0.68246  0.94548  0.51101  Biso   1.000  H
  C92      1.0000 0.78789  0.03026  0.48891  Biso   1.000  C
  S9       1.0000 0.40128  0.46399  0.41184  Biso   1.000  S
  H99      1.0000 0.23237  0.21587  0.42630  Biso   1.000  H
  C93      1.0000 0.23690  0.18279  0.46354  Biso   1.000  C
  H100     1.0000 0.23546  0.17357  0.50269  Biso   1.000  H
  C94      1.0000 0.06726  0.74215  0.44793  Biso   1.000  C
  C95      1.0000 0.04030  0.74222  0.49383  Biso   1.000  C
  S10      1.0000 0.53599  0.93721  0.41184  Biso   1.000  S
  H101     1.0000 0.78403  0.01644  0.42630  Biso   1.000  H
  C96      1.0000 0.81710  0.05405  0.46354  Biso   1.000  C
  H102     1.0000 0.82628  0.06185  0.50269  Biso   1.000  H
  C97      1.0000 0.40886  0.40062  0.38540  Biso   1.000  C
  H103     1.0000 0.23048  0.12627  0.46011  Biso   1.000  H
  S11      1.0000 0.13068  0.73456  0.42150  Biso   1.000  S
  C98      1.0000 0.99666  0.75896  0.44334  Biso   1.000  C
  H104     1.0000 0.05453  0.73700  0.51101  Biso   1.000  H
  C99      1.0000 0.96967  0.75767  0.48891  Biso   1.000  C
  C100     1.0000 0.59938  0.00824  0.38540  Biso   1.000  C
  H105     1.0000 0.87366  0.10414  0.46011  Biso   1.000  H
  C101     1.0000 0.40078  0.42462  0.35973  Biso   1.000  C
  C102     1.0000 0.42567  0.33000  0.38998  Biso   1.000  C
  S12      1.0000 0.06276  0.59873  0.41184  Biso   1.000  S
  H106     1.0000 0.98342  0.76756  0.42630  Biso   1.000  H
  C103     1.0000 0.94591  0.76309  0.46354  Biso   1.000  C
  H107     1.0000 0.93807  0.76445  0.50269  Biso   1.000  H
  C104     1.0000 0.57534  0.97611  0.35973  Biso   1.000  C
  C105     1.0000 0.66989  0.09560  0.38998  Biso   1.000  C
  N10      1.0000 0.38401  0.49368  0.35476  Biso   1.000  N
  C106     1.0000 0.40890  0.37358  0.33949  Biso   1.000  C
  H108     1.0000 0.43430  0.31685  0.40704  Biso   1.000  H
  C107     1.0000 0.42975  0.27924  0.36978  Biso   1.000  C
  C108     1.0000 0.99176  0.59114  0.38540  Biso   1.000  C
  H109     1.0000 0.89579  0.76946  0.46011  Biso   1.000  H
  N11      1.0000 0.50626  0.89031  0.35476  Biso   1.000  N
  C109     1.0000 0.62640  0.03528  0.33949  Biso   1.000  C
  H110     1.0000 0.68309  0.11742  0.40704  Biso   1.000  H
  C110     1.0000 0.72070  0.15050  0.36978  Biso   1.000  C
  C111     1.0000 0.37792  0.52235  0.32843  Biso   1.000  C
  H111     1.0000 0.37674  0.52140  0.36773  Biso   1.000  H
  C112     1.0000 0.42433  0.30303  0.34441  Biso   1.000  C
  H112     1.0000 0.40363  0.38781  0.32234  Biso   1.000  H
  H113     1.0000 0.43617  0.22915  0.37324  Biso   1.000  H
  C113     1.0000 0.02385  0.59921  0.35973  Biso   1.000  C
  C114     1.0000 0.90435  0.57433  0.38998  Biso   1.000  C
  C115     1.0000 0.47766  0.85554  0.32843  Biso   1.000  C
  H114     1.0000 0.47856  0.85533  0.36773  Biso   1.000  H
  C116     1.0000 0.69688  0.12129  0.34441  Biso   1.000  C
  H115     1.0000 0.61216  0.01583  0.32234  Biso   1.000  H
  H116     1.0000 0.77079  0.20702  0.37324  Biso   1.000  H
  C117     1.0000 0.35506  0.59765  0.32899  Biso   1.000  C
  H117     1.0000 0.33146  0.47111  0.31883  Biso   1.000  H
  H118     1.0000 0.43524  0.54343  0.31953  Biso   1.000  H
  H119     1.0000 0.43114  0.27144  0.33063  Biso   1.000  H
  N12      1.0000 0.10970  0.61595  0.35476  Biso   1.000  N
  C118     1.0000 0.96473  0.59107  0.33949  Biso   1.000  C
  H120     1.0000 0.88256  0.56573  0.40704  Biso   1.000  H
  C119     1.0000 0.84940  0.57020  0.36978  Biso   1.000  C
  C120     1.0000 0.40229  0.75740  0.32899  Biso   1.000  C
  H121     1.0000 0.52887  0.86028  0.31883  Biso   1.000  H
  H122     1.0000 0.45652  0.89180  0.31953  Biso   1.000  H
  H123     1.0000 0.72853  0.15972  0.33063  Biso   1.000  H
  C121     1.0000 0.26382  0.57542  0.32915  Biso   1.000  C
  C122     1.0000 0.42452  0.68833  0.32915  Biso   1.000  C
  C123     1.0000 0.14445  0.62205  0.32843  Biso   1.000  C
  H124     1.0000 0.14467  0.62320  0.36773  Biso   1.000  H
  C124     1.0000 0.87864  0.57562  0.34441  Biso   1.000  C
  H125     1.0000 0.98418  0.59629  0.32234  Biso   1.000  H
  H126     1.0000 0.79298  0.56383  0.37324  Biso   1.000  H
  C125     1.0000 0.31163  0.73618  0.32915  Biso   1.000  C
  C126     1.0000 0.18878  0.47640  0.32946  Biso   1.000  C
  C127     1.0000 0.24256  0.64489  0.32899  Biso   1.000  C
  C128     1.0000 0.52360  0.71239  0.32946  Biso   1.000  C
  H127     1.0000 0.13969  0.66854  0.31883  Biso   1.000  H
  H128     1.0000 0.10815  0.56471  0.31953  Biso   1.000  H
  H129     1.0000 0.84027  0.56884  0.33063  Biso   1.000  H
  C129     1.0000 0.28763  0.81121  0.32946  Biso   1.000  C
  C130     1.0000 0.16066  0.43600  0.30226  Biso   1.000  C
  H130     1.0000 0.20932  0.44129  0.33924  Biso   1.000  H
  H131     1.0000 0.13636  0.47159  0.33834  Biso   1.000  H
  H132     1.0000 0.55864  0.76804  0.33924  Biso   1.000  H
  H133     1.0000 0.52836  0.66475  0.33834  Biso   1.000  H
  C131     1.0000 0.56392  0.72459  0.30226  Biso   1.000  C
  H134     1.0000 0.23195  0.79061  0.33924  Biso   1.000  H
  H135     1.0000 0.33525  0.86360  0.33834  Biso   1.000  H
  C132     1.0000 0.27536  0.83927  0.30226  Biso   1.000  C
  H136     1.0000 0.11356  0.37385  0.30364  Biso   1.000  H
  H137     1.0000 0.21197  0.43932  0.29343  Biso   1.000  H
  H138     1.0000 0.13886  0.46942  0.29254  Biso   1.000  H
  H139     1.0000 0.62612  0.73971  0.30364  Biso   1.000  H
  H140     1.0000 0.56062  0.77258  0.29343  Biso   1.000  H
  H141     1.0000 0.53058  0.66942  0.29254  Biso   1.000  H
  H142     1.0000 0.26023  0.88638  0.30364  Biso   1.000  H
  H143     1.0000 0.22738  0.78803  0.29343  Biso   1.000  H
  H144     1.0000 0.33053  0.86109  0.29254  Biso   1.000  H
  C133     1.0000 0.63634  0.54533  0.32226  Biso   1.000  C
  C134     1.0000 0.70687  0.63133  0.32716  Biso   1.000  C
  C135     1.0000 0.70693  0.63133  0.32716  Biso   1.000  C
  C136     1.0000 0.61252  0.51611  0.29687  Biso   1.000  C
  C137     1.0000 0.61258  0.51611  0.29687  Biso   1.000  C
  H145     1.0000 0.60474  0.50690  0.33604  Biso   1.000  H
  C138     1.0000 0.75794  0.69050  0.30694  Biso   1.000  C
  H146     1.0000 0.72112  0.65079  0.34433  Biso   1.000  H
  C139     1.0000 0.63640  0.54533  0.32226  Biso   1.000  C
  H147     1.0000 0.72118  0.65079  0.34433  Biso   1.000  H
  C140     1.0000 0.66339  0.57101  0.27667  Biso   1.000  C
  H148     1.0000 0.56242  0.45959  0.29343  Biso   1.000  H
  H149     1.0000 0.56248  0.45959  0.29343  Biso   1.000  H
  C141     1.0000 0.73390  0.65838  0.28126  Biso   1.000  C
  C142     1.0000 0.73395  0.65838  0.28126  Biso   1.000  C
  N13      1.0000 0.82702  0.77631  0.31190  Biso   1.000  N
  N14      1.0000 0.82696  0.77631  0.31190  Biso   1.000  N
  H150     1.0000 0.65013  0.54919  0.25963  Biso   1.000  H
  H151     1.0000 0.65019  0.54919  0.25963  Biso   1.000  H
  S13      1.0000 0.79729  0.72941  0.25483  Biso   1.000  S
  S14      1.0000 0.79735  0.72941  0.25483  Biso   1.000  S
  H152     1.0000 0.85472  0.81128  0.29894  Biso   1.000  H
  C143     1.0000 0.85568  0.81108  0.33823  Biso   1.000  C
  H153     1.0000 0.85478  0.81128  0.29894  Biso   1.000  H
  S15      1.0000 0.72941  0.79732  0.24517  Biso   1.000  S
  H154     1.0000 0.87675  0.77482  0.34713  Biso   1.000  H
  C144     1.0000 0.93098  0.90922  0.33766  Biso   1.000  C
  H155     1.0000 0.80447  0.80633  0.34783  Biso   1.000  H
  C145     1.0000 0.65836  0.73388  0.21874  Biso   1.000  C
  C146     1.0000 0.65846  0.73395  0.21874  Biso   1.000  C
  C147     1.0000 0.65842  0.73388  0.21874  Biso   1.000  C
  C148     1.0000 0.65840  0.73395  0.21874  Biso   1.000  C
  C149     1.0000 0.90876  0.97828  0.33752  Biso   1.000  C
  C150     1.0000 0.90881  0.97828  0.33752  Biso   1.000  C
  C151     1.0000 0.02165  0.93043  0.33752  Biso   1.000  C
  C152     1.0000 0.57096  0.66332  0.22333  Biso   1.000  C
  C153     1.0000 0.57102  0.66332  0.22333  Biso   1.000  C
  C154     1.0000 0.69053  0.75794  0.19306  Biso   1.000  C
  C155     1.0000 0.80974  0.95422  0.33721  Biso   1.000  C
  C156     1.0000 0.97816  0.06896  0.33766  Biso   1.000  C
  C157     1.0000 0.04574  0.85547  0.33721  Biso   1.000  C
  C158     1.0000 0.09078  0.02172  0.33766  Biso   1.000  C
  C159     1.0000 0.51618  0.61256  0.20313  Biso   1.000  C
  H156     1.0000 0.54925  0.65018  0.24037  Biso   1.000  H
  C160     1.0000 0.63132  0.70690  0.17284  Biso   1.000  C
  C161     1.0000 0.63138  0.70690  0.17284  Biso   1.000  C
  N15      1.0000 0.77630  0.82700  0.18810  Biso   1.000  N
  N16      1.0000 0.77636  0.82700  0.18810  Biso   1.000  N
  H157     1.0000 0.77464  0.89857  0.32743  Biso   1.000  H
  C162     1.0000 0.76942  0.94202  0.36442  Biso   1.000  C
  H158     1.0000 0.80495  0.00193  0.32833  Biso   1.000  H
  H159     1.0000 0.80489  0.00193  0.32833  Biso   1.000  H
  C163     1.0000 0.95536  0.14426  0.33823  Biso   1.000  C
  C164     1.0000 0.06946  0.09119  0.33752  Biso   1.000  C
  C165     1.0000 0.06957  0.09119  0.33752  Biso   1.000  C
  H160     1.0000 0.99809  0.80301  0.32833  Biso   1.000  H
  H161     1.0000 0.10132  0.87601  0.32743  Biso   1.000  H
  C166     1.0000 0.05803  0.82734  0.36442  Biso   1.000  C
  C167     1.0000 0.18889  0.04456  0.33823  Biso   1.000  C
  C168     1.0000 0.54533  0.63635  0.17774  Biso   1.000  C
  H162     1.0000 0.45967  0.56247  0.20657  Biso   1.000  H
  H163     1.0000 0.65082  0.72114  0.15567  Biso   1.000  H
  C169     1.0000 0.81106  0.85567  0.16177  Biso   1.000  C
  H164     1.0000 0.81135  0.85472  0.20106  Biso   1.000  H
  C170     1.0000 0.81112  0.85567  0.16177  Biso   1.000  C
  H165     1.0000 0.70716  0.92691  0.36303  Biso   1.000  H
  H166     1.0000 0.77266  0.89403  0.37324  Biso   1.000  H
  H167     1.0000 0.80270  0.99719  0.37414  Biso   1.000  H
  H168     1.0000 0.80276  0.99719  0.37414  Biso   1.000  H
  N17      1.0000 0.94926  0.17293  0.31190  Biso   1.000  N
  H169     1.0000 0.89804  0.12318  0.34713  Biso   1.000  H
  H170     1.0000 0.89798  0.12318  0.34713  Biso   1.000  H
  H171     1.0000 0.00187  0.19550  0.34783  Biso   1.000  H
  C171     1.0000 0.14456  0.19022  0.33721  Biso   1.000  C
  C172     1.0000 0.14450  0.19022  0.33721  Biso   1.000  C
  H172     1.0000 0.10596  0.87858  0.37324  Biso   1.000  H
  H173     1.0000 0.00281  0.80552  0.37414  Biso   1.000  H
  H174     1.0000 0.00275  0.80552  0.37414  Biso   1.000  H
  H175     1.0000 0.07304  0.78024  0.36303  Biso   1.000  H
  H176     1.0000 0.19367  0.99814  0.34783  Biso   1.000  H
  H177     1.0000 0.22513  0.10190  0.34713  Biso   1.000  H
  N18      1.0000 0.22358  0.05066  0.31190  Biso   1.000  N
  N19      1.0000 0.22369  0.05066  0.31190  Biso   1.000  N
  H178     1.0000 0.50694  0.60477  0.16396  Biso   1.000  H
  H179     1.0000 0.77482  0.87675  0.15287  Biso   1.000  H
  C173     1.0000 0.90923  0.93097  0.16234  Biso   1.000  C
  H180     1.0000 0.80634  0.80443  0.15217  Biso   1.000  H
  C174     1.0000 0.93244  0.24200  0.30694  Biso   1.000  C
  H181     1.0000 0.95659  0.14521  0.29894  Biso   1.000  H
  C175     1.0000 0.93256  0.24200  0.30694  Biso   1.000  C
  H182     1.0000 0.95648  0.14521  0.29894  Biso   1.000  H
  H183     1.0000 0.19697  0.19503  0.32833  Biso   1.000  H
  C176     1.0000 0.17262  0.23061  0.36442  Biso   1.000  C
  H184     1.0000 0.12390  0.22532  0.32743  Biso   1.000  H
  C177     1.0000 0.30943  0.06740  0.30694  Biso   1.000  C
  H185     1.0000 0.18867  0.04341  0.29894  Biso   1.000  H
  C178     1.0000 0.30948  0.06740  0.30694  Biso   1.000  C
  C179     1.0000 0.93044  0.02166  0.16248  Biso   1.000  C
  C180     1.0000 0.97829  0.90874  0.16248  Biso   1.000  C
  C181     1.0000 0.92445  0.26606  0.28126  Biso   1.000  C
  C182     1.0000 0.92438  0.29303  0.32716  Biso   1.000  C
  H186     1.0000 0.21972  0.29276  0.36303  Biso   1.000  H
  H187     1.0000 0.12130  0.22729  0.37324  Biso   1.000  H
  H188     1.0000 0.19448  0.19720  0.37414  Biso   1.000  H
  C183     1.0000 0.36861  0.07554  0.32716  Biso   1.000  C
  C184     1.0000 0.34152  0.07547  0.28126  Biso   1.000  C
  C185     1.0000 0.85549  0.04572  0.16279  Biso   1.000  C
  C186     1.0000 0.85537  0.04572  0.16279  Biso   1.000  C
  C187     1.0000 0.02179  0.09072  0.16234  Biso   1.000  C
  C188     1.0000 0.02173  0.09072  0.16234  Biso   1.000  C
  C189     1.0000 0.95425  0.80972  0.16279  Biso   1.000  C
  C190     1.0000 0.06902  0.97821  0.16234  Biso   1.000  C
  C191     1.0000 0.06896  0.97821  0.16234  Biso   1.000  C
  S16      1.0000 0.93206  0.20262  0.25483  Biso   1.000  S
  C192     1.0000 0.90761  0.33661  0.27667  Biso   1.000  C
  H189     1.0000 0.92959  0.27880  0.34433  Biso   1.000  H
  C193     1.0000 0.90889  0.36359  0.32226  Biso   1.000  C
  C194     1.0000 0.45463  0.09099  0.32226  Biso   1.000  C
  H190     1.0000 0.34915  0.07032  0.34433  Biso   1.000  H
  C195     1.0000 0.42892  0.09228  0.27667  Biso   1.000  C
  S17      1.0000 0.27057  0.06788  0.25483  Biso   1.000  S
  H191     1.0000 0.87603  0.10136  0.17257  Biso   1.000  H
  H192     1.0000 0.80299  0.99800  0.17167  Biso   1.000  H
  H193     1.0000 0.80302  0.99807  0.17167  Biso   1.000  H
  C196     1.0000 0.82725  0.05792  0.13558  Biso   1.000  C
  C197     1.0000 0.82731  0.05792  0.13558  Biso   1.000  C
  C198     1.0000 0.09119  0.06951  0.16248  Biso   1.000  C
  C199     1.0000 0.09113  0.06951  0.16248  Biso   1.000  C
  C200     1.0000 0.04451  0.18886  0.16177  Biso   1.000  C
  C201     1.0000 0.04463  0.18886  0.16177  Biso   1.000  C
  C202     1.0000 0.94198  0.76933  0.13558  Biso   1.000  C
  H194     1.0000 0.89855  0.77461  0.17257  Biso   1.000  H
  C203     1.0000 0.94204  0.76933  0.13558  Biso   1.000  C
  H195     1.0000 0.00191  0.80491  0.17167  Biso   1.000  H
  H196     1.0000 0.00195  0.80498  0.17167  Biso   1.000  H
  C204     1.0000 0.14429  0.95537  0.16177  Biso   1.000  C
  C205     1.0000 0.14435  0.95537  0.16177  Biso   1.000  C
  S18      1.0000 0.06785  0.27053  0.24517  Biso   1.000  S
  S19      1.0000 0.06797  0.27053  0.24517  Biso   1.000  S
  C206     1.0000 0.90353  0.38738  0.29687  Biso   1.000  C
  H197     1.0000 0.89898  0.34976  0.25963  Biso   1.000  H
  H198     1.0000 0.90220  0.39517  0.33604  Biso   1.000  H
  H199     1.0000 0.90214  0.39517  0.33604  Biso   1.000  H
  C207     1.0000 0.48388  0.09641  0.29687  Biso   1.000  C
  C208     1.0000 0.48382  0.09641  0.29687  Biso   1.000  C
  H200     1.0000 0.49301  0.09777  0.33604  Biso   1.000  H
  H201     1.0000 0.45072  0.10089  0.25963  Biso   1.000  H
  S20      1.0000 0.20272  0.93206  0.24517  Biso   1.000  S
  H202     1.0000 0.78022  0.07303  0.13697  Biso   1.000  H
  H203     1.0000 0.87860  0.10590  0.12676  Biso   1.000  H
  H204     1.0000 0.80548  0.00275  0.12586  Biso   1.000  H
  C209     1.0000 0.19022  0.14453  0.16279  Biso   1.000  C
  C210     1.0000 0.19033  0.14453  0.16279  Biso   1.000  C
  H205     1.0000 0.99799  0.19360  0.15217  Biso   1.000  H
  H206     1.0000 0.99811  0.19360  0.15217  Biso   1.000  H
  H207     1.0000 0.10197  0.22512  0.15287  Biso   1.000  H
  N20      1.0000 0.05074  0.22363  0.18810  Biso   1.000  N
  H208     1.0000 0.10185  0.22512  0.15287  Biso   1.000  H
  N21      1.0000 0.05062  0.22363  0.18810  Biso   1.000  N
  H209     1.0000 0.92693  0.70718  0.13697  Biso   1.000  H
  H210     1.0000 0.89398  0.77265  0.12676  Biso   1.000  H
  H211     1.0000 0.89404  0.77265  0.12676  Biso   1.000  H
  H212     1.0000 0.99725  0.80274  0.12586  Biso   1.000  H
  H213     1.0000 0.12320  0.89803  0.15287  Biso   1.000  H
  N22      1.0000 0.17300  0.94927  0.18810  Biso   1.000  N
  H214     1.0000 0.19554  0.00187  0.15217  Biso   1.000  H
  H215     1.0000 0.19560  0.00187  0.15217  Biso   1.000  H
  C211     1.0000 0.07555  0.34156  0.21874  Biso   1.000  C
  H216     1.0000 0.89711  0.43746  0.29343  Biso   1.000  H
  H217     1.0000 0.89705  0.43746  0.29343  Biso   1.000  H
  H218     1.0000 0.54036  0.10278  0.29343  Biso   1.000  H
  C212     1.0000 0.26607  0.92447  0.21874  Biso   1.000  C
  H219     1.0000 0.22534  0.12393  0.17257  Biso   1.000  H
  H220     1.0000 0.19505  0.19693  0.17167  Biso   1.000  H
  C213     1.0000 0.23060  0.17259  0.13558  Biso   1.000  C
  C214     1.0000 0.06747  0.30943  0.19306  Biso   1.000  C
  H221     1.0000 0.04347  0.18866  0.20106  Biso   1.000  H
  C215     1.0000 0.06735  0.30943  0.19306  Biso   1.000  C
  C216     1.0000 0.24205  0.93253  0.19306  Biso   1.000  C
  H222     1.0000 0.14522  0.95652  0.20106  Biso   1.000  H
  C217     1.0000 0.24199  0.93253  0.19306  Biso   1.000  C
  C218     1.0000 0.09234  0.42892  0.22333  Biso   1.000  C
  C219     1.0000 0.33667  0.90766  0.22333  Biso   1.000  C
  C220     1.0000 0.33661  0.90766  0.22333  Biso   1.000  C
  H223     1.0000 0.29283  0.21970  0.13697  Biso   1.000  H
  H224     1.0000 0.22729  0.12135  0.12676  Biso   1.000  H
  H225     1.0000 0.19726  0.19442  0.12586  Biso   1.000  H
  H226     1.0000 0.19720  0.19442  0.12586  Biso   1.000  H
  H227     1.0000 0.29272  0.21970  0.13697  Biso   1.000  H
  C221     1.0000 0.07551  0.36860  0.17284  Biso   1.000  C
  C222     1.0000 0.07563  0.36860  0.17284  Biso   1.000  C
  C223     1.0000 0.29304  0.92440  0.17284  Biso   1.000  C
  C224     1.0000 0.29310  0.92440  0.17284  Biso   1.000  C
  H228     1.0000 0.10097  0.45075  0.24037  Biso   1.000  H
  C225     1.0000 0.09643  0.48382  0.20313  Biso   1.000  C
  H229     1.0000 0.10085  0.45075  0.24037  Biso   1.000  H
  H230     1.0000 0.34986  0.89905  0.24037  Biso   1.000  H
  C226     1.0000 0.38743  0.90352  0.20313  Biso   1.000  C
  H231     1.0000 0.34980  0.89905  0.24037  Biso   1.000  H
  C227     1.0000 0.38737  0.90352  0.20313  Biso   1.000  C
  H232     1.0000 0.07030  0.34915  0.15567  Biso   1.000  H
  C228     1.0000 0.09104  0.45461  0.17774  Biso   1.000  C
  C229     1.0000 0.09098  0.45461  0.17774  Biso   1.000  C
  C230     1.0000 0.36361  0.90894  0.17774  Biso   1.000  C
  H233     1.0000 0.27886  0.92962  0.15567  Biso   1.000  H
  H234     1.0000 0.10286  0.54035  0.20657  Biso   1.000  H
  H235     1.0000 0.43754  0.89715  0.20657  Biso   1.000  H
  H236     1.0000 0.43748  0.89715  0.20657  Biso   1.000  H
  H237     1.0000 0.09787  0.49304  0.16396  Biso   1.000  H
  H238     1.0000 0.09775  0.49304  0.16396  Biso   1.000  H
  H239     1.0000 0.39521  0.90217  0.16396  Biso   1.000  H
  C231     1.0000 0.29302  0.36863  0.67284  Biso   1.000  C
  C232     1.0000 0.38737  0.48385  0.70313  Biso   1.000  C
  H240     1.0000 0.39527  0.49307  0.66396  Biso   1.000  H
  C233     1.0000 0.24207  0.30947  0.69306  Biso   1.000  C
  H241     1.0000 0.27883  0.34918  0.65567  Biso   1.000  H
  C234     1.0000 0.36361  0.45464  0.67774  Biso   1.000  C
  C235     1.0000 0.33662  0.42895  0.72333  Biso   1.000  C
  H242     1.0000 0.43759  0.54038  0.70657  Biso   1.000  H
  N23      1.0000 0.17293  0.22366  0.68810  Biso   1.000  N
  N24      1.0000 0.17299  0.22366  0.68810  Biso   1.000  N
  C236     1.0000 0.26606  0.34159  0.71874  Biso   1.000  C
  C237     1.0000 0.26612  0.34159  0.71874  Biso   1.000  C
  H243     1.0000 0.34988  0.45078  0.74037  Biso   1.000  H
  C238     1.0000 0.14434  0.18889  0.66177  Biso   1.000  C
  C239     1.0000 0.14428  0.18889  0.66177  Biso   1.000  C
  H244     1.0000 0.14523  0.18869  0.70106  Biso   1.000  H
  H245     1.0000 0.14529  0.18869  0.70106  Biso   1.000  H
  S21      1.0000 0.20261  0.27056  0.74517  Biso   1.000  S
  C240     1.0000 0.06897  0.09075  0.66234  Biso   1.000  C
  C241     1.0000 0.06903  0.09075  0.66234  Biso   1.000  C
  H246     1.0000 0.12320  0.22515  0.65287  Biso   1.000  H
  H247     1.0000 0.19549  0.19364  0.65217  Biso   1.000  H
  H248     1.0000 0.12326  0.22515  0.65287  Biso   1.000  H
  S22      1.0000 0.27055  0.20265  0.75483  Biso   1.000  S
  C242     1.0000 0.09120  0.02169  0.66248  Biso   1.000  C
  C243     1.0000 0.09126  0.02169  0.66248  Biso   1.000  C
  C244     1.0000 0.97830  0.06954  0.66248  Biso   1.000  C
  C245     1.0000 0.34153  0.26609  0.78126  Biso   1.000  C
  C246     1.0000 0.19027  0.04575  0.66279  Biso   1.000  C
  C247     1.0000 0.02179  0.93100  0.66234  Biso   1.000  C
  C248     1.0000 0.02185  0.93100  0.66234  Biso   1.000  C
  C249     1.0000 0.90924  0.97824  0.66234  Biso   1.000  C
  C250     1.0000 0.95430  0.14457  0.66279  Biso   1.000  C
  C251     1.0000 0.95425  0.14457  0.66279  Biso   1.000  C
  C252     1.0000 0.30949  0.24203  0.80694  Biso   1.000  C
  C253     1.0000 0.42893  0.33664  0.77667  Biso   1.000  C
  H249     1.0000 0.19506  0.99803  0.67167  Biso   1.000  H
  H250     1.0000 0.19510  0.99810  0.67167  Biso   1.000  H
  H251     1.0000 0.19498  0.99810  0.67167  Biso   1.000  H
  H252     1.0000 0.22538  0.10139  0.67257  Biso   1.000  H
  C254     1.0000 0.23065  0.05795  0.63558  Biso   1.000  C
  C255     1.0000 0.93050  0.90877  0.66248  Biso   1.000  C
  C256     1.0000 0.04466  0.85570  0.66177  Biso   1.000  C
  C257     1.0000 0.04454  0.85570  0.66177  Biso   1.000  C
  C258     1.0000 0.81112  0.95540  0.66177  Biso   1.000  C
  C259     1.0000 0.94198  0.17263  0.63558  Biso   1.000  C
  H253     1.0000 0.89857  0.12396  0.67257  Biso   1.000  H
  H254     1.0000 0.00192  0.19696  0.67167  Biso   1.000  H
  H255     1.0000 0.00198  0.19696  0.67167  Biso   1.000  H
  N25      1.0000 0.22365  0.17296  0.81190  Biso   1.000  N
  C260     1.0000 0.36858  0.29306  0.82716  Biso   1.000  C
  H256     1.0000 0.45077  0.34979  0.75963  Biso   1.000  H
  C261     1.0000 0.48384  0.38741  0.79687  Biso   1.000  C
  H257     1.0000 0.45071  0.34979  0.75963  Biso   1.000  H
  C262     1.0000 0.48390  0.38741  0.79687  Biso   1.000  C
  H258     1.0000 0.29280  0.07306  0.63697  Biso   1.000  H
  H259     1.0000 0.19726  0.00278  0.62586  Biso   1.000  H
  H260     1.0000 0.19720  0.00278  0.62586  Biso   1.000  H
  H261     1.0000 0.29286  0.07306  0.63697  Biso   1.000  H
  H262     1.0000 0.22735  0.10593  0.62676  Biso   1.000  H
  C263     1.0000 0.85540  0.80975  0.66279  Biso   1.000  C
  C264     1.0000 0.85545  0.80975  0.66279  Biso   1.000  C
  N26      1.0000 0.05069  0.82704  0.68810  Biso   1.000  N
  H263     1.0000 0.99808  0.80447  0.65217  Biso   1.000  H
  H264     1.0000 0.10204  0.87678  0.65287  Biso   1.000  H
  H265     1.0000 0.77476  0.89806  0.65287  Biso   1.000  H
  N27      1.0000 0.77638  0.94930  0.68810  Biso   1.000  N
  H266     1.0000 0.77488  0.89806  0.65287  Biso   1.000  H
  N28      1.0000 0.77626  0.94930  0.68810  Biso   1.000  N
  H267     1.0000 0.80631  0.00190  0.65217  Biso   1.000  H
  H268     1.0000 0.99721  0.19445  0.62586  Biso   1.000  H
  H269     1.0000 0.92691  0.21973  0.63697  Biso   1.000  H
  H270     1.0000 0.89406  0.12139  0.62676  Biso   1.000  H
  H271     1.0000 0.18866  0.14524  0.79894  Biso   1.000  H
  C265     1.0000 0.18889  0.14430  0.83823  Biso   1.000  C
  C266     1.0000 0.18883  0.14430  0.83823  Biso   1.000  C
  C267     1.0000 0.45463  0.36362  0.82226  Biso   1.000  C
  C268     1.0000 0.45469  0.36362  0.82226  Biso   1.000  C
  H272     1.0000 0.34919  0.27883  0.84433  Biso   1.000  H
  H273     1.0000 0.54034  0.43749  0.79343  Biso   1.000  H
  H274     1.0000 0.87594  0.77464  0.67257  Biso   1.000  H
  H275     1.0000 0.80304  0.80494  0.67167  Biso   1.000  H
  C269     1.0000 0.82727  0.76936  0.63558  Biso   1.000  C
  H276     1.0000 0.80307  0.80501  0.67167  Biso   1.000  H
  C270     1.0000 0.82733  0.76936  0.63558  Biso   1.000  C
  H277     1.0000 0.87599  0.77464  0.67257  Biso   1.000  H
  C271     1.0000 0.06752  0.75797  0.69306  Biso   1.000  C
  H278     1.0000 0.04348  0.85476  0.70106  Biso   1.000  H
  C272     1.0000 0.06746  0.75797  0.69306  Biso   1.000  C
  H279     1.0000 0.04336  0.85476  0.70106  Biso   1.000  H
  C273     1.0000 0.69047  0.93256  0.69306  Biso   1.000  C
  H280     1.0000 0.81129  0.95656  0.70106  Biso   1.000  H
  C274     1.0000 0.69059  0.93256  0.69306  Biso   1.000  C
  H281     1.0000 0.81135  0.95656  0.70106  Biso   1.000  H
  H282     1.0000 0.19368  0.19553  0.84783  Biso   1.000  H
  C275     1.0000 0.09073  0.06900  0.83766  Biso   1.000  C
  H283     1.0000 0.22519  0.12322  0.84713  Biso   1.000  H
  C276     1.0000 0.09079  0.06900  0.83766  Biso   1.000  C
  H284     1.0000 0.49308  0.39520  0.83604  Biso   1.000  H
  H285     1.0000 0.78023  0.70721  0.63697  Biso   1.000  H
  H286     1.0000 0.80554  0.80277  0.62586  Biso   1.000  H
  H287     1.0000 0.87859  0.77268  0.62676  Biso   1.000  H
  H288     1.0000 0.87865  0.77268  0.62676  Biso   1.000  H
  C277     1.0000 0.07557  0.70694  0.67284  Biso   1.000  C
  C278     1.0000 0.07559  0.73398  0.71874  Biso   1.000  C
  C279     1.0000 0.07550  0.73391  0.71874  Biso   1.000  C
  C280     1.0000 0.65844  0.92450  0.71874  Biso   1.000  C
  C281     1.0000 0.63141  0.92443  0.67284  Biso   1.000  C
  C282     1.0000 0.06951  0.97831  0.83752  Biso   1.000  C
  C283     1.0000 0.02172  0.09123  0.83752  Biso   1.000  C
  C284     1.0000 0.02167  0.09123  0.83752  Biso   1.000  C
  C285     1.0000 0.09107  0.63638  0.67774  Biso   1.000  C
  H289     1.0000 0.07036  0.72117  0.65567  Biso   1.000  H
  H290     1.0000 0.07042  0.72117  0.65567  Biso   1.000  H
  C286     1.0000 0.09235  0.66336  0.72333  Biso   1.000  C
  S23      1.0000 0.06795  0.79735  0.74517  Biso   1.000  S
  C287     1.0000 0.57103  0.90769  0.72333  Biso   1.000  C
  S24      1.0000 0.72938  0.93209  0.74517  Biso   1.000  S
  C288     1.0000 0.57109  0.90769  0.72333  Biso   1.000  C
  C289     1.0000 0.54532  0.90898  0.67774  Biso   1.000  C
  H291     1.0000 0.65086  0.92965  0.65567  Biso   1.000  H
  C290     1.0000 0.97822  0.90925  0.83766  Biso   1.000  C
  C291     1.0000 0.97828  0.90925  0.83766  Biso   1.000  C
  C292     1.0000 0.14458  0.95425  0.83721  Biso   1.000  C
  C293     1.0000 0.14453  0.95425  0.83721  Biso   1.000  C
  C294     1.0000 0.93099  0.02176  0.83766  Biso   1.000  C
  C295     1.0000 0.93093  0.02176  0.83766  Biso   1.000  C
  C296     1.0000 0.04570  0.19025  0.83721  Biso   1.000  C
  C297     1.0000 0.04576  0.19025  0.83721  Biso   1.000  C
  C298     1.0000 0.09649  0.61259  0.70313  Biso   1.000  C
  H292     1.0000 0.09787  0.60480  0.66396  Biso   1.000  H
  H293     1.0000 0.09793  0.60480  0.66396  Biso   1.000  H
  H294     1.0000 0.10097  0.65021  0.74037  Biso   1.000  H
  H295     1.0000 0.10092  0.65021  0.74037  Biso   1.000  H
  S25      1.0000 0.93204  0.72944  0.75483  Biso   1.000  S
  H296     1.0000 0.54918  0.89908  0.74037  Biso   1.000  H
  C299     1.0000 0.51608  0.90355  0.70313  Biso   1.000  C
  H297     1.0000 0.54929  0.89908  0.74037  Biso   1.000  H
  C300     1.0000 0.51620  0.90355  0.70313  Biso   1.000  C
  S26      1.0000 0.79735  0.06791  0.75483  Biso   1.000  S
  S27      1.0000 0.79729  0.06791  0.75483  Biso   1.000  S
  H298     1.0000 0.50695  0.90220  0.66396  Biso   1.000  H
  H299     1.0000 0.50701  0.90220  0.66396  Biso   1.000  H
  C301     1.0000 0.95545  0.81111  0.83823  Biso   1.000  C
  C302     1.0000 0.90871  0.93046  0.83752  Biso   1.000  C
  C303     1.0000 0.90877  0.93046  0.83752  Biso   1.000  C
  H300     1.0000 0.12392  0.89861  0.82743  Biso   1.000  H
  C304     1.0000 0.17270  0.94205  0.86442  Biso   1.000  C
  H301     1.0000 0.19703  0.00197  0.82833  Biso   1.000  H
  C305     1.0000 0.85566  0.04460  0.83823  Biso   1.000  C
  H302     1.0000 0.99804  0.19506  0.82833  Biso   1.000  H
  H303     1.0000 0.10135  0.22536  0.82743  Biso   1.000  H
  C306     1.0000 0.05798  0.23064  0.86442  Biso   1.000  C
  H304     1.0000 0.10141  0.22536  0.82743  Biso   1.000  H
  C307     1.0000 0.05803  0.23064  0.86442  Biso   1.000  C
  H305     1.0000 0.10285  0.56251  0.70657  Biso   1.000  H
  C308     1.0000 0.92447  0.65841  0.78126  Biso   1.000  C
  H306     1.0000 0.45960  0.89718  0.70657  Biso   1.000  H
  H307     1.0000 0.45971  0.89718  0.70657  Biso   1.000  H
  C309     1.0000 0.73388  0.07550  0.78126  Biso   1.000  C
  N29      1.0000 0.94921  0.77634  0.81190  Biso   1.000  N
  N30      1.0000 0.94933  0.77634  0.81190  Biso   1.000  N
  H308     1.0000 0.89799  0.77485  0.84713  Biso   1.000  H
  H309     1.0000 0.89805  0.77485  0.84713  Biso   1.000  H
  H310     1.0000 0.00197  0.80636  0.84783  Biso   1.000  H
  H311     1.0000 0.00185  0.80636  0.84783  Biso   1.000  H
  C310     1.0000 0.80974  0.85543  0.83721  Biso   1.000  C
  H312     1.0000 0.19448  0.99722  0.87414  Biso   1.000  H
  H313     1.0000 0.21979  0.92694  0.86303  Biso   1.000  H
  H314     1.0000 0.12142  0.89407  0.87324  Biso   1.000  H
  N31      1.0000 0.82702  0.05070  0.81190  Biso   1.000  N
  H315     1.0000 0.80442  0.99810  0.84783  Biso   1.000  H
  H316     1.0000 0.80445  0.99817  0.84783  Biso   1.000  H
  H317     1.0000 0.87670  0.10194  0.84713  Biso   1.000  H
  H318     1.0000 0.10597  0.22732  0.87324  Biso   1.000  H
  H319     1.0000 0.00276  0.19723  0.87414  Biso   1.000  H
  H320     1.0000 0.00282  0.19723  0.87414  Biso   1.000  H
  H321     1.0000 0.07312  0.29286  0.86303  Biso   1.000  H
  C311     1.0000 0.90761  0.57105  0.77667  Biso   1.000  C
  C312     1.0000 0.93249  0.69053  0.80694  Biso   1.000  C
  C313     1.0000 0.90773  0.57105  0.77667  Biso   1.000  C
  C314     1.0000 0.93261  0.69053  0.80694  Biso   1.000  C
  C315     1.0000 0.66334  0.09231  0.77667  Biso   1.000  C
  C316     1.0000 0.75791  0.06744  0.80694  Biso   1.000  C
  H322     1.0000 0.95654  0.81131  0.79894  Biso   1.000  H
  H323     1.0000 0.95660  0.81131  0.79894  Biso   1.000  H
  H324     1.0000 0.80497  0.80304  0.82833  Biso   1.000  H
  C317     1.0000 0.76941  0.82737  0.86442  Biso   1.000  C
  H325     1.0000 0.77467  0.87604  0.82743  Biso   1.000  H
  H326     1.0000 0.85479  0.04344  0.79894  Biso   1.000  H
  H327     1.0000 0.85473  0.04344  0.79894  Biso   1.000  H
  H328     1.0000 0.89905  0.54922  0.75963  Biso   1.000  H
  C318     1.0000 0.90358  0.51615  0.79687  Biso   1.000  C
  C319     1.0000 0.92445  0.63137  0.82716  Biso   1.000  C
  C320     1.0000 0.61258  0.09645  0.79687  Biso   1.000  C
  H329     1.0000 0.65015  0.10092  0.75963  Biso   1.000  H
  C321     1.0000 0.61252  0.09645  0.79687  Biso   1.000  C
  C322     1.0000 0.70692  0.07557  0.82716  Biso   1.000  C
  H330     1.0000 0.80276  0.80555  0.87414  Biso   1.000  H
  H331     1.0000 0.70712  0.78027  0.86303  Biso   1.000  H
  H332     1.0000 0.77261  0.87861  0.87324  Biso   1.000  H
  H333     1.0000 0.70724  0.78027  0.86303  Biso   1.000  H
  H334     1.0000 0.77273  0.87861  0.87324  Biso   1.000  H
  H335     1.0000 0.89709  0.45962  0.79343  Biso   1.000  H
  H336     1.0000 0.89721  0.45962  0.79343  Biso   1.000  H
  C323     1.0000 0.90897  0.54536  0.82226  Biso   1.000  C
  H337     1.0000 0.92965  0.65082  0.84433  Biso   1.000  H
  C324     1.0000 0.63634  0.09102  0.82226  Biso   1.000  C
  H338     1.0000 0.56241  0.10282  0.79343  Biso   1.000  H
  H339     1.0000 0.72115  0.07035  0.84433  Biso   1.000  H
  H340     1.0000 0.90220  0.50693  0.83604  Biso   1.000  H
  H341     1.0000 0.60469  0.09780  0.83604  Biso   1.000  H
  C325     1.0000 0.72461  0.56396  0.19774  Biso   1.000  C
  C326     1.0000 0.71239  0.52357  0.17054  Biso   1.000  C
  H342     1.0000 0.73972  0.62612  0.19636  Biso   1.000  H
  H343     1.0000 0.77260  0.56064  0.20657  Biso   1.000  H
  H344     1.0000 0.66940  0.53055  0.20746  Biso   1.000  H
  C327     1.0000 0.68836  0.42455  0.17085  Biso   1.000  C
  H345     1.0000 0.76804  0.55868  0.16076  Biso   1.000  H
  H346     1.0000 0.66473  0.52838  0.16166  Biso   1.000  H
  C328     1.0000 0.59763  0.35508  0.17101  Biso   1.000  C
  C329     1.0000 0.75742  0.40232  0.17101  Biso   1.000  C
  C330     1.0000 0.57546  0.26378  0.17085  Biso   1.000  C
  C331     1.0000 0.52235  0.37792  0.17157  Biso   1.000  C
  C332     1.0000 0.73614  0.31163  0.17085  Biso   1.000  C
  C333     1.0000 0.85553  0.47762  0.17157  Biso   1.000  C
  C334     1.0000 0.47640  0.18882  0.17054  Biso   1.000  C
  C335     1.0000 0.64491  0.24257  0.17101  Biso   1.000  C
  H347     1.0000 0.47111  0.33142  0.18117  Biso   1.000  H
  H348     1.0000 0.54339  0.43526  0.18047  Biso   1.000  H
  N32      1.0000 0.49371  0.38402  0.14524  Biso   1.000  N
  C336     1.0000 0.81116  0.28757  0.17054  Biso   1.000  C
  H349     1.0000 0.86031  0.52886  0.18117  Biso   1.000  H
  H350     1.0000 0.89183  0.45654  0.18047  Biso   1.000  H
  N33      1.0000 0.89029  0.50629  0.14524  Biso   1.000  N
  C337     1.0000 0.43604  0.16070  0.19774  Biso   1.000  C
  H351     1.0000 0.44130  0.20936  0.16076  Biso   1.000  H
  H352     1.0000 0.47160  0.13637  0.16166  Biso   1.000  H
  C338     1.0000 0.62208  0.14443  0.17157  Biso   1.000  C
  C339     1.0000 0.42460  0.40076  0.14027  Biso   1.000  C
  H353     1.0000 0.52142  0.37677  0.13227  Biso   1.000  H
  H354     1.0000 0.79061  0.23193  0.16076  Biso   1.000  H
  H355     1.0000 0.86360  0.33529  0.16166  Biso   1.000  H
  C340     1.0000 0.83928  0.27537  0.19774  Biso   1.000  C
  C341     1.0000 0.97612  0.57535  0.14027  Biso   1.000  C
  H356     1.0000 0.85530  0.47857  0.13227  Biso   1.000  H
  H357     1.0000 0.37381  0.11359  0.19636  Biso   1.000  H
  H358     1.0000 0.43930  0.21194  0.20657  Biso   1.000  H
  H359     1.0000 0.46945  0.13887  0.20746  Biso   1.000  H
  H360     1.0000 0.66854  0.13969  0.18117  Biso   1.000  H
  H361     1.0000 0.56474  0.10817  0.18047  Biso   1.000  H
  N34      1.0000 0.61596  0.10966  0.14524  Biso   1.000  N
  C342     1.0000 0.40057  0.40883  0.11460  Biso   1.000  C
  C343     1.0000 0.37361  0.40889  0.16051  Biso   1.000  C
  H362     1.0000 0.88643  0.26026  0.19636  Biso   1.000  H
  H363     1.0000 0.78805  0.22739  0.20657  Biso   1.000  H
  H364     1.0000 0.86111  0.33054  0.20746  Biso   1.000  H
  C344     1.0000 0.00822  0.59941  0.11460  Biso   1.000  C
  C345     1.0000 0.03527  0.62639  0.16051  Biso   1.000  C
  C346     1.0000 0.59918  0.02386  0.14027  Biso   1.000  C
  H365     1.0000 0.62318  0.14463  0.13227  Biso   1.000  H
  C347     1.0000 0.33003  0.42563  0.11002  Biso   1.000  C
  S28      1.0000 0.46399  0.40123  0.08816  Biso   1.000  S
  C348     1.0000 0.30303  0.42435  0.15559  Biso   1.000  C
  H366     1.0000 0.38784  0.40367  0.17766  Biso   1.000  H
  S29      1.0000 0.93724  0.53597  0.08816  Biso   1.000  S
  C349     1.0000 0.09562  0.66997  0.11002  Biso   1.000  C
  C350     1.0000 0.12138  0.69694  0.15559  Biso   1.000  C
  H367     1.0000 0.01588  0.61215  0.17766  Biso   1.000  H
  C351     1.0000 0.59116  0.99173  0.11460  Biso   1.000  C
  C352     1.0000 0.59108  0.96469  0.16051  Biso   1.000  C
  H368     1.0000 0.31684  0.43424  0.09296  Biso   1.000  H
  C353     1.0000 0.27921  0.42977  0.13022  Biso   1.000  C
  S30      1.0000 0.39607  0.26541  0.07850  Biso   1.000  S
  H369     1.0000 0.27138  0.43112  0.16937  Biso   1.000  H
  S31      1.0000 0.86930  0.60388  0.07850  Biso   1.000  S
  H370     1.0000 0.11740  0.68311  0.09296  Biso   1.000  H
  C354     1.0000 0.15047  0.72073  0.13022  Biso   1.000  C
  H371     1.0000 0.15977  0.72852  0.16937  Biso   1.000  H
  S32      1.0000 0.59873  0.06276  0.08816  Biso   1.000  S
  C355     1.0000 0.57436  0.90437  0.11002  Biso   1.000  C
  C356     1.0000 0.57566  0.87868  0.15559  Biso   1.000  C
  H372     1.0000 0.59628  0.98414  0.17766  Biso   1.000  H
  H373     1.0000 0.22910  0.43614  0.12676  Biso   1.000  H
  C357     1.0000 0.32507  0.25782  0.05207  Biso   1.000  C
  C358     1.0000 0.93269  0.67491  0.05207  Biso   1.000  C
  H374     1.0000 0.20703  0.77082  0.12676  Biso   1.000  H
  S33      1.0000 0.73459  0.13067  0.07850  Biso   1.000  S
  H375     1.0000 0.56574  0.88254  0.09296  Biso   1.000  H
  C359     1.0000 0.57027  0.84947  0.13022  Biso   1.000  C
  H376     1.0000 0.56889  0.84025  0.16937  Biso   1.000  H
  C360     1.0000 0.23772  0.24101  0.05666  Biso   1.000  C
  C361     1.0000 0.35716  0.26589  0.02639  Biso   1.000  C
  C362     1.0000 0.90865  0.64279  0.02639  Biso   1.000  C
  C363     1.0000 0.00331  0.76228  0.05666  Biso   1.000  C
  C364     1.0000 0.74217  0.06730  0.05207  Biso   1.000  C
  H377     1.0000 0.56384  0.79294  0.12676  Biso   1.000  H
  H378     1.0000 0.21593  0.23240  0.07370  Biso   1.000  H
  C365     1.0000 0.18277  0.23688  0.03646  Biso   1.000  C
  C366     1.0000 0.29804  0.25775  0.00617  Biso   1.000  C
  N35      1.0000 0.44301  0.28263  0.02143  Biso   1.000  N
  C367     1.0000 0.95971  0.70196  0.00617  Biso   1.000  C
  N36      1.0000 0.83962  0.55698  0.02143  Biso   1.000  N
  H379     1.0000 0.01651  0.78410  0.07370  Biso   1.000  H
  C368     1.0000 0.05412  0.81718  0.03646  Biso   1.000  C
  C369     1.0000 0.73409  0.09129  0.02639  Biso   1.000  C
  C370     1.0000 0.75904  0.99668  0.05666  Biso   1.000  C
  H380     1.0000 0.12629  0.23051  0.03989  Biso   1.000  H
  C371     1.0000 0.21201  0.24230  0.01109  Biso   1.000  C
  H381     1.0000 0.31749  0.26297  0.98899  Biso   1.000  H
  H382     1.0000 0.47798  0.28988  0.03441  Biso   1.000  H
  C372     1.0000 0.47776  0.28873  0.99510  Biso   1.000  C
  H383     1.0000 0.94547  0.68250  0.98899  Biso   1.000  H
  C373     1.0000 0.03030  0.78796  0.01109  Biso   1.000  C
  H384     1.0000 0.81187  0.52201  0.03441  Biso   1.000  H
  C374     1.0000 0.81097  0.52221  0.99510  Biso   1.000  C
  H385     1.0000 0.10416  0.87370  0.03989  Biso   1.000  H
  C375     1.0000 0.74220  0.04026  0.00617  Biso   1.000  C
  N37      1.0000 0.71732  0.16036  0.02143  Biso   1.000  N
  H386     1.0000 0.76766  0.98353  0.07370  Biso   1.000  H
  C376     1.0000 0.76306  0.94591  0.03646  Biso   1.000  C
  H387     1.0000 0.17358  0.23552  0.99731  Biso   1.000  H
  H388     1.0000 0.47300  0.33522  0.98550  Biso   1.000  H
  H389     1.0000 0.44146  0.23139  0.98620  Biso   1.000  H
  C377     1.0000 0.57587  0.31157  0.99567  Biso   1.000  C
  H390     1.0000 0.06196  0.82639  0.99731  Biso   1.000  H
  C378     1.0000 0.73566  0.42407  0.99567  Biso   1.000  C
  H391     1.0000 0.86218  0.52696  0.98550  Biso   1.000  H
  H392     1.0000 0.78989  0.55847  0.98620  Biso   1.000  H
  C379     1.0000 0.75776  0.96970  0.01109  Biso   1.000  C
  H393     1.0000 0.73700  0.05449  0.98899  Biso   1.000  H
  H394     1.0000 0.71005  0.18808  0.03441  Biso   1.000  H
  C380     1.0000 0.71123  0.18903  0.99510  Biso   1.000  C
  H395     1.0000 0.76954  0.89583  0.03989  Biso   1.000  H
  C381     1.0000 0.59713  0.24210  0.99582  Biso   1.000  C
  C382     1.0000 0.64499  0.40286  0.99582  Biso   1.000  C
  C383     1.0000 0.75783  0.35501  0.99582  Biso   1.000  C
  H396     1.0000 0.76456  0.93812  0.99731  Biso   1.000  H
  H397     1.0000 0.66477  0.13779  0.98550  Biso   1.000  H
  H398     1.0000 0.76861  0.21011  0.98620  Biso   1.000  H
  C384     1.0000 0.68842  0.26433  0.99567  Biso   1.000  C
  C385     1.0000 0.52215  0.14308  0.99614  Biso   1.000  C
  C386     1.0000 0.62094  0.47789  0.99614  Biso   1.000  C
  C387     1.0000 0.85691  0.37907  0.99614  Biso   1.000  C
  H399     1.0000 0.54268  0.10797  0.00589  Biso   1.000  H
  H400     1.0000 0.46967  0.13826  0.00500  Biso   1.000  H
  C388     1.0000 0.49397  0.10268  0.96893  Biso   1.000  C
  H401     1.0000 0.56526  0.45728  0.00589  Biso   1.000  H
  H402     1.0000 0.66856  0.53028  0.00500  Biso   1.000  H
  C389     1.0000 0.60867  0.50595  0.96893  Biso   1.000  C
  H403     1.0000 0.89201  0.43472  0.00589  Biso   1.000  H
  H404     1.0000 0.86163  0.33136  0.00500  Biso   1.000  H
  C390     1.0000 0.89723  0.39127  0.96893  Biso   1.000  C
  H405     1.0000 0.44692  0.04053  0.97030  Biso   1.000  H
  H406     1.0000 0.54528  0.10600  0.96011  Biso   1.000  H
  H407     1.0000 0.47217  0.13609  0.95919  Biso   1.000  H
  H408     1.0000 0.59354  0.55305  0.97030  Biso   1.000  H
  H409     1.0000 0.56069  0.45471  0.96011  Biso   1.000  H
  H410     1.0000 0.66390  0.52777  0.95919  Biso   1.000  H
  H411     1.0000 0.95949  0.40639  0.97030  Biso   1.000  H
  H412     1.0000 0.89398  0.43926  0.96011  Biso   1.000  H
  H413     1.0000 0.86389  0.33610  0.95919  Biso   1.000  H
  C391     1.0000 0.27535  0.43600  0.80226  Biso   1.000  C
  C392     1.0000 0.28762  0.47640  0.82946  Biso   1.000  C
  H414     1.0000 0.26030  0.37385  0.80364  Biso   1.000  H
  H415     1.0000 0.22735  0.43932  0.79343  Biso   1.000  H
  H416     1.0000 0.33056  0.46942  0.79254  Biso   1.000  H
  C393     1.0000 0.31160  0.57542  0.82915  Biso   1.000  C
  H417     1.0000 0.23197  0.44129  0.83924  Biso   1.000  H
  H418     1.0000 0.33522  0.47159  0.83834  Biso   1.000  H
  C394     1.0000 0.40233  0.64489  0.82899  Biso   1.000  C
  C395     1.0000 0.24259  0.59765  0.82899  Biso   1.000  C
  C396     1.0000 0.47760  0.62205  0.82843  Biso   1.000  C
  C397     1.0000 0.42456  0.73618  0.82915  Biso   1.000  C
  C398     1.0000 0.14443  0.52235  0.82843  Biso   1.000  C
  C399     1.0000 0.26381  0.68833  0.82915  Biso   1.000  C
  H419     1.0000 0.52885  0.66854  0.81883  Biso   1.000  H
  H420     1.0000 0.45656  0.56471  0.81953  Biso   1.000  H
  N38      1.0000 0.50625  0.61595  0.85476  Biso   1.000  N
  C400     1.0000 0.35510  0.75740  0.82899  Biso   1.000  C
  C401     1.0000 0.52358  0.81121  0.82946  Biso   1.000  C
  H421     1.0000 0.13965  0.47111  0.81883  Biso   1.000  H
  H422     1.0000 0.10819  0.54343  0.81953  Biso   1.000  H
  N39      1.0000 0.10967  0.49368  0.85476  Biso   1.000  N
  C402     1.0000 0.18880  0.71239  0.82946  Biso   1.000  C
  C403     1.0000 0.57536  0.59921  0.85973  Biso   1.000  C
  H423     1.0000 0.47853  0.62320  0.86773  Biso   1.000  H
  C404     1.0000 0.37788  0.85554  0.82843  Biso   1.000  C
  H424     1.0000 0.55865  0.79061  0.83924  Biso   1.000  H
  H425     1.0000 0.52836  0.86360  0.83834  Biso   1.000  H
  C405     1.0000 0.56391  0.83927  0.80226  Biso   1.000  C
  C406     1.0000 0.02384  0.42462  0.85973  Biso   1.000  C
  H426     1.0000 0.14466  0.52140  0.86773  Biso   1.000  H
  H427     1.0000 0.20940  0.76804  0.83924  Biso   1.000  H
  H428     1.0000 0.13639  0.66475  0.83834  Biso   1.000  H
  C407     1.0000 0.16068  0.72459  0.80226  Biso   1.000  C
  C408     1.0000 0.59938  0.59114  0.88540  Biso   1.000  C
  C409     1.0000 0.62635  0.59107  0.83949  Biso   1.000  C
  H429     1.0000 0.33141  0.86028  0.81883  Biso   1.000  H
  H430     1.0000 0.43527  0.89180  0.81953  Biso   1.000  H
  N40      1.0000 0.38405  0.89031  0.85476  Biso   1.000  N
  H431     1.0000 0.62614  0.88638  0.80364  Biso   1.000  H
  H432     1.0000 0.56065  0.78803  0.79343  Biso   1.000  H
  H433     1.0000 0.53056  0.86109  0.79254  Biso   1.000  H
  C410     1.0000 0.99177  0.40062  0.88540  Biso   1.000  C
  C411     1.0000 0.96469  0.37358  0.83949  Biso   1.000  C
  H434     1.0000 0.11359  0.73971  0.80364  Biso   1.000  H
  H435     1.0000 0.21196  0.77258  0.79343  Biso   1.000  H
  H436     1.0000 0.13884  0.66942  0.79254  Biso   1.000  H
  C412     1.0000 0.66998  0.57433  0.88998  Biso   1.000  C
  S34      1.0000 0.53597  0.59873  0.91184  Biso   1.000  S
  C413     1.0000 0.69698  0.57562  0.84441  Biso   1.000  C
  H437     1.0000 0.61211  0.59629  0.82234  Biso   1.000  H
  C414     1.0000 0.40077  0.97611  0.85973  Biso   1.000  C
  H438     1.0000 0.37678  0.85533  0.86773  Biso   1.000  H
  S35      1.0000 0.06272  0.46399  0.91184  Biso   1.000  S
  C415     1.0000 0.90433  0.33000  0.88998  Biso   1.000  C
  C416     1.0000 0.87870  0.30303  0.84441  Biso   1.000  C
  H439     1.0000 0.98419  0.38781  0.82234  Biso   1.000  H
  H440     1.0000 0.68317  0.56573  0.90704  Biso   1.000  H
  C417     1.0000 0.72074  0.57020  0.86978  Biso   1.000  C
  S36      1.0000 0.60388  0.73456  0.92150  Biso   1.000  S
  H441     1.0000 0.72857  0.56884  0.83063  Biso   1.000  H
  C418     1.0000 0.40885  0.00824  0.88540  Biso   1.000  C
  C419     1.0000 0.40888  0.03528  0.83949  Biso   1.000  C
  S37      1.0000 0.13066  0.39608  0.92150  Biso   1.000  S
  H442     1.0000 0.88256  0.31685  0.90704  Biso   1.000  H
  C420     1.0000 0.84949  0.27924  0.86978  Biso   1.000  C
  H443     1.0000 0.84025  0.27144  0.83063  Biso   1.000  H
  H444     1.0000 0.77085  0.56383  0.87324  Biso   1.000  H
  C421     1.0000 0.67488  0.74215  0.94793  Biso   1.000  C
  S38      1.0000 0.40122  0.93721  0.91184  Biso   1.000  S
  C422     1.0000 0.42560  0.09560  0.88998  Biso   1.000  C
  C423     1.0000 0.42435  0.12129  0.84441  Biso   1.000  C
  H445     1.0000 0.40367  0.01583  0.82234  Biso   1.000  H
  C424     1.0000 0.06726  0.32505  0.94793  Biso   1.000  C
  H446     1.0000 0.79298  0.22915  0.87324  Biso   1.000  H
  C425     1.0000 0.76229  0.75896  0.94334  Biso   1.000  C
  C426     1.0000 0.64279  0.73408  0.97361  Biso   1.000  C
  S39      1.0000 0.26537  0.86930  0.92150  Biso   1.000  S
  H447     1.0000 0.43428  0.11742  0.90704  Biso   1.000  H
  C427     1.0000 0.42974  0.15050  0.86978  Biso   1.000  C
  H448     1.0000 0.43112  0.15972  0.83063  Biso   1.000  H
  C428     1.0000 0.09131  0.35718  0.97361  Biso   1.000  C
  C429     1.0000 0.99670  0.23769  0.94334  Biso   1.000  C
  H449     1.0000 0.78409  0.76756  0.92630  Biso   1.000  H
  C430     1.0000 0.81719  0.76309  0.96354  Biso   1.000  C
  C431     1.0000 0.70192  0.74222  0.99383  Biso   1.000  C
  N41      1.0000 0.55695  0.71734  0.97857  Biso   1.000  N
  C432     1.0000 0.25782  0.93273  0.94793  Biso   1.000  C
  H450     1.0000 0.43611  0.20702  0.87324  Biso   1.000  H
  C433     1.0000 0.04024  0.29801  0.99383  Biso   1.000  C
  N42      1.0000 0.16039  0.44298  0.97857  Biso   1.000  N
  H451     1.0000 0.98344  0.21587  0.92630  Biso   1.000  H
  C434     1.0000 0.94589  0.18279  0.96354  Biso   1.000  C
  H452     1.0000 0.87367  0.76946  0.96011  Biso   1.000  H
  C435     1.0000 0.78800  0.75767  0.98891  Biso   1.000  C
  H453     1.0000 0.68246  0.73700  0.01101  Biso   1.000  H
  H454     1.0000 0.52198  0.71009  0.96559  Biso   1.000  H
  C436     1.0000 0.52220  0.71124  0.00490  Biso   1.000  C
  C437     1.0000 0.26586  0.90867  0.97361  Biso   1.000  C
  C438     1.0000 0.24098  0.00329  0.94334  Biso   1.000  C
  C439     1.0000 0.96971  0.21200  0.98891  Biso   1.000  C
  H455     1.0000 0.05449  0.31746  0.01101  Biso   1.000  H
  H456     1.0000 0.18809  0.47796  0.96559  Biso   1.000  H
  C440     1.0000 0.18899  0.47775  0.00490  Biso   1.000  C
  H457     1.0000 0.89579  0.12627  0.96011  Biso   1.000  H
  H458     1.0000 0.82637  0.76445  0.00269  Biso   1.000  H
  H459     1.0000 0.52695  0.66475  0.01450  Biso   1.000  H
  H460     1.0000 0.55850  0.76858  0.01380  Biso   1.000  H
  C441     1.0000 0.42409  0.68840  0.00433  Biso   1.000  C
  C442     1.0000 0.25775  0.95971  0.99383  Biso   1.000  C
  N43      1.0000 0.28263  0.83961  0.97857  Biso   1.000  N
  H461     1.0000 0.23235  0.01644  0.92630  Biso   1.000  H
  C443     1.0000 0.23683  0.05405  0.96354  Biso   1.000  C
  H462     1.0000 0.93811  0.17357  0.00269  Biso   1.000  H
  H463     1.0000 0.13778  0.47301  0.01450  Biso   1.000  H
  H464     1.0000 0.21012  0.44149  0.01380  Biso   1.000  H
  C444     1.0000 0.26435  0.57589  0.00433  Biso   1.000  C
  C445     1.0000 0.35502  0.59711  0.00418  Biso   1.000  C
  C446     1.0000 0.40283  0.75787  0.00418  Biso   1.000  C
  H465     1.0000 0.26302  0.94548  0.01101  Biso   1.000  H
  C447     1.0000 0.24226  0.03026  0.98891  Biso   1.000  C
  H466     1.0000 0.28990  0.81189  0.96559  Biso   1.000  H
  C448     1.0000 0.28872  0.81094  0.00490  Biso   1.000  C
  H467     1.0000 0.23048  0.10414  0.96011  Biso   1.000  H
  C449     1.0000 0.24212  0.64496  0.00418  Biso   1.000  C
  C450     1.0000 0.37905  0.52215  0.00386  Biso   1.000  C
  C451     1.0000 0.31159  0.73564  0.00433  Biso   1.000  C
  C452     1.0000 0.47787  0.85689  0.00386  Biso   1.000  C
  H468     1.0000 0.23545  0.06185  0.00269  Biso   1.000  H
  H469     1.0000 0.33518  0.86218  0.01450  Biso   1.000  H
  H470     1.0000 0.23140  0.78986  0.01380  Biso   1.000  H
  C453     1.0000 0.14305  0.62090  0.00386  Biso   1.000  C
  H471     1.0000 0.43469  0.54268  0.99411  Biso   1.000  H
  H472     1.0000 0.33140  0.46969  0.99500  Biso   1.000  H
  C454     1.0000 0.39128  0.49402  0.03107  Biso   1.000  C
  H473     1.0000 0.45733  0.89200  0.99411  Biso   1.000  H
  H474     1.0000 0.53028  0.86170  0.99500  Biso   1.000  H
  C455     1.0000 0.50599  0.89729  0.03107  Biso   1.000  C
  H475     1.0000 0.10801  0.56525  0.99411  Biso   1.000  H
  H476     1.0000 0.13832  0.66861  0.99500  Biso   1.000  H
  C456     1.0000 0.10273  0.60870  0.03107  Biso   1.000  C
  H477     1.0000 0.40641  0.44692  0.02970  Biso   1.000  H
  H478     1.0000 0.43927  0.54526  0.03989  Biso   1.000  H
  H479     1.0000 0.33612  0.47220  0.04081  Biso   1.000  H
  H480     1.0000 0.55312  0.95951  0.02970  Biso   1.000  H
  H481     1.0000 0.45467  0.89397  0.03989  Biso   1.000  H
  H482     1.0000 0.52779  0.86387  0.04081  Biso   1.000  H
  H483     1.0000 0.04053  0.59358  0.02970  Biso   1.000  H
  H484     1.0000 0.10603  0.56071  0.03989  Biso   1.000  H
  H485     1.0000 0.13607  0.66387  0.04081  Biso   1.000  H
