data_image0
_cell_length_a       34.971
_cell_length_b       17.788
_cell_length_c       23.091
_cell_angle_alpha    90
_cell_angle_beta     90
_cell_angle_gamma    90

_symmetry_space_group_name_H-M    "P 1"
_symmetry_int_tables_number       1

loop_
  _symmetry_equiv_pos_as_xyz
  'x, y, z'

loop_
  _atom_site_label
  _atom_site_occupancy
  _atom_site_fract_x
  _atom_site_fract_y
  _atom_site_fract_z
  _atom_site_thermal_displace_type
  _atom_site_B_iso_or_equiv
  _atom_site_type_symbol
  C1       1.0000 0.55346  0.52181  0.45329  Biso   1.000  C
  C2       1.0000 0.52226  0.54267  0.41181  Biso   1.000  C
  H1       1.0000 0.57802  0.51850  0.43207  Biso   1.000  H
  H2       1.0000 0.54791  0.47150  0.46971  Biso   1.000  H
  C3       1.0000 0.55740  0.57640  0.50097  Biso   1.000  C
  C4       1.0000 0.51669  0.48881  0.36170  Biso   1.000  C
  H3       1.0000 0.49790  0.54638  0.43350  Biso   1.000  H
  H4       1.0000 0.52789  0.59321  0.39591  Biso   1.000  H
  H5       1.0000 0.53361  0.57792  0.52349  Biso   1.000  H
  H6       1.0000 0.57862  0.56122  0.52631  Biso   1.000  H
  H7       1.0000 0.56261  0.62638  0.48499  Biso   1.000  H
  O1       1.0000 0.54928  0.49185  0.32407  Biso   1.000  O
  H8       1.0000 0.49329  0.50247  0.33987  Biso   1.000  H
  H9       1.0000 0.51351  0.43698  0.37668  Biso   1.000  H
  C5       1.0000 0.54791  0.45458  0.27396  Biso   1.000  C
  C6       1.0000 0.51737  0.40539  0.25837  Biso   1.000  C
  C7       1.0000 0.57722  0.46470  0.23438  Biso   1.000  C
  C8       1.0000 0.51749  0.36727  0.20835  Biso   1.000  C
  H10      1.0000 0.49641  0.39960  0.28409  Biso   1.000  H
  C9       1.0000 0.57691  0.42787  0.17972  Biso   1.000  C
  C10      1.0000 0.61256  0.51029  0.25365  Biso   1.000  C
  C11      1.0000 0.54628  0.37621  0.16652  Biso   1.000  C
  H11      1.0000 0.49730  0.33292  0.20090  Biso   1.000  H
  C12      1.0000 0.60430  0.44389  0.13676  Biso   1.000  C
  N1       1.0000 0.63029  0.48207  0.29748  Biso   1.000  N
  O2       1.0000 0.62220  0.56656  0.22632  Biso   1.000  O
  C13      1.0000 0.54648  0.33787  0.11061  Biso   1.000  C
  C14      1.0000 0.60167  0.41298  0.08406  Biso   1.000  C
  H12      1.0000 0.62492  0.47689  0.14529  Biso   1.000  H
  H13      1.0000 0.62051  0.44181  0.31380  Biso   1.000  H
  C15      1.0000 0.66572  0.51282  0.32207  Biso   1.000  C
  C16      1.0000 0.51983  0.27339  0.09497  Biso   1.000  C
  C17      1.0000 0.57216  0.35968  0.07094  Biso   1.000  C
  H14      1.0000 0.61960  0.42658  0.05491  Biso   1.000  H
  H15      1.0000 0.67690  0.54947  0.29470  Biso   1.000  H
  H16      1.0000 0.65980  0.53941  0.35858  Biso   1.000  H
  C18      1.0000 0.69469  0.45042  0.33398  Biso   1.000  C
  C19      1.0000 0.54145  0.19957  0.10056  Biso   1.000  C
  H17      1.0000 0.49670  0.27350  0.12039  Biso   1.000  H
  C20      1.0000 0.50876  0.28519  0.03244  Biso   1.000  C
  O3       1.0000 0.57247  0.33331  0.01429  Biso   1.000  O
  C21      1.0000 0.71591  0.42051  0.28639  Biso   1.000  C
  C22      1.0000 0.69855  0.42529  0.38838  Biso   1.000  C
  C23      1.0000 0.54502  0.15820  0.15422  Biso   1.000  C
  C24      1.0000 0.56284  0.17388  0.05465  Biso   1.000  C
  H18      1.0000 0.49041  0.24601  0.01992  Biso   1.000  H
  H19      1.0000 0.49661  0.33500  0.02750  Biso   1.000  H
  C25      1.0000 0.54591  0.28058  0.99615  Biso   1.000  C
  C26      1.0000 0.71305  0.44879  0.23122  Biso   1.000  C
  C27      1.0000 0.74101  0.35738  0.29860  Biso   1.000  C
  O4       1.0000 0.67645  0.45621  0.43398  Biso   1.000  O
  C28      1.0000 0.72491  0.36620  0.39868  Biso   1.000  C
  C29      1.0000 0.52106  0.17270  0.20164  Biso   1.000  C
  C30      1.0000 0.57090  0.09681  0.15777  Biso   1.000  C
  C31      1.0000 0.58800  0.11289  0.05903  Biso   1.000  C
  O5       1.0000 0.56167  0.20772  0.99896  Biso   1.000  O
  H20      1.0000 0.53930  0.29149  0.95483  Biso   1.000  H
  H21      1.0000 0.69512  0.48758  0.22368  Biso   1.000  H
  C32      1.0000 0.73472  0.42338  0.18778  Biso   1.000  C
  C33      1.0000 0.76212  0.32640  0.25070  Biso   1.000  C
  C34      1.0000 0.74419  0.33360  0.35507  Biso   1.000  C
  C35      1.0000 0.69552  0.47032  0.48919  Biso   1.000  C
  H22      1.0000 0.72900  0.34928  0.43718  Biso   1.000  H
  C36      1.0000 0.52269  0.13172  0.25062  Biso   1.000  C
  H23      1.0000 0.50310  0.21267  0.19908  Biso   1.000  H
  C37      1.0000 0.57359  0.05639  0.21151  Biso   1.000  C
  C38      1.0000 0.59275  0.07589  0.10814  Biso   1.000  C
  H24      1.0000 0.60201  0.09759  0.02581  Biso   1.000  H
  H25      1.0000 0.73301  0.44597  0.15058  Biso   1.000  H
  C39      1.0000 0.76074  0.36182  0.19739  Biso   1.000  C
  C40      1.0000 0.78579  0.25388  0.25378  Biso   1.000  C
  H26      1.0000 0.76060  0.29250  0.36360  Biso   1.000  H
  H27      1.0000 0.69621  0.42399  0.51310  Biso   1.000  H
  H28      1.0000 0.72211  0.48780  0.48287  Biso   1.000  H
  C41      1.0000 0.67250  0.52890  0.51760  Biso   1.000  C
  C42      1.0000 0.54991  0.07336  0.25659  Biso   1.000  C
  H29      1.0000 0.50542  0.14201  0.28141  Biso   1.000  H
  C43      1.0000 0.60504  0.99938  0.21788  Biso   1.000  C
  H30      1.0000 0.61062  0.03581  0.11039  Biso   1.000  H
  O6       1.0000 0.78242  0.34237  0.15084  Biso   1.000  O
  C44      1.0000 0.81956  0.25911  0.21259  Biso   1.000  C
  H31      1.0000 0.79520  0.24612  0.29418  Biso   1.000  H
  C45      1.0000 0.76220  0.18631  0.23459  Biso   1.000  C
  H32      1.0000 0.68211  0.53227  0.55788  Biso   1.000  H
  H33      1.0000 0.64622  0.50860  0.52020  Biso   1.000  H
  C46      1.0000 0.66870  0.60350  0.49807  Biso   1.000  C
  O7       1.0000 0.55400  0.03109  0.30666  Biso   1.000  O
  N2       1.0000 0.63155  0.01872  0.25716  Biso   1.000  N
  O8       1.0000 0.60625  0.94136  0.18973  Biso   1.000  O
  C47      1.0000 0.80292  0.27350  0.15370  Biso   1.000  C
  H34      1.0000 0.83432  0.21160  0.21268  Biso   1.000  H
  H35      1.0000 0.83681  0.30071  0.22411  Biso   1.000  H
  C48      1.0000 0.74233  0.13588  0.27301  Biso   1.000  C
  C49      1.0000 0.75760  0.17439  0.17600  Biso   1.000  C
  H36      1.0000 0.65000  0.59501  0.46650  Biso   1.000  H
  H37      1.0000 0.69352  0.60867  0.47781  Biso   1.000  H
  C50      1.0000 0.66241  0.66809  0.50721  Biso   1.000  C
  C51      1.0000 0.69952  0.65561  0.49201  Biso   1.000  C
  C52      1.0000 0.52403  0.03868  0.34879  Biso   1.000  C
  H38      1.0000 0.62712  0.05819  0.27920  Biso   1.000  H
  C53      1.0000 0.66752  0.97751  0.26530  Biso   1.000  C
  O9       1.0000 0.77710  0.21559  0.13421  Biso   1.000  O
  H39      1.0000 0.82451  0.27642  0.12550  Biso   1.000  H
  C54      1.0000 0.71659  0.08028  0.25005  Biso   1.000  C
  C55      1.0000 0.74859  0.13548  0.33299  Biso   1.000  C
  C56      1.0000 0.73169  0.12497  0.15140  Biso   1.000  C
  H40      1.0000 0.66930  0.69777  0.47300  Biso   1.000  H
  H41      1.0000 0.63510  0.67489  0.51548  Biso   1.000  H
  H42      1.0000 0.67750  0.68490  0.54038  Biso   1.000  H
  H43      1.0000 0.68960  0.70351  0.47720  Biso   1.000  H
  H44      1.0000 0.71162  0.66371  0.52977  Biso   1.000  H
  H45      1.0000 0.71842  0.63537  0.46477  Biso   1.000  H
  H46      1.0000 0.52372  0.09062  0.36421  Biso   1.000  H
  H47      1.0000 0.49901  0.02850  0.33048  Biso   1.000  H
  C57      1.0000 0.53078  0.98370  0.39751  Biso   1.000  C
  C58      1.0000 0.69683  0.03171  0.28691  Biso   1.000  C
  H48      1.0000 0.66392  0.93636  0.29358  Biso   1.000  H
  H49      1.0000 0.67590  0.95531  0.22810  Biso   1.000  H
  C59      1.0000 0.71082  0.07758  0.19059  Biso   1.000  C
  C60      1.0000 0.72949  0.08601  0.36949  Biso   1.000  C
  H50      1.0000 0.76641  0.17000  0.34918  Biso   1.000  H
  H51      1.0000 0.72792  0.12261  0.11069  Biso   1.000  H
  H52      1.0000 0.53241  0.93237  0.38110  Biso   1.000  H
  H53      1.0000 0.50851  0.98510  0.42389  Biso   1.000  H
  C61      1.0000 0.56613  0.99871  0.43190  Biso   1.000  C
  C62      1.0000 0.70430  0.03418  0.34698  Biso   1.000  C
  H54      1.0000 0.69252  0.04340  0.17539  Biso   1.000  H
  H55      1.0000 0.73392  0.08781  0.41007  Biso   1.000  H
  H56      1.0000 0.56570  0.05121  0.44597  Biso   1.000  H
  H57      1.0000 0.58880  0.99247  0.40670  Biso   1.000  H
  C63      1.0000 0.56930  0.94530  0.48369  Biso   1.000  C
  O10      1.0000 0.68382  0.98370  0.38062  Biso   1.000  O
  H58      1.0000 0.57350  0.89392  0.46971  Biso   1.000  H
  H59      1.0000 0.59080  0.96048  0.50808  Biso   1.000  H
  H60      1.0000 0.54559  0.94721  0.50630  Biso   1.000  H
  C64      1.0000 0.69472  0.97431  0.43857  Biso   1.000  C
  H61      1.0000 0.68571  0.01771  0.46170  Biso   1.000  H
  H62      1.0000 0.72291  0.97217  0.44130  Biso   1.000  H
  C65      1.0000 0.67788  0.90257  0.46291  Biso   1.000  C
  H63      1.0000 0.64971  0.90730  0.46399  Biso   1.000  H
  H64      1.0000 0.68422  0.86030  0.43671  Biso   1.000  H
  C66      1.0000 0.69246  0.88430  0.52410  Biso   1.000  C
  H65      1.0000 0.72040  0.87520  0.52228  Biso   1.000  H
  H66      1.0000 0.68011  0.83731  0.53757  Biso   1.000  H
  C67      1.0000 0.68474  0.94530  0.56710  Biso   1.000  C
  H67      1.0000 0.65712  0.95446  0.56918  Biso   1.000  H
  H68      1.0000 0.69420  0.92990  0.60517  Biso   1.000  H
  H69      1.0000 0.69781  0.99140  0.55489  Biso   1.000  H
  C68      1.0000 0.44657  0.47819  0.54671  Biso   1.000  C
  C69      1.0000 0.47777  0.45727  0.58819  Biso   1.000  C
  H70      1.0000 0.42201  0.48150  0.56788  Biso   1.000  H
  H71      1.0000 0.45212  0.52850  0.53029  Biso   1.000  H
  C70      1.0000 0.44260  0.42360  0.49898  Biso   1.000  C
  C71      1.0000 0.48331  0.51119  0.63826  Biso   1.000  C
  H72      1.0000 0.50210  0.45362  0.56650  Biso   1.000  H
  H73      1.0000 0.47211  0.40679  0.60409  Biso   1.000  H
  H74      1.0000 0.46642  0.42208  0.47651  Biso   1.000  H
  H75      1.0000 0.42141  0.43878  0.47369  Biso   1.000  H
  H76      1.0000 0.43742  0.37362  0.51501  Biso   1.000  H
  O11      1.0000 0.45072  0.50810  0.67593  Biso   1.000  O
  H77      1.0000 0.50671  0.49747  0.66008  Biso   1.000  H
  H78      1.0000 0.48652  0.56302  0.62327  Biso   1.000  H
  C72      1.0000 0.45209  0.54537  0.72600  Biso   1.000  C
  C73      1.0000 0.42281  0.53530  0.76562  Biso   1.000  C
  C74      1.0000 0.48266  0.59461  0.74163  Biso   1.000  C
  C75      1.0000 0.38746  0.48971  0.74631  Biso   1.000  C
  C76      1.0000 0.42309  0.57207  0.82023  Biso   1.000  C
  C77      1.0000 0.48251  0.63267  0.79161  Biso   1.000  C
  H79      1.0000 0.50362  0.60040  0.71586  Biso   1.000  H
  N3       1.0000 0.36973  0.51788  0.70252  Biso   1.000  N
  O12      1.0000 0.37780  0.43344  0.77368  Biso   1.000  O
  C78      1.0000 0.45372  0.62379  0.83348  Biso   1.000  C
  C79      1.0000 0.39570  0.55611  0.86319  Biso   1.000  C
  H80      1.0000 0.50270  0.66708  0.79910  Biso   1.000  H
  C80      1.0000 0.33431  0.48718  0.67788  Biso   1.000  C
  H81      1.0000 0.37951  0.55819  0.68620  Biso   1.000  H
  C81      1.0000 0.45355  0.66208  0.88935  Biso   1.000  C
  H82      1.0000 0.37511  0.52311  0.85466  Biso   1.000  H
  C82      1.0000 0.39836  0.58697  0.91594  Biso   1.000  C
  C83      1.0000 0.30531  0.54958  0.66597  Biso   1.000  C
  H83      1.0000 0.32310  0.45047  0.70530  Biso   1.000  H
  H84      1.0000 0.34020  0.46059  0.64138  Biso   1.000  H
  C84      1.0000 0.48020  0.72661  0.90498  Biso   1.000  C
  C85      1.0000 0.42784  0.64032  0.92906  Biso   1.000  C
  H85      1.0000 0.38040  0.57342  0.94509  Biso   1.000  H
  C86      1.0000 0.30148  0.57471  0.61158  Biso   1.000  C
  C87      1.0000 0.28412  0.57949  0.71357  Biso   1.000  C
  C88      1.0000 0.45858  0.80037  0.89944  Biso   1.000  C
  H86      1.0000 0.50330  0.72650  0.87956  Biso   1.000  H
  C89      1.0000 0.49126  0.71481  0.96752  Biso   1.000  C
  O13      1.0000 0.42753  0.66669  0.98571  Biso   1.000  O
  O14      1.0000 0.32355  0.54379  0.56598  Biso   1.000  O
  C90      1.0000 0.27509  0.63380  0.60127  Biso   1.000  C
  C91      1.0000 0.28698  0.55121  0.76878  Biso   1.000  C
  C92      1.0000 0.25901  0.64257  0.70140  Biso   1.000  C
  C93      1.0000 0.45501  0.84180  0.84578  Biso   1.000  C
  C94      1.0000 0.43716  0.82612  0.94530  Biso   1.000  C
  H87      1.0000 0.50959  0.75399  0.98008  Biso   1.000  H
  H88      1.0000 0.50342  0.66500  0.97250  Biso   1.000  H
  C95      1.0000 0.45412  0.71942  0.00385  Biso   1.000  C
  C96      1.0000 0.30451  0.52968  0.51081  Biso   1.000  C
  C97      1.0000 0.25581  0.66640  0.64488  Biso   1.000  C
  H89      1.0000 0.27100  0.65072  0.56277  Biso   1.000  H
  H90      1.0000 0.30491  0.51237  0.77628  Biso   1.000  H
  C98      1.0000 0.26528  0.57657  0.81218  Biso   1.000  C
  C99      1.0000 0.23788  0.67360  0.74930  Biso   1.000  C
  C100     1.0000 0.47897  0.82730  0.79832  Biso   1.000  C
  C101     1.0000 0.42913  0.90319  0.84223  Biso   1.000  C
  C102     1.0000 0.41203  0.88711  0.94093  Biso   1.000  C
  O15      1.0000 0.43833  0.79228  0.00100  Biso   1.000  O
  H91      1.0000 0.46070  0.70851  0.04517  Biso   1.000  H
  C103     1.0000 0.32750  0.47110  0.48240  Biso   1.000  C
  H92      1.0000 0.30379  0.57601  0.48690  Biso   1.000  H
  H93      1.0000 0.27792  0.51220  0.51708  Biso   1.000  H
  H94      1.0000 0.23940  0.70750  0.63640  Biso   1.000  H
  H95      1.0000 0.26699  0.55397  0.84938  Biso   1.000  H
  C104     1.0000 0.23928  0.63818  0.80256  Biso   1.000  C
  C105     1.0000 0.21421  0.74606  0.74618  Biso   1.000  C
  C106     1.0000 0.47734  0.86828  0.74934  Biso   1.000  C
  H96      1.0000 0.49690  0.78727  0.80087  Biso   1.000  H
  C107     1.0000 0.42644  0.94361  0.78845  Biso   1.000  C
  C108     1.0000 0.40725  0.92411  0.89182  Biso   1.000  C
  H97      1.0000 0.39802  0.90241  0.97419  Biso   1.000  H
  C109     1.0000 0.33130  0.39650  0.50188  Biso   1.000  C
  H98      1.0000 0.31789  0.46767  0.44208  Biso   1.000  H
  H99      1.0000 0.35381  0.49140  0.47980  Biso   1.000  H
  O16      1.0000 0.21758  0.65763  0.84916  Biso   1.000  O
  C110     1.0000 0.18046  0.74089  0.78736  Biso   1.000  C
  H100     1.0000 0.20480  0.75388  0.70577  Biso   1.000  H
  C111     1.0000 0.23783  0.81369  0.76536  Biso   1.000  C
  C112     1.0000 0.45009  0.92664  0.74336  Biso   1.000  C
  H101     1.0000 0.49461  0.85799  0.71859  Biso   1.000  H
  C113     1.0000 0.39498  0.00062  0.78212  Biso   1.000  C
  H102     1.0000 0.38941  0.96419  0.88957  Biso   1.000  H
  C114     1.0000 0.30051  0.34439  0.50799  Biso   1.000  C
  H103     1.0000 0.30651  0.39128  0.52219  Biso   1.000  H
  C115     1.0000 0.33759  0.33191  0.49279  Biso   1.000  C
  H104     1.0000 0.35000  0.40499  0.53350  Biso   1.000  H
  C116     1.0000 0.19711  0.72650  0.84626  Biso   1.000  C
  H105     1.0000 0.16571  0.78840  0.78728  Biso   1.000  H
  H106     1.0000 0.16319  0.69929  0.77589  Biso   1.000  H
  C117     1.0000 0.24240  0.82561  0.82400  Biso   1.000  C
  C118     1.0000 0.25767  0.86407  0.72699  Biso   1.000  C
  O17      1.0000 0.44603  0.96891  0.69330  Biso   1.000  O
  N4       1.0000 0.36848  0.98122  0.74284  Biso   1.000  N
  O18      1.0000 0.39375  0.05864  0.81027  Biso   1.000  O
  H107     1.0000 0.31040  0.29649  0.52280  Biso   1.000  H
  H108     1.0000 0.28841  0.33629  0.47018  Biso   1.000  H
  H109     1.0000 0.28160  0.36457  0.53519  Biso   1.000  H
  H110     1.0000 0.33070  0.30217  0.52700  Biso   1.000  H
  H111     1.0000 0.36490  0.32511  0.48447  Biso   1.000  H
  H112     1.0000 0.32250  0.31510  0.45957  Biso   1.000  H
  O19      1.0000 0.22290  0.78441  0.86579  Biso   1.000  O
  H113     1.0000 0.17549  0.72358  0.87450  Biso   1.000  H
  C119     1.0000 0.26831  0.87497  0.84860  Biso   1.000  C
  C120     1.0000 0.28341  0.91966  0.74990  Biso   1.000  C
  C121     1.0000 0.25144  0.86452  0.66697  Biso   1.000  C
  C122     1.0000 0.47597  0.96127  0.65121  Biso   1.000  C
  C123     1.0000 0.33248  0.02249  0.73470  Biso   1.000  C
  H114     1.0000 0.37291  0.94181  0.72080  Biso   1.000  H
  H115     1.0000 0.27211  0.87739  0.88926  Biso   1.000  H
  C124     1.0000 0.28918  0.92236  0.80941  Biso   1.000  C
  C125     1.0000 0.30319  0.96829  0.71309  Biso   1.000  C
  H116     1.0000 0.23359  0.83000  0.65077  Biso   1.000  H
  C126     1.0000 0.27051  0.91399  0.63051  Biso   1.000  C
  H117     1.0000 0.47631  0.90938  0.63579  Biso   1.000  H
  H118     1.0000 0.50102  0.97150  0.66948  Biso   1.000  H
  C127     1.0000 0.46925  0.01630  0.60249  Biso   1.000  C
  H119     1.0000 0.33611  0.06358  0.70638  Biso   1.000  H
  H120     1.0000 0.32410  0.04469  0.77190  Biso   1.000  H
  H121     1.0000 0.30751  0.95660  0.82456  Biso   1.000  H
  C128     1.0000 0.29573  0.96576  0.65298  Biso   1.000  C
  H122     1.0000 0.26611  0.91219  0.58988  Biso   1.000  H
  H123     1.0000 0.46762  0.06757  0.61890  Biso   1.000  H
  H124     1.0000 0.49149  0.01490  0.57607  Biso   1.000  H
  C129     1.0000 0.43390  0.00129  0.56810  Biso   1.000  C
  O20      1.0000 0.31620  0.01630  0.61933  Biso   1.000  O
  H125     1.0000 0.43430  0.94879  0.55398  Biso   1.000  H
  H126     1.0000 0.41120  0.00748  0.59330  Biso   1.000  H
  C130     1.0000 0.43073  0.05470  0.51631  Biso   1.000  C
  C131     1.0000 0.30528  0.02569  0.56139  Biso   1.000  C
  H127     1.0000 0.42650  0.10608  0.53029  Biso   1.000  H
  H128     1.0000 0.40920  0.03952  0.49188  Biso   1.000  H
  H129     1.0000 0.45441  0.05279  0.49370  Biso   1.000  H
  H130     1.0000 0.31432  0.98229  0.53830  Biso   1.000  H
  H131     1.0000 0.27712  0.02783  0.55870  Biso   1.000  H
  C132     1.0000 0.32215  0.09743  0.53709  Biso   1.000  C
  H132     1.0000 0.35032  0.09270  0.53601  Biso   1.000  H
  H133     1.0000 0.31580  0.13970  0.56329  Biso   1.000  H
  C133     1.0000 0.30754  0.11570  0.47590  Biso   1.000  C
  H134     1.0000 0.27960  0.12480  0.47768  Biso   1.000  H
  H135     1.0000 0.31989  0.16269  0.46239  Biso   1.000  H
  C134     1.0000 0.31526  0.05470  0.43290  Biso   1.000  C
  H136     1.0000 0.34291  0.04548  0.43077  Biso   1.000  H
  H137     1.0000 0.30580  0.07010  0.39479  Biso   1.000  H
  H138     1.0000 0.30219  0.00860  0.44511  Biso   1.000  H
  C135     1.0000 0.58800  0.38711  0.55905  Biso   1.000  C
  C136     1.0000 0.56284  0.32612  0.55467  Biso   1.000  C
  C137     1.0000 0.59275  0.42411  0.60816  Biso   1.000  C
  H139     1.0000 0.60201  0.40241  0.52579  Biso   1.000  H
  C138     1.0000 0.54145  0.30037  0.60054  Biso   1.000  C
  O21      1.0000 0.56167  0.29228  0.49894  Biso   1.000  O
  C139     1.0000 0.57090  0.40319  0.65775  Biso   1.000  C
  H140     1.0000 0.61062  0.46419  0.61037  Biso   1.000  H
  C140     1.0000 0.51983  0.22661  0.59499  Biso   1.000  C
  C141     1.0000 0.54502  0.34180  0.65419  Biso   1.000  C
  C142     1.0000 0.54591  0.21942  0.49608  Biso   1.000  C
  C143     1.0000 0.57359  0.44361  0.71149  Biso   1.000  C
  C144     1.0000 0.50876  0.21481  0.53246  Biso   1.000  C
  H141     1.0000 0.49670  0.22650  0.62037  Biso   1.000  H
  C145     1.0000 0.54648  0.16208  0.61063  Biso   1.000  C
  C146     1.0000 0.52106  0.32730  0.70162  Biso   1.000  C
  O22      1.0000 0.57247  0.16669  0.51427  Biso   1.000  O
  H142     1.0000 0.53930  0.20851  0.45481  Biso   1.000  H
  C147     1.0000 0.54991  0.42664  0.75657  Biso   1.000  C
  C148     1.0000 0.60504  0.50062  0.71786  Biso   1.000  C
  H143     1.0000 0.49041  0.25399  0.51990  Biso   1.000  H
  H144     1.0000 0.49661  0.16500  0.52748  Biso   1.000  H
  C149     1.0000 0.54628  0.12379  0.66649  Biso   1.000  C
  C150     1.0000 0.57216  0.14032  0.57092  Biso   1.000  C
  C151     1.0000 0.52269  0.36828  0.75060  Biso   1.000  C
  H145     1.0000 0.50310  0.28727  0.69910  Biso   1.000  H
  O23      1.0000 0.55400  0.46891  0.80668  Biso   1.000  O
  N5       1.0000 0.63155  0.48128  0.75713  Biso   1.000  N
  O24      1.0000 0.60625  0.55864  0.68971  Biso   1.000  O
  C152     1.0000 0.51749  0.13267  0.70833  Biso   1.000  C
  C153     1.0000 0.57691  0.07213  0.67975  Biso   1.000  C
  C154     1.0000 0.60167  0.08702  0.58404  Biso   1.000  C
  H146     1.0000 0.50542  0.35799  0.78139  Biso   1.000  H
  C155     1.0000 0.52403  0.46132  0.84877  Biso   1.000  C
  H147     1.0000 0.62712  0.44181  0.77918  Biso   1.000  H
  C156     1.0000 0.66752  0.52249  0.76528  Biso   1.000  C
  H148     1.0000 0.49730  0.16708  0.70088  Biso   1.000  H
  C157     1.0000 0.51737  0.09461  0.75835  Biso   1.000  C
  C158     1.0000 0.57722  0.03530  0.73436  Biso   1.000  C
  C159     1.0000 0.60430  0.05611  0.63674  Biso   1.000  C
  H149     1.0000 0.61960  0.07342  0.55489  Biso   1.000  H
  H150     1.0000 0.52372  0.40938  0.86419  Biso   1.000  H
  H151     1.0000 0.49901  0.47150  0.83050  Biso   1.000  H
  C160     1.0000 0.53078  0.51630  0.89749  Biso   1.000  C
  C161     1.0000 0.69683  0.46829  0.78689  Biso   1.000  C
  H152     1.0000 0.66392  0.56358  0.79360  Biso   1.000  H
  H153     1.0000 0.67590  0.54469  0.72808  Biso   1.000  H
  H154     1.0000 0.49641  0.10040  0.78407  Biso   1.000  H
  C162     1.0000 0.54791  0.04542  0.77394  Biso   1.000  C
  C163     1.0000 0.61256  0.98971  0.75367  Biso   1.000  C
  H155     1.0000 0.62492  0.02311  0.64527  Biso   1.000  H
  H156     1.0000 0.53241  0.56757  0.88108  Biso   1.000  H
  H157     1.0000 0.50851  0.51490  0.92387  Biso   1.000  H
  C164     1.0000 0.56613  0.50129  0.93188  Biso   1.000  C
  C165     1.0000 0.71659  0.41972  0.75003  Biso   1.000  C
  C166     1.0000 0.70430  0.46582  0.84700  Biso   1.000  C
  O25      1.0000 0.54928  0.00810  0.82404  Biso   1.000  O
  N6       1.0000 0.63029  0.01788  0.79745  Biso   1.000  N
  O26      1.0000 0.62220  0.93344  0.72630  Biso   1.000  O
  H158     1.0000 0.58880  0.50748  0.90667  Biso   1.000  H
  H159     1.0000 0.56570  0.44879  0.94600  Biso   1.000  H
  C167     1.0000 0.56930  0.55470  0.98367  Biso   1.000  C
  C168     1.0000 0.71082  0.42242  0.69057  Biso   1.000  C
  C169     1.0000 0.74233  0.36412  0.77299  Biso   1.000  C
  O27      1.0000 0.68382  0.51630  0.88060  Biso   1.000  O
  C170     1.0000 0.72949  0.41399  0.86947  Biso   1.000  C
  C171     1.0000 0.51669  0.01119  0.86172  Biso   1.000  C
  H160     1.0000 0.62051  0.05819  0.81378  Biso   1.000  H
  C172     1.0000 0.66572  0.98718  0.82210  Biso   1.000  C
  H161     1.0000 0.57350  0.60608  0.96969  Biso   1.000  H
  H162     1.0000 0.59080  0.53952  0.00806  Biso   1.000  H
  H163     1.0000 0.54559  0.55279  0.00624  Biso   1.000  H
  C173     1.0000 0.73169  0.37497  0.65138  Biso   1.000  C
  H164     1.0000 0.69252  0.45660  0.67537  Biso   1.000  H
  C174     1.0000 0.76220  0.31369  0.73457  Biso   1.000  C
  C175     1.0000 0.74859  0.36452  0.83297  Biso   1.000  C
  C176     1.0000 0.69472  0.52569  0.93859  Biso   1.000  C
  H165     1.0000 0.73392  0.41219  0.91009  Biso   1.000  H
  H166     1.0000 0.51351  0.06302  0.87666  Biso   1.000  H
  H167     1.0000 0.49329  0.99747  0.83989  Biso   1.000  H
  C177     1.0000 0.52226  0.95727  0.91178  Biso   1.000  C
  C178     1.0000 0.69469  0.04958  0.83396  Biso   1.000  C
  H168     1.0000 0.67690  0.95047  0.79468  Biso   1.000  H
  H169     1.0000 0.65980  0.96059  0.85860  Biso   1.000  H
  C179     1.0000 0.75760  0.32561  0.67598  Biso   1.000  C
  H170     1.0000 0.72792  0.37739  0.61067  Biso   1.000  H
  C180     1.0000 0.78579  0.24612  0.75380  Biso   1.000  C
  H171     1.0000 0.76641  0.33000  0.84916  Biso   1.000  H
  H172     1.0000 0.72291  0.52777  0.94128  Biso   1.000  H
  H173     1.0000 0.68571  0.48229  0.96167  Biso   1.000  H
  C181     1.0000 0.67788  0.59737  0.96289  Biso   1.000  C
  H174     1.0000 0.49790  0.95356  0.93348  Biso   1.000  H
  H175     1.0000 0.52789  0.90679  0.89589  Biso   1.000  H
  C182     1.0000 0.55346  0.97819  0.95327  Biso   1.000  C
  C183     1.0000 0.71591  0.07949  0.78637  Biso   1.000  C
  C184     1.0000 0.69855  0.07471  0.88840  Biso   1.000  C
  O28      1.0000 0.77710  0.28441  0.63419  Biso   1.000  O
  C185     1.0000 0.76212  0.17360  0.75068  Biso   1.000  C
  C186     1.0000 0.81956  0.24089  0.71257  Biso   1.000  C
  H176     1.0000 0.79520  0.25388  0.79416  Biso   1.000  H
  H177     1.0000 0.64971  0.59270  0.96397  Biso   1.000  H
  H178     1.0000 0.68422  0.63970  0.93669  Biso   1.000  H
  C187     1.0000 0.69246  0.61570  0.02404  Biso   1.000  C
  H179     1.0000 0.54791  0.02850  0.96969  Biso   1.000  H
  H180     1.0000 0.57802  0.98150  0.93209  Biso   1.000  H
  C188     1.0000 0.55740  0.92360  0.00095  Biso   1.000  C
  C189     1.0000 0.71305  0.05121  0.73119  Biso   1.000  C
  C190     1.0000 0.74101  0.14262  0.79858  Biso   1.000  C
  O29      1.0000 0.67645  0.04379  0.93400  Biso   1.000  O
  C191     1.0000 0.72491  0.13380  0.89866  Biso   1.000  C
  C192     1.0000 0.80292  0.22650  0.65367  Biso   1.000  C
  C193     1.0000 0.76074  0.13818  0.69737  Biso   1.000  C
  H181     1.0000 0.83432  0.28840  0.71270  Biso   1.000  H
  H182     1.0000 0.83681  0.19929  0.72409  Biso   1.000  H
  H183     1.0000 0.72040  0.62480  0.02226  Biso   1.000  H
  H184     1.0000 0.68011  0.66269  0.03755  Biso   1.000  H
  C194     1.0000 0.68474  0.55470  0.06704  Biso   1.000  C
  H185     1.0000 0.56261  0.87357  0.98497  Biso   1.000  H
  H186     1.0000 0.53361  0.92208  0.02347  Biso   1.000  H
  H187     1.0000 0.57862  0.93878  0.02624  Biso   1.000  H
  H188     1.0000 0.69512  0.01242  0.72370  Biso   1.000  H
  C195     1.0000 0.73472  0.07662  0.68780  Biso   1.000  C
  C196     1.0000 0.74419  0.16640  0.85510  Biso   1.000  C
  C197     1.0000 0.69552  0.02968  0.98917  Biso   1.000  C
  H189     1.0000 0.72900  0.15072  0.93716  Biso   1.000  H
  O30      1.0000 0.78242  0.15763  0.65082  Biso   1.000  O
  H190     1.0000 0.82451  0.22358  0.62548  Biso   1.000  H
  H191     1.0000 0.65712  0.54548  0.06916  Biso   1.000  H
  H192     1.0000 0.69420  0.57010  0.10515  Biso   1.000  H
  H193     1.0000 0.69781  0.50860  0.05487  Biso   1.000  H
  H194     1.0000 0.73301  0.05403  0.65060  Biso   1.000  H
  H195     1.0000 0.76060  0.20750  0.86358  Biso   1.000  H
  H196     1.0000 0.72211  0.01220  0.98289  Biso   1.000  H
  C198     1.0000 0.67250  0.97110  0.01754  Biso   1.000  C
  H197     1.0000 0.69621  0.07601  0.01304  Biso   1.000  H
  C199     1.0000 0.66870  0.89650  0.99809  Biso   1.000  C
  H198     1.0000 0.68211  0.96767  0.05786  Biso   1.000  H
  H199     1.0000 0.64622  0.99140  0.02014  Biso   1.000  H
  H200     1.0000 0.65000  0.90499  0.96648  Biso   1.000  H
  H201     1.0000 0.69352  0.89128  0.97778  Biso   1.000  H
  C200     1.0000 0.69952  0.84439  0.99199  Biso   1.000  C
  C201     1.0000 0.66241  0.83191  0.00715  Biso   1.000  C
  H202     1.0000 0.68960  0.79649  0.97718  Biso   1.000  H
  H203     1.0000 0.71842  0.86457  0.96479  Biso   1.000  H
  H204     1.0000 0.71162  0.83629  0.02975  Biso   1.000  H
  H205     1.0000 0.66930  0.80217  0.97298  Biso   1.000  H
  H206     1.0000 0.63510  0.82511  0.01546  Biso   1.000  H
  H207     1.0000 0.67750  0.81510  0.04036  Biso   1.000  H
  C202     1.0000 0.41203  0.61289  0.44095  Biso   1.000  C
  C203     1.0000 0.40725  0.57589  0.39184  Biso   1.000  C
  C204     1.0000 0.43716  0.67388  0.44533  Biso   1.000  C
  H208     1.0000 0.39802  0.59759  0.47421  Biso   1.000  H
  C205     1.0000 0.42913  0.59681  0.34221  Biso   1.000  C
  H209     1.0000 0.38941  0.53581  0.38959  Biso   1.000  H
  C206     1.0000 0.45858  0.69957  0.39946  Biso   1.000  C
  O31      1.0000 0.43833  0.70767  0.50102  Biso   1.000  O
  C207     1.0000 0.42644  0.55639  0.28847  Biso   1.000  C
  C208     1.0000 0.45501  0.65820  0.34581  Biso   1.000  C
  C209     1.0000 0.48020  0.77339  0.40501  Biso   1.000  C
  C210     1.0000 0.45412  0.78058  0.50388  Biso   1.000  C
  C211     1.0000 0.39498  0.49938  0.28210  Biso   1.000  C
  C212     1.0000 0.45009  0.57336  0.24338  Biso   1.000  C
  C213     1.0000 0.47897  0.67270  0.29834  Biso   1.000  C
  H210     1.0000 0.50330  0.77350  0.37959  Biso   1.000  H
  C214     1.0000 0.49126  0.78519  0.46754  Biso   1.000  C
  C215     1.0000 0.45355  0.83787  0.38937  Biso   1.000  C
  O32      1.0000 0.42753  0.83331  0.48573  Biso   1.000  O
  H211     1.0000 0.46070  0.79149  0.54519  Biso   1.000  H
  N7       1.0000 0.36848  0.51872  0.24282  Biso   1.000  N
  O33      1.0000 0.39375  0.44136  0.31025  Biso   1.000  O
  O34      1.0000 0.44603  0.53109  0.19332  Biso   1.000  O
  C216     1.0000 0.47734  0.63172  0.24936  Biso   1.000  C
  H212     1.0000 0.49690  0.71267  0.30090  Biso   1.000  H
  H213     1.0000 0.50959  0.74601  0.48010  Biso   1.000  H
  H214     1.0000 0.50342  0.83500  0.47248  Biso   1.000  H
  C217     1.0000 0.45372  0.87621  0.33351  Biso   1.000  C
  C218     1.0000 0.42784  0.85968  0.42908  Biso   1.000  C
  C219     1.0000 0.33248  0.47751  0.23468  Biso   1.000  C
  H215     1.0000 0.37291  0.55819  0.22078  Biso   1.000  H
  C220     1.0000 0.47597  0.53868  0.15123  Biso   1.000  C
  H216     1.0000 0.49461  0.64201  0.21861  Biso   1.000  H
  C221     1.0000 0.48251  0.86727  0.29163  Biso   1.000  C
  C222     1.0000 0.42309  0.92787  0.32025  Biso   1.000  C
  C223     1.0000 0.39836  0.91298  0.41596  Biso   1.000  C
  C224     1.0000 0.30319  0.53171  0.21307  Biso   1.000  C
  H217     1.0000 0.33611  0.43642  0.20640  Biso   1.000  H
  H218     1.0000 0.32410  0.45531  0.27188  Biso   1.000  H
  H219     1.0000 0.47631  0.59057  0.13581  Biso   1.000  H
  H220     1.0000 0.50102  0.52850  0.16950  Biso   1.000  H
  C225     1.0000 0.46925  0.48370  0.10251  Biso   1.000  C
  H221     1.0000 0.50270  0.83286  0.29908  Biso   1.000  H
  C226     1.0000 0.48266  0.90539  0.24165  Biso   1.000  C
  C227     1.0000 0.42281  0.96470  0.26560  Biso   1.000  C
  C228     1.0000 0.39570  0.94389  0.36322  Biso   1.000  C
  H222     1.0000 0.38040  0.92658  0.44511  Biso   1.000  H
  C229     1.0000 0.28341  0.58028  0.24992  Biso   1.000  C
  C230     1.0000 0.29573  0.53418  0.15300  Biso   1.000  C
  H223     1.0000 0.46762  0.43237  0.11888  Biso   1.000  H
  H224     1.0000 0.49149  0.48510  0.07609  Biso   1.000  H
  C231     1.0000 0.43390  0.49871  0.06808  Biso   1.000  C
  H225     1.0000 0.50362  0.89960  0.21588  Biso   1.000  H
  C232     1.0000 0.45209  0.95458  0.22602  Biso   1.000  C
  C233     1.0000 0.38746  0.01029  0.24633  Biso   1.000  C
  H226     1.0000 0.37511  0.97689  0.35468  Biso   1.000  H
  C234     1.0000 0.28918  0.57758  0.30943  Biso   1.000  C
  C235     1.0000 0.25767  0.63588  0.22701  Biso   1.000  C
  O35      1.0000 0.31620  0.48370  0.11935  Biso   1.000  O
  C236     1.0000 0.27051  0.58601  0.13048  Biso   1.000  C
  H227     1.0000 0.41120  0.49247  0.09328  Biso   1.000  H
  H228     1.0000 0.43430  0.55121  0.05400  Biso   1.000  H
  C237     1.0000 0.43073  0.44530  0.01628  Biso   1.000  C
  O36      1.0000 0.45072  0.99185  0.17596  Biso   1.000  O
  N8       1.0000 0.36973  0.98207  0.20255  Biso   1.000  N
  O37      1.0000 0.37780  0.06656  0.27366  Biso   1.000  O
  C238     1.0000 0.26831  0.62497  0.34858  Biso   1.000  C
  H229     1.0000 0.30751  0.54340  0.32459  Biso   1.000  H
  C239     1.0000 0.23783  0.68631  0.26538  Biso   1.000  C
  C240     1.0000 0.25144  0.63548  0.16699  Biso   1.000  C
  C241     1.0000 0.30528  0.47431  0.06141  Biso   1.000  C
  H230     1.0000 0.26611  0.58781  0.08991  Biso   1.000  H
  H231     1.0000 0.42650  0.39392  0.03031  Biso   1.000  H
  H232     1.0000 0.40920  0.46048  0.99190  Biso   1.000  H
  H233     1.0000 0.45441  0.44721  0.99372  Biso   1.000  H
  C242     1.0000 0.48331  0.98881  0.13828  Biso   1.000  C
  C243     1.0000 0.33431  0.01282  0.17790  Biso   1.000  C
  H234     1.0000 0.37951  0.94181  0.18618  Biso   1.000  H
  C244     1.0000 0.24240  0.67439  0.32398  Biso   1.000  C
  H235     1.0000 0.27211  0.62261  0.38929  Biso   1.000  H
  C245     1.0000 0.21421  0.75388  0.24620  Biso   1.000  C
  H236     1.0000 0.23359  0.67000  0.15079  Biso   1.000  H
  H237     1.0000 0.27712  0.47217  0.05868  Biso   1.000  H
  H238     1.0000 0.31432  0.51771  0.03828  Biso   1.000  H
  C246     1.0000 0.32215  0.40257  0.03711  Biso   1.000  C
  H239     1.0000 0.48652  0.93698  0.12329  Biso   1.000  H
  H240     1.0000 0.50671  0.00247  0.16011  Biso   1.000  H
  C247     1.0000 0.47777  0.04273  0.08822  Biso   1.000  C
  C248     1.0000 0.30531  0.95042  0.16600  Biso   1.000  C
  H241     1.0000 0.32310  0.04947  0.20527  Biso   1.000  H
  H242     1.0000 0.34020  0.03941  0.14140  Biso   1.000  H
  O38      1.0000 0.22290  0.71559  0.36581  Biso   1.000  O
  C249     1.0000 0.23788  0.82640  0.24927  Biso   1.000  C
  C250     1.0000 0.18046  0.75911  0.28738  Biso   1.000  C
  H243     1.0000 0.20480  0.74606  0.20579  Biso   1.000  H
  H244     1.0000 0.35032  0.40730  0.03599  Biso   1.000  H
  H245     1.0000 0.31580  0.36030  0.06331  Biso   1.000  H
  C251     1.0000 0.30754  0.38430  0.97592  Biso   1.000  C
  H246     1.0000 0.50210  0.04638  0.06652  Biso   1.000  H
  H247     1.0000 0.47211  0.09321  0.10411  Biso   1.000  H
  C252     1.0000 0.44657  0.02181  0.04668  Biso   1.000  C
  C253     1.0000 0.28412  0.92051  0.21359  Biso   1.000  C
  C254     1.0000 0.30148  0.92529  0.11160  Biso   1.000  C
  C255     1.0000 0.19711  0.77350  0.34628  Biso   1.000  C
  C256     1.0000 0.23928  0.86182  0.30259  Biso   1.000  C
  C257     1.0000 0.25901  0.85738  0.20142  Biso   1.000  C
  H248     1.0000 0.16571  0.71160  0.28730  Biso   1.000  H
  H249     1.0000 0.16319  0.80071  0.27591  Biso   1.000  H
  H250     1.0000 0.27960  0.37520  0.97774  Biso   1.000  H
  H251     1.0000 0.31989  0.33731  0.96241  Biso   1.000  H
  C258     1.0000 0.31526  0.44530  0.93292  Biso   1.000  C
  H252     1.0000 0.45212  0.97150  0.03031  Biso   1.000  H
  C259     1.0000 0.44260  0.07640  0.99900  Biso   1.000  C
  H253     1.0000 0.42201  0.01850  0.06791  Biso   1.000  H
  C260     1.0000 0.28698  0.94879  0.26881  Biso   1.000  C
  C261     1.0000 0.27509  0.86620  0.10129  Biso   1.000  C
  O39      1.0000 0.32355  0.95621  0.06600  Biso   1.000  O
  O40      1.0000 0.21758  0.84237  0.34918  Biso   1.000  O
  H254     1.0000 0.17549  0.77637  0.37447  Biso   1.000  H
  C262     1.0000 0.26528  0.92338  0.31220  Biso   1.000  C
  C263     1.0000 0.25581  0.83360  0.14490  Biso   1.000  C
  H255     1.0000 0.34291  0.45452  0.93084  Biso   1.000  H
  H256     1.0000 0.30580  0.42990  0.89481  Biso   1.000  H
  H257     1.0000 0.30219  0.49140  0.94513  Biso   1.000  H
  H258     1.0000 0.46642  0.07792  0.97653  Biso   1.000  H
  H259     1.0000 0.42141  0.06122  0.97371  Biso   1.000  H
  H260     1.0000 0.43742  0.12638  0.01498  Biso   1.000  H
  H261     1.0000 0.30491  0.98758  0.27630  Biso   1.000  H
  H262     1.0000 0.27100  0.84928  0.06280  Biso   1.000  H
  C264     1.0000 0.30451  0.97032  0.01078  Biso   1.000  C
  H263     1.0000 0.26699  0.94597  0.34940  Biso   1.000  H
  H264     1.0000 0.23940  0.79250  0.13642  Biso   1.000  H
  H265     1.0000 0.27792  0.98780  0.01711  Biso   1.000  H
  H266     1.0000 0.30379  0.92399  0.98692  Biso   1.000  H
  C265     1.0000 0.32750  0.02890  0.98242  Biso   1.000  C
  H267     1.0000 0.31789  0.03233  0.94214  Biso   1.000  H
  H268     1.0000 0.35381  0.00860  0.97982  Biso   1.000  H
  C266     1.0000 0.33130  0.10350  0.00191  Biso   1.000  C
  C267     1.0000 0.33759  0.16809  0.99281  Biso   1.000  C
  H269     1.0000 0.35000  0.09501  0.03352  Biso   1.000  H
  H270     1.0000 0.30651  0.10872  0.02222  Biso   1.000  H
  C268     1.0000 0.30051  0.15561  0.00801  Biso   1.000  C
  H271     1.0000 0.36490  0.17489  0.98454  Biso   1.000  H
  H272     1.0000 0.32250  0.18490  0.95964  Biso   1.000  H
  H273     1.0000 0.33070  0.19777  0.02698  Biso   1.000  H
  H274     1.0000 0.28841  0.16371  0.97020  Biso   1.000  H
  H275     1.0000 0.31040  0.20351  0.02278  Biso   1.000  H
  H276     1.0000 0.28160  0.13537  0.03521  Biso   1.000  H
  C269     1.0000 0.69709  0.72650  0.65367  Biso   1.000  C
  O41      1.0000 0.71759  0.65763  0.65082  Biso   1.000  O
  O42      1.0000 0.72291  0.78441  0.63419  Biso   1.000  O
  H277     1.0000 0.67550  0.72358  0.62548  Biso   1.000  H
  C270     1.0000 0.68045  0.74089  0.71257  Biso   1.000  C
  C271     1.0000 0.73930  0.63818  0.69737  Biso   1.000  C
  C272     1.0000 0.74242  0.82561  0.67598  Biso   1.000  C
  H278     1.0000 0.66572  0.78840  0.71270  Biso   1.000  H
  H279     1.0000 0.66321  0.69929  0.72409  Biso   1.000  H
  C273     1.0000 0.71422  0.74606  0.75380  Biso   1.000  C
  C274     1.0000 0.76529  0.57657  0.68780  Biso   1.000  C
  C275     1.0000 0.73790  0.67360  0.75068  Biso   1.000  C
  C276     1.0000 0.73781  0.81369  0.73457  Biso   1.000  C
  C277     1.0000 0.76832  0.87497  0.65138  Biso   1.000  C
  H280     1.0000 0.70481  0.75388  0.79416  Biso   1.000  H
  C278     1.0000 0.78699  0.55121  0.73119  Biso   1.000  C
  H281     1.0000 0.76701  0.55397  0.65060  Biso   1.000  H
  C279     1.0000 0.75903  0.64257  0.79858  Biso   1.000  C
  C280     1.0000 0.75768  0.86407  0.77299  Biso   1.000  C
  H282     1.0000 0.77210  0.87739  0.61067  Biso   1.000  H
  C281     1.0000 0.78920  0.92236  0.69057  Biso   1.000  C
  C282     1.0000 0.78414  0.57949  0.78637  Biso   1.000  C
  H283     1.0000 0.80492  0.51237  0.72370  Biso   1.000  H
  C283     1.0000 0.75583  0.66640  0.85510  Biso   1.000  C
  C284     1.0000 0.78342  0.91966  0.75003  Biso   1.000  C
  C285     1.0000 0.75142  0.86452  0.83297  Biso   1.000  C
  H284     1.0000 0.80750  0.95660  0.67537  Biso   1.000  H
  C286     1.0000 0.80532  0.54958  0.83396  Biso   1.000  C
  H285     1.0000 0.73941  0.70750  0.86358  Biso   1.000  H
  C287     1.0000 0.77510  0.63380  0.89866  Biso   1.000  C
  C288     1.0000 0.80318  0.96829  0.78689  Biso   1.000  C
  H286     1.0000 0.73361  0.83000  0.84916  Biso   1.000  H
  C289     1.0000 0.77052  0.91399  0.86947  Biso   1.000  C
  C290     1.0000 0.83429  0.48718  0.82210  Biso   1.000  C
  C291     1.0000 0.80149  0.57471  0.88840  Biso   1.000  C
  H287     1.0000 0.77101  0.65072  0.93716  Biso   1.000  H
  C292     1.0000 0.79575  0.96576  0.84700  Biso   1.000  C
  C293     1.0000 0.83249  0.02249  0.76528  Biso   1.000  C
  H288     1.0000 0.76612  0.91219  0.91009  Biso   1.000  H
  N9       1.0000 0.86972  0.51788  0.79745  Biso   1.000  N
  H289     1.0000 0.82311  0.45047  0.79468  Biso   1.000  H
  H290     1.0000 0.84021  0.46059  0.85860  Biso   1.000  H
  O43      1.0000 0.82357  0.54379  0.93400  Biso   1.000  O
  O44      1.0000 0.81622  0.01630  0.88060  Biso   1.000  O
  N10      1.0000 0.86849  0.98122  0.75713  Biso   1.000  N
  H291     1.0000 0.83612  0.06358  0.79360  Biso   1.000  H
  H292     1.0000 0.82411  0.04469  0.72808  Biso   1.000  H
  H293     1.0000 0.87950  0.55819  0.81378  Biso   1.000  H
  C294     1.0000 0.88745  0.48971  0.75367  Biso   1.000  C
  C295     1.0000 0.80452  0.52968  0.98917  Biso   1.000  C
  C296     1.0000 0.80530  0.02569  0.93859  Biso   1.000  C
  H294     1.0000 0.87292  0.94181  0.77918  Biso   1.000  H
  C297     1.0000 0.89497  0.00062  0.71786  Biso   1.000  C
  O45      1.0000 0.87781  0.43344  0.72630  Biso   1.000  O
  C298     1.0000 0.92279  0.53530  0.73436  Biso   1.000  C
  H295     1.0000 0.77790  0.51220  0.98289  Biso   1.000  H
  H296     1.0000 0.80381  0.57601  0.01304  Biso   1.000  H
  C299     1.0000 0.82751  0.47110  0.01754  Biso   1.000  C
  H297     1.0000 0.81430  0.98229  0.96167  Biso   1.000  H
  H298     1.0000 0.77710  0.02783  0.94128  Biso   1.000  H
  C300     1.0000 0.82214  0.09743  0.96289  Biso   1.000  C
  C301     1.0000 0.92642  0.94361  0.71149  Biso   1.000  C
  O46      1.0000 0.89377  0.05864  0.68971  Biso   1.000  O
  C302     1.0000 0.95210  0.54537  0.77394  Biso   1.000  C
  C303     1.0000 0.92311  0.57207  0.67975  Biso   1.000  C
  C304     1.0000 0.83132  0.39650  0.99809  Biso   1.000  C
  H299     1.0000 0.81791  0.46767  0.05786  Biso   1.000  H
  H300     1.0000 0.85382  0.49140  0.02014  Biso   1.000  H
  H301     1.0000 0.85030  0.09270  0.96397  Biso   1.000  H
  H302     1.0000 0.81582  0.13970  0.93669  Biso   1.000  H
  C305     1.0000 0.80755  0.11570  0.02404  Biso   1.000  C
  C306     1.0000 0.95010  0.92664  0.75657  Biso   1.000  C
  C307     1.0000 0.92914  0.90319  0.65775  Biso   1.000  C
  O47      1.0000 0.95073  0.50810  0.82404  Biso   1.000  O
  C308     1.0000 0.98264  0.59461  0.75835  Biso   1.000  C
  C309     1.0000 0.95373  0.62379  0.66649  Biso   1.000  C
  C310     1.0000 0.89571  0.55611  0.63674  Biso   1.000  C
  H303     1.0000 0.85002  0.40499  0.96648  Biso   1.000  H
  H304     1.0000 0.80653  0.39128  0.97778  Biso   1.000  H
  C311     1.0000 0.80052  0.34439  0.99199  Biso   1.000  C
  C312     1.0000 0.83761  0.33191  0.00715  Biso   1.000  C
  H305     1.0000 0.77962  0.12480  0.02226  Biso   1.000  H
  H306     1.0000 0.81991  0.16269  0.03755  Biso   1.000  H
  C313     1.0000 0.81528  0.05470  0.06704  Biso   1.000  C
  O48      1.0000 0.94604  0.96891  0.80668  Biso   1.000  O
  C314     1.0000 0.97735  0.86828  0.75060  Biso   1.000  C
  C315     1.0000 0.95499  0.84180  0.65419  Biso   1.000  C
  C316     1.0000 0.90727  0.92411  0.60816  Biso   1.000  C
  C317     1.0000 0.98333  0.51119  0.86172  Biso   1.000  C
  C318     1.0000 0.98253  0.63267  0.70833  Biso   1.000  C
  H307     1.0000 0.00360  0.60040  0.78407  Biso   1.000  H
  C319     1.0000 0.95353  0.66208  0.61063  Biso   1.000  C
  H308     1.0000 0.87513  0.52311  0.64527  Biso   1.000  H
  C320     1.0000 0.89834  0.58697  0.58404  Biso   1.000  C
  H309     1.0000 0.81041  0.29649  0.97718  Biso   1.000  H
  H310     1.0000 0.78162  0.36457  0.96479  Biso   1.000  H
  H311     1.0000 0.78842  0.33629  0.02975  Biso   1.000  H
  H312     1.0000 0.83072  0.30217  0.97298  Biso   1.000  H
  H313     1.0000 0.86492  0.32511  0.01546  Biso   1.000  H
  H314     1.0000 0.82251  0.31510  0.04036  Biso   1.000  H
  H315     1.0000 0.84290  0.04548  0.06916  Biso   1.000  H
  H316     1.0000 0.80581  0.07010  0.10515  Biso   1.000  H
  H317     1.0000 0.80221  0.00860  0.05487  Biso   1.000  H
  C321     1.0000 0.97598  0.96127  0.84877  Biso   1.000  C
  H318     1.0000 0.99462  0.85799  0.78139  Biso   1.000  H
  C322     1.0000 0.97898  0.82730  0.70162  Biso   1.000  C
  C323     1.0000 0.95859  0.80037  0.60054  Biso   1.000  C
  C324     1.0000 0.91201  0.88711  0.55905  Biso   1.000  C
  H319     1.0000 0.88942  0.96419  0.61037  Biso   1.000  H
  H320     1.0000 0.98650  0.56302  0.87666  Biso   1.000  H
  C325     1.0000 0.97775  0.45727  0.91178  Biso   1.000  C
  H321     1.0000 0.00669  0.49747  0.83989  Biso   1.000  H
  H322     1.0000 0.00269  0.66708  0.70088  Biso   1.000  H
  C326     1.0000 0.98021  0.72661  0.59499  Biso   1.000  C
  C327     1.0000 0.92785  0.64032  0.57092  Biso   1.000  C
  H323     1.0000 0.88042  0.57342  0.55489  Biso   1.000  H
  H324     1.0000 0.97632  0.90938  0.86419  Biso   1.000  H
  C328     1.0000 0.96923  0.01630  0.89749  Biso   1.000  C
  H325     1.0000 0.00100  0.97150  0.83050  Biso   1.000  H
  H326     1.0000 0.99691  0.78727  0.69910  Biso   1.000  H
  C329     1.0000 0.93718  0.82612  0.55467  Biso   1.000  C
  H327     1.0000 0.89800  0.90241  0.52579  Biso   1.000  H
  H328     1.0000 0.97212  0.40679  0.89589  Biso   1.000  H
  C330     1.0000 0.94656  0.47819  0.95327  Biso   1.000  C
  H329     1.0000 0.00209  0.45362  0.93348  Biso   1.000  H
  C331     1.0000 0.99125  0.71481  0.53246  Biso   1.000  C
  H330     1.0000 0.00329  0.72650  0.62037  Biso   1.000  H
  O49      1.0000 0.92754  0.66669  0.51427  Biso   1.000  O
  H331     1.0000 0.96760  0.06757  0.88108  Biso   1.000  H
  H332     1.0000 0.99151  0.01490  0.92387  Biso   1.000  H
  C332     1.0000 0.93392  0.00129  0.93188  Biso   1.000  C
  O50      1.0000 0.93835  0.79228  0.49894  Biso   1.000  O
  H333     1.0000 0.92202  0.48150  0.93209  Biso   1.000  H
  H334     1.0000 0.95210  0.52850  0.96969  Biso   1.000  H
  C333     1.0000 0.94261  0.42360  0.00095  Biso   1.000  C
  C334     1.0000 0.95410  0.71942  0.49608  Biso   1.000  C
  H335     1.0000 0.00961  0.75399  0.51990  Biso   1.000  H
  H336     1.0000 0.00340  0.66500  0.52748  Biso   1.000  H
  H337     1.0000 0.93432  0.94879  0.94600  Biso   1.000  H
  H338     1.0000 0.91121  0.00748  0.90667  Biso   1.000  H
  C335     1.0000 0.93071  0.05470  0.98367  Biso   1.000  C
  H339     1.0000 0.93741  0.37362  0.98497  Biso   1.000  H
  H340     1.0000 0.96640  0.42208  0.02347  Biso   1.000  H
  H341     1.0000 0.92142  0.43878  0.02624  Biso   1.000  H
  H342     1.0000 0.96071  0.70851  0.45481  Biso   1.000  H
  H343     1.0000 0.92651  0.10608  0.96969  Biso   1.000  H
  H344     1.0000 0.90921  0.03952  0.00806  Biso   1.000  H
  H345     1.0000 0.95442  0.05279  0.00624  Biso   1.000  H
  C336     1.0000 0.30291  0.27350  0.34628  Biso   1.000  C
  C337     1.0000 0.31955  0.25911  0.28738  Biso   1.000  C
  O51      1.0000 0.28241  0.34237  0.34918  Biso   1.000  O
  O52      1.0000 0.27709  0.21559  0.36581  Biso   1.000  O
  H346     1.0000 0.32450  0.27642  0.37447  Biso   1.000  H
  C338     1.0000 0.28581  0.25388  0.24620  Biso   1.000  C
  H347     1.0000 0.33431  0.21160  0.28730  Biso   1.000  H
  H348     1.0000 0.33679  0.30071  0.27591  Biso   1.000  H
  C339     1.0000 0.26073  0.36182  0.30259  Biso   1.000  C
  C340     1.0000 0.25758  0.17439  0.32398  Biso   1.000  C
  C341     1.0000 0.26210  0.32640  0.24927  Biso   1.000  C
  H349     1.0000 0.29522  0.24612  0.20579  Biso   1.000  H
  C342     1.0000 0.26219  0.18631  0.26538  Biso   1.000  C
  C343     1.0000 0.23474  0.42338  0.31220  Biso   1.000  C
  C344     1.0000 0.23171  0.12497  0.34858  Biso   1.000  C
  C345     1.0000 0.24100  0.35738  0.20142  Biso   1.000  C
  C346     1.0000 0.24234  0.13588  0.22701  Biso   1.000  C
  C347     1.0000 0.21303  0.44879  0.26881  Biso   1.000  C
  H350     1.0000 0.23299  0.44597  0.34940  Biso   1.000  H
  H351     1.0000 0.22790  0.12261  0.38929  Biso   1.000  H
  C348     1.0000 0.21080  0.07758  0.30943  Biso   1.000  C
  C349     1.0000 0.21589  0.42051  0.21359  Biso   1.000  C
  C350     1.0000 0.24420  0.33360  0.14490  Biso   1.000  C
  C351     1.0000 0.21658  0.08028  0.24992  Biso   1.000  C
  C352     1.0000 0.24858  0.13548  0.16699  Biso   1.000  C
  H352     1.0000 0.19510  0.48758  0.27630  Biso   1.000  H
  H353     1.0000 0.19250  0.04340  0.32459  Biso   1.000  H
  C353     1.0000 0.19470  0.45042  0.16600  Biso   1.000  C
  H354     1.0000 0.26062  0.29250  0.13642  Biso   1.000  H
  C354     1.0000 0.22490  0.36620  0.10129  Biso   1.000  C
  C355     1.0000 0.19682  0.03171  0.21307  Biso   1.000  C
  H355     1.0000 0.26639  0.17000  0.15079  Biso   1.000  H
  C356     1.0000 0.22950  0.08601  0.13048  Biso   1.000  C
  C357     1.0000 0.16571  0.51282  0.17790  Biso   1.000  C
  C358     1.0000 0.19854  0.42529  0.11160  Biso   1.000  C
  H356     1.0000 0.22899  0.34928  0.06280  Biso   1.000  H
  C359     1.0000 0.20428  0.03418  0.15300  Biso   1.000  C
  C360     1.0000 0.16751  0.97751  0.23468  Biso   1.000  C
  H357     1.0000 0.23391  0.08781  0.08991  Biso   1.000  H
  N11      1.0000 0.13028  0.48207  0.20255  Biso   1.000  N
  H358     1.0000 0.17689  0.54947  0.20527  Biso   1.000  H
  H359     1.0000 0.15979  0.53941  0.14140  Biso   1.000  H
  O53      1.0000 0.17643  0.45621  0.06600  Biso   1.000  O
  O54      1.0000 0.18381  0.98370  0.11935  Biso   1.000  O
  N12      1.0000 0.13154  0.01872  0.24282  Biso   1.000  N
  H360     1.0000 0.16391  0.93636  0.20640  Biso   1.000  H
  H361     1.0000 0.17589  0.95531  0.27188  Biso   1.000  H
  H362     1.0000 0.12050  0.44181  0.18618  Biso   1.000  H
  C361     1.0000 0.11255  0.51029  0.24633  Biso   1.000  C
  C362     1.0000 0.19550  0.47032  0.01078  Biso   1.000  C
  C363     1.0000 0.19470  0.97431  0.06141  Biso   1.000  C
  H363     1.0000 0.12711  0.05819  0.22078  Biso   1.000  H
  C364     1.0000 0.10503  0.99938  0.28210  Biso   1.000  C
  O55      1.0000 0.12222  0.56656  0.27366  Biso   1.000  O
  C365     1.0000 0.07721  0.46470  0.26560  Biso   1.000  C
  H364     1.0000 0.22210  0.48780  0.01711  Biso   1.000  H
  H365     1.0000 0.19619  0.42399  0.98692  Biso   1.000  H
  C366     1.0000 0.17251  0.52890  0.98242  Biso   1.000  C
  H366     1.0000 0.18570  0.01771  0.03828  Biso   1.000  H
  H367     1.0000 0.22290  0.97217  0.05868  Biso   1.000  H
  C367     1.0000 0.17786  0.90257  0.03711  Biso   1.000  C
  C368     1.0000 0.07358  0.05639  0.28847  Biso   1.000  C
  O56      1.0000 0.10623  0.94136  0.31025  Biso   1.000  O
  C369     1.0000 0.04790  0.45458  0.22602  Biso   1.000  C
  C370     1.0000 0.07692  0.42787  0.32025  Biso   1.000  C
  C371     1.0000 0.16871  0.60350  0.00191  Biso   1.000  C
  H368     1.0000 0.18209  0.53227  0.94214  Biso   1.000  H
  H369     1.0000 0.14621  0.50860  0.97982  Biso   1.000  H
  C372     1.0000 0.19245  0.88430  0.97592  Biso   1.000  C
  H370     1.0000 0.14970  0.90730  0.03599  Biso   1.000  H
  H371     1.0000 0.18421  0.86030  0.06331  Biso   1.000  H
  C373     1.0000 0.04990  0.07336  0.24338  Biso   1.000  C
  C374     1.0000 0.07089  0.09681  0.34221  Biso   1.000  C
  O57      1.0000 0.04927  0.49185  0.17596  Biso   1.000  O
  C375     1.0000 0.01736  0.40539  0.24165  Biso   1.000  C
  C376     1.0000 0.04627  0.37621  0.33351  Biso   1.000  C
  C377     1.0000 0.10432  0.44389  0.36322  Biso   1.000  C
  H372     1.0000 0.15001  0.59501  0.03352  Biso   1.000  H
  H373     1.0000 0.19350  0.60867  0.02222  Biso   1.000  H
  C378     1.0000 0.19951  0.65561  0.00801  Biso   1.000  C
  C379     1.0000 0.16239  0.66809  0.99281  Biso   1.000  C
  H374     1.0000 0.22041  0.87520  0.97774  Biso   1.000  H
  H375     1.0000 0.18009  0.83731  0.96241  Biso   1.000  H
  C380     1.0000 0.18472  0.94530  0.93292  Biso   1.000  C
  O58      1.0000 0.05399  0.03109  0.19332  Biso   1.000  O
  C381     1.0000 0.02268  0.13172  0.24936  Biso   1.000  C
  C382     1.0000 0.04501  0.15820  0.34581  Biso   1.000  C
  C383     1.0000 0.09273  0.07589  0.39184  Biso   1.000  C
  C384     1.0000 0.01670  0.48881  0.13828  Biso   1.000  C
  C385     1.0000 0.01747  0.36727  0.29163  Biso   1.000  C
  H376     1.0000 0.99643  0.39960  0.21588  Biso   1.000  H
  C386     1.0000 0.04647  0.33787  0.38937  Biso   1.000  C
  H377     1.0000 0.12490  0.47689  0.35468  Biso   1.000  H
  C387     1.0000 0.10166  0.41298  0.41596  Biso   1.000  C
  H378     1.0000 0.18961  0.70351  0.02278  Biso   1.000  H
  H379     1.0000 0.21841  0.63537  0.03521  Biso   1.000  H
  H380     1.0000 0.21160  0.66371  0.97020  Biso   1.000  H
  H381     1.0000 0.16931  0.69777  0.02698  Biso   1.000  H
  H382     1.0000 0.13511  0.67489  0.98454  Biso   1.000  H
  H383     1.0000 0.17749  0.68490  0.95964  Biso   1.000  H
  H384     1.0000 0.15710  0.95446  0.93084  Biso   1.000  H
  H385     1.0000 0.19419  0.92990  0.89481  Biso   1.000  H
  H386     1.0000 0.19779  0.99140  0.94513  Biso   1.000  H
  C388     1.0000 0.02405  0.03868  0.15123  Biso   1.000  C
  H387     1.0000 0.00540  0.14201  0.21861  Biso   1.000  H
  C389     1.0000 0.02105  0.17270  0.29834  Biso   1.000  C
  C390     1.0000 0.04143  0.19957  0.39946  Biso   1.000  C
  C391     1.0000 0.08799  0.11289  0.44095  Biso   1.000  C
  H388     1.0000 0.11061  0.03581  0.38959  Biso   1.000  H
  H389     1.0000 0.01350  0.43698  0.12329  Biso   1.000  H
  C392     1.0000 0.02225  0.54267  0.08822  Biso   1.000  C
  H390     1.0000 0.99331  0.50247  0.16011  Biso   1.000  H
  H391     1.0000 0.99731  0.33292  0.29908  Biso   1.000  H
  C393     1.0000 0.01982  0.27339  0.40501  Biso   1.000  C
  C394     1.0000 0.07217  0.35968  0.42908  Biso   1.000  C
  H392     1.0000 0.11961  0.42658  0.44511  Biso   1.000  H
  H393     1.0000 0.02371  0.09062  0.13581  Biso   1.000  H
  H394     1.0000 0.99903  0.02850  0.16950  Biso   1.000  H
  C395     1.0000 0.03077  0.98370  0.10251  Biso   1.000  C
  H395     1.0000 0.00309  0.21267  0.30090  Biso   1.000  H
  C396     1.0000 0.06282  0.17388  0.44533  Biso   1.000  C
  H396     1.0000 0.10200  0.09759  0.47421  Biso   1.000  H
  H397     1.0000 0.02791  0.59321  0.10411  Biso   1.000  H
  C397     1.0000 0.05344  0.52181  0.04668  Biso   1.000  C
  H398     1.0000 0.99791  0.54638  0.06652  Biso   1.000  H
  C398     1.0000 0.00875  0.28519  0.46754  Biso   1.000  C
  H399     1.0000 0.99671  0.27350  0.37959  Biso   1.000  H
  O59      1.0000 0.07246  0.33331  0.48573  Biso   1.000  O
  H400     1.0000 0.03240  0.93237  0.11888  Biso   1.000  H
  H401     1.0000 0.00849  0.98510  0.07609  Biso   1.000  H
  C399     1.0000 0.06611  0.99871  0.06808  Biso   1.000  C
  O60      1.0000 0.06168  0.20772  0.50102  Biso   1.000  O
  H402     1.0000 0.07801  0.51850  0.06791  Biso   1.000  H
  H403     1.0000 0.04790  0.47150  0.03031  Biso   1.000  H
  C400     1.0000 0.05739  0.57640  0.99900  Biso   1.000  C
  C401     1.0000 0.04590  0.28058  0.50388  Biso   1.000  C
  H404     1.0000 0.99042  0.24601  0.48010  Biso   1.000  H
  H405     1.0000 0.99663  0.33500  0.47248  Biso   1.000  H
  H406     1.0000 0.06571  0.05121  0.05400  Biso   1.000  H
  H407     1.0000 0.08879  0.99247  0.09328  Biso   1.000  H
  C402     1.0000 0.06929  0.94530  0.01628  Biso   1.000  C
  H408     1.0000 0.06259  0.62638  0.01498  Biso   1.000  H
  H409     1.0000 0.03360  0.57792  0.97653  Biso   1.000  H
  H410     1.0000 0.07861  0.56122  0.97371  Biso   1.000  H
  H411     1.0000 0.03929  0.29149  0.54519  Biso   1.000  H
  H412     1.0000 0.09079  0.96048  0.99190  Biso   1.000  H
  H413     1.0000 0.04561  0.94721  0.99372  Biso   1.000  H
  H414     1.0000 0.07349  0.89392  0.03031  Biso   1.000  H
  C403     1.0000 0.75142  0.63548  0.33299  Biso   1.000  C
  C404     1.0000 0.75768  0.63588  0.27301  Biso   1.000  C
  H415     1.0000 0.73361  0.67000  0.34918  Biso   1.000  H
  C405     1.0000 0.77052  0.58601  0.36949  Biso   1.000  C
  C406     1.0000 0.73781  0.68631  0.23459  Biso   1.000  C
  C407     1.0000 0.78342  0.58028  0.25005  Biso   1.000  C
  C408     1.0000 0.79575  0.53418  0.34698  Biso   1.000  C
  H416     1.0000 0.76612  0.58781  0.41007  Biso   1.000  H
  C409     1.0000 0.71422  0.75388  0.25378  Biso   1.000  C
  C410     1.0000 0.74242  0.67439  0.17600  Biso   1.000  C
  C411     1.0000 0.78920  0.57758  0.19059  Biso   1.000  C
  C412     1.0000 0.80318  0.53171  0.28691  Biso   1.000  C
  O61      1.0000 0.81622  0.48370  0.38062  Biso   1.000  O
  C413     1.0000 0.68045  0.75911  0.21259  Biso   1.000  C
  C414     1.0000 0.73790  0.82640  0.25070  Biso   1.000  C
  H417     1.0000 0.70481  0.74606  0.29418  Biso   1.000  H
  O62      1.0000 0.72291  0.71559  0.13421  Biso   1.000  O
  C415     1.0000 0.76832  0.62497  0.15140  Biso   1.000  C
  H418     1.0000 0.80750  0.54340  0.17539  Biso   1.000  H
  C416     1.0000 0.83249  0.47751  0.26530  Biso   1.000  C
  C417     1.0000 0.80530  0.47431  0.43857  Biso   1.000  C
  C418     1.0000 0.69709  0.77350  0.15370  Biso   1.000  C
  H419     1.0000 0.66572  0.71160  0.21268  Biso   1.000  H
  H420     1.0000 0.66321  0.80071  0.22411  Biso   1.000  H
  C419     1.0000 0.73930  0.86182  0.19739  Biso   1.000  C
  C420     1.0000 0.75903  0.85738  0.29860  Biso   1.000  C
  H421     1.0000 0.77210  0.62261  0.11069  Biso   1.000  H
  N13      1.0000 0.86849  0.51872  0.25716  Biso   1.000  N
  H422     1.0000 0.83612  0.43642  0.29358  Biso   1.000  H
  H423     1.0000 0.82411  0.45531  0.22810  Biso   1.000  H
  H424     1.0000 0.77710  0.47217  0.44130  Biso   1.000  H
  H425     1.0000 0.81430  0.51771  0.46170  Biso   1.000  H
  C421     1.0000 0.82214  0.40257  0.46291  Biso   1.000  C
  O63      1.0000 0.71759  0.84237  0.15084  Biso   1.000  O
  H426     1.0000 0.67550  0.77637  0.12550  Biso   1.000  H
  C422     1.0000 0.76529  0.92338  0.18778  Biso   1.000  C
  C423     1.0000 0.78414  0.92051  0.28639  Biso   1.000  C
  C424     1.0000 0.75583  0.83360  0.35507  Biso   1.000  C
  H427     1.0000 0.87292  0.55819  0.27920  Biso   1.000  H
  C425     1.0000 0.89497  0.49938  0.21788  Biso   1.000  C
  H428     1.0000 0.85030  0.40730  0.46399  Biso   1.000  H
  H429     1.0000 0.81582  0.36030  0.43671  Biso   1.000  H
  C426     1.0000 0.80755  0.38430  0.52410  Biso   1.000  C
  C427     1.0000 0.78699  0.94879  0.23122  Biso   1.000  C
  H430     1.0000 0.76701  0.94597  0.15058  Biso   1.000  H
  C428     1.0000 0.80532  0.95042  0.33398  Biso   1.000  C
  H431     1.0000 0.73941  0.79250  0.36360  Biso   1.000  H
  C429     1.0000 0.77510  0.86620  0.39868  Biso   1.000  C
  O64      1.0000 0.89377  0.44136  0.18973  Biso   1.000  O
  C430     1.0000 0.92642  0.55639  0.21151  Biso   1.000  C
  H432     1.0000 0.77962  0.37520  0.52228  Biso   1.000  H
  H433     1.0000 0.81991  0.33731  0.53757  Biso   1.000  H
  C431     1.0000 0.81528  0.44530  0.56710  Biso   1.000  C
  H434     1.0000 0.80492  0.98758  0.22368  Biso   1.000  H
  C432     1.0000 0.80149  0.92529  0.38838  Biso   1.000  C
  C433     1.0000 0.83429  0.01282  0.32207  Biso   1.000  C
  H435     1.0000 0.77101  0.84928  0.43718  Biso   1.000  H
  C434     1.0000 0.95010  0.57336  0.25659  Biso   1.000  C
  C435     1.0000 0.92914  0.59681  0.15777  Biso   1.000  C
  H436     1.0000 0.84290  0.45452  0.56918  Biso   1.000  H
  H437     1.0000 0.80581  0.42990  0.60517  Biso   1.000  H
  H438     1.0000 0.80221  0.49140  0.55489  Biso   1.000  H
  O65      1.0000 0.82357  0.95621  0.43398  Biso   1.000  O
  N14      1.0000 0.86972  0.98207  0.29748  Biso   1.000  N
  H439     1.0000 0.82311  0.04947  0.29470  Biso   1.000  H
  H440     1.0000 0.84021  0.03941  0.35858  Biso   1.000  H
  O66      1.0000 0.94604  0.53109  0.30666  Biso   1.000  O
  C436     1.0000 0.97735  0.63172  0.25062  Biso   1.000  C
  C437     1.0000 0.95499  0.65820  0.15422  Biso   1.000  C
  C438     1.0000 0.90727  0.57589  0.10814  Biso   1.000  C
  C439     1.0000 0.80452  0.97032  0.48919  Biso   1.000  C
  H441     1.0000 0.87950  0.94181  0.31380  Biso   1.000  H
  C440     1.0000 0.88745  0.01029  0.25365  Biso   1.000  C
  C441     1.0000 0.97598  0.53868  0.34879  Biso   1.000  C
  H442     1.0000 0.99462  0.64201  0.28141  Biso   1.000  H
  C442     1.0000 0.97898  0.67270  0.20164  Biso   1.000  C
  C443     1.0000 0.95859  0.69957  0.10056  Biso   1.000  C
  C444     1.0000 0.91201  0.61289  0.05903  Biso   1.000  C
  H443     1.0000 0.88942  0.53581  0.11039  Biso   1.000  H
  H444     1.0000 0.80381  0.92399  0.51310  Biso   1.000  H
  H445     1.0000 0.77790  0.98780  0.48287  Biso   1.000  H
  C445     1.0000 0.82751  0.02890  0.51760  Biso   1.000  C
  C446     1.0000 0.92279  0.96470  0.23438  Biso   1.000  C
  O67      1.0000 0.87781  0.06656  0.22632  Biso   1.000  O
  H446     1.0000 0.97632  0.59057  0.36421  Biso   1.000  H
  C447     1.0000 0.96923  0.48370  0.39751  Biso   1.000  C
  H447     1.0000 0.00100  0.52850  0.33048  Biso   1.000  H
  H448     1.0000 0.99691  0.71267  0.19908  Biso   1.000  H
  C448     1.0000 0.98021  0.77339  0.09497  Biso   1.000  C
  C449     1.0000 0.93718  0.67388  0.05465  Biso   1.000  C
  H449     1.0000 0.89800  0.59759  0.02581  Biso   1.000  H
  H450     1.0000 0.81791  0.03233  0.55788  Biso   1.000  H
  H451     1.0000 0.85382  0.00860  0.52020  Biso   1.000  H
  C450     1.0000 0.83132  0.10350  0.49807  Biso   1.000  C
  C451     1.0000 0.95210  0.95458  0.27396  Biso   1.000  C
  C452     1.0000 0.92311  0.92787  0.17972  Biso   1.000  C
  H452     1.0000 0.96760  0.43237  0.38110  Biso   1.000  H
  H453     1.0000 0.99151  0.48510  0.42389  Biso   1.000  H
  C453     1.0000 0.93392  0.49871  0.43190  Biso   1.000  C
  C454     1.0000 0.95353  0.83787  0.11061  Biso   1.000  C
  C455     1.0000 0.99125  0.78519  0.03244  Biso   1.000  C
  H454     1.0000 0.00329  0.77350  0.12039  Biso   1.000  H
  O68      1.0000 0.93835  0.70767  0.99896  Biso   1.000  O
  H455     1.0000 0.85002  0.09501  0.46650  Biso   1.000  H
  H456     1.0000 0.80653  0.10872  0.47781  Biso   1.000  H
  C456     1.0000 0.83761  0.16809  0.50721  Biso   1.000  C
  C457     1.0000 0.80052  0.15561  0.49201  Biso   1.000  C
  O69      1.0000 0.95073  0.99185  0.32407  Biso   1.000  O
  C458     1.0000 0.98264  0.90539  0.25837  Biso   1.000  C
  C459     1.0000 0.95373  0.87621  0.16652  Biso   1.000  C
  C460     1.0000 0.89571  0.94389  0.13676  Biso   1.000  C
  H457     1.0000 0.91121  0.49247  0.40670  Biso   1.000  H
  H458     1.0000 0.93432  0.55121  0.44597  Biso   1.000  H
  C461     1.0000 0.93071  0.44530  0.48369  Biso   1.000  C
  C462     1.0000 0.92785  0.85968  0.07094  Biso   1.000  C
  C463     1.0000 0.95410  0.78058  0.99615  Biso   1.000  C
  H459     1.0000 0.00961  0.74601  0.01992  Biso   1.000  H
  H460     1.0000 0.00340  0.83500  0.02750  Biso   1.000  H
  H461     1.0000 0.83072  0.19777  0.47300  Biso   1.000  H
  H462     1.0000 0.86492  0.17489  0.51548  Biso   1.000  H
  H463     1.0000 0.82251  0.18490  0.54038  Biso   1.000  H
  H464     1.0000 0.81041  0.20351  0.47720  Biso   1.000  H
  H465     1.0000 0.78842  0.16371  0.52977  Biso   1.000  H
  H466     1.0000 0.78162  0.13537  0.46477  Biso   1.000  H
  C464     1.0000 0.98333  0.98881  0.36170  Biso   1.000  C
  C465     1.0000 0.98253  0.86727  0.20835  Biso   1.000  C
  H467     1.0000 0.00360  0.89960  0.28409  Biso   1.000  H
  H468     1.0000 0.87513  0.97689  0.14529  Biso   1.000  H
  C466     1.0000 0.89834  0.91298  0.08406  Biso   1.000  C
  H469     1.0000 0.92651  0.39392  0.46971  Biso   1.000  H
  H470     1.0000 0.90921  0.46048  0.50808  Biso   1.000  H
  H471     1.0000 0.95442  0.44721  0.50630  Biso   1.000  H
  O70      1.0000 0.92754  0.83331  0.01429  Biso   1.000  O
  H472     1.0000 0.96071  0.79149  0.95483  Biso   1.000  H
  H473     1.0000 0.98650  0.93698  0.37668  Biso   1.000  H
  C467     1.0000 0.97775  0.04273  0.41181  Biso   1.000  C
  H474     1.0000 0.00669  0.00247  0.33987  Biso   1.000  H
  H475     1.0000 0.00269  0.83286  0.20090  Biso   1.000  H
  H476     1.0000 0.88042  0.92658  0.05491  Biso   1.000  H
  H477     1.0000 0.97212  0.09321  0.39591  Biso   1.000  H
  C468     1.0000 0.94656  0.02181  0.45329  Biso   1.000  C
  H478     1.0000 0.00209  0.04638  0.43350  Biso   1.000  H
  H479     1.0000 0.95210  0.97150  0.46971  Biso   1.000  H
  H480     1.0000 0.92202  0.01850  0.43207  Biso   1.000  H
  C469     1.0000 0.94261  0.07640  0.50097  Biso   1.000  C
  H481     1.0000 0.96640  0.07792  0.52349  Biso   1.000  H
  H482     1.0000 0.92142  0.06122  0.52631  Biso   1.000  H
  H483     1.0000 0.93741  0.12638  0.48499  Biso   1.000  H
  C470     1.0000 0.24858  0.36452  0.66697  Biso   1.000  C
  C471     1.0000 0.22950  0.41399  0.63051  Biso   1.000  C
  C472     1.0000 0.24234  0.36412  0.72699  Biso   1.000  C
  H484     1.0000 0.26639  0.33000  0.65077  Biso   1.000  H
  C473     1.0000 0.20428  0.46582  0.65298  Biso   1.000  C
  H485     1.0000 0.23391  0.41219  0.58988  Biso   1.000  H
  C474     1.0000 0.21658  0.41972  0.74990  Biso   1.000  C
  C475     1.0000 0.26219  0.31369  0.76536  Biso   1.000  C
  O71      1.0000 0.18381  0.51630  0.61933  Biso   1.000  O
  C476     1.0000 0.19682  0.46829  0.71309  Biso   1.000  C
  C477     1.0000 0.21080  0.42242  0.80941  Biso   1.000  C
  C478     1.0000 0.28581  0.24612  0.74618  Biso   1.000  C
  C479     1.0000 0.25758  0.32561  0.82400  Biso   1.000  C
  C480     1.0000 0.19470  0.52569  0.56139  Biso   1.000  C
  C481     1.0000 0.16751  0.52249  0.73470  Biso   1.000  C
  C482     1.0000 0.23171  0.37497  0.84860  Biso   1.000  C
  H486     1.0000 0.19250  0.45660  0.82456  Biso   1.000  H
  C483     1.0000 0.26210  0.17360  0.74930  Biso   1.000  C
  C484     1.0000 0.31955  0.24089  0.78736  Biso   1.000  C
  H487     1.0000 0.29522  0.25388  0.70577  Biso   1.000  H
  O72      1.0000 0.27709  0.28441  0.86579  Biso   1.000  O
  C485     1.0000 0.17786  0.59737  0.53709  Biso   1.000  C
  H488     1.0000 0.22290  0.52777  0.55870  Biso   1.000  H
  H489     1.0000 0.18570  0.48229  0.53830  Biso   1.000  H
  N15      1.0000 0.13154  0.48128  0.74284  Biso   1.000  N
  H490     1.0000 0.16391  0.56358  0.70638  Biso   1.000  H
  H491     1.0000 0.17589  0.54469  0.77190  Biso   1.000  H
  H492     1.0000 0.22790  0.37739  0.88926  Biso   1.000  H
  C486     1.0000 0.26073  0.13818  0.80256  Biso   1.000  C
  C487     1.0000 0.24100  0.14262  0.70140  Biso   1.000  C
  C488     1.0000 0.30291  0.22650  0.84626  Biso   1.000  C
  H493     1.0000 0.33431  0.28840  0.78728  Biso   1.000  H
  H494     1.0000 0.33679  0.19929  0.77589  Biso   1.000  H
  C489     1.0000 0.19245  0.61570  0.47590  Biso   1.000  C
  H495     1.0000 0.14970  0.59270  0.53601  Biso   1.000  H
  H496     1.0000 0.18421  0.63970  0.56329  Biso   1.000  H
  H497     1.0000 0.12711  0.44181  0.72080  Biso   1.000  H
  C490     1.0000 0.10503  0.50062  0.78212  Biso   1.000  C
  O73      1.0000 0.28241  0.15763  0.84916  Biso   1.000  O
  C491     1.0000 0.23474  0.07662  0.81218  Biso   1.000  C
  C492     1.0000 0.21589  0.07949  0.71357  Biso   1.000  C
  C493     1.0000 0.24420  0.16640  0.64488  Biso   1.000  C
  H498     1.0000 0.32450  0.22358  0.87450  Biso   1.000  H
  C494     1.0000 0.18472  0.55470  0.43290  Biso   1.000  C
  H499     1.0000 0.22041  0.62480  0.47768  Biso   1.000  H
  H500     1.0000 0.18009  0.66269  0.46239  Biso   1.000  H
  O74      1.0000 0.10623  0.55864  0.81027  Biso   1.000  O
  C495     1.0000 0.07358  0.44361  0.78845  Biso   1.000  C
  C496     1.0000 0.21303  0.05121  0.76878  Biso   1.000  C
  H501     1.0000 0.23299  0.05403  0.84938  Biso   1.000  H
  C497     1.0000 0.19470  0.04958  0.66597  Biso   1.000  C
  H502     1.0000 0.26062  0.20750  0.63640  Biso   1.000  H
  C498     1.0000 0.22490  0.13380  0.60127  Biso   1.000  C
  H503     1.0000 0.15710  0.54548  0.43077  Biso   1.000  H
  H504     1.0000 0.19419  0.57010  0.39479  Biso   1.000  H
  H505     1.0000 0.19779  0.50860  0.44511  Biso   1.000  H
  C499     1.0000 0.04990  0.42664  0.74336  Biso   1.000  C
  C500     1.0000 0.07089  0.40319  0.84223  Biso   1.000  C
  H506     1.0000 0.19510  0.01242  0.77628  Biso   1.000  H
  C501     1.0000 0.19854  0.07471  0.61158  Biso   1.000  C
  C502     1.0000 0.16571  0.98718  0.67788  Biso   1.000  C
  H507     1.0000 0.22899  0.15072  0.56277  Biso   1.000  H
  O75      1.0000 0.05399  0.46891  0.69330  Biso   1.000  O
  C503     1.0000 0.02268  0.36828  0.74934  Biso   1.000  C
  C504     1.0000 0.04501  0.34180  0.84578  Biso   1.000  C
  C505     1.0000 0.09273  0.42411  0.89182  Biso   1.000  C
  O76      1.0000 0.17643  0.04379  0.56598  Biso   1.000  O
  N16      1.0000 0.13028  0.01788  0.70252  Biso   1.000  N
  H508     1.0000 0.17689  0.95047  0.70530  Biso   1.000  H
  H509     1.0000 0.15979  0.96059  0.64138  Biso   1.000  H
  C506     1.0000 0.02405  0.46132  0.65121  Biso   1.000  C
  H510     1.0000 0.00540  0.35799  0.71859  Biso   1.000  H
  C507     1.0000 0.02105  0.32730  0.79832  Biso   1.000  C
  C508     1.0000 0.04143  0.30037  0.89944  Biso   1.000  C
  C509     1.0000 0.08799  0.38711  0.94093  Biso   1.000  C
  H511     1.0000 0.11061  0.46419  0.88957  Biso   1.000  H
  C510     1.0000 0.19550  0.02968  0.51081  Biso   1.000  C
  H512     1.0000 0.12050  0.05819  0.68620  Biso   1.000  H
  C511     1.0000 0.11255  0.98971  0.74631  Biso   1.000  C
  H513     1.0000 0.02371  0.40938  0.63579  Biso   1.000  H
  C512     1.0000 0.03077  0.51630  0.60249  Biso   1.000  C
  H514     1.0000 0.99903  0.47150  0.66948  Biso   1.000  H
  H515     1.0000 0.00309  0.28727  0.80087  Biso   1.000  H
  C513     1.0000 0.06282  0.32612  0.94530  Biso   1.000  C
  C514     1.0000 0.01982  0.22661  0.90498  Biso   1.000  C
  H516     1.0000 0.10200  0.40241  0.97419  Biso   1.000  H
  H517     1.0000 0.19619  0.07601  0.48690  Biso   1.000  H
  H518     1.0000 0.22210  0.01220  0.51708  Biso   1.000  H
  C515     1.0000 0.17251  0.97110  0.48240  Biso   1.000  C
  C516     1.0000 0.07721  0.03530  0.76562  Biso   1.000  C
  O77      1.0000 0.12222  0.93344  0.77368  Biso   1.000  O
  H519     1.0000 0.03240  0.56757  0.61890  Biso   1.000  H
  H520     1.0000 0.00849  0.51490  0.57607  Biso   1.000  H
  C517     1.0000 0.06611  0.50129  0.56810  Biso   1.000  C
  O78      1.0000 0.06168  0.29228  0.00100  Biso   1.000  O
  C518     1.0000 0.00875  0.21481  0.96752  Biso   1.000  C
  C519     1.0000 0.04647  0.16208  0.88935  Biso   1.000  C
  H521     1.0000 0.99671  0.22650  0.87956  Biso   1.000  H
  H522     1.0000 0.18209  0.96767  0.44208  Biso   1.000  H
  H523     1.0000 0.14621  0.99140  0.47980  Biso   1.000  H
  C520     1.0000 0.16871  0.89650  0.50188  Biso   1.000  C
  C521     1.0000 0.07692  0.07213  0.82023  Biso   1.000  C
  C522     1.0000 0.04790  0.04542  0.72600  Biso   1.000  C
  H524     1.0000 0.08879  0.50748  0.59330  Biso   1.000  H
  H525     1.0000 0.06571  0.44879  0.55398  Biso   1.000  H
  C523     1.0000 0.06929  0.55470  0.51631  Biso   1.000  C
  C524     1.0000 0.04590  0.21942  0.00385  Biso   1.000  C
  H526     1.0000 0.99042  0.25399  0.98008  Biso   1.000  H
  H527     1.0000 0.99663  0.16500  0.97250  Biso   1.000  H
  C525     1.0000 0.04627  0.12379  0.83348  Biso   1.000  C
  C526     1.0000 0.07217  0.14032  0.92906  Biso   1.000  C
  H528     1.0000 0.15001  0.90499  0.53350  Biso   1.000  H
  H529     1.0000 0.19350  0.89128  0.52219  Biso   1.000  H
  C527     1.0000 0.16239  0.83191  0.49279  Biso   1.000  C
  C528     1.0000 0.19951  0.84439  0.50799  Biso   1.000  C
  C529     1.0000 0.10432  0.05611  0.86319  Biso   1.000  C
  C530     1.0000 0.01736  0.09461  0.74163  Biso   1.000  C
  O79      1.0000 0.04927  0.00810  0.67593  Biso   1.000  O
  H530     1.0000 0.07349  0.60608  0.53029  Biso   1.000  H
  H531     1.0000 0.09079  0.53952  0.49188  Biso   1.000  H
  H532     1.0000 0.04561  0.55279  0.49370  Biso   1.000  H
  O80      1.0000 0.07246  0.16669  0.98571  Biso   1.000  O
  H533     1.0000 0.03929  0.20851  0.04517  Biso   1.000  H
  C531     1.0000 0.01747  0.13267  0.79161  Biso   1.000  C
  C532     1.0000 0.10166  0.08702  0.91594  Biso   1.000  C
  H534     1.0000 0.16931  0.80217  0.52700  Biso   1.000  H
  H535     1.0000 0.13511  0.82511  0.48447  Biso   1.000  H
  H536     1.0000 0.17749  0.81510  0.45957  Biso   1.000  H
  H537     1.0000 0.18961  0.79649  0.52280  Biso   1.000  H
  H538     1.0000 0.21160  0.83629  0.47018  Biso   1.000  H
  H539     1.0000 0.21841  0.86457  0.53519  Biso   1.000  H
  H540     1.0000 0.12490  0.02311  0.85466  Biso   1.000  H
  H541     1.0000 0.99643  0.10040  0.71586  Biso   1.000  H
  C533     1.0000 0.01670  0.01119  0.63826  Biso   1.000  C
  H542     1.0000 0.99731  0.16708  0.79910  Biso   1.000  H
  H543     1.0000 0.11961  0.07342  0.94509  Biso   1.000  H
  H544     1.0000 0.01350  0.06302  0.62327  Biso   1.000  H
  H545     1.0000 0.99331  0.99747  0.66008  Biso   1.000  H
  C534     1.0000 0.02225  0.95727  0.58819  Biso   1.000  C
  H546     1.0000 0.99791  0.95356  0.56650  Biso   1.000  H
  H547     1.0000 0.02791  0.90679  0.60409  Biso   1.000  H
  C535     1.0000 0.05344  0.97819  0.54671  Biso   1.000  C
  H548     1.0000 0.04790  0.02850  0.53029  Biso   1.000  H
  H549     1.0000 0.07801  0.98150  0.56788  Biso   1.000  H
  C536     1.0000 0.05739  0.92360  0.49898  Biso   1.000  C
  H550     1.0000 0.03360  0.92208  0.47651  Biso   1.000  H
  H551     1.0000 0.07861  0.93878  0.47369  Biso   1.000  H
  H552     1.0000 0.06259  0.87357  0.51501  Biso   1.000  H
