data_image0
_cell_length_a       15.299
_cell_length_b       15.677
_cell_length_c       19.052
_cell_angle_alpha    99.48
_cell_angle_beta     111.68
_cell_angle_gamma    100.23

_symmetry_space_group_name_H-M    "P 1"
_symmetry_int_tables_number       1

loop_
  _symmetry_equiv_pos_as_xyz
  'x, y, z'

loop_
  _atom_site_label
  _atom_site_occupancy
  _atom_site_fract_x
  _atom_site_fract_y
  _atom_site_fract_z
  _atom_site_thermal_displace_type
  _atom_site_B_iso_or_equiv
  _atom_site_type_symbol
  C1       1.0000 0.84380  0.21806  0.42840  Biso   1.000  C
  C2       1.0000 0.75213  0.21045  0.35632  Biso   1.000  C
  C3       1.0000 0.93285  0.28892  0.43721  Biso   1.000  C
  H1       1.0000 0.85919  0.15924  0.42560  Biso   1.000  H
  H2       1.0000 0.83061  0.23303  0.47550  Biso   1.000  H
  C4       1.0000 0.93278  0.28892  0.43721  Biso   1.000  C
  C5       1.0000 0.66121  0.15629  0.36069  Biso   1.000  C
  C6       1.0000 0.75518  0.17491  0.27799  Biso   1.000  C
  H3       1.0000 0.74430  0.27266  0.35760  Biso   1.000  H
  H4       1.0000 0.74429  0.27259  0.35760  Biso   1.000  H
  H5       1.0000 0.94994  0.27172  0.39250  Biso   1.000  H
  H6       1.0000 0.91646  0.34727  0.43634  Biso   1.000  H
  H7       1.0000 0.94987  0.27172  0.39250  Biso   1.000  H
  H8       1.0000 0.91639  0.34727  0.43634  Biso   1.000  H
  C7       1.0000 0.01961  0.29922  0.51233  Biso   1.000  C
  C8       1.0000 0.57755  0.18691  0.34733  Biso   1.000  C
  C9       1.0000 0.57749  0.18691  0.34733  Biso   1.000  C
  C10      1.0000 0.65900  0.07416  0.37972  Biso   1.000  C
  C11      1.0000 0.80902  0.11511  0.26708  Biso   1.000  C
  C12      1.0000 0.70155  0.19912  0.21192  Biso   1.000  C
  C13      1.0000 0.80896  0.11511  0.26708  Biso   1.000  C
  C14      1.0000 0.70148  0.19912  0.21192  Biso   1.000  C
  H9       1.0000 0.99931  0.30831  0.55610  Biso   1.000  H
  C15      1.0000 0.10696  0.37636  0.52960  Biso   1.000  C
  H10      1.0000 0.04009  0.24274  0.50999  Biso   1.000  H
  C16      1.0000 0.10689  0.37636  0.52960  Biso   1.000  C
  C17      1.0000 0.49775  0.13860  0.35509  Biso   1.000  C
  O1       1.0000 0.56994  0.26784  0.32859  Biso   1.000  O
  C18      1.0000 0.49782  0.13860  0.35509  Biso   1.000  C
  O2       1.0000 0.56987  0.26784  0.32859  Biso   1.000  O
  C19      1.0000 0.58053  0.02326  0.38842  Biso   1.000  C
  C20      1.0000 0.58045  0.02320  0.38842  Biso   1.000  C
  H11      1.0000 0.71439  0.05120  0.38731  Biso   1.000  H
  H12      1.0000 0.84854  0.09906  0.31202  Biso   1.000  H
  C21      1.0000 0.80980  0.07644  0.19541  Biso   1.000  C
  H13      1.0000 0.84847  0.09899  0.31202  Biso   1.000  H
  O3       1.0000 0.64684  0.25861  0.21951  Biso   1.000  O
  C22      1.0000 0.69814  0.16463  0.13902  Biso   1.000  C
  O4       1.0000 0.64677  0.25861  0.21951  Biso   1.000  O
  C23      1.0000 0.69808  0.16463  0.13902  Biso   1.000  C
  C24      1.0000 0.18481  0.39612  0.61301  Biso   1.000  C
  H14      1.0000 0.08197  0.43083  0.52563  Biso   1.000  H
  C25      1.0000 0.15399  0.36593  0.47130  Biso   1.000  C
  H15      1.0000 0.08190  0.43083  0.52563  Biso   1.000  H
  H16      1.0000 0.44243  0.16165  0.34692  Biso   1.000  H
  C26      1.0000 0.49801  0.05731  0.37459  Biso   1.000  C
  H17      1.0000 0.44237  0.16165  0.34692  Biso   1.000  H
  C27      1.0000 0.49794  0.05731  0.37459  Biso   1.000  C
  H18      1.0000 0.60762  0.28182  0.30723  Biso   1.000  H
  C28      1.0000 0.58280  0.93454  0.41112  Biso   1.000  C
  C29      1.0000 0.58274  0.93454  0.41112  Biso   1.000  C
  C30      1.0000 0.87040  0.01222  0.18560  Biso   1.000  C
  C31      1.0000 0.75171  0.10449  0.13120  Biso   1.000  C
  H19      1.0000 0.60994  0.26142  0.17498  Biso   1.000  H
  H20      1.0000 0.60987  0.26142  0.17498  Biso   1.000  H
  H21      1.0000 0.65931  0.18210  0.09473  Biso   1.000  H
  C32      1.0000 0.20936  0.32753  0.64861  Biso   1.000  C
  C33      1.0000 0.23666  0.48334  0.65754  Biso   1.000  C
  C34      1.0000 0.20929  0.32753  0.64861  Biso   1.000  C
  C35      1.0000 0.23659  0.48334  0.65754  Biso   1.000  C
  C36      1.0000 0.16783  0.28344  0.44223  Biso   1.000  C
  C37      1.0000 0.18674  0.43870  0.44748  Biso   1.000  C
  C38      1.0000 0.18668  0.43870  0.44748  Biso   1.000  C
  O5       1.0000 0.41592  0.01315  0.37943  Biso   1.000  O
  H22      1.0000 0.52827  0.91982  0.42770  Biso   1.000  H
  C39      1.0000 0.56193  0.85931  0.34009  Biso   1.000  C
  C40      1.0000 0.67766  0.94414  0.48180  Biso   1.000  C
  H23      1.0000 0.52820  0.91982  0.42770  Biso   1.000  H
  C41      1.0000 0.96963  0.06274  0.19220  Biso   1.000  C
  C42      1.0000 0.96955  0.06268  0.19220  Biso   1.000  C
  H24      1.0000 0.83518  0.97409  0.13080  Biso   1.000  H
  C43      1.0000 0.88004  0.94841  0.23819  Biso   1.000  C
  H25      1.0000 0.83511  0.97409  0.13080  Biso   1.000  H
  O6       1.0000 0.75012  0.06681  0.05982  Biso   1.000  O
  H26      1.0000 0.17652  0.26754  0.61913  Biso   1.000  H
  C44      1.0000 0.27816  0.34119  0.72413  Biso   1.000  C
  C45      1.0000 0.27809  0.34119  0.72413  Biso   1.000  C
  O7       1.0000 0.22171  0.55812  0.62900  Biso   1.000  O
  C46      1.0000 0.30634  0.50026  0.73312  Biso   1.000  C
  H27      1.0000 0.14302  0.23251  0.45688  Biso   1.000  H
  C47      1.0000 0.21574  0.27150  0.39309  Biso   1.000  C
  H28      1.0000 0.14295  0.23251  0.45688  Biso   1.000  H
  C48      1.0000 0.21567  0.27150  0.39309  Biso   1.000  C
  O8       1.0000 0.16942  0.51934  0.47328  Biso   1.000  O
  C49      1.0000 0.23485  0.43185  0.39863  Biso   1.000  C
  C50      1.0000 0.23479  0.43185  0.39863  Biso   1.000  C
  H29      1.0000 0.39677  0.96065  0.35118  Biso   1.000  H
  C51      1.0000 0.63512  0.83201  0.32258  Biso   1.000  C
  C52      1.0000 0.46825  0.81861  0.28698  Biso   1.000  C
  H30      1.0000 0.73226  0.95412  0.46540  Biso   1.000  H
  H31      1.0000 0.68848  0.99826  0.52213  Biso   1.000  H
  C53      1.0000 0.68149  0.86382  0.51921  Biso   1.000  C
  C54      1.0000 0.68143  0.86382  0.51921  Biso   1.000  C
  C55      1.0000 0.98813  0.06842  0.12572  Biso   1.000  C
  C56      1.0000 0.98806  0.06842  0.12572  Biso   1.000  C
  C57      1.0000 0.04723  0.10120  0.26381  Biso   1.000  C
  C58      1.0000 0.04716  0.10120  0.26381  Biso   1.000  C
  H32      1.0000 0.92778  0.91510  0.23352  Biso   1.000  H
  H33      1.0000 0.90589  0.98360  0.29311  Biso   1.000  H
  C59      1.0000 0.78268  0.88082  0.21852  Biso   1.000  C
  H34      1.0000 0.92772  0.91510  0.23352  Biso   1.000  H
  H35      1.0000 0.90583  0.98360  0.29311  Biso   1.000  H
  C60      1.0000 0.78261  0.88082  0.21852  Biso   1.000  C
  H36      1.0000 0.71000  0.08349  0.02469  Biso   1.000  H
  C61      1.0000 0.29854  0.26214  0.75991  Biso   1.000  C
  C62      1.0000 0.32617  0.43005  0.76563  Biso   1.000  C
  C63      1.0000 0.29847  0.26214  0.75991  Biso   1.000  C
  C64      1.0000 0.32610  0.43005  0.76563  Biso   1.000  C
  H37      1.0000 0.19125  0.54217  0.58032  Biso   1.000  H
  H38      1.0000 0.34027  0.56019  0.76242  Biso   1.000  H
  H39      1.0000 0.34020  0.56019  0.76242  Biso   1.000  H
  C65      1.0000 0.25183  0.34896  0.37313  Biso   1.000  C
  C66      1.0000 0.22423  0.18160  0.35632  Biso   1.000  C
  C67      1.0000 0.22416  0.18160  0.35632  Biso   1.000  C
  H40      1.0000 0.19464  0.55905  0.45682  Biso   1.000  H
  H41      1.0000 0.25631  0.48261  0.38229  Biso   1.000  H
  H42      1.0000 0.70069  0.85750  0.35941  Biso   1.000  H
  C68      1.0000 0.61867  0.77003  0.25523  Biso   1.000  C
  H43      1.0000 0.70062  0.85750  0.35941  Biso   1.000  H
  O9       1.0000 0.39349  0.84274  0.30361  Biso   1.000  O
  C69      1.0000 0.44795  0.75578  0.21939  Biso   1.000  C
  O10      1.0000 0.39343  0.84274  0.30361  Biso   1.000  O
  H44      1.0000 0.68349  0.81181  0.48303  Biso   1.000  H
  H45      1.0000 0.62209  0.84696  0.52861  Biso   1.000  H
  C70      1.0000 0.77026  0.88763  0.59532  Biso   1.000  C
  H46      1.0000 0.68342  0.81181  0.48303  Biso   1.000  H
  H47      1.0000 0.62203  0.84696  0.52861  Biso   1.000  H
  O11      1.0000 0.91632  0.03319  0.05049  Biso   1.000  O
  O12      1.0000 0.91625  0.03319  0.05049  Biso   1.000  O
  C71      1.0000 0.07892  0.10992  0.13319  Biso   1.000  C
  C72      1.0000 0.07886  0.10992  0.13319  Biso   1.000  C
  C73      1.0000 0.14113  0.14284  0.27443  Biso   1.000  C
  H48      1.0000 0.03549  0.09935  0.30922  Biso   1.000  H
  C74      1.0000 0.14107  0.14284  0.27443  Biso   1.000  C
  C75      1.0000 0.79405  0.81263  0.26538  Biso   1.000  C
  H49      1.0000 0.75376  0.84970  0.16243  Biso   1.000  H
  H50      1.0000 0.73706  0.91383  0.22821  Biso   1.000  H
  C76      1.0000 0.38143  0.23003  0.74479  Biso   1.000  C
  H51      1.0000 0.32304  0.28558  0.81769  Biso   1.000  H
  C77      1.0000 0.20606  0.18749  0.73464  Biso   1.000  C
  C78      1.0000 0.38136  0.23003  0.74479  Biso   1.000  C
  H52      1.0000 0.32298  0.28558  0.81769  Biso   1.000  H
  C79      1.0000 0.20599  0.18743  0.73464  Biso   1.000  C
  O13      1.0000 0.39452  0.45325  0.84209  Biso   1.000  O
  O14      1.0000 0.30102  0.34113  0.32673  Biso   1.000  O
  H53      1.0000 0.28630  0.19343  0.34902  Biso   1.000  H
  C80      1.0000 0.22978  0.11243  0.40470  Biso   1.000  C
  C81      1.0000 0.52227  0.73304  0.20352  Biso   1.000  C
  C82      1.0000 0.70157  0.73792  0.24011  Biso   1.000  C
  C83      1.0000 0.70150  0.73792  0.24011  Biso   1.000  C
  H54      1.0000 0.34525  0.83659  0.26171  Biso   1.000  H
  H55      1.0000 0.38226  0.72828  0.18367  Biso   1.000  H
  H56      1.0000 0.38220  0.72828  0.18367  Biso   1.000  H
  C84      1.0000 0.77587  0.81845  0.64371  Biso   1.000  C
  H57      1.0000 0.82883  0.89723  0.58388  Biso   1.000  H
  H58      1.0000 0.77248  0.94513  0.62742  Biso   1.000  H
  C85      1.0000 0.77581  0.81845  0.64371  Biso   1.000  C
  C86      1.0000 0.15430  0.14693  0.20539  Biso   1.000  C
  H59      1.0000 0.09003  0.11312  0.08772  Biso   1.000  H
  H60      1.0000 0.08996  0.11312  0.08772  Biso   1.000  H
  H61      1.0000 0.84627  0.78559  0.26130  Biso   1.000  H
  H62      1.0000 0.81485  0.84309  0.32101  Biso   1.000  H
  H63      1.0000 0.84621  0.78559  0.26130  Biso   1.000  H
  C87      1.0000 0.36492  0.16805  0.67744  Biso   1.000  C
  C88      1.0000 0.47785  0.26708  0.79650  Biso   1.000  C
  C89      1.0000 0.47778  0.26708  0.79650  Biso   1.000  C
  C90      1.0000 0.21743  0.11924  0.78150  Biso   1.000  C
  H64      1.0000 0.15383  0.21447  0.73872  Biso   1.000  H
  H65      1.0000 0.18525  0.15696  0.67902  Biso   1.000  H
  C91      1.0000 0.21736  0.11924  0.78150  Biso   1.000  C
  H66      1.0000 0.18518  0.15696  0.67902  Biso   1.000  H
  H67      1.0000 0.42504  0.41365  0.84950  Biso   1.000  H
  H68      1.0000 0.42497  0.41365  0.84950  Biso   1.000  H
  H69      1.0000 0.32054  0.39161  0.32019  Biso   1.000  H
  H70      1.0000 0.32047  0.39161  0.32019  Biso   1.000  H
  C92      1.0000 0.31861  0.13624  0.48081  Biso   1.000  C
  H71      1.0000 0.17117  0.10282  0.41608  Biso   1.000  H
  H72      1.0000 0.22762  0.05492  0.37260  Biso   1.000  H
  H73      1.0000 0.22756  0.05492  0.37260  Biso   1.000  H
  O15      1.0000 0.50391  0.67101  0.13488  Biso   1.000  O
  H74      1.0000 0.67707  0.71454  0.18233  Biso   1.000  H
  C93      1.0000 0.72195  0.65894  0.27589  Biso   1.000  C
  C94      1.0000 0.72189  0.65894  0.27589  Biso   1.000  C
  C95      1.0000 0.78436  0.72855  0.60694  Biso   1.000  C
  H75      1.0000 0.71374  0.80663  0.65100  Biso   1.000  H
  C96      1.0000 0.85897  0.85722  0.72559  Biso   1.000  C
  C97      1.0000 0.85890  0.85722  0.72559  Biso   1.000  C
  O16      1.0000 0.24471  0.18732  0.20790  Biso   1.000  O
  H76      1.0000 0.29941  0.14256  0.64061  Biso   1.000  H
  C98      1.0000 0.43811  0.14075  0.65993  Biso   1.000  C
  O17      1.0000 0.49612  0.32905  0.86514  Biso   1.000  O
  C99      1.0000 0.55215  0.24428  0.78063  Biso   1.000  C
  C100     1.0000 0.55209  0.24428  0.78063  Biso   1.000  C
  C101     1.0000 0.12006  0.05165  0.76184  Biso   1.000  C
  C102     1.0000 0.11999  0.05165  0.76184  Biso   1.000  C
  H77      1.0000 0.24634  0.15036  0.83759  Biso   1.000  H
  H78      1.0000 0.26304  0.08623  0.77182  Biso   1.000  H
  H79      1.0000 0.24628  0.15036  0.83759  Biso   1.000  H
  H80      1.0000 0.26298  0.08623  0.77182  Biso   1.000  H
  C103     1.0000 0.32244  0.05591  0.51822  Biso   1.000  C
  H81      1.0000 0.31661  0.18824  0.51700  Biso   1.000  H
  H82      1.0000 0.37802  0.15316  0.47141  Biso   1.000  H
  C104     1.0000 0.32238  0.05591  0.51822  Biso   1.000  C
  H83      1.0000 0.44413  0.64530  0.11229  Biso   1.000  H
  C105     1.0000 0.79074  0.67253  0.35141  Biso   1.000  C
  C106     1.0000 0.67393  0.57000  0.23439  Biso   1.000  C
  C107     1.0000 0.83227  0.71662  0.55779  Biso   1.000  C
  C108     1.0000 0.74828  0.65116  0.62690  Biso   1.000  C
  C109     1.0000 0.83220  0.71662  0.55779  Biso   1.000  C
  C110     1.0000 0.74822  0.65116  0.62690  Biso   1.000  C
  C111     1.0000 0.95288  0.89886  0.73621  Biso   1.000  C
  C112     1.0000 0.84581  0.85320  0.79464  Biso   1.000  C
  C113     1.0000 0.84574  0.85313  0.79464  Biso   1.000  C
  H84      1.0000 0.27510  0.22922  0.24858  Biso   1.000  H
  C114     1.0000 0.41730  0.06552  0.58890  Biso   1.000  C
  C115     1.0000 0.53182  0.18143  0.71298  Biso   1.000  C
  C116     1.0000 0.53175  0.18143  0.71298  Biso   1.000  C
  H85      1.0000 0.55597  0.35476  0.88773  Biso   1.000  H
  H86      1.0000 0.55590  0.35476  0.88773  Biso   1.000  H
  H87      1.0000 0.61781  0.27176  0.81629  Biso   1.000  H
  C117     1.0000 0.12970  0.98784  0.81442  Biso   1.000  C
  C118     1.0000 0.12963  0.98784  0.81442  Biso   1.000  C
  H88      1.0000 0.07232  0.08496  0.76650  Biso   1.000  H
  H89      1.0000 0.09421  0.01646  0.70691  Biso   1.000  H
  H90      1.0000 0.26784  0.04594  0.53462  Biso   1.000  H
  H91      1.0000 0.31162  0.00180  0.47789  Biso   1.000  H
  H92      1.0000 0.26778  0.04594  0.53462  Biso   1.000  H
  H93      1.0000 0.31156  0.00180  0.47789  Biso   1.000  H
  H94      1.0000 0.82352  0.73252  0.38089  Biso   1.000  H
  C119     1.0000 0.81523  0.60394  0.38702  Biso   1.000  C
  O18      1.0000 0.60555  0.54679  0.15788  Biso   1.000  O
  C120     1.0000 0.69376  0.49980  0.26690  Biso   1.000  C
  O19      1.0000 0.60549  0.54679  0.15788  Biso   1.000  O
  C121     1.0000 0.69370  0.49980  0.26690  Biso   1.000  C
  H95      1.0000 0.85706  0.76753  0.54308  Biso   1.000  H
  C122     1.0000 0.84604  0.63413  0.52873  Biso   1.000  C
  H96      1.0000 0.85699  0.76753  0.54308  Biso   1.000  H
  O20      1.0000 0.69908  0.65893  0.67330  Biso   1.000  O
  C123     1.0000 0.76525  0.56821  0.60139  Biso   1.000  C
  O21      1.0000 0.69901  0.65893  0.67330  Biso   1.000  O
  C124     1.0000 0.76518  0.56821  0.60139  Biso   1.000  C
  H97      1.0000 0.96456  0.90077  0.69081  Biso   1.000  H
  C125     1.0000 0.03048  0.93738  0.80783  Biso   1.000  C
  C126     1.0000 0.92119  0.89020  0.86683  Biso   1.000  C
  O22      1.0000 0.75539  0.81274  0.79213  Biso   1.000  O
  C127     1.0000 0.92118  0.89014  0.86683  Biso   1.000  C
  O23      1.0000 0.75533  0.81274  0.79213  Biso   1.000  O
  C128     1.0000 0.41958  0.97686  0.61160  Biso   1.000  C
  C129     1.0000 0.41952  0.97686  0.61160  Biso   1.000  C
  H98      1.0000 0.47183  0.08024  0.57232  Biso   1.000  H
  H99      1.0000 0.47177  0.08024  0.57232  Biso   1.000  H
  O24      1.0000 0.60661  0.15732  0.69641  Biso   1.000  O
  C130     1.0000 0.19031  0.92368  0.80462  Biso   1.000  C
  C131     1.0000 0.19025  0.92368  0.80462  Biso   1.000  C
  H100     1.0000 0.16492  0.02597  0.86923  Biso   1.000  H
  C132     1.0000 0.76344  0.51672  0.34248  Biso   1.000  C
  C133     1.0000 0.89316  0.62376  0.47042  Biso   1.000  C
  C134     1.0000 0.76338  0.51672  0.34248  Biso   1.000  C
  C135     1.0000 0.89314  0.62370  0.47042  Biso   1.000  C
  H101     1.0000 0.57506  0.58641  0.15052  Biso   1.000  H
  H102     1.0000 0.57500  0.58641  0.15052  Biso   1.000  H
  H103     1.0000 0.65984  0.43993  0.23760  Biso   1.000  H
  C136     1.0000 0.81333  0.56134  0.55248  Biso   1.000  C
  H104     1.0000 0.67956  0.60845  0.67983  Biso   1.000  H
  H105     1.0000 0.74379  0.51745  0.61773  Biso   1.000  H
  H106     1.0000 0.74372  0.51745  0.61773  Biso   1.000  H
  C137     1.0000 0.01198  0.93164  0.87430  Biso   1.000  C
  C138     1.0000 0.01191  0.93164  0.87430  Biso   1.000  C
  H107     1.0000 0.91007  0.88694  0.91230  Biso   1.000  H
  H108     1.0000 0.91001  0.88694  0.91230  Biso   1.000  H
  H109     1.0000 0.72497  0.77082  0.75139  Biso   1.000  H
  H110     1.0000 0.72491  0.77082  0.75139  Biso   1.000  H
  C139     1.0000 0.34105  0.92596  0.62030  Biso   1.000  C
  C140     1.0000 0.50210  0.94275  0.62544  Biso   1.000  C
  C141     1.0000 0.50203  0.94275  0.62544  Biso   1.000  C
  H111     1.0000 0.65485  0.16347  0.73831  Biso   1.000  H
  H112     1.0000 0.65479  0.16347  0.73831  Biso   1.000  H
  C142     1.0000 0.19105  0.88493  0.73289  Biso   1.000  C
  C143     1.0000 0.24839  0.89557  0.86882  Biso   1.000  C
  C144     1.0000 0.24833  0.89557  0.86882  Biso   1.000  C
  O25      1.0000 0.77832  0.44194  0.37102  Biso   1.000  O
  H113     1.0000 0.91813  0.56923  0.47439  Biso   1.000  H
  C145     1.0000 0.98043  0.70083  0.48770  Biso   1.000  C
  O26      1.0000 0.83065  0.48070  0.52668  Biso   1.000  O
  O27      1.0000 0.83058  0.48070  0.52668  Biso   1.000  O
  O28      1.0000 0.08378  0.96686  0.94954  Biso   1.000  O
  C146     1.0000 0.33889  0.84376  0.63933  Biso   1.000  C
  C147     1.0000 0.33883  0.84376  0.63933  Biso   1.000  C
  H114     1.0000 0.28571  0.94886  0.61271  Biso   1.000  H
  H115     1.0000 0.28564  0.94886  0.61271  Biso   1.000  H
  O29      1.0000 0.58418  0.98691  0.62059  Biso   1.000  O
  C148     1.0000 0.50228  0.86146  0.64493  Biso   1.000  C
  O30      1.0000 0.58412  0.98691  0.62059  Biso   1.000  O
  H116     1.0000 0.15157  0.90107  0.68800  Biso   1.000  H
  C149     1.0000 0.24485  0.82515  0.72203  Biso   1.000  C
  O31      1.0000 0.24998  0.93325  0.94020  Biso   1.000  O
  C150     1.0000 0.30196  0.83543  0.86100  Biso   1.000  C
  O32      1.0000 0.24992  0.93325  0.94020  Biso   1.000  O
  H117     1.0000 0.80886  0.45795  0.41970  Biso   1.000  H
  H118     1.0000 0.80880  0.45795  0.41970  Biso   1.000  H
  H119     1.0000 0.95995  0.75732  0.49003  Biso   1.000  H
  H120     1.0000 0.00080  0.69175  0.44392  Biso   1.000  H
  C151     1.0000 0.06725  0.71114  0.56281  Biso   1.000  C
  H121     1.0000 0.00073  0.69175  0.44392  Biso   1.000  H
  H122     1.0000 0.80547  0.44101  0.54320  Biso   1.000  H
  H123     1.0000 0.80540  0.44101  0.54320  Biso   1.000  H
  C152     1.0000 0.24799  0.78968  0.64371  Biso   1.000  C
  C153     1.0000 0.24791  0.78961  0.64371  Biso   1.000  C
  C154     1.0000 0.42255  0.81314  0.65269  Biso   1.000  C
  H124     1.0000 0.60332  0.03946  0.64878  Biso   1.000  H
  H125     1.0000 0.60325  0.03946  0.64878  Biso   1.000  H
  H126     1.0000 0.55768  0.83848  0.65310  Biso   1.000  H
  H127     1.0000 0.55760  0.83841  0.65310  Biso   1.000  H
  C155     1.0000 0.29856  0.80094  0.78810  Biso   1.000  C
  H128     1.0000 0.29011  0.91657  0.97533  Biso   1.000  H
  H129     1.0000 0.29004  0.91657  0.97533  Biso   1.000  H
  H130     1.0000 0.34080  0.81796  0.90530  Biso   1.000  H
  H131     1.0000 0.34073  0.81796  0.90530  Biso   1.000  H
  H132     1.0000 0.05017  0.72833  0.60752  Biso   1.000  H
  H133     1.0000 0.08365  0.65286  0.56369  Biso   1.000  H
  C156     1.0000 0.15625  0.78207  0.57162  Biso   1.000  C
  H134     1.0000 0.25575  0.72747  0.64242  Biso   1.000  H
  O33      1.0000 0.43017  0.73222  0.67143  Biso   1.000  O
  O34      1.0000 0.35326  0.74145  0.78051  Biso   1.000  O
  H135     1.0000 0.14084  0.84082  0.57443  Biso   1.000  H
  H136     1.0000 0.16949  0.76703  0.52452  Biso   1.000  H
  H137     1.0000 0.16943  0.76703  0.52452  Biso   1.000  H
  H138     1.0000 0.39248  0.71824  0.69279  Biso   1.000  H
  H139     1.0000 0.39241  0.71824  0.69279  Biso   1.000  H
  H140     1.0000 0.39015  0.73868  0.82499  Biso   1.000  H
  H141     1.0000 0.39014  0.73862  0.82499  Biso   1.000  H
  C157     1.0000 0.84380  0.21806  0.42840  Biso   1.000  C
  C158     1.0000 0.75213  0.21045  0.35632  Biso   1.000  C
  H142     1.0000 0.85919  0.15924  0.42560  Biso   1.000  H
  H143     1.0000 0.83061  0.23303  0.47550  Biso   1.000  H
  C159     1.0000 0.93285  0.28892  0.43721  Biso   1.000  C
  C160     1.0000 0.93278  0.28892  0.43721  Biso   1.000  C
  C161     1.0000 0.66121  0.15629  0.36069  Biso   1.000  C
  C162     1.0000 0.75518  0.17491  0.27799  Biso   1.000  C
  H144     1.0000 0.74430  0.27266  0.35760  Biso   1.000  H
  H145     1.0000 0.74429  0.27259  0.35760  Biso   1.000  H
  H146     1.0000 0.94994  0.27172  0.39250  Biso   1.000  H
  H147     1.0000 0.91646  0.34727  0.43634  Biso   1.000  H
  H148     1.0000 0.94987  0.27172  0.39250  Biso   1.000  H
  H149     1.0000 0.91639  0.34727  0.43634  Biso   1.000  H
  C163     1.0000 0.01961  0.29922  0.51233  Biso   1.000  C
  C164     1.0000 0.57755  0.18691  0.34733  Biso   1.000  C
  C165     1.0000 0.57749  0.18691  0.34733  Biso   1.000  C
  C166     1.0000 0.65900  0.07416  0.37972  Biso   1.000  C
  C167     1.0000 0.80902  0.11511  0.26708  Biso   1.000  C
  C168     1.0000 0.70155  0.19912  0.21192  Biso   1.000  C
  C169     1.0000 0.80896  0.11511  0.26708  Biso   1.000  C
  C170     1.0000 0.70148  0.19912  0.21192  Biso   1.000  C
  H150     1.0000 0.99931  0.30831  0.55610  Biso   1.000  H
  C171     1.0000 0.10696  0.37636  0.52960  Biso   1.000  C
  H151     1.0000 0.04009  0.24274  0.50999  Biso   1.000  H
  C172     1.0000 0.10689  0.37636  0.52960  Biso   1.000  C
  C173     1.0000 0.49775  0.13860  0.35509  Biso   1.000  C
  O35      1.0000 0.56994  0.26784  0.32859  Biso   1.000  O
  C174     1.0000 0.49782  0.13860  0.35509  Biso   1.000  C
  O36      1.0000 0.56987  0.26784  0.32859  Biso   1.000  O
  C175     1.0000 0.58053  0.02326  0.38842  Biso   1.000  C
  C176     1.0000 0.58045  0.02320  0.38842  Biso   1.000  C
  H152     1.0000 0.71439  0.05120  0.38731  Biso   1.000  H
  C177     1.0000 0.80980  0.07644  0.19541  Biso   1.000  C
  H153     1.0000 0.84854  0.09906  0.31202  Biso   1.000  H
  H154     1.0000 0.84847  0.09899  0.31202  Biso   1.000  H
  O37      1.0000 0.64684  0.25861  0.21951  Biso   1.000  O
  C178     1.0000 0.69814  0.16463  0.13902  Biso   1.000  C
  O38      1.0000 0.64677  0.25861  0.21951  Biso   1.000  O
  C179     1.0000 0.69808  0.16463  0.13902  Biso   1.000  C
  C180     1.0000 0.18481  0.39612  0.61301  Biso   1.000  C
  H155     1.0000 0.08197  0.43083  0.52563  Biso   1.000  H
  C181     1.0000 0.15399  0.36593  0.47130  Biso   1.000  C
  H156     1.0000 0.08190  0.43083  0.52563  Biso   1.000  H
  H157     1.0000 0.44243  0.16165  0.34692  Biso   1.000  H
  C182     1.0000 0.49801  0.05731  0.37459  Biso   1.000  C
  H158     1.0000 0.44237  0.16165  0.34692  Biso   1.000  H
  C183     1.0000 0.49794  0.05731  0.37459  Biso   1.000  C
  H159     1.0000 0.60762  0.28182  0.30723  Biso   1.000  H
  C184     1.0000 0.58280  0.93454  0.41112  Biso   1.000  C
  C185     1.0000 0.58274  0.93454  0.41112  Biso   1.000  C
  C186     1.0000 0.87040  0.01222  0.18560  Biso   1.000  C
  C187     1.0000 0.75171  0.10449  0.13120  Biso   1.000  C
  H160     1.0000 0.60994  0.26142  0.17498  Biso   1.000  H
  H161     1.0000 0.60987  0.26142  0.17498  Biso   1.000  H
  H162     1.0000 0.65931  0.18210  0.09473  Biso   1.000  H
  C188     1.0000 0.20936  0.32753  0.64861  Biso   1.000  C
  C189     1.0000 0.23666  0.48334  0.65754  Biso   1.000  C
  C190     1.0000 0.20929  0.32753  0.64861  Biso   1.000  C
  C191     1.0000 0.23659  0.48334  0.65754  Biso   1.000  C
  C192     1.0000 0.16783  0.28344  0.44223  Biso   1.000  C
  C193     1.0000 0.18674  0.43870  0.44748  Biso   1.000  C
  C194     1.0000 0.18668  0.43870  0.44748  Biso   1.000  C
  O39      1.0000 0.41592  0.01315  0.37943  Biso   1.000  O
  H163     1.0000 0.52827  0.91982  0.42770  Biso   1.000  H
  C195     1.0000 0.56193  0.85931  0.34009  Biso   1.000  C
  C196     1.0000 0.67766  0.94414  0.48180  Biso   1.000  C
  H164     1.0000 0.52820  0.91982  0.42770  Biso   1.000  H
  C197     1.0000 0.96963  0.06274  0.19220  Biso   1.000  C
  C198     1.0000 0.96955  0.06268  0.19220  Biso   1.000  C
  H165     1.0000 0.83518  0.97409  0.13080  Biso   1.000  H
  C199     1.0000 0.88004  0.94841  0.23819  Biso   1.000  C
  H166     1.0000 0.83511  0.97409  0.13080  Biso   1.000  H
  O40      1.0000 0.75012  0.06681  0.05982  Biso   1.000  O
  H167     1.0000 0.17652  0.26754  0.61913  Biso   1.000  H
  C200     1.0000 0.27816  0.34119  0.72413  Biso   1.000  C
  C201     1.0000 0.27809  0.34119  0.72413  Biso   1.000  C
  O41      1.0000 0.22171  0.55812  0.62900  Biso   1.000  O
  C202     1.0000 0.30634  0.50026  0.73312  Biso   1.000  C
  H168     1.0000 0.14302  0.23251  0.45688  Biso   1.000  H
  C203     1.0000 0.21574  0.27150  0.39309  Biso   1.000  C
  H169     1.0000 0.14295  0.23251  0.45688  Biso   1.000  H
  C204     1.0000 0.21567  0.27150  0.39309  Biso   1.000  C
  O42      1.0000 0.16942  0.51934  0.47328  Biso   1.000  O
  C205     1.0000 0.23485  0.43185  0.39863  Biso   1.000  C
  C206     1.0000 0.23479  0.43185  0.39863  Biso   1.000  C
  H170     1.0000 0.39677  0.96065  0.35118  Biso   1.000  H
  C207     1.0000 0.63512  0.83201  0.32258  Biso   1.000  C
  C208     1.0000 0.46825  0.81861  0.28698  Biso   1.000  C
  H171     1.0000 0.73226  0.95412  0.46540  Biso   1.000  H
  H172     1.0000 0.68848  0.99826  0.52213  Biso   1.000  H
  C209     1.0000 0.68149  0.86382  0.51921  Biso   1.000  C
  C210     1.0000 0.68143  0.86382  0.51921  Biso   1.000  C
  C211     1.0000 0.98813  0.06842  0.12572  Biso   1.000  C
  C212     1.0000 0.98806  0.06842  0.12572  Biso   1.000  C
  C213     1.0000 0.04723  0.10120  0.26381  Biso   1.000  C
  C214     1.0000 0.04716  0.10120  0.26381  Biso   1.000  C
  H173     1.0000 0.92778  0.91510  0.23352  Biso   1.000  H
  H174     1.0000 0.90589  0.98360  0.29311  Biso   1.000  H
  C215     1.0000 0.78268  0.88082  0.21852  Biso   1.000  C
  H175     1.0000 0.92772  0.91510  0.23352  Biso   1.000  H
  H176     1.0000 0.90583  0.98360  0.29311  Biso   1.000  H
  C216     1.0000 0.78261  0.88082  0.21852  Biso   1.000  C
  H177     1.0000 0.71000  0.08349  0.02469  Biso   1.000  H
  C217     1.0000 0.29854  0.26214  0.75991  Biso   1.000  C
  C218     1.0000 0.32617  0.43005  0.76563  Biso   1.000  C
  C219     1.0000 0.29847  0.26214  0.75991  Biso   1.000  C
  C220     1.0000 0.32610  0.43005  0.76563  Biso   1.000  C
  H178     1.0000 0.19125  0.54217  0.58032  Biso   1.000  H
  H179     1.0000 0.34027  0.56019  0.76242  Biso   1.000  H
  H180     1.0000 0.34020  0.56019  0.76242  Biso   1.000  H
  C221     1.0000 0.25183  0.34896  0.37313  Biso   1.000  C
  C222     1.0000 0.22423  0.18160  0.35632  Biso   1.000  C
  C223     1.0000 0.22416  0.18160  0.35632  Biso   1.000  C
  H181     1.0000 0.19464  0.55905  0.45682  Biso   1.000  H
  H182     1.0000 0.25631  0.48261  0.38229  Biso   1.000  H
  H183     1.0000 0.70069  0.85750  0.35941  Biso   1.000  H
  C224     1.0000 0.61867  0.77003  0.25523  Biso   1.000  C
  H184     1.0000 0.70062  0.85750  0.35941  Biso   1.000  H
  O43      1.0000 0.39349  0.84274  0.30361  Biso   1.000  O
  C225     1.0000 0.44795  0.75578  0.21939  Biso   1.000  C
  O44      1.0000 0.39343  0.84274  0.30361  Biso   1.000  O
  H185     1.0000 0.68349  0.81181  0.48303  Biso   1.000  H
  H186     1.0000 0.62209  0.84696  0.52861  Biso   1.000  H
  C226     1.0000 0.77026  0.88763  0.59532  Biso   1.000  C
  H187     1.0000 0.68342  0.81181  0.48303  Biso   1.000  H
  H188     1.0000 0.62203  0.84696  0.52861  Biso   1.000  H
  O45      1.0000 0.91632  0.03319  0.05049  Biso   1.000  O
  O46      1.0000 0.91625  0.03319  0.05049  Biso   1.000  O
  C227     1.0000 0.07892  0.10992  0.13319  Biso   1.000  C
  C228     1.0000 0.07886  0.10992  0.13319  Biso   1.000  C
  C229     1.0000 0.14113  0.14284  0.27443  Biso   1.000  C
  H189     1.0000 0.03549  0.09935  0.30922  Biso   1.000  H
  C230     1.0000 0.14107  0.14284  0.27443  Biso   1.000  C
  C231     1.0000 0.79405  0.81263  0.26538  Biso   1.000  C
  H190     1.0000 0.75376  0.84970  0.16243  Biso   1.000  H
  H191     1.0000 0.73706  0.91383  0.22821  Biso   1.000  H
  C232     1.0000 0.38143  0.23003  0.74479  Biso   1.000  C
  H192     1.0000 0.32304  0.28558  0.81769  Biso   1.000  H
  C233     1.0000 0.20606  0.18749  0.73464  Biso   1.000  C
  C234     1.0000 0.38136  0.23003  0.74479  Biso   1.000  C
  H193     1.0000 0.32298  0.28558  0.81769  Biso   1.000  H
  C235     1.0000 0.20599  0.18743  0.73464  Biso   1.000  C
  O47      1.0000 0.39452  0.45325  0.84209  Biso   1.000  O
  O48      1.0000 0.30102  0.34113  0.32673  Biso   1.000  O
  H194     1.0000 0.28630  0.19343  0.34902  Biso   1.000  H
  C236     1.0000 0.22978  0.11243  0.40470  Biso   1.000  C
  C237     1.0000 0.52227  0.73304  0.20352  Biso   1.000  C
  C238     1.0000 0.70157  0.73792  0.24011  Biso   1.000  C
  C239     1.0000 0.70150  0.73792  0.24011  Biso   1.000  C
  H195     1.0000 0.34525  0.83659  0.26171  Biso   1.000  H
  H196     1.0000 0.38226  0.72828  0.18367  Biso   1.000  H
  H197     1.0000 0.38220  0.72828  0.18367  Biso   1.000  H
  C240     1.0000 0.77587  0.81845  0.64371  Biso   1.000  C
  H198     1.0000 0.82883  0.89723  0.58388  Biso   1.000  H
  H199     1.0000 0.77248  0.94513  0.62742  Biso   1.000  H
  C241     1.0000 0.77581  0.81845  0.64371  Biso   1.000  C
  C242     1.0000 0.15430  0.14693  0.20539  Biso   1.000  C
  H200     1.0000 0.09003  0.11312  0.08772  Biso   1.000  H
  H201     1.0000 0.08996  0.11312  0.08772  Biso   1.000  H
  H202     1.0000 0.84627  0.78559  0.26130  Biso   1.000  H
  H203     1.0000 0.81485  0.84309  0.32101  Biso   1.000  H
  H204     1.0000 0.84621  0.78559  0.26130  Biso   1.000  H
  C243     1.0000 0.36492  0.16805  0.67744  Biso   1.000  C
  C244     1.0000 0.47785  0.26708  0.79650  Biso   1.000  C
  C245     1.0000 0.47778  0.26708  0.79650  Biso   1.000  C
  C246     1.0000 0.21743  0.11924  0.78150  Biso   1.000  C
  H205     1.0000 0.15383  0.21447  0.73872  Biso   1.000  H
  H206     1.0000 0.18525  0.15696  0.67902  Biso   1.000  H
  C247     1.0000 0.21736  0.11924  0.78150  Biso   1.000  C
  H207     1.0000 0.18518  0.15696  0.67902  Biso   1.000  H
  H208     1.0000 0.42504  0.41365  0.84950  Biso   1.000  H
  H209     1.0000 0.42497  0.41365  0.84950  Biso   1.000  H
  H210     1.0000 0.32054  0.39161  0.32019  Biso   1.000  H
  H211     1.0000 0.32047  0.39161  0.32019  Biso   1.000  H
  C248     1.0000 0.31861  0.13624  0.48081  Biso   1.000  C
  H212     1.0000 0.17117  0.10282  0.41608  Biso   1.000  H
  H213     1.0000 0.22762  0.05492  0.37260  Biso   1.000  H
  H214     1.0000 0.22756  0.05492  0.37260  Biso   1.000  H
  O49      1.0000 0.50391  0.67101  0.13488  Biso   1.000  O
  H215     1.0000 0.67707  0.71454  0.18233  Biso   1.000  H
  C249     1.0000 0.72195  0.65894  0.27589  Biso   1.000  C
  C250     1.0000 0.72189  0.65894  0.27589  Biso   1.000  C
  C251     1.0000 0.78436  0.72855  0.60694  Biso   1.000  C
  H216     1.0000 0.71374  0.80663  0.65100  Biso   1.000  H
  C252     1.0000 0.85897  0.85722  0.72559  Biso   1.000  C
  C253     1.0000 0.85890  0.85722  0.72559  Biso   1.000  C
  O50      1.0000 0.24471  0.18732  0.20790  Biso   1.000  O
  H217     1.0000 0.29941  0.14256  0.64061  Biso   1.000  H
  C254     1.0000 0.43811  0.14075  0.65993  Biso   1.000  C
  O51      1.0000 0.49612  0.32905  0.86514  Biso   1.000  O
  C255     1.0000 0.55215  0.24428  0.78063  Biso   1.000  C
  C256     1.0000 0.55209  0.24428  0.78063  Biso   1.000  C
  C257     1.0000 0.12006  0.05165  0.76184  Biso   1.000  C
  C258     1.0000 0.11999  0.05165  0.76184  Biso   1.000  C
  H218     1.0000 0.24634  0.15036  0.83759  Biso   1.000  H
  H219     1.0000 0.26304  0.08623  0.77182  Biso   1.000  H
  H220     1.0000 0.24628  0.15036  0.83759  Biso   1.000  H
  H221     1.0000 0.26298  0.08623  0.77182  Biso   1.000  H
  C259     1.0000 0.32244  0.05591  0.51822  Biso   1.000  C
  H222     1.0000 0.31661  0.18824  0.51700  Biso   1.000  H
  H223     1.0000 0.37802  0.15316  0.47141  Biso   1.000  H
  C260     1.0000 0.32238  0.05591  0.51822  Biso   1.000  C
  H224     1.0000 0.44413  0.64530  0.11229  Biso   1.000  H
  C261     1.0000 0.79074  0.67253  0.35141  Biso   1.000  C
  C262     1.0000 0.67393  0.57000  0.23439  Biso   1.000  C
  C263     1.0000 0.83227  0.71662  0.55779  Biso   1.000  C
  C264     1.0000 0.74828  0.65116  0.62690  Biso   1.000  C
  C265     1.0000 0.83220  0.71662  0.55779  Biso   1.000  C
  C266     1.0000 0.74822  0.65116  0.62690  Biso   1.000  C
  C267     1.0000 0.95288  0.89886  0.73621  Biso   1.000  C
  C268     1.0000 0.84581  0.85320  0.79464  Biso   1.000  C
  C269     1.0000 0.84574  0.85313  0.79464  Biso   1.000  C
  H225     1.0000 0.27510  0.22922  0.24858  Biso   1.000  H
  C270     1.0000 0.41730  0.06552  0.58890  Biso   1.000  C
  C271     1.0000 0.53182  0.18143  0.71298  Biso   1.000  C
  C272     1.0000 0.53175  0.18143  0.71298  Biso   1.000  C
  H226     1.0000 0.55597  0.35476  0.88773  Biso   1.000  H
  H227     1.0000 0.55590  0.35476  0.88773  Biso   1.000  H
  H228     1.0000 0.61781  0.27176  0.81629  Biso   1.000  H
  C273     1.0000 0.12970  0.98784  0.81442  Biso   1.000  C
  C274     1.0000 0.12963  0.98784  0.81442  Biso   1.000  C
  H229     1.0000 0.07232  0.08496  0.76650  Biso   1.000  H
  H230     1.0000 0.09421  0.01646  0.70691  Biso   1.000  H
  H231     1.0000 0.26784  0.04594  0.53462  Biso   1.000  H
  H232     1.0000 0.31162  0.00180  0.47789  Biso   1.000  H
  H233     1.0000 0.26778  0.04594  0.53462  Biso   1.000  H
  H234     1.0000 0.31156  0.00180  0.47789  Biso   1.000  H
  H235     1.0000 0.82352  0.73252  0.38089  Biso   1.000  H
  C275     1.0000 0.81523  0.60394  0.38702  Biso   1.000  C
  O52      1.0000 0.60555  0.54679  0.15788  Biso   1.000  O
  C276     1.0000 0.69376  0.49980  0.26690  Biso   1.000  C
  O53      1.0000 0.60549  0.54679  0.15788  Biso   1.000  O
  C277     1.0000 0.69370  0.49980  0.26690  Biso   1.000  C
  H236     1.0000 0.85706  0.76753  0.54308  Biso   1.000  H
  C278     1.0000 0.84604  0.63413  0.52873  Biso   1.000  C
  H237     1.0000 0.85699  0.76753  0.54308  Biso   1.000  H
  O54      1.0000 0.69908  0.65893  0.67330  Biso   1.000  O
  C279     1.0000 0.76525  0.56821  0.60139  Biso   1.000  C
  O55      1.0000 0.69901  0.65893  0.67330  Biso   1.000  O
  C280     1.0000 0.76518  0.56821  0.60139  Biso   1.000  C
  H238     1.0000 0.96456  0.90077  0.69081  Biso   1.000  H
  C281     1.0000 0.03048  0.93738  0.80783  Biso   1.000  C
  C282     1.0000 0.92119  0.89020  0.86683  Biso   1.000  C
  O56      1.0000 0.75539  0.81274  0.79213  Biso   1.000  O
  C283     1.0000 0.92118  0.89014  0.86683  Biso   1.000  C
  O57      1.0000 0.75533  0.81274  0.79213  Biso   1.000  O
  C284     1.0000 0.41958  0.97686  0.61160  Biso   1.000  C
  C285     1.0000 0.41952  0.97686  0.61160  Biso   1.000  C
  H239     1.0000 0.47183  0.08024  0.57232  Biso   1.000  H
  H240     1.0000 0.47177  0.08024  0.57232  Biso   1.000  H
  O58      1.0000 0.60661  0.15732  0.69641  Biso   1.000  O
  C286     1.0000 0.19031  0.92368  0.80462  Biso   1.000  C
  C287     1.0000 0.19025  0.92368  0.80462  Biso   1.000  C
  H241     1.0000 0.16492  0.02597  0.86923  Biso   1.000  H
  C288     1.0000 0.76344  0.51672  0.34248  Biso   1.000  C
  C289     1.0000 0.89316  0.62376  0.47042  Biso   1.000  C
  C290     1.0000 0.76338  0.51672  0.34248  Biso   1.000  C
  C291     1.0000 0.89314  0.62370  0.47042  Biso   1.000  C
  H242     1.0000 0.57506  0.58641  0.15052  Biso   1.000  H
  H243     1.0000 0.57500  0.58641  0.15052  Biso   1.000  H
  H244     1.0000 0.65984  0.43993  0.23760  Biso   1.000  H
  C292     1.0000 0.81333  0.56134  0.55248  Biso   1.000  C
  H245     1.0000 0.67956  0.60845  0.67983  Biso   1.000  H
  H246     1.0000 0.74379  0.51745  0.61773  Biso   1.000  H
  H247     1.0000 0.74372  0.51745  0.61773  Biso   1.000  H
  C293     1.0000 0.01198  0.93164  0.87430  Biso   1.000  C
  C294     1.0000 0.01191  0.93164  0.87430  Biso   1.000  C
  H248     1.0000 0.91007  0.88694  0.91230  Biso   1.000  H
  H249     1.0000 0.91001  0.88694  0.91230  Biso   1.000  H
  H250     1.0000 0.72497  0.77082  0.75139  Biso   1.000  H
  H251     1.0000 0.72491  0.77082  0.75139  Biso   1.000  H
  C295     1.0000 0.34105  0.92596  0.62030  Biso   1.000  C
  C296     1.0000 0.50210  0.94275  0.62544  Biso   1.000  C
  C297     1.0000 0.50203  0.94275  0.62544  Biso   1.000  C
  H252     1.0000 0.65485  0.16347  0.73831  Biso   1.000  H
  H253     1.0000 0.65479  0.16347  0.73831  Biso   1.000  H
  C298     1.0000 0.19105  0.88493  0.73289  Biso   1.000  C
  C299     1.0000 0.24839  0.89557  0.86882  Biso   1.000  C
  C300     1.0000 0.24833  0.89557  0.86882  Biso   1.000  C
  O59      1.0000 0.77832  0.44194  0.37102  Biso   1.000  O
  H254     1.0000 0.91813  0.56923  0.47439  Biso   1.000  H
  C301     1.0000 0.98043  0.70083  0.48770  Biso   1.000  C
  O60      1.0000 0.83065  0.48070  0.52668  Biso   1.000  O
  O61      1.0000 0.83058  0.48070  0.52668  Biso   1.000  O
  O62      1.0000 0.08378  0.96686  0.94954  Biso   1.000  O
  C302     1.0000 0.33889  0.84376  0.63933  Biso   1.000  C
  C303     1.0000 0.33883  0.84376  0.63933  Biso   1.000  C
  H255     1.0000 0.28571  0.94886  0.61271  Biso   1.000  H
  H256     1.0000 0.28564  0.94886  0.61271  Biso   1.000  H
  O63      1.0000 0.58418  0.98691  0.62059  Biso   1.000  O
  C304     1.0000 0.50228  0.86146  0.64493  Biso   1.000  C
  O64      1.0000 0.58412  0.98691  0.62059  Biso   1.000  O
  H257     1.0000 0.15157  0.90107  0.68800  Biso   1.000  H
  C305     1.0000 0.24485  0.82515  0.72203  Biso   1.000  C
  O65      1.0000 0.24998  0.93325  0.94020  Biso   1.000  O
  C306     1.0000 0.30196  0.83543  0.86100  Biso   1.000  C
  O66      1.0000 0.24992  0.93325  0.94020  Biso   1.000  O
  H258     1.0000 0.80886  0.45795  0.41970  Biso   1.000  H
  H259     1.0000 0.80880  0.45795  0.41970  Biso   1.000  H
  H260     1.0000 0.95995  0.75732  0.49003  Biso   1.000  H
  H261     1.0000 0.00080  0.69175  0.44392  Biso   1.000  H
  C307     1.0000 0.06725  0.71114  0.56281  Biso   1.000  C
  H262     1.0000 0.00073  0.69175  0.44392  Biso   1.000  H
  H263     1.0000 0.80547  0.44101  0.54320  Biso   1.000  H
  H264     1.0000 0.80540  0.44101  0.54320  Biso   1.000  H
  C308     1.0000 0.24799  0.78968  0.64371  Biso   1.000  C
  C309     1.0000 0.24791  0.78961  0.64371  Biso   1.000  C
  C310     1.0000 0.42255  0.81314  0.65269  Biso   1.000  C
  H265     1.0000 0.60332  0.03946  0.64878  Biso   1.000  H
  H266     1.0000 0.60325  0.03946  0.64878  Biso   1.000  H
  H267     1.0000 0.55768  0.83848  0.65310  Biso   1.000  H
  H268     1.0000 0.55760  0.83841  0.65310  Biso   1.000  H
  C311     1.0000 0.29856  0.80094  0.78810  Biso   1.000  C
  H269     1.0000 0.29011  0.91657  0.97533  Biso   1.000  H
  H270     1.0000 0.29004  0.91657  0.97533  Biso   1.000  H
  H271     1.0000 0.34080  0.81796  0.90530  Biso   1.000  H
  H272     1.0000 0.34073  0.81796  0.90530  Biso   1.000  H
  H273     1.0000 0.05017  0.72833  0.60752  Biso   1.000  H
  H274     1.0000 0.08365  0.65286  0.56369  Biso   1.000  H
  C312     1.0000 0.15625  0.78207  0.57162  Biso   1.000  C
  H275     1.0000 0.25575  0.72747  0.64242  Biso   1.000  H
  O67      1.0000 0.43017  0.73222  0.67143  Biso   1.000  O
  O68      1.0000 0.35326  0.74145  0.78051  Biso   1.000  O
  H276     1.0000 0.14084  0.84082  0.57443  Biso   1.000  H
  H277     1.0000 0.16949  0.76703  0.52452  Biso   1.000  H
  H278     1.0000 0.16943  0.76703  0.52452  Biso   1.000  H
  H279     1.0000 0.39248  0.71824  0.69279  Biso   1.000  H
  H280     1.0000 0.39241  0.71824  0.69279  Biso   1.000  H
  H281     1.0000 0.39015  0.73868  0.82499  Biso   1.000  H
  H282     1.0000 0.39014  0.73862  0.82499  Biso   1.000  H
  C313     1.0000 0.84380  0.21806  0.42840  Biso   1.000  C
  C314     1.0000 0.75213  0.21045  0.35632  Biso   1.000  C
  H283     1.0000 0.85919  0.15924  0.42560  Biso   1.000  H
  H284     1.0000 0.83061  0.23303  0.47550  Biso   1.000  H
  C315     1.0000 0.93285  0.28892  0.43721  Biso   1.000  C
  C316     1.0000 0.93278  0.28892  0.43721  Biso   1.000  C
  C317     1.0000 0.66121  0.15629  0.36069  Biso   1.000  C
  C318     1.0000 0.75518  0.17491  0.27799  Biso   1.000  C
  H285     1.0000 0.74430  0.27266  0.35760  Biso   1.000  H
  H286     1.0000 0.74429  0.27259  0.35760  Biso   1.000  H
  H287     1.0000 0.94994  0.27172  0.39250  Biso   1.000  H
  H288     1.0000 0.91646  0.34727  0.43634  Biso   1.000  H
  H289     1.0000 0.94987  0.27172  0.39250  Biso   1.000  H
  H290     1.0000 0.91639  0.34727  0.43634  Biso   1.000  H
  C319     1.0000 0.01961  0.29922  0.51233  Biso   1.000  C
  C320     1.0000 0.57755  0.18691  0.34733  Biso   1.000  C
  C321     1.0000 0.57749  0.18691  0.34733  Biso   1.000  C
  C322     1.0000 0.65900  0.07416  0.37972  Biso   1.000  C
  C323     1.0000 0.80902  0.11511  0.26708  Biso   1.000  C
  C324     1.0000 0.70155  0.19912  0.21192  Biso   1.000  C
  C325     1.0000 0.80896  0.11511  0.26708  Biso   1.000  C
  C326     1.0000 0.70148  0.19912  0.21192  Biso   1.000  C
  H291     1.0000 0.99931  0.30831  0.55610  Biso   1.000  H
  C327     1.0000 0.10696  0.37636  0.52960  Biso   1.000  C
  H292     1.0000 0.04009  0.24274  0.50999  Biso   1.000  H
  C328     1.0000 0.10689  0.37636  0.52960  Biso   1.000  C
  C329     1.0000 0.49782  0.13860  0.35509  Biso   1.000  C
  C330     1.0000 0.49775  0.13860  0.35509  Biso   1.000  C
  O69      1.0000 0.56994  0.26784  0.32859  Biso   1.000  O
  O70      1.0000 0.56987  0.26784  0.32859  Biso   1.000  O
  C331     1.0000 0.58053  0.02326  0.38842  Biso   1.000  C
  C332     1.0000 0.58045  0.02320  0.38842  Biso   1.000  C
  H293     1.0000 0.71439  0.05120  0.38731  Biso   1.000  H
  C333     1.0000 0.80980  0.07644  0.19541  Biso   1.000  C
  H294     1.0000 0.84854  0.09906  0.31202  Biso   1.000  H
  H295     1.0000 0.84847  0.09899  0.31202  Biso   1.000  H
  O71      1.0000 0.64684  0.25861  0.21951  Biso   1.000  O
  C334     1.0000 0.69814  0.16463  0.13902  Biso   1.000  C
  O72      1.0000 0.64677  0.25861  0.21951  Biso   1.000  O
  C335     1.0000 0.69808  0.16463  0.13902  Biso   1.000  C
  C336     1.0000 0.18481  0.39612  0.61301  Biso   1.000  C
  H296     1.0000 0.08197  0.43083  0.52563  Biso   1.000  H
  C337     1.0000 0.15399  0.36593  0.47130  Biso   1.000  C
  H297     1.0000 0.08190  0.43083  0.52563  Biso   1.000  H
  C338     1.0000 0.49801  0.05731  0.37459  Biso   1.000  C
  C339     1.0000 0.49794  0.05731  0.37459  Biso   1.000  C
  H298     1.0000 0.44243  0.16165  0.34692  Biso   1.000  H
  H299     1.0000 0.44237  0.16165  0.34692  Biso   1.000  H
  H300     1.0000 0.60762  0.28182  0.30723  Biso   1.000  H
  C340     1.0000 0.58280  0.93454  0.41112  Biso   1.000  C
  C341     1.0000 0.58274  0.93454  0.41112  Biso   1.000  C
  C342     1.0000 0.87040  0.01222  0.18560  Biso   1.000  C
  C343     1.0000 0.75171  0.10449  0.13120  Biso   1.000  C
  H301     1.0000 0.60994  0.26142  0.17498  Biso   1.000  H
  H302     1.0000 0.60987  0.26142  0.17498  Biso   1.000  H
  H303     1.0000 0.65931  0.18210  0.09473  Biso   1.000  H
  C344     1.0000 0.20936  0.32753  0.64861  Biso   1.000  C
  C345     1.0000 0.23666  0.48334  0.65754  Biso   1.000  C
  C346     1.0000 0.20929  0.32753  0.64861  Biso   1.000  C
  C347     1.0000 0.23659  0.48334  0.65754  Biso   1.000  C
  C348     1.0000 0.16783  0.28344  0.44223  Biso   1.000  C
  C349     1.0000 0.18674  0.43870  0.44748  Biso   1.000  C
  C350     1.0000 0.18668  0.43870  0.44748  Biso   1.000  C
  O73      1.0000 0.41592  0.01315  0.37943  Biso   1.000  O
  H304     1.0000 0.52827  0.91982  0.42770  Biso   1.000  H
  C351     1.0000 0.56193  0.85931  0.34009  Biso   1.000  C
  C352     1.0000 0.67766  0.94414  0.48180  Biso   1.000  C
  H305     1.0000 0.52820  0.91982  0.42770  Biso   1.000  H
  H306     1.0000 0.83518  0.97409  0.13080  Biso   1.000  H
  C353     1.0000 0.88004  0.94841  0.23819  Biso   1.000  C
  H307     1.0000 0.83511  0.97409  0.13080  Biso   1.000  H
  C354     1.0000 0.96963  0.06274  0.19220  Biso   1.000  C
  C355     1.0000 0.96955  0.06268  0.19220  Biso   1.000  C
  O74      1.0000 0.75012  0.06681  0.05982  Biso   1.000  O
  H308     1.0000 0.17652  0.26754  0.61913  Biso   1.000  H
  C356     1.0000 0.27816  0.34119  0.72413  Biso   1.000  C
  C357     1.0000 0.27809  0.34119  0.72413  Biso   1.000  C
  O75      1.0000 0.22171  0.55812  0.62900  Biso   1.000  O
  C358     1.0000 0.30634  0.50026  0.73312  Biso   1.000  C
  H309     1.0000 0.14302  0.23251  0.45688  Biso   1.000  H
  C359     1.0000 0.21574  0.27150  0.39309  Biso   1.000  C
  H310     1.0000 0.14295  0.23251  0.45688  Biso   1.000  H
  C360     1.0000 0.21567  0.27150  0.39309  Biso   1.000  C
  O76      1.0000 0.16942  0.51934  0.47328  Biso   1.000  O
  C361     1.0000 0.23485  0.43185  0.39863  Biso   1.000  C
  C362     1.0000 0.23479  0.43185  0.39863  Biso   1.000  C
  H311     1.0000 0.39677  0.96065  0.35118  Biso   1.000  H
  C363     1.0000 0.63512  0.83201  0.32258  Biso   1.000  C
  C364     1.0000 0.46825  0.81861  0.28698  Biso   1.000  C
  H312     1.0000 0.73226  0.95412  0.46540  Biso   1.000  H
  H313     1.0000 0.68848  0.99826  0.52213  Biso   1.000  H
  C365     1.0000 0.68149  0.86382  0.51921  Biso   1.000  C
  C366     1.0000 0.68143  0.86382  0.51921  Biso   1.000  C
  C367     1.0000 0.78268  0.88082  0.21852  Biso   1.000  C
  C368     1.0000 0.78261  0.88082  0.21852  Biso   1.000  C
  H314     1.0000 0.92778  0.91510  0.23352  Biso   1.000  H
  H315     1.0000 0.90589  0.98360  0.29311  Biso   1.000  H
  H316     1.0000 0.92772  0.91510  0.23352  Biso   1.000  H
  H317     1.0000 0.90583  0.98360  0.29311  Biso   1.000  H
  C369     1.0000 0.98813  0.06842  0.12572  Biso   1.000  C
  C370     1.0000 0.98806  0.06842  0.12572  Biso   1.000  C
  C371     1.0000 0.04723  0.10120  0.26381  Biso   1.000  C
  C372     1.0000 0.04716  0.10120  0.26381  Biso   1.000  C
  H318     1.0000 0.71000  0.08349  0.02469  Biso   1.000  H
  C373     1.0000 0.29854  0.26214  0.75991  Biso   1.000  C
  C374     1.0000 0.32617  0.43005  0.76563  Biso   1.000  C
  C375     1.0000 0.29847  0.26214  0.75991  Biso   1.000  C
  C376     1.0000 0.32610  0.43005  0.76563  Biso   1.000  C
  H319     1.0000 0.19125  0.54217  0.58032  Biso   1.000  H
  H320     1.0000 0.34027  0.56019  0.76242  Biso   1.000  H
  H321     1.0000 0.34020  0.56019  0.76242  Biso   1.000  H
  C377     1.0000 0.25183  0.34896  0.37313  Biso   1.000  C
  C378     1.0000 0.22423  0.18160  0.35632  Biso   1.000  C
  C379     1.0000 0.22416  0.18160  0.35632  Biso   1.000  C
  H322     1.0000 0.19464  0.55905  0.45682  Biso   1.000  H
  H323     1.0000 0.25631  0.48261  0.38229  Biso   1.000  H
  H324     1.0000 0.70069  0.85750  0.35941  Biso   1.000  H
  C380     1.0000 0.61867  0.77003  0.25523  Biso   1.000  C
  H325     1.0000 0.70062  0.85750  0.35941  Biso   1.000  H
  O77      1.0000 0.39349  0.84274  0.30361  Biso   1.000  O
  C381     1.0000 0.44795  0.75578  0.21939  Biso   1.000  C
  O78      1.0000 0.39343  0.84274  0.30361  Biso   1.000  O
  H326     1.0000 0.68349  0.81181  0.48303  Biso   1.000  H
  H327     1.0000 0.62209  0.84696  0.52861  Biso   1.000  H
  C382     1.0000 0.77026  0.88763  0.59532  Biso   1.000  C
  H328     1.0000 0.68342  0.81181  0.48303  Biso   1.000  H
  H329     1.0000 0.62203  0.84696  0.52861  Biso   1.000  H
  C383     1.0000 0.79405  0.81263  0.26538  Biso   1.000  C
  H330     1.0000 0.75376  0.84970  0.16243  Biso   1.000  H
  H331     1.0000 0.73706  0.91383  0.22821  Biso   1.000  H
  O79      1.0000 0.91632  0.03319  0.05049  Biso   1.000  O
  O80      1.0000 0.91625  0.03319  0.05049  Biso   1.000  O
  C384     1.0000 0.07892  0.10992  0.13319  Biso   1.000  C
  C385     1.0000 0.07886  0.10992  0.13319  Biso   1.000  C
  C386     1.0000 0.14113  0.14284  0.27443  Biso   1.000  C
  H332     1.0000 0.03549  0.09935  0.30922  Biso   1.000  H
  C387     1.0000 0.14107  0.14284  0.27443  Biso   1.000  C
  C388     1.0000 0.38143  0.23003  0.74479  Biso   1.000  C
  H333     1.0000 0.32304  0.28558  0.81769  Biso   1.000  H
  C389     1.0000 0.20606  0.18749  0.73464  Biso   1.000  C
  C390     1.0000 0.38136  0.23003  0.74479  Biso   1.000  C
  H334     1.0000 0.32298  0.28558  0.81769  Biso   1.000  H
  C391     1.0000 0.20599  0.18743  0.73464  Biso   1.000  C
  O81      1.0000 0.39452  0.45325  0.84209  Biso   1.000  O
  O82      1.0000 0.30102  0.34113  0.32673  Biso   1.000  O
  H335     1.0000 0.28630  0.19343  0.34902  Biso   1.000  H
  C392     1.0000 0.22978  0.11243  0.40470  Biso   1.000  C
  C393     1.0000 0.52227  0.73304  0.20352  Biso   1.000  C
  C394     1.0000 0.70157  0.73792  0.24011  Biso   1.000  C
  C395     1.0000 0.70150  0.73792  0.24011  Biso   1.000  C
  H336     1.0000 0.34525  0.83659  0.26171  Biso   1.000  H
  H337     1.0000 0.38226  0.72828  0.18367  Biso   1.000  H
  H338     1.0000 0.38220  0.72828  0.18367  Biso   1.000  H
  C396     1.0000 0.77587  0.81845  0.64371  Biso   1.000  C
  H339     1.0000 0.82883  0.89723  0.58388  Biso   1.000  H
  H340     1.0000 0.77248  0.94513  0.62742  Biso   1.000  H
  C397     1.0000 0.77581  0.81845  0.64371  Biso   1.000  C
  H341     1.0000 0.84627  0.78559  0.26130  Biso   1.000  H
  H342     1.0000 0.81485  0.84309  0.32101  Biso   1.000  H
  H343     1.0000 0.84621  0.78559  0.26130  Biso   1.000  H
  C398     1.0000 0.15430  0.14693  0.20539  Biso   1.000  C
  H344     1.0000 0.09003  0.11312  0.08772  Biso   1.000  H
  H345     1.0000 0.08996  0.11312  0.08772  Biso   1.000  H
  C399     1.0000 0.36492  0.16805  0.67744  Biso   1.000  C
  C400     1.0000 0.47785  0.26708  0.79650  Biso   1.000  C
  C401     1.0000 0.47778  0.26708  0.79650  Biso   1.000  C
  C402     1.0000 0.21743  0.11924  0.78150  Biso   1.000  C
  C403     1.0000 0.21736  0.11924  0.78150  Biso   1.000  C
  H346     1.0000 0.15383  0.21447  0.73872  Biso   1.000  H
  H347     1.0000 0.18525  0.15696  0.67902  Biso   1.000  H
  H348     1.0000 0.18518  0.15696  0.67902  Biso   1.000  H
  H349     1.0000 0.42504  0.41365  0.84950  Biso   1.000  H
  H350     1.0000 0.42497  0.41365  0.84950  Biso   1.000  H
  H351     1.0000 0.32054  0.39161  0.32019  Biso   1.000  H
  H352     1.0000 0.32047  0.39161  0.32019  Biso   1.000  H
  C404     1.0000 0.31861  0.13624  0.48081  Biso   1.000  C
  H353     1.0000 0.17117  0.10282  0.41608  Biso   1.000  H
  H354     1.0000 0.22762  0.05492  0.37260  Biso   1.000  H
  H355     1.0000 0.22756  0.05492  0.37260  Biso   1.000  H
  O83      1.0000 0.50391  0.67101  0.13488  Biso   1.000  O
  H356     1.0000 0.67707  0.71454  0.18233  Biso   1.000  H
  C405     1.0000 0.72195  0.65894  0.27589  Biso   1.000  C
  C406     1.0000 0.72189  0.65894  0.27589  Biso   1.000  C
  C407     1.0000 0.78436  0.72855  0.60694  Biso   1.000  C
  H357     1.0000 0.71374  0.80663  0.65100  Biso   1.000  H
  C408     1.0000 0.85897  0.85722  0.72559  Biso   1.000  C
  C409     1.0000 0.85890  0.85722  0.72559  Biso   1.000  C
  O84      1.0000 0.24471  0.18732  0.20790  Biso   1.000  O
  H358     1.0000 0.29941  0.14256  0.64061  Biso   1.000  H
  C410     1.0000 0.43811  0.14075  0.65993  Biso   1.000  C
  O85      1.0000 0.49612  0.32905  0.86514  Biso   1.000  O
  C411     1.0000 0.55215  0.24428  0.78063  Biso   1.000  C
  C412     1.0000 0.55209  0.24428  0.78063  Biso   1.000  C
  C413     1.0000 0.12006  0.05165  0.76184  Biso   1.000  C
  C414     1.0000 0.11999  0.05165  0.76184  Biso   1.000  C
  H359     1.0000 0.24634  0.15036  0.83759  Biso   1.000  H
  H360     1.0000 0.26304  0.08623  0.77182  Biso   1.000  H
  H361     1.0000 0.24628  0.15036  0.83759  Biso   1.000  H
  H362     1.0000 0.26298  0.08623  0.77182  Biso   1.000  H
  C415     1.0000 0.32244  0.05591  0.51822  Biso   1.000  C
  H363     1.0000 0.31661  0.18824  0.51700  Biso   1.000  H
  H364     1.0000 0.37802  0.15316  0.47141  Biso   1.000  H
  C416     1.0000 0.32238  0.05591  0.51822  Biso   1.000  C
  H365     1.0000 0.44413  0.64530  0.11229  Biso   1.000  H
  C417     1.0000 0.79074  0.67253  0.35141  Biso   1.000  C
  C418     1.0000 0.67393  0.57000  0.23439  Biso   1.000  C
  C419     1.0000 0.83227  0.71662  0.55779  Biso   1.000  C
  C420     1.0000 0.74828  0.65116  0.62690  Biso   1.000  C
  C421     1.0000 0.83220  0.71662  0.55779  Biso   1.000  C
  C422     1.0000 0.74822  0.65116  0.62690  Biso   1.000  C
  C423     1.0000 0.95288  0.89886  0.73621  Biso   1.000  C
  C424     1.0000 0.84581  0.85320  0.79464  Biso   1.000  C
  C425     1.0000 0.84574  0.85313  0.79464  Biso   1.000  C
  H366     1.0000 0.27510  0.22922  0.24858  Biso   1.000  H
  C426     1.0000 0.41730  0.06552  0.58890  Biso   1.000  C
  C427     1.0000 0.53182  0.18143  0.71298  Biso   1.000  C
  C428     1.0000 0.53175  0.18143  0.71298  Biso   1.000  C
  H367     1.0000 0.55597  0.35476  0.88773  Biso   1.000  H
  H368     1.0000 0.55590  0.35476  0.88773  Biso   1.000  H
  H369     1.0000 0.61781  0.27176  0.81629  Biso   1.000  H
  C429     1.0000 0.12970  0.98784  0.81442  Biso   1.000  C
  C430     1.0000 0.12963  0.98784  0.81442  Biso   1.000  C
  H370     1.0000 0.07232  0.08496  0.76650  Biso   1.000  H
  H371     1.0000 0.09421  0.01646  0.70691  Biso   1.000  H
  H372     1.0000 0.26784  0.04594  0.53462  Biso   1.000  H
  H373     1.0000 0.31162  0.00180  0.47789  Biso   1.000  H
  H374     1.0000 0.26778  0.04594  0.53462  Biso   1.000  H
  H375     1.0000 0.31156  0.00180  0.47789  Biso   1.000  H
  H376     1.0000 0.82352  0.73252  0.38089  Biso   1.000  H
  C431     1.0000 0.81523  0.60394  0.38702  Biso   1.000  C
  O86      1.0000 0.60555  0.54679  0.15788  Biso   1.000  O
  C432     1.0000 0.69376  0.49980  0.26690  Biso   1.000  C
  O87      1.0000 0.60549  0.54679  0.15788  Biso   1.000  O
  C433     1.0000 0.69370  0.49980  0.26690  Biso   1.000  C
  H377     1.0000 0.85706  0.76753  0.54308  Biso   1.000  H
  C434     1.0000 0.84604  0.63413  0.52873  Biso   1.000  C
  H378     1.0000 0.85699  0.76753  0.54308  Biso   1.000  H
  O88      1.0000 0.69908  0.65893  0.67330  Biso   1.000  O
  C435     1.0000 0.76525  0.56821  0.60139  Biso   1.000  C
  O89      1.0000 0.69901  0.65893  0.67330  Biso   1.000  O
  C436     1.0000 0.76518  0.56821  0.60139  Biso   1.000  C
  H379     1.0000 0.96456  0.90077  0.69081  Biso   1.000  H
  C437     1.0000 0.03048  0.93738  0.80783  Biso   1.000  C
  C438     1.0000 0.92119  0.89020  0.86683  Biso   1.000  C
  O90      1.0000 0.75539  0.81274  0.79213  Biso   1.000  O
  C439     1.0000 0.92118  0.89014  0.86683  Biso   1.000  C
  O91      1.0000 0.75533  0.81274  0.79213  Biso   1.000  O
  C440     1.0000 0.41958  0.97686  0.61160  Biso   1.000  C
  C441     1.0000 0.41952  0.97686  0.61160  Biso   1.000  C
  H380     1.0000 0.47183  0.08024  0.57232  Biso   1.000  H
  H381     1.0000 0.47177  0.08024  0.57232  Biso   1.000  H
  O92      1.0000 0.60661  0.15732  0.69641  Biso   1.000  O
  C442     1.0000 0.19031  0.92368  0.80462  Biso   1.000  C
  C443     1.0000 0.19025  0.92368  0.80462  Biso   1.000  C
  H382     1.0000 0.16492  0.02597  0.86923  Biso   1.000  H
  C444     1.0000 0.76344  0.51672  0.34248  Biso   1.000  C
  C445     1.0000 0.89316  0.62376  0.47042  Biso   1.000  C
  C446     1.0000 0.76338  0.51672  0.34248  Biso   1.000  C
  C447     1.0000 0.89314  0.62370  0.47042  Biso   1.000  C
  H383     1.0000 0.57506  0.58641  0.15052  Biso   1.000  H
  H384     1.0000 0.57500  0.58641  0.15052  Biso   1.000  H
  H385     1.0000 0.65984  0.43993  0.23760  Biso   1.000  H
  C448     1.0000 0.81333  0.56134  0.55248  Biso   1.000  C
  H386     1.0000 0.67956  0.60845  0.67983  Biso   1.000  H
  H387     1.0000 0.74379  0.51745  0.61773  Biso   1.000  H
  H388     1.0000 0.74372  0.51745  0.61773  Biso   1.000  H
  C449     1.0000 0.01198  0.93164  0.87430  Biso   1.000  C
  C450     1.0000 0.01191  0.93164  0.87430  Biso   1.000  C
  H389     1.0000 0.91007  0.88694  0.91230  Biso   1.000  H
  H390     1.0000 0.91001  0.88694  0.91230  Biso   1.000  H
  H391     1.0000 0.72497  0.77082  0.75139  Biso   1.000  H
  H392     1.0000 0.72491  0.77082  0.75139  Biso   1.000  H
  C451     1.0000 0.34105  0.92596  0.62030  Biso   1.000  C
  C452     1.0000 0.50210  0.94275  0.62544  Biso   1.000  C
  C453     1.0000 0.50203  0.94275  0.62544  Biso   1.000  C
  H393     1.0000 0.65485  0.16347  0.73831  Biso   1.000  H
  H394     1.0000 0.65479  0.16347  0.73831  Biso   1.000  H
  C454     1.0000 0.19105  0.88493  0.73289  Biso   1.000  C
  C455     1.0000 0.24839  0.89557  0.86882  Biso   1.000  C
  C456     1.0000 0.24833  0.89557  0.86882  Biso   1.000  C
  O93      1.0000 0.77832  0.44194  0.37102  Biso   1.000  O
  H395     1.0000 0.91813  0.56923  0.47439  Biso   1.000  H
  C457     1.0000 0.98043  0.70083  0.48770  Biso   1.000  C
  O94      1.0000 0.83065  0.48070  0.52668  Biso   1.000  O
  O95      1.0000 0.83058  0.48070  0.52668  Biso   1.000  O
  O96      1.0000 0.08378  0.96686  0.94954  Biso   1.000  O
  C458     1.0000 0.33889  0.84376  0.63933  Biso   1.000  C
  C459     1.0000 0.33883  0.84376  0.63933  Biso   1.000  C
  H396     1.0000 0.28571  0.94886  0.61271  Biso   1.000  H
  H397     1.0000 0.28564  0.94886  0.61271  Biso   1.000  H
  C460     1.0000 0.50228  0.86146  0.64493  Biso   1.000  C
  O97      1.0000 0.58418  0.98691  0.62059  Biso   1.000  O
  O98      1.0000 0.58412  0.98691  0.62059  Biso   1.000  O
  H398     1.0000 0.15157  0.90107  0.68800  Biso   1.000  H
  C461     1.0000 0.24485  0.82515  0.72203  Biso   1.000  C
  O99      1.0000 0.24998  0.93325  0.94020  Biso   1.000  O
  C462     1.0000 0.30196  0.83543  0.86100  Biso   1.000  C
  O100     1.0000 0.24992  0.93325  0.94020  Biso   1.000  O
  H399     1.0000 0.80886  0.45795  0.41970  Biso   1.000  H
  H400     1.0000 0.80880  0.45795  0.41970  Biso   1.000  H
  H401     1.0000 0.95995  0.75732  0.49003  Biso   1.000  H
  H402     1.0000 0.00080  0.69175  0.44392  Biso   1.000  H
  C463     1.0000 0.06725  0.71114  0.56281  Biso   1.000  C
  H403     1.0000 0.00073  0.69175  0.44392  Biso   1.000  H
  H404     1.0000 0.80547  0.44101  0.54320  Biso   1.000  H
  H405     1.0000 0.80540  0.44101  0.54320  Biso   1.000  H
  C464     1.0000 0.24799  0.78968  0.64371  Biso   1.000  C
  C465     1.0000 0.24791  0.78961  0.64371  Biso   1.000  C
  C466     1.0000 0.42255  0.81314  0.65269  Biso   1.000  C
  H406     1.0000 0.55768  0.83848  0.65310  Biso   1.000  H
  H407     1.0000 0.55760  0.83841  0.65310  Biso   1.000  H
  H408     1.0000 0.60332  0.03946  0.64878  Biso   1.000  H
  H409     1.0000 0.60325  0.03946  0.64878  Biso   1.000  H
  C467     1.0000 0.29856  0.80094  0.78810  Biso   1.000  C
  H410     1.0000 0.29011  0.91657  0.97533  Biso   1.000  H
  H411     1.0000 0.29004  0.91657  0.97533  Biso   1.000  H
  H412     1.0000 0.34080  0.81796  0.90530  Biso   1.000  H
  H413     1.0000 0.34073  0.81796  0.90530  Biso   1.000  H
  H414     1.0000 0.05017  0.72833  0.60752  Biso   1.000  H
  H415     1.0000 0.08365  0.65286  0.56369  Biso   1.000  H
  C468     1.0000 0.15625  0.78207  0.57162  Biso   1.000  C
  H416     1.0000 0.25575  0.72747  0.64242  Biso   1.000  H
  O101     1.0000 0.43017  0.73222  0.67143  Biso   1.000  O
  O102     1.0000 0.35326  0.74145  0.78051  Biso   1.000  O
  H417     1.0000 0.14084  0.84082  0.57443  Biso   1.000  H
  H418     1.0000 0.16949  0.76703  0.52452  Biso   1.000  H
  H419     1.0000 0.16943  0.76703  0.52452  Biso   1.000  H
  H420     1.0000 0.39248  0.71824  0.69279  Biso   1.000  H
  H421     1.0000 0.39241  0.71824  0.69279  Biso   1.000  H
  H422     1.0000 0.39015  0.73868  0.82499  Biso   1.000  H
  H423     1.0000 0.39014  0.73862  0.82499  Biso   1.000  H
  C469     1.0000 0.84380  0.21806  0.42840  Biso   1.000  C
  C470     1.0000 0.75213  0.21045  0.35632  Biso   1.000  C
  H424     1.0000 0.85919  0.15924  0.42560  Biso   1.000  H
  H425     1.0000 0.83061  0.23303  0.47550  Biso   1.000  H
  C471     1.0000 0.93285  0.28892  0.43721  Biso   1.000  C
  C472     1.0000 0.93278  0.28892  0.43721  Biso   1.000  C
  C473     1.0000 0.66121  0.15629  0.36069  Biso   1.000  C
  C474     1.0000 0.75518  0.17491  0.27799  Biso   1.000  C
  H426     1.0000 0.74430  0.27266  0.35760  Biso   1.000  H
  H427     1.0000 0.74429  0.27259  0.35760  Biso   1.000  H
  H428     1.0000 0.94994  0.27172  0.39250  Biso   1.000  H
  H429     1.0000 0.91646  0.34727  0.43634  Biso   1.000  H
  H430     1.0000 0.94987  0.27172  0.39250  Biso   1.000  H
  H431     1.0000 0.91639  0.34727  0.43634  Biso   1.000  H
  C475     1.0000 0.01961  0.29922  0.51233  Biso   1.000  C
  C476     1.0000 0.57755  0.18691  0.34733  Biso   1.000  C
  C477     1.0000 0.57749  0.18691  0.34733  Biso   1.000  C
  C478     1.0000 0.65900  0.07416  0.37972  Biso   1.000  C
  C479     1.0000 0.80902  0.11511  0.26708  Biso   1.000  C
  C480     1.0000 0.70155  0.19912  0.21192  Biso   1.000  C
  C481     1.0000 0.80896  0.11511  0.26708  Biso   1.000  C
  C482     1.0000 0.70148  0.19912  0.21192  Biso   1.000  C
  H432     1.0000 0.99931  0.30831  0.55610  Biso   1.000  H
  C483     1.0000 0.10696  0.37636  0.52960  Biso   1.000  C
  H433     1.0000 0.04009  0.24274  0.50999  Biso   1.000  H
  C484     1.0000 0.10689  0.37636  0.52960  Biso   1.000  C
  C485     1.0000 0.49782  0.13860  0.35509  Biso   1.000  C
  C486     1.0000 0.49775  0.13860  0.35509  Biso   1.000  C
  O103     1.0000 0.56994  0.26784  0.32859  Biso   1.000  O
  O104     1.0000 0.56987  0.26784  0.32859  Biso   1.000  O
  C487     1.0000 0.58053  0.02326  0.38842  Biso   1.000  C
  C488     1.0000 0.58045  0.02320  0.38842  Biso   1.000  C
  H434     1.0000 0.71439  0.05120  0.38731  Biso   1.000  H
  C489     1.0000 0.80980  0.07644  0.19541  Biso   1.000  C
  H435     1.0000 0.84854  0.09906  0.31202  Biso   1.000  H
  H436     1.0000 0.84847  0.09899  0.31202  Biso   1.000  H
  O105     1.0000 0.64684  0.25861  0.21951  Biso   1.000  O
  C490     1.0000 0.69814  0.16463  0.13902  Biso   1.000  C
  O106     1.0000 0.64677  0.25861  0.21951  Biso   1.000  O
  C491     1.0000 0.69808  0.16463  0.13902  Biso   1.000  C
  C492     1.0000 0.18481  0.39612  0.61301  Biso   1.000  C
  H437     1.0000 0.08197  0.43083  0.52563  Biso   1.000  H
  C493     1.0000 0.15399  0.36593  0.47130  Biso   1.000  C
  H438     1.0000 0.08190  0.43083  0.52563  Biso   1.000  H
  C494     1.0000 0.49801  0.05731  0.37459  Biso   1.000  C
  C495     1.0000 0.49794  0.05731  0.37459  Biso   1.000  C
  H439     1.0000 0.44243  0.16165  0.34692  Biso   1.000  H
  H440     1.0000 0.44237  0.16165  0.34692  Biso   1.000  H
  H441     1.0000 0.60762  0.28182  0.30723  Biso   1.000  H
  C496     1.0000 0.58280  0.93454  0.41112  Biso   1.000  C
  C497     1.0000 0.58274  0.93454  0.41112  Biso   1.000  C
  C498     1.0000 0.87040  0.01222  0.18560  Biso   1.000  C
  C499     1.0000 0.75171  0.10449  0.13120  Biso   1.000  C
  H442     1.0000 0.60994  0.26142  0.17498  Biso   1.000  H
  H443     1.0000 0.60987  0.26142  0.17498  Biso   1.000  H
  H444     1.0000 0.65931  0.18210  0.09473  Biso   1.000  H
  C500     1.0000 0.20936  0.32753  0.64861  Biso   1.000  C
  C501     1.0000 0.23666  0.48334  0.65754  Biso   1.000  C
  C502     1.0000 0.20929  0.32753  0.64861  Biso   1.000  C
  C503     1.0000 0.23659  0.48334  0.65754  Biso   1.000  C
  C504     1.0000 0.16783  0.28344  0.44223  Biso   1.000  C
  C505     1.0000 0.18674  0.43870  0.44748  Biso   1.000  C
  C506     1.0000 0.18668  0.43870  0.44748  Biso   1.000  C
  O107     1.0000 0.41592  0.01315  0.37943  Biso   1.000  O
  H445     1.0000 0.52827  0.91982  0.42770  Biso   1.000  H
  C507     1.0000 0.56193  0.85931  0.34009  Biso   1.000  C
  C508     1.0000 0.67766  0.94414  0.48180  Biso   1.000  C
  H446     1.0000 0.52820  0.91982  0.42770  Biso   1.000  H
  H447     1.0000 0.83518  0.97409  0.13080  Biso   1.000  H
  C509     1.0000 0.88004  0.94841  0.23819  Biso   1.000  C
  H448     1.0000 0.83511  0.97409  0.13080  Biso   1.000  H
  C510     1.0000 0.96963  0.06274  0.19220  Biso   1.000  C
  C511     1.0000 0.96955  0.06268  0.19220  Biso   1.000  C
  O108     1.0000 0.75012  0.06681  0.05982  Biso   1.000  O
  H449     1.0000 0.17652  0.26754  0.61913  Biso   1.000  H
  C512     1.0000 0.27816  0.34119  0.72413  Biso   1.000  C
  C513     1.0000 0.27809  0.34119  0.72413  Biso   1.000  C
  O109     1.0000 0.22171  0.55812  0.62900  Biso   1.000  O
  C514     1.0000 0.30634  0.50026  0.73312  Biso   1.000  C
  H450     1.0000 0.14302  0.23251  0.45688  Biso   1.000  H
  C515     1.0000 0.21574  0.27150  0.39309  Biso   1.000  C
  H451     1.0000 0.14295  0.23251  0.45688  Biso   1.000  H
  C516     1.0000 0.21567  0.27150  0.39309  Biso   1.000  C
  O110     1.0000 0.16942  0.51934  0.47328  Biso   1.000  O
  C517     1.0000 0.23485  0.43185  0.39863  Biso   1.000  C
  C518     1.0000 0.23479  0.43185  0.39863  Biso   1.000  C
  H452     1.0000 0.39677  0.96065  0.35118  Biso   1.000  H
  C519     1.0000 0.63512  0.83201  0.32258  Biso   1.000  C
  C520     1.0000 0.46825  0.81861  0.28698  Biso   1.000  C
  H453     1.0000 0.73226  0.95412  0.46540  Biso   1.000  H
  H454     1.0000 0.68848  0.99826  0.52213  Biso   1.000  H
  C521     1.0000 0.68149  0.86382  0.51921  Biso   1.000  C
  C522     1.0000 0.68143  0.86382  0.51921  Biso   1.000  C
  C523     1.0000 0.78268  0.88082  0.21852  Biso   1.000  C
  C524     1.0000 0.78261  0.88082  0.21852  Biso   1.000  C
  H455     1.0000 0.92778  0.91510  0.23352  Biso   1.000  H
  H456     1.0000 0.90589  0.98360  0.29311  Biso   1.000  H
  H457     1.0000 0.92772  0.91510  0.23352  Biso   1.000  H
  H458     1.0000 0.90583  0.98360  0.29311  Biso   1.000  H
  C525     1.0000 0.98813  0.06842  0.12572  Biso   1.000  C
  C526     1.0000 0.98806  0.06842  0.12572  Biso   1.000  C
  C527     1.0000 0.04723  0.10120  0.26381  Biso   1.000  C
  C528     1.0000 0.04716  0.10120  0.26381  Biso   1.000  C
  H459     1.0000 0.71000  0.08349  0.02469  Biso   1.000  H
  C529     1.0000 0.29854  0.26214  0.75991  Biso   1.000  C
  C530     1.0000 0.32617  0.43005  0.76563  Biso   1.000  C
  C531     1.0000 0.29847  0.26214  0.75991  Biso   1.000  C
  C532     1.0000 0.32610  0.43005  0.76563  Biso   1.000  C
  H460     1.0000 0.19125  0.54217  0.58032  Biso   1.000  H
  H461     1.0000 0.34027  0.56019  0.76242  Biso   1.000  H
  H462     1.0000 0.34020  0.56019  0.76242  Biso   1.000  H
  C533     1.0000 0.25183  0.34896  0.37313  Biso   1.000  C
  C534     1.0000 0.22423  0.18160  0.35632  Biso   1.000  C
  C535     1.0000 0.22416  0.18160  0.35632  Biso   1.000  C
  H463     1.0000 0.19464  0.55905  0.45682  Biso   1.000  H
  H464     1.0000 0.25631  0.48261  0.38229  Biso   1.000  H
  H465     1.0000 0.70069  0.85750  0.35941  Biso   1.000  H
  C536     1.0000 0.61867  0.77003  0.25523  Biso   1.000  C
  H466     1.0000 0.70062  0.85750  0.35941  Biso   1.000  H
  O111     1.0000 0.39349  0.84274  0.30361  Biso   1.000  O
  C537     1.0000 0.44795  0.75578  0.21939  Biso   1.000  C
  O112     1.0000 0.39343  0.84274  0.30361  Biso   1.000  O
  H467     1.0000 0.68349  0.81181  0.48303  Biso   1.000  H
  H468     1.0000 0.62209  0.84696  0.52861  Biso   1.000  H
  C538     1.0000 0.77026  0.88763  0.59532  Biso   1.000  C
  H469     1.0000 0.68342  0.81181  0.48303  Biso   1.000  H
  H470     1.0000 0.62203  0.84696  0.52861  Biso   1.000  H
  C539     1.0000 0.79405  0.81263  0.26538  Biso   1.000  C
  H471     1.0000 0.75376  0.84970  0.16243  Biso   1.000  H
  H472     1.0000 0.73706  0.91383  0.22821  Biso   1.000  H
  O113     1.0000 0.91632  0.03319  0.05049  Biso   1.000  O
  O114     1.0000 0.91625  0.03319  0.05049  Biso   1.000  O
  C540     1.0000 0.07892  0.10992  0.13319  Biso   1.000  C
  C541     1.0000 0.07886  0.10992  0.13319  Biso   1.000  C
  C542     1.0000 0.14113  0.14284  0.27443  Biso   1.000  C
  H473     1.0000 0.03549  0.09935  0.30922  Biso   1.000  H
  C543     1.0000 0.14107  0.14284  0.27443  Biso   1.000  C
  C544     1.0000 0.38143  0.23003  0.74479  Biso   1.000  C
  H474     1.0000 0.32304  0.28558  0.81769  Biso   1.000  H
  C545     1.0000 0.20606  0.18749  0.73464  Biso   1.000  C
  C546     1.0000 0.38136  0.23003  0.74479  Biso   1.000  C
  H475     1.0000 0.32298  0.28558  0.81769  Biso   1.000  H
  C547     1.0000 0.20599  0.18743  0.73464  Biso   1.000  C
  O115     1.0000 0.39452  0.45325  0.84209  Biso   1.000  O
  O116     1.0000 0.30102  0.34113  0.32673  Biso   1.000  O
  H476     1.0000 0.28630  0.19343  0.34902  Biso   1.000  H
  C548     1.0000 0.22978  0.11243  0.40470  Biso   1.000  C
  C549     1.0000 0.52227  0.73304  0.20352  Biso   1.000  C
  C550     1.0000 0.70157  0.73792  0.24011  Biso   1.000  C
  C551     1.0000 0.70150  0.73792  0.24011  Biso   1.000  C
  H477     1.0000 0.34525  0.83659  0.26171  Biso   1.000  H
  H478     1.0000 0.38226  0.72828  0.18367  Biso   1.000  H
  H479     1.0000 0.38220  0.72828  0.18367  Biso   1.000  H
  C552     1.0000 0.77587  0.81845  0.64371  Biso   1.000  C
  H480     1.0000 0.82883  0.89723  0.58388  Biso   1.000  H
  H481     1.0000 0.77248  0.94513  0.62742  Biso   1.000  H
  C553     1.0000 0.77581  0.81845  0.64371  Biso   1.000  C
  H482     1.0000 0.84627  0.78559  0.26130  Biso   1.000  H
  H483     1.0000 0.81485  0.84309  0.32101  Biso   1.000  H
  H484     1.0000 0.84621  0.78559  0.26130  Biso   1.000  H
  C554     1.0000 0.15430  0.14693  0.20539  Biso   1.000  C
  H485     1.0000 0.09003  0.11312  0.08772  Biso   1.000  H
  H486     1.0000 0.08996  0.11312  0.08772  Biso   1.000  H
  C555     1.0000 0.36492  0.16805  0.67744  Biso   1.000  C
  C556     1.0000 0.47785  0.26708  0.79650  Biso   1.000  C
  C557     1.0000 0.47778  0.26708  0.79650  Biso   1.000  C
  C558     1.0000 0.21743  0.11924  0.78150  Biso   1.000  C
  C559     1.0000 0.21736  0.11924  0.78150  Biso   1.000  C
  H487     1.0000 0.15383  0.21447  0.73872  Biso   1.000  H
  H488     1.0000 0.18525  0.15696  0.67902  Biso   1.000  H
  H489     1.0000 0.18518  0.15696  0.67902  Biso   1.000  H
  H490     1.0000 0.42504  0.41365  0.84950  Biso   1.000  H
  H491     1.0000 0.42497  0.41365  0.84950  Biso   1.000  H
  H492     1.0000 0.32054  0.39161  0.32019  Biso   1.000  H
  H493     1.0000 0.32047  0.39161  0.32019  Biso   1.000  H
  C560     1.0000 0.31861  0.13624  0.48081  Biso   1.000  C
  H494     1.0000 0.17117  0.10282  0.41608  Biso   1.000  H
  H495     1.0000 0.22762  0.05492  0.37260  Biso   1.000  H
  H496     1.0000 0.22756  0.05492  0.37260  Biso   1.000  H
  O117     1.0000 0.50391  0.67101  0.13488  Biso   1.000  O
  H497     1.0000 0.67707  0.71454  0.18233  Biso   1.000  H
  C561     1.0000 0.72195  0.65894  0.27589  Biso   1.000  C
  C562     1.0000 0.72189  0.65894  0.27589  Biso   1.000  C
  C563     1.0000 0.78436  0.72855  0.60694  Biso   1.000  C
  H498     1.0000 0.71374  0.80663  0.65100  Biso   1.000  H
  C564     1.0000 0.85897  0.85722  0.72559  Biso   1.000  C
  C565     1.0000 0.85890  0.85722  0.72559  Biso   1.000  C
  O118     1.0000 0.24471  0.18732  0.20790  Biso   1.000  O
  H499     1.0000 0.29941  0.14256  0.64061  Biso   1.000  H
  C566     1.0000 0.43811  0.14075  0.65993  Biso   1.000  C
  O119     1.0000 0.49612  0.32905  0.86514  Biso   1.000  O
  C567     1.0000 0.55215  0.24428  0.78063  Biso   1.000  C
  C568     1.0000 0.55209  0.24428  0.78063  Biso   1.000  C
  C569     1.0000 0.12006  0.05165  0.76184  Biso   1.000  C
  C570     1.0000 0.11999  0.05165  0.76184  Biso   1.000  C
  H500     1.0000 0.24634  0.15036  0.83759  Biso   1.000  H
  H501     1.0000 0.26304  0.08623  0.77182  Biso   1.000  H
  H502     1.0000 0.24628  0.15036  0.83759  Biso   1.000  H
  H503     1.0000 0.26298  0.08623  0.77182  Biso   1.000  H
  C571     1.0000 0.32244  0.05591  0.51822  Biso   1.000  C
  H504     1.0000 0.31661  0.18824  0.51700  Biso   1.000  H
  H505     1.0000 0.37802  0.15316  0.47141  Biso   1.000  H
  C572     1.0000 0.32238  0.05591  0.51822  Biso   1.000  C
  H506     1.0000 0.44413  0.64530  0.11229  Biso   1.000  H
  C573     1.0000 0.79074  0.67253  0.35141  Biso   1.000  C
  C574     1.0000 0.67393  0.57000  0.23439  Biso   1.000  C
  C575     1.0000 0.83227  0.71662  0.55779  Biso   1.000  C
  C576     1.0000 0.74828  0.65116  0.62690  Biso   1.000  C
  C577     1.0000 0.83220  0.71662  0.55779  Biso   1.000  C
  C578     1.0000 0.74822  0.65116  0.62690  Biso   1.000  C
  C579     1.0000 0.95288  0.89886  0.73621  Biso   1.000  C
  C580     1.0000 0.84581  0.85320  0.79464  Biso   1.000  C
  C581     1.0000 0.84574  0.85313  0.79464  Biso   1.000  C
  H507     1.0000 0.27510  0.22922  0.24858  Biso   1.000  H
  C582     1.0000 0.41730  0.06552  0.58890  Biso   1.000  C
  C583     1.0000 0.53182  0.18143  0.71298  Biso   1.000  C
  C584     1.0000 0.53175  0.18143  0.71298  Biso   1.000  C
  H508     1.0000 0.55597  0.35476  0.88773  Biso   1.000  H
  H509     1.0000 0.55590  0.35476  0.88773  Biso   1.000  H
  H510     1.0000 0.61781  0.27176  0.81629  Biso   1.000  H
  C585     1.0000 0.12970  0.98784  0.81442  Biso   1.000  C
  C586     1.0000 0.12963  0.98784  0.81442  Biso   1.000  C
  H511     1.0000 0.07232  0.08496  0.76650  Biso   1.000  H
  H512     1.0000 0.09421  0.01646  0.70691  Biso   1.000  H
  H513     1.0000 0.26784  0.04594  0.53462  Biso   1.000  H
  H514     1.0000 0.31162  0.00180  0.47789  Biso   1.000  H
  H515     1.0000 0.26778  0.04594  0.53462  Biso   1.000  H
  H516     1.0000 0.31156  0.00180  0.47789  Biso   1.000  H
  H517     1.0000 0.82352  0.73252  0.38089  Biso   1.000  H
  C587     1.0000 0.81523  0.60394  0.38702  Biso   1.000  C
  O120     1.0000 0.60555  0.54679  0.15788  Biso   1.000  O
  C588     1.0000 0.69376  0.49980  0.26690  Biso   1.000  C
  O121     1.0000 0.60549  0.54679  0.15788  Biso   1.000  O
  C589     1.0000 0.69370  0.49980  0.26690  Biso   1.000  C
  H518     1.0000 0.85706  0.76753  0.54308  Biso   1.000  H
  C590     1.0000 0.84604  0.63413  0.52873  Biso   1.000  C
  H519     1.0000 0.85699  0.76753  0.54308  Biso   1.000  H
  O122     1.0000 0.69908  0.65893  0.67330  Biso   1.000  O
  C591     1.0000 0.76525  0.56821  0.60139  Biso   1.000  C
  O123     1.0000 0.69901  0.65893  0.67330  Biso   1.000  O
  C592     1.0000 0.76518  0.56821  0.60139  Biso   1.000  C
  H520     1.0000 0.96456  0.90077  0.69081  Biso   1.000  H
  C593     1.0000 0.03048  0.93738  0.80783  Biso   1.000  C
  C594     1.0000 0.92119  0.89020  0.86683  Biso   1.000  C
  O124     1.0000 0.75539  0.81274  0.79213  Biso   1.000  O
  C595     1.0000 0.92118  0.89014  0.86683  Biso   1.000  C
  O125     1.0000 0.75533  0.81274  0.79213  Biso   1.000  O
  C596     1.0000 0.41958  0.97686  0.61160  Biso   1.000  C
  C597     1.0000 0.41952  0.97686  0.61160  Biso   1.000  C
  H521     1.0000 0.47183  0.08024  0.57232  Biso   1.000  H
  H522     1.0000 0.47177  0.08024  0.57232  Biso   1.000  H
  O126     1.0000 0.60661  0.15732  0.69641  Biso   1.000  O
  C598     1.0000 0.19031  0.92368  0.80462  Biso   1.000  C
  C599     1.0000 0.19025  0.92368  0.80462  Biso   1.000  C
  H523     1.0000 0.16492  0.02597  0.86923  Biso   1.000  H
  C600     1.0000 0.76344  0.51672  0.34248  Biso   1.000  C
  C601     1.0000 0.89316  0.62376  0.47042  Biso   1.000  C
  C602     1.0000 0.76338  0.51672  0.34248  Biso   1.000  C
  C603     1.0000 0.89314  0.62370  0.47042  Biso   1.000  C
  H524     1.0000 0.57506  0.58641  0.15052  Biso   1.000  H
  H525     1.0000 0.57500  0.58641  0.15052  Biso   1.000  H
  H526     1.0000 0.65984  0.43993  0.23760  Biso   1.000  H
  C604     1.0000 0.81333  0.56134  0.55248  Biso   1.000  C
  H527     1.0000 0.67956  0.60845  0.67983  Biso   1.000  H
  H528     1.0000 0.74379  0.51745  0.61773  Biso   1.000  H
  H529     1.0000 0.74372  0.51745  0.61773  Biso   1.000  H
  C605     1.0000 0.01198  0.93164  0.87430  Biso   1.000  C
  C606     1.0000 0.01191  0.93164  0.87430  Biso   1.000  C
  H530     1.0000 0.91007  0.88694  0.91230  Biso   1.000  H
  H531     1.0000 0.91001  0.88694  0.91230  Biso   1.000  H
  H532     1.0000 0.72497  0.77082  0.75139  Biso   1.000  H
  H533     1.0000 0.72491  0.77082  0.75139  Biso   1.000  H
  C607     1.0000 0.34105  0.92596  0.62030  Biso   1.000  C
  C608     1.0000 0.50210  0.94275  0.62544  Biso   1.000  C
  C609     1.0000 0.50203  0.94275  0.62544  Biso   1.000  C
  H534     1.0000 0.65485  0.16347  0.73831  Biso   1.000  H
  H535     1.0000 0.65479  0.16347  0.73831  Biso   1.000  H
  C610     1.0000 0.19105  0.88493  0.73289  Biso   1.000  C
  C611     1.0000 0.24839  0.89557  0.86882  Biso   1.000  C
  C612     1.0000 0.24833  0.89557  0.86882  Biso   1.000  C
  O127     1.0000 0.77832  0.44194  0.37102  Biso   1.000  O
  H536     1.0000 0.91813  0.56923  0.47439  Biso   1.000  H
  C613     1.0000 0.98043  0.70083  0.48770  Biso   1.000  C
  O128     1.0000 0.83065  0.48070  0.52668  Biso   1.000  O
  O129     1.0000 0.83058  0.48070  0.52668  Biso   1.000  O
  O130     1.0000 0.08378  0.96686  0.94954  Biso   1.000  O
  C614     1.0000 0.33889  0.84376  0.63933  Biso   1.000  C
  C615     1.0000 0.33883  0.84376  0.63933  Biso   1.000  C
  H537     1.0000 0.28571  0.94886  0.61271  Biso   1.000  H
  H538     1.0000 0.28564  0.94886  0.61271  Biso   1.000  H
  C616     1.0000 0.50228  0.86146  0.64493  Biso   1.000  C
  O131     1.0000 0.58418  0.98691  0.62059  Biso   1.000  O
  O132     1.0000 0.58412  0.98691  0.62059  Biso   1.000  O
  H539     1.0000 0.15157  0.90107  0.68800  Biso   1.000  H
  C617     1.0000 0.24485  0.82515  0.72203  Biso   1.000  C
  O133     1.0000 0.24998  0.93325  0.94020  Biso   1.000  O
  C618     1.0000 0.30196  0.83543  0.86100  Biso   1.000  C
  O134     1.0000 0.24992  0.93325  0.94020  Biso   1.000  O
  H540     1.0000 0.80886  0.45795  0.41970  Biso   1.000  H
  H541     1.0000 0.80880  0.45795  0.41970  Biso   1.000  H
  H542     1.0000 0.95995  0.75732  0.49003  Biso   1.000  H
  H543     1.0000 0.00080  0.69175  0.44392  Biso   1.000  H
  C619     1.0000 0.06725  0.71114  0.56281  Biso   1.000  C
  H544     1.0000 0.00073  0.69175  0.44392  Biso   1.000  H
  H545     1.0000 0.80547  0.44101  0.54320  Biso   1.000  H
  H546     1.0000 0.80540  0.44101  0.54320  Biso   1.000  H
  C620     1.0000 0.24799  0.78968  0.64371  Biso   1.000  C
  C621     1.0000 0.24791  0.78961  0.64371  Biso   1.000  C
  C622     1.0000 0.42255  0.81314  0.65269  Biso   1.000  C
  H547     1.0000 0.55768  0.83848  0.65310  Biso   1.000  H
  H548     1.0000 0.55760  0.83841  0.65310  Biso   1.000  H
  H549     1.0000 0.60332  0.03946  0.64878  Biso   1.000  H
  H550     1.0000 0.60325  0.03946  0.64878  Biso   1.000  H
  C623     1.0000 0.29856  0.80094  0.78810  Biso   1.000  C
  H551     1.0000 0.29011  0.91657  0.97533  Biso   1.000  H
  H552     1.0000 0.29004  0.91657  0.97533  Biso   1.000  H
  H553     1.0000 0.34080  0.81796  0.90530  Biso   1.000  H
  H554     1.0000 0.34073  0.81796  0.90530  Biso   1.000  H
  H555     1.0000 0.05017  0.72833  0.60752  Biso   1.000  H
  H556     1.0000 0.08365  0.65286  0.56369  Biso   1.000  H
  C624     1.0000 0.15625  0.78207  0.57162  Biso   1.000  C
  H557     1.0000 0.25575  0.72747  0.64242  Biso   1.000  H
  O135     1.0000 0.43017  0.73222  0.67143  Biso   1.000  O
  O136     1.0000 0.35326  0.74145  0.78051  Biso   1.000  O
  H558     1.0000 0.14084  0.84082  0.57443  Biso   1.000  H
  H559     1.0000 0.16949  0.76703  0.52452  Biso   1.000  H
  H560     1.0000 0.16943  0.76703  0.52452  Biso   1.000  H
  H561     1.0000 0.39248  0.71824  0.69279  Biso   1.000  H
  H562     1.0000 0.39241  0.71824  0.69279  Biso   1.000  H
  H563     1.0000 0.39015  0.73868  0.82499  Biso   1.000  H
  H564     1.0000 0.39014  0.73862  0.82499  Biso   1.000  H
