data_image0
_cell_length_a       36.556
_cell_length_b       20.675
_cell_length_c       22.54
_cell_angle_alpha    90
_cell_angle_beta     92.93
_cell_angle_gamma    90

_symmetry_space_group_name_H-M    "P 1"
_symmetry_int_tables_number       1

loop_
  _symmetry_equiv_pos_as_xyz
  'x, y, z'

loop_
  _atom_site_label
  _atom_site_occupancy
  _atom_site_fract_x
  _atom_site_fract_y
  _atom_site_fract_z
  _atom_site_thermal_displace_type
  _atom_site_B_iso_or_equiv
  _atom_site_type_symbol
  C1       1.0000 0.51125  0.59719  0.44801  Biso   1.000  C
  O1       1.0000 0.52820  0.64174  0.48866  Biso   1.000  O
  H1       1.0000 0.49291  0.61983  0.42251  Biso   1.000  H
  H2       1.0000 0.49938  0.56290  0.47000  Biso   1.000  H
  H3       1.0000 0.52979  0.57823  0.42349  Biso   1.000  H
  C2       1.0000 0.55826  0.61954  0.52216  Biso   1.000  C
  C3       1.0000 0.57767  0.66607  0.55570  Biso   1.000  C
  C4       1.0000 0.56912  0.55536  0.52398  Biso   1.000  C
  C5       1.0000 0.60791  0.64619  0.59092  Biso   1.000  C
  C6       1.0000 0.56686  0.73698  0.55227  Biso   1.000  C
  C7       1.0000 0.59983  0.53572  0.55854  Biso   1.000  C
  H4       1.0000 0.55541  0.52421  0.50128  Biso   1.000  H
  H5       1.0000 0.62101  0.67710  0.61491  Biso   1.000  H
  C8       1.0000 0.61941  0.58215  0.59199  Biso   1.000  C
  C9       1.0000 0.58004  0.76914  0.49719  Biso   1.000  C
  H6       1.0000 0.53990  0.74060  0.55241  Biso   1.000  H
  H7       1.0000 0.57739  0.75971  0.58777  Biso   1.000  H
  C10      1.0000 0.61212  0.46539  0.55881  Biso   1.000  C
  O2       1.0000 0.65007  0.56092  0.62411  Biso   1.000  O
  C11      1.0000 0.61594  0.79134  0.49515  Biso   1.000  C
  C12      1.0000 0.55683  0.77649  0.44659  Biso   1.000  C
  C13      1.0000 0.62989  0.44900  0.50177  Biso   1.000  C
  H8       1.0000 0.62980  0.45790  0.59288  Biso   1.000  H
  H9       1.0000 0.59069  0.43690  0.56347  Biso   1.000  H
  C14      1.0000 0.66439  0.60121  0.66964  Biso   1.000  C
  O3       1.0000 0.63789  0.78307  0.54641  Biso   1.000  O
  C15      1.0000 0.62790  0.82070  0.44410  Biso   1.000  C
  C16      1.0000 0.56900  0.80508  0.39533  Biso   1.000  C
  H10      1.0000 0.53220  0.76160  0.44708  Biso   1.000  H
  C17      1.0000 0.66544  0.45674  0.49368  Biso   1.000  C
  C18      1.0000 0.60556  0.42515  0.45126  Biso   1.000  C
  H11      1.0000 0.67209  0.64242  0.65267  Biso   1.000  H
  H12      1.0000 0.68560  0.58012  0.68990  Biso   1.000  H
  H13      1.0000 0.64560  0.60919  0.69821  Biso   1.000  H
  C19      1.0000 0.67582  0.78563  0.54095  Biso   1.000  C
  H14      1.0000 0.65240  0.83603  0.44379  Biso   1.000  H
  C20      1.0000 0.60478  0.82815  0.39350  Biso   1.000  C
  O4       1.0000 0.54701  0.81296  0.34415  Biso   1.000  O
  C21      1.0000 0.68196  0.44266  0.43646  Biso   1.000  C
  H15      1.0000 0.68090  0.47192  0.52598  Biso   1.000  H
  O5       1.0000 0.57267  0.41683  0.45685  Biso   1.000  O
  C22      1.0000 0.62196  0.41117  0.39439  Biso   1.000  C
  H16      1.0000 0.68260  0.75710  0.50861  Biso   1.000  H
  H17      1.0000 0.68829  0.77151  0.57817  Biso   1.000  H
  H18      1.0000 0.68309  0.83013  0.53220  Biso   1.000  H
  C23      1.0000 0.61891  0.85674  0.33749  Biso   1.000  C
  C24      1.0000 0.51249  0.78177  0.34153  Biso   1.000  C
  O6       1.0000 0.71489  0.44914  0.43095  Biso   1.000  O
  C25      1.0000 0.65752  0.41949  0.38573  Biso   1.000  C
  H19      1.0000 0.60651  0.39550  0.36241  Biso   1.000  H
  C26      1.0000 0.63370  0.80421  0.29817  Biso   1.000  C
  H20      1.0000 0.63861  0.88822  0.34801  Biso   1.000  H
  H21      1.0000 0.59879  0.88010  0.31550  Biso   1.000  H
  H22      1.0000 0.50089  0.78670  0.30159  Biso   1.000  H
  H23      1.0000 0.49691  0.80131  0.37072  Biso   1.000  H
  H24      1.0000 0.51581  0.73572  0.35050  Biso   1.000  H
  C27      1.0000 0.67382  0.40861  0.32656  Biso   1.000  C
  C28      1.0000 0.60999  0.76880  0.26028  Biso   1.000  C
  C29      1.0000 0.67081  0.78800  0.30053  Biso   1.000  C
  C30      1.0000 0.67342  0.47105  0.29111  Biso   1.000  C
  H25      1.0000 0.65960  0.37509  0.30408  Biso   1.000  H
  H26      1.0000 0.69929  0.39299  0.33278  Biso   1.000  H
  H27      1.0000 0.58470  0.77949  0.25788  Biso   1.000  H
  C31      1.0000 0.62226  0.71845  0.22603  Biso   1.000  C
  O7       1.0000 0.69340  0.82268  0.34011  Biso   1.000  O
  C32      1.0000 0.68353  0.73988  0.26388  Biso   1.000  C
  C33      1.0000 0.64258  0.48938  0.25606  Biso   1.000  C
  C34      1.0000 0.70367  0.51134  0.29373  Biso   1.000  C
  O8       1.0000 0.59954  0.68063  0.19000  Biso   1.000  O
  C35      1.0000 0.65981  0.70399  0.22643  Biso   1.000  C
  C36      1.0000 0.72635  0.79241  0.35988  Biso   1.000  C
  H28      1.0000 0.70909  0.73122  0.26441  Biso   1.000  H
  O9       1.0000 0.61283  0.44861  0.25735  Biso   1.000  O
  C37      1.0000 0.64321  0.54534  0.22230  Biso   1.000  C
  C38      1.0000 0.70372  0.56880  0.26219  Biso   1.000  C
  H29      1.0000 0.72480  0.49940  0.31758  Biso   1.000  H
  C39      1.0000 0.56147  0.68256  0.20053  Biso   1.000  C
  C40      1.0000 0.67352  0.64851  0.19018  Biso   1.000  C
  H30      1.0000 0.74291  0.79004  0.32709  Biso   1.000  H
  H31      1.0000 0.72110  0.74863  0.37378  Biso   1.000  H
  H32      1.0000 0.73800  0.81751  0.39248  Biso   1.000  H
  C41      1.0000 0.57975  0.46941  0.22758  Biso   1.000  C
  H33      1.0000 0.62250  0.55632  0.19720  Biso   1.000  H
  C42      1.0000 0.67373  0.58597  0.22465  Biso   1.000  C
  O10      1.0000 0.73282  0.61151  0.26459  Biso   1.000  O
  H34      1.0000 0.54860  0.64982  0.17601  Biso   1.000  H
  H35      1.0000 0.55170  0.72551  0.19018  Biso   1.000  H
  H36      1.0000 0.55789  0.67371  0.24251  Biso   1.000  H
  H37      1.0000 0.69861  0.65809  0.17841  Biso   1.000  H
  H38      1.0000 0.65759  0.64372  0.15362  Biso   1.000  H
  H39      1.0000 0.58321  0.47221  0.18480  Biso   1.000  H
  H40      1.0000 0.57300  0.51202  0.24260  Biso   1.000  H
  H41      1.0000 0.56020  0.43831  0.23478  Biso   1.000  H
  C43      1.0000 0.75623  0.60958  0.31732  Biso   1.000  C
  H42      1.0000 0.77190  0.57122  0.31647  Biso   1.000  H
  H43      1.0000 0.74129  0.60769  0.35219  Biso   1.000  H
  H44      1.0000 0.77150  0.64851  0.31941  Biso   1.000  H
  C44      1.0000 0.48873  0.40281  0.55196  Biso   1.000  C
  O11      1.0000 0.47177  0.35826  0.51132  Biso   1.000  O
  H45      1.0000 0.50710  0.38022  0.57751  Biso   1.000  H
  H46      1.0000 0.50059  0.43710  0.52997  Biso   1.000  H
  H47      1.0000 0.47019  0.42181  0.57649  Biso   1.000  H
  C45      1.0000 0.44175  0.38046  0.47782  Biso   1.000  C
  C46      1.0000 0.42234  0.33393  0.44428  Biso   1.000  C
  C47      1.0000 0.43088  0.44469  0.47600  Biso   1.000  C
  C48      1.0000 0.39209  0.35381  0.40905  Biso   1.000  C
  C49      1.0000 0.43314  0.26307  0.44770  Biso   1.000  C
  C50      1.0000 0.40014  0.46428  0.44144  Biso   1.000  C
  H48      1.0000 0.44459  0.47579  0.49870  Biso   1.000  H
  C51      1.0000 0.38060  0.41790  0.40799  Biso   1.000  C
  H49      1.0000 0.37900  0.32290  0.38511  Biso   1.000  H
  C52      1.0000 0.41997  0.23086  0.50279  Biso   1.000  C
  H50      1.0000 0.46011  0.25940  0.44761  Biso   1.000  H
  H51      1.0000 0.42261  0.24029  0.41221  Biso   1.000  H
  C53      1.0000 0.38788  0.53461  0.44117  Biso   1.000  C
  O12      1.0000 0.34990  0.43908  0.37591  Biso   1.000  O
  C54      1.0000 0.38406  0.20866  0.50483  Biso   1.000  C
  C55      1.0000 0.44317  0.22356  0.55339  Biso   1.000  C
  C56      1.0000 0.37012  0.55100  0.49821  Biso   1.000  C
  H52      1.0000 0.37020  0.54210  0.40710  Biso   1.000  H
  H53      1.0000 0.40929  0.56310  0.43651  Biso   1.000  H
  C57      1.0000 0.33561  0.39879  0.33033  Biso   1.000  C
  O13      1.0000 0.36212  0.21698  0.45357  Biso   1.000  O
  C58      1.0000 0.37207  0.17935  0.55587  Biso   1.000  C
  C59      1.0000 0.43100  0.19492  0.60465  Biso   1.000  C
  H54      1.0000 0.46780  0.23840  0.55290  Biso   1.000  H
  C60      1.0000 0.33454  0.54331  0.50630  Biso   1.000  C
  C61      1.0000 0.39442  0.57485  0.54877  Biso   1.000  C
  H55      1.0000 0.32788  0.35763  0.34730  Biso   1.000  H
  H56      1.0000 0.31440  0.41993  0.31008  Biso   1.000  H
  H57      1.0000 0.35441  0.39081  0.30181  Biso   1.000  H
  C62      1.0000 0.32418  0.21437  0.45903  Biso   1.000  C
  H58      1.0000 0.34760  0.16401  0.55618  Biso   1.000  H
  C63      1.0000 0.39519  0.17190  0.60647  Biso   1.000  C
  O14      1.0000 0.45297  0.18709  0.65583  Biso   1.000  O
  C64      1.0000 0.31804  0.55739  0.56351  Biso   1.000  C
  H59      1.0000 0.31910  0.52813  0.47400  Biso   1.000  H
  O15      1.0000 0.42734  0.58322  0.54312  Biso   1.000  O
  C65      1.0000 0.37804  0.58883  0.60558  Biso   1.000  C
  H60      1.0000 0.31741  0.24290  0.49141  Biso   1.000  H
  H61      1.0000 0.31169  0.22849  0.42180  Biso   1.000  H
  H62      1.0000 0.31688  0.16992  0.46778  Biso   1.000  H
  C66      1.0000 0.38109  0.14326  0.66249  Biso   1.000  C
  C67      1.0000 0.48749  0.21823  0.65845  Biso   1.000  C
  O16      1.0000 0.28511  0.55086  0.56902  Biso   1.000  O
  C68      1.0000 0.34248  0.58051  0.61425  Biso   1.000  C
  H63      1.0000 0.39350  0.60450  0.63761  Biso   1.000  H
  C69      1.0000 0.36630  0.19584  0.70185  Biso   1.000  C
  H64      1.0000 0.36140  0.11183  0.65201  Biso   1.000  H
  H65      1.0000 0.40118  0.11990  0.68448  Biso   1.000  H
  H66      1.0000 0.49909  0.21330  0.69838  Biso   1.000  H
  H67      1.0000 0.50309  0.19869  0.62931  Biso   1.000  H
  H68      1.0000 0.48420  0.26433  0.64947  Biso   1.000  H
  C70      1.0000 0.32618  0.59139  0.67342  Biso   1.000  C
  C71      1.0000 0.38998  0.23120  0.73970  Biso   1.000  C
  C72      1.0000 0.32919  0.21200  0.69949  Biso   1.000  C
  C73      1.0000 0.32656  0.52895  0.70887  Biso   1.000  C
  H69      1.0000 0.34040  0.62491  0.69590  Biso   1.000  H
  H70      1.0000 0.30068  0.60701  0.66720  Biso   1.000  H
  H71      1.0000 0.41528  0.22051  0.74210  Biso   1.000  H
  C74      1.0000 0.37772  0.28160  0.77399  Biso   1.000  C
  O17      1.0000 0.30661  0.17732  0.65987  Biso   1.000  O
  C75      1.0000 0.31645  0.26017  0.73610  Biso   1.000  C
  C76      1.0000 0.35743  0.51067  0.74392  Biso   1.000  C
  C77      1.0000 0.29633  0.48866  0.70625  Biso   1.000  C
  O18      1.0000 0.40043  0.31937  0.80998  Biso   1.000  O
  C78      1.0000 0.34017  0.29606  0.77355  Biso   1.000  C
  C79      1.0000 0.27365  0.20764  0.64010  Biso   1.000  C
  H72      1.0000 0.29088  0.26883  0.73561  Biso   1.000  H
  O19      1.0000 0.38718  0.55144  0.74263  Biso   1.000  O
  C80      1.0000 0.35677  0.45466  0.77768  Biso   1.000  C
  C81      1.0000 0.29629  0.43125  0.73779  Biso   1.000  C
  H73      1.0000 0.27520  0.50060  0.68239  Biso   1.000  H
  C82      1.0000 0.43854  0.31748  0.79949  Biso   1.000  C
  C83      1.0000 0.32649  0.35149  0.80980  Biso   1.000  C
  H74      1.0000 0.25709  0.21001  0.67288  Biso   1.000  H
  H75      1.0000 0.27890  0.25141  0.62620  Biso   1.000  H
  H76      1.0000 0.26198  0.18249  0.60749  Biso   1.000  H
  C84      1.0000 0.42026  0.53064  0.77244  Biso   1.000  C
  H77      1.0000 0.37750  0.44372  0.80278  Biso   1.000  H
  C85      1.0000 0.32627  0.41407  0.77533  Biso   1.000  C
  O20      1.0000 0.26719  0.38854  0.73543  Biso   1.000  O
  H78      1.0000 0.45140  0.35023  0.82397  Biso   1.000  H
  H79      1.0000 0.44830  0.27449  0.80980  Biso   1.000  H
  H80      1.0000 0.44208  0.32629  0.75747  Biso   1.000  H
  H81      1.0000 0.30139  0.34191  0.82157  Biso   1.000  H
  H82      1.0000 0.34238  0.35632  0.84640  Biso   1.000  H
  H83      1.0000 0.41679  0.52779  0.81517  Biso   1.000  H
  H84      1.0000 0.42698  0.48803  0.75738  Biso   1.000  H
  H85      1.0000 0.43978  0.56169  0.76520  Biso   1.000  H
  C86      1.0000 0.24378  0.39047  0.68266  Biso   1.000  C
  H86      1.0000 0.22810  0.42883  0.68350  Biso   1.000  H
  H87      1.0000 0.25868  0.39231  0.64779  Biso   1.000  H
  H88      1.0000 0.22850  0.35149  0.68057  Biso   1.000  H
  C87      1.0000 0.56081  0.28871  0.52957  Biso   1.000  C
  O21      1.0000 0.54017  0.23091  0.52544  Biso   1.000  O
  H89      1.0000 0.54740  0.32329  0.50830  Biso   1.000  H
  H90      1.0000 0.58449  0.28198  0.51189  Biso   1.000  H
  H91      1.0000 0.56490  0.30080  0.57138  Biso   1.000  H
  C88      1.0000 0.55822  0.17407  0.54024  Biso   1.000  C
  C89      1.0000 0.54237  0.11705  0.51820  Biso   1.000  C
  C90      1.0000 0.59037  0.17214  0.57609  Biso   1.000  C
  C91      1.0000 0.50782  0.11782  0.47800  Biso   1.000  C
  C92      1.0000 0.55986  0.05881  0.53228  Biso   1.000  C
  C93      1.0000 0.60793  0.11420  0.58986  Biso   1.000  C
  H92      1.0000 0.60049  0.21141  0.59141  Biso   1.000  H
  C94      1.0000 0.51662  0.12479  0.41350  Biso   1.000  C
  H93      1.0000 0.49409  0.07719  0.48328  Biso   1.000  H
  H94      1.0000 0.49209  0.15429  0.48937  Biso   1.000  H
  H95      1.0000 0.54929  0.01949  0.51789  Biso   1.000  H
  C95      1.0000 0.59233  0.05688  0.56689  Biso   1.000  C
  C96      1.0000 0.64384  0.11410  0.62668  Biso   1.000  C
  C97      1.0000 0.52265  0.18568  0.38955  Biso   1.000  C
  C98      1.0000 0.51999  0.07081  0.37720  Biso   1.000  C
  O22      1.0000 0.61052  0.00039  0.58168  Biso   1.000  O
  C99      1.0000 0.67611  0.11845  0.58741  Biso   1.000  C
  H96      1.0000 0.64441  0.15129  0.65440  Biso   1.000  H
  H97      1.0000 0.64568  0.07400  0.65058  Biso   1.000  H
  H98      1.0000 0.52059  0.22293  0.41381  Biso   1.000  H
  C100     1.0000 0.53158  0.19289  0.33096  Biso   1.000  C
  O23      1.0000 0.51432  0.01204  0.40408  Biso   1.000  O
  C101     1.0000 0.52852  0.07802  0.31812  Biso   1.000  C
  C102     1.0000 0.59392  0.94123  0.56196  Biso   1.000  C
  C103     1.0000 0.69076  0.06206  0.56454  Biso   1.000  C
  C104     1.0000 0.69126  0.17770  0.57169  Biso   1.000  C
  O24      1.0000 0.53743  0.25224  0.30497  Biso   1.000  O
  C105     1.0000 0.53445  0.13911  0.29440  Biso   1.000  C
  C106     1.0000 0.52128  0.95516  0.37147  Biso   1.000  C
  H99      1.0000 0.53029  0.04082  0.29368  Biso   1.000  H
  H100     1.0000 0.59208  0.94041  0.51838  Biso   1.000  H
  H101     1.0000 0.56940  0.93790  0.57720  Biso   1.000  H
  H102     1.0000 0.60889  0.90472  0.57671  Biso   1.000  H
  C107     1.0000 0.71978  0.06414  0.52722  Biso   1.000  C
  H103     1.0000 0.68071  0.02138  0.57458  Biso   1.000  H
  O25      1.0000 0.67532  0.23221  0.59439  Biso   1.000  O
  C108     1.0000 0.72125  0.17949  0.53628  Biso   1.000  C
  C109     1.0000 0.54069  0.30636  0.34402  Biso   1.000  C
  C110     1.0000 0.54496  0.14728  0.23047  Biso   1.000  C
  H104     1.0000 0.50399  0.95260  0.33678  Biso   1.000  H
  H105     1.0000 0.51831  0.91719  0.39679  Biso   1.000  H
  H106     1.0000 0.54641  0.95628  0.35819  Biso   1.000  H
  O26      1.0000 0.73429  0.00919  0.50230  Biso   1.000  O
  C111     1.0000 0.73587  0.12305  0.51340  Biso   1.000  C
  C112     1.0000 0.68650  0.29272  0.57182  Biso   1.000  C
  H107     1.0000 0.73200  0.22002  0.52758  Biso   1.000  H
  H108     1.0000 0.54659  0.34501  0.32132  Biso   1.000  H
  H109     1.0000 0.56019  0.29819  0.37449  Biso   1.000  H
  H110     1.0000 0.51749  0.31299  0.36299  Biso   1.000  H
  C113     1.0000 0.58610  0.15197  0.22709  Biso   1.000  C
  H111     1.0000 0.53581  0.10989  0.20661  Biso   1.000  H
  H112     1.0000 0.53340  0.18689  0.21350  Biso   1.000  H
  C114     1.0000 0.71071  0.95507  0.49612  Biso   1.000  C
  C115     1.0000 0.76705  0.12672  0.47142  Biso   1.000  C
  H113     1.0000 0.68289  0.29282  0.52837  Biso   1.000  H
  H114     1.0000 0.71249  0.29978  0.58297  Biso   1.000  H
  H115     1.0000 0.67179  0.32730  0.58848  Biso   1.000  H
  C116     1.0000 0.60661  0.09108  0.21883  Biso   1.000  C
  C117     1.0000 0.60506  0.20735  0.23314  Biso   1.000  C
  H116     1.0000 0.72170  0.92252  0.47098  Biso   1.000  H
  H117     1.0000 0.68709  0.96871  0.47769  Biso   1.000  H
  H118     1.0000 0.70691  0.93649  0.53539  Biso   1.000  H
  C118     1.0000 0.75205  0.13364  0.40803  Biso   1.000  C
  H119     1.0000 0.78289  0.16421  0.48209  Biso   1.000  H
  H120     1.0000 0.78210  0.08701  0.47529  Biso   1.000  H
  C119     1.0000 0.64669  0.09412  0.21723  Biso   1.000  C
  O27      1.0000 0.59064  0.03923  0.21288  Biso   1.000  O
  H121     1.0000 0.59179  0.24663  0.23660  Biso   1.000  H
  C120     1.0000 0.64530  0.21016  0.23473  Biso   1.000  C
  C121     1.0000 0.74754  0.19444  0.38209  Biso   1.000  C
  C122     1.0000 0.74171  0.07956  0.37480  Biso   1.000  C
  H122     1.0000 0.65970  0.05538  0.20990  Biso   1.000  H
  C123     1.0000 0.66566  0.14883  0.22558  Biso   1.000  C
  O28      1.0000 0.66151  0.26143  0.24326  Biso   1.000  O
  C124     1.0000 0.73323  0.20058  0.32372  Biso   1.000  C
  O29      1.0000 0.75836  0.24600  0.41727  Biso   1.000  O
  C125     1.0000 0.72697  0.08542  0.31701  Biso   1.000  C
  H123     1.0000 0.74471  0.03782  0.39191  Biso   1.000  H
  C126     1.0000 0.70678  0.15236  0.22749  Biso   1.000  C
  C127     1.0000 0.72311  0.14607  0.29062  Biso   1.000  C
  H124     1.0000 0.73042  0.24232  0.30648  Biso   1.000  H
  C128     1.0000 0.74754  0.30810  0.39857  Biso   1.000  C
  O30      1.0000 0.71604  0.03279  0.28271  Biso   1.000  O
  H125     1.0000 0.71440  0.19410  0.21061  Biso   1.000  H
  H126     1.0000 0.71640  0.11719  0.20279  Biso   1.000  H
  H127     1.0000 0.76060  0.32000  0.36330  Biso   1.000  H
  H128     1.0000 0.75339  0.33920  0.43051  Biso   1.000  H
  H129     1.0000 0.72111  0.30839  0.38888  Biso   1.000  H
  C129     1.0000 0.71081  0.97345  0.31292  Biso   1.000  C
  H130     1.0000 0.69960  0.94181  0.28520  Biso   1.000  H
  H131     1.0000 0.69470  0.98051  0.34579  Biso   1.000  H
  H132     1.0000 0.73451  0.95710  0.32869  Biso   1.000  H
  C130     1.0000 0.43916  0.71134  0.47040  Biso   1.000  C
  O31      1.0000 0.45984  0.76909  0.47453  Biso   1.000  O
  H133     1.0000 0.45261  0.67671  0.49168  Biso   1.000  H
  H134     1.0000 0.41551  0.71802  0.48808  Biso   1.000  H
  H135     1.0000 0.43511  0.69920  0.42860  Biso   1.000  H
  C131     1.0000 0.44178  0.82593  0.45974  Biso   1.000  C
  C132     1.0000 0.40963  0.82791  0.42393  Biso   1.000  C
  C133     1.0000 0.45760  0.88300  0.48177  Biso   1.000  C
  C134     1.0000 0.39204  0.88585  0.41012  Biso   1.000  C
  H136     1.0000 0.39949  0.78863  0.40861  Biso   1.000  H
  C135     1.0000 0.44012  0.94119  0.46769  Biso   1.000  C
  C136     1.0000 0.49219  0.88218  0.52198  Biso   1.000  C
  C137     1.0000 0.35617  0.88590  0.37334  Biso   1.000  C
  C138     1.0000 0.40768  0.94312  0.43313  Biso   1.000  C
  H137     1.0000 0.45069  0.98051  0.48209  Biso   1.000  H
  C139     1.0000 0.48339  0.87521  0.58648  Biso   1.000  C
  H138     1.0000 0.50589  0.92281  0.51669  Biso   1.000  H
  H139     1.0000 0.50789  0.84571  0.51061  Biso   1.000  H
  C140     1.0000 0.32387  0.88160  0.41256  Biso   1.000  C
  H140     1.0000 0.35560  0.84871  0.34562  Biso   1.000  H
  H141     1.0000 0.35429  0.92600  0.34939  Biso   1.000  H
  O32      1.0000 0.38948  0.99966  0.41829  Biso   1.000  O
  C141     1.0000 0.47999  0.92924  0.62278  Biso   1.000  C
  C142     1.0000 0.47736  0.81432  0.61043  Biso   1.000  C
  C143     1.0000 0.30874  0.82230  0.42829  Biso   1.000  C
  C144     1.0000 0.30924  0.93794  0.43549  Biso   1.000  C
  C145     1.0000 0.40605  0.05881  0.43802  Biso   1.000  C
  O33      1.0000 0.48568  0.98796  0.59590  Biso   1.000  O
  C146     1.0000 0.47146  0.92198  0.68186  Biso   1.000  C
  H142     1.0000 0.47938  0.77712  0.58617  Biso   1.000  H
  C147     1.0000 0.46840  0.80716  0.66902  Biso   1.000  C
  O34      1.0000 0.32466  0.76784  0.40559  Biso   1.000  O
  C148     1.0000 0.27873  0.82056  0.46369  Biso   1.000  C
  C149     1.0000 0.28019  0.93586  0.47276  Biso   1.000  C
  H143     1.0000 0.31929  0.97862  0.42540  Biso   1.000  H
  H144     1.0000 0.40789  0.05964  0.48160  Biso   1.000  H
  H145     1.0000 0.43060  0.06210  0.42278  Biso   1.000  H
  H146     1.0000 0.39109  0.09533  0.42331  Biso   1.000  H
  C150     1.0000 0.47872  0.04489  0.62855  Biso   1.000  C
  H147     1.0000 0.46968  0.95923  0.70629  Biso   1.000  H
  C151     1.0000 0.46556  0.86089  0.70563  Biso   1.000  C
  O35      1.0000 0.46257  0.74781  0.69501  Biso   1.000  O
  C152     1.0000 0.31350  0.70728  0.42816  Biso   1.000  C
  H148     1.0000 0.26801  0.78002  0.47240  Biso   1.000  H
  C153     1.0000 0.26410  0.87700  0.48657  Biso   1.000  C
  O36      1.0000 0.26569  0.99086  0.49768  Biso   1.000  O
  H149     1.0000 0.49598  0.04740  0.66320  Biso   1.000  H
  H150     1.0000 0.48170  0.08281  0.60318  Biso   1.000  H
  H151     1.0000 0.45359  0.04372  0.64179  Biso   1.000  H
  C154     1.0000 0.45502  0.85277  0.76951  Biso   1.000  C
  C155     1.0000 0.45929  0.69369  0.65600  Biso   1.000  C
  H152     1.0000 0.31708  0.70723  0.47160  Biso   1.000  H
  H153     1.0000 0.28749  0.70022  0.41700  Biso   1.000  H
  H154     1.0000 0.32818  0.67270  0.41150  Biso   1.000  H
  C156     1.0000 0.23296  0.87333  0.52855  Biso   1.000  C
  C157     1.0000 0.28930  0.04493  0.50385  Biso   1.000  C
  C158     1.0000 0.41387  0.84808  0.77288  Biso   1.000  C
  H155     1.0000 0.46420  0.89011  0.79341  Biso   1.000  H
  H156     1.0000 0.46660  0.81311  0.78648  Biso   1.000  H
  H157     1.0000 0.45339  0.65499  0.67870  Biso   1.000  H
  H158     1.0000 0.43978  0.70181  0.62548  Biso   1.000  H
  H159     1.0000 0.48249  0.68701  0.63699  Biso   1.000  H
  C159     1.0000 0.24795  0.86636  0.59199  Biso   1.000  C
  H160     1.0000 0.21708  0.83584  0.51789  Biso   1.000  H
  H161     1.0000 0.21790  0.91304  0.52469  Biso   1.000  H
  H162     1.0000 0.27830  0.07753  0.52900  Biso   1.000  H
  H163     1.0000 0.31288  0.03134  0.52229  Biso   1.000  H
  H164     1.0000 0.29309  0.06351  0.46458  Biso   1.000  H
  C160     1.0000 0.39340  0.90897  0.78119  Biso   1.000  C
  C161     1.0000 0.39494  0.79265  0.76684  Biso   1.000  C
  C162     1.0000 0.25246  0.80556  0.61789  Biso   1.000  C
  C163     1.0000 0.25830  0.92048  0.62517  Biso   1.000  C
  C164     1.0000 0.35329  0.90593  0.78279  Biso   1.000  C
  O37      1.0000 0.40937  0.96082  0.78710  Biso   1.000  O
  C165     1.0000 0.35471  0.78989  0.76524  Biso   1.000  C
  H165     1.0000 0.40818  0.75342  0.76338  Biso   1.000  H
  O38      1.0000 0.24164  0.75405  0.58270  Biso   1.000  O
  C166     1.0000 0.26675  0.79942  0.67626  Biso   1.000  C
  H166     1.0000 0.25530  0.96222  0.60807  Biso   1.000  H
  C167     1.0000 0.27300  0.91463  0.68297  Biso   1.000  C
  C168     1.0000 0.33431  0.85117  0.77439  Biso   1.000  C
  H167     1.0000 0.34028  0.94462  0.79007  Biso   1.000  H
  O39      1.0000 0.33849  0.73857  0.75676  Biso   1.000  O
  C169     1.0000 0.25243  0.69195  0.60141  Biso   1.000  C
  C170     1.0000 0.27690  0.85393  0.70940  Biso   1.000  C
  H168     1.0000 0.26959  0.75773  0.69350  Biso   1.000  H
  O40      1.0000 0.28396  0.96721  0.71726  Biso   1.000  O
  C171     1.0000 0.29319  0.84769  0.77248  Biso   1.000  C
  H169     1.0000 0.23940  0.68000  0.63668  Biso   1.000  H
  H170     1.0000 0.24659  0.66080  0.56951  Biso   1.000  H
  H171     1.0000 0.27889  0.69161  0.61109  Biso   1.000  H
  C172     1.0000 0.28916  0.02655  0.68706  Biso   1.000  C
  H172     1.0000 0.28558  0.80590  0.78941  Biso   1.000  H
  H173     1.0000 0.28358  0.88281  0.79718  Biso   1.000  H
  H174     1.0000 0.30038  0.05823  0.71478  Biso   1.000  H
  H175     1.0000 0.30528  0.01954  0.65418  Biso   1.000  H
  H176     1.0000 0.26549  0.04290  0.67129  Biso   1.000  H
  O41      1.0000 0.59061  0.46080  0.71291  Biso   1.000  O
  C173     1.0000 0.60658  0.40895  0.71882  Biso   1.000  C
  C174     1.0000 0.58611  0.34805  0.72708  Biso   1.000  C
  C175     1.0000 0.64669  0.40590  0.71722  Biso   1.000  C
  C176     1.0000 0.54496  0.35274  0.73046  Biso   1.000  C
  C177     1.0000 0.60504  0.29267  0.73312  Biso   1.000  C
  H177     1.0000 0.65970  0.44459  0.70989  Biso   1.000  H
  C178     1.0000 0.66566  0.35120  0.72557  Biso   1.000  C
  C179     1.0000 0.53442  0.36092  0.79438  Biso   1.000  C
  H178     1.0000 0.53578  0.39008  0.70660  Biso   1.000  H
  H179     1.0000 0.53340  0.31308  0.71349  Biso   1.000  H
  H180     1.0000 0.59180  0.25340  0.73659  Biso   1.000  H
  C180     1.0000 0.64527  0.28987  0.73472  Biso   1.000  C
  C181     1.0000 0.70678  0.34767  0.72748  Biso   1.000  C
  C182     1.0000 0.52852  0.42201  0.81811  Biso   1.000  C
  C183     1.0000 0.53158  0.30713  0.83099  Biso   1.000  C
  O42      1.0000 0.66151  0.23855  0.74325  Biso   1.000  O
  C184     1.0000 0.72311  0.35395  0.79061  Biso   1.000  C
  H181     1.0000 0.71440  0.30593  0.71060  Biso   1.000  H
  H182     1.0000 0.71640  0.38283  0.70278  Biso   1.000  H
  C185     1.0000 0.51999  0.42921  0.87719  Biso   1.000  C
  H183     1.0000 0.53029  0.45920  0.79367  Biso   1.000  H
  O43      1.0000 0.53741  0.24779  0.80496  Biso   1.000  O
  C186     1.0000 0.52262  0.31434  0.88954  Biso   1.000  C
  C187     1.0000 0.73323  0.29944  0.82370  Biso   1.000  C
  C188     1.0000 0.72698  0.41461  0.81700  Biso   1.000  C
  O44      1.0000 0.51430  0.48793  0.90407  Biso   1.000  O
  C189     1.0000 0.51662  0.37519  0.91348  Biso   1.000  C
  C190     1.0000 0.54069  0.19366  0.84400  Biso   1.000  C
  H184     1.0000 0.52059  0.27710  0.91379  Biso   1.000  H
  C191     1.0000 0.74752  0.30559  0.88208  Biso   1.000  C
  H185     1.0000 0.73039  0.25770  0.80647  Biso   1.000  H
  O45      1.0000 0.71602  0.46723  0.78270  Biso   1.000  O
  C192     1.0000 0.74168  0.42046  0.87479  Biso   1.000  C
  C193     1.0000 0.52126  0.54486  0.87146  Biso   1.000  C
  C194     1.0000 0.50782  0.38215  0.97799  Biso   1.000  C
  H186     1.0000 0.54659  0.15502  0.82130  Biso   1.000  H
  H187     1.0000 0.56020  0.20179  0.87448  Biso   1.000  H
  H188     1.0000 0.51749  0.18699  0.86297  Biso   1.000  H
  O46      1.0000 0.75834  0.25403  0.91726  Biso   1.000  O
  C195     1.0000 0.75203  0.36634  0.90802  Biso   1.000  C
  C196     1.0000 0.71082  0.52658  0.81291  Biso   1.000  C
  H189     1.0000 0.74468  0.46220  0.89189  Biso   1.000  H
  H190     1.0000 0.50400  0.54742  0.83681  Biso   1.000  H
  H191     1.0000 0.51828  0.58283  0.89678  Biso   1.000  H
  H192     1.0000 0.54639  0.54370  0.85818  Biso   1.000  H
  H193     1.0000 0.49409  0.42283  0.98327  Biso   1.000  H
  H194     1.0000 0.49209  0.34568  0.98940  Biso   1.000  H
  C197     1.0000 0.54241  0.38297  0.01823  Biso   1.000  C
  C198     1.0000 0.74755  0.19192  0.89856  Biso   1.000  C
  C199     1.0000 0.76702  0.37330  0.97141  Biso   1.000  C
  H195     1.0000 0.69960  0.55821  0.78519  Biso   1.000  H
  H196     1.0000 0.69470  0.51952  0.84578  Biso   1.000  H
  H197     1.0000 0.73448  0.54293  0.82868  Biso   1.000  H
  C200     1.0000 0.55989  0.44121  0.03232  Biso   1.000  C
  C201     1.0000 0.55823  0.32590  0.04027  Biso   1.000  C
  H198     1.0000 0.76060  0.18002  0.86328  Biso   1.000  H
  H199     1.0000 0.75339  0.16082  0.93050  Biso   1.000  H
  H200     1.0000 0.72109  0.19158  0.88887  Biso   1.000  H
  H201     1.0000 0.78289  0.33582  0.98207  Biso   1.000  H
  H202     1.0000 0.78208  0.41301  0.97528  Biso   1.000  H
  C202     1.0000 0.73590  0.37698  0.01344  Biso   1.000  C
  H203     1.0000 0.54932  0.48053  0.01792  Biso   1.000  H
  C203     1.0000 0.59233  0.44314  0.06692  Biso   1.000  C
  O47      1.0000 0.54020  0.26912  0.02548  Biso   1.000  O
  C204     1.0000 0.59038  0.32788  0.07612  Biso   1.000  C
  C205     1.0000 0.71981  0.43584  0.02725  Biso   1.000  C
  C206     1.0000 0.72128  0.32053  0.03636  Biso   1.000  C
  O48      1.0000 0.61052  0.49964  0.08176  Biso   1.000  O
  C207     1.0000 0.60796  0.38583  0.08989  Biso   1.000  C
  C208     1.0000 0.56085  0.21132  0.02961  Biso   1.000  C
  H204     1.0000 0.60052  0.28861  0.09144  Biso   1.000  H
  C209     1.0000 0.69076  0.43792  0.06457  Biso   1.000  C
  O49      1.0000 0.73432  0.49083  0.00233  Biso   1.000  O
  C210     1.0000 0.69126  0.32232  0.07172  Biso   1.000  C
  H205     1.0000 0.73203  0.28000  0.02761  Biso   1.000  H
  C211     1.0000 0.59395  0.55879  0.06199  Biso   1.000  C
  C212     1.0000 0.64387  0.38588  0.12672  Biso   1.000  C
  H206     1.0000 0.54743  0.17669  0.00833  Biso   1.000  H
  H207     1.0000 0.58452  0.21799  0.01193  Biso   1.000  H
  H208     1.0000 0.56493  0.19923  0.07141  Biso   1.000  H
  C213     1.0000 0.67614  0.38157  0.08745  Biso   1.000  C
  H209     1.0000 0.68071  0.47860  0.07461  Biso   1.000  H
  C214     1.0000 0.71068  0.54496  0.99611  Biso   1.000  C
  O50      1.0000 0.67535  0.26781  0.09442  Biso   1.000  O
  H210     1.0000 0.59212  0.55961  0.01841  Biso   1.000  H
  H211     1.0000 0.56940  0.56213  0.07723  Biso   1.000  H
  H212     1.0000 0.60892  0.59531  0.07674  Biso   1.000  H
  H213     1.0000 0.64441  0.34873  0.15444  Biso   1.000  H
  H214     1.0000 0.64571  0.42602  0.15062  Biso   1.000  H
  H215     1.0000 0.72168  0.57751  0.97097  Biso   1.000  H
  H216     1.0000 0.68709  0.53132  0.97768  Biso   1.000  H
  H217     1.0000 0.70691  0.56353  0.03543  Biso   1.000  H
  C215     1.0000 0.68651  0.20726  0.07185  Biso   1.000  C
  H218     1.0000 0.68292  0.20721  0.02841  Biso   1.000  H
  H219     1.0000 0.71252  0.20019  0.08305  Biso   1.000  H
  H220     1.0000 0.67182  0.17272  0.08851  Biso   1.000  H
  O51      1.0000 0.40939  0.53920  0.28711  Biso   1.000  O
  C216     1.0000 0.39339  0.59105  0.28116  Biso   1.000  C
  C217     1.0000 0.35331  0.59410  0.28276  Biso   1.000  C
  C218     1.0000 0.41390  0.65195  0.27289  Biso   1.000  C
  C219     1.0000 0.33434  0.64885  0.27440  Biso   1.000  C
  H221     1.0000 0.34031  0.55541  0.29009  Biso   1.000  H
  C220     1.0000 0.39494  0.70738  0.26685  Biso   1.000  C
  C221     1.0000 0.45504  0.64730  0.26952  Biso   1.000  C
  C222     1.0000 0.29322  0.65233  0.27249  Biso   1.000  C
  C223     1.0000 0.35473  0.71013  0.26525  Biso   1.000  C
  H222     1.0000 0.40821  0.74660  0.26339  Biso   1.000  H
  C224     1.0000 0.46556  0.63913  0.20564  Biso   1.000  C
  H223     1.0000 0.46419  0.60992  0.29337  Biso   1.000  H
  H224     1.0000 0.46660  0.68692  0.28649  Biso   1.000  H
  C225     1.0000 0.27690  0.64609  0.20937  Biso   1.000  C
  H225     1.0000 0.28560  0.69412  0.28938  Biso   1.000  H
  H226     1.0000 0.28360  0.61722  0.29719  Biso   1.000  H
  O52      1.0000 0.33849  0.76145  0.25672  Biso   1.000  O
  C226     1.0000 0.47148  0.57804  0.18187  Biso   1.000  C
  C227     1.0000 0.46843  0.69291  0.16903  Biso   1.000  C
  C228     1.0000 0.27303  0.58539  0.18298  Biso   1.000  C
  C229     1.0000 0.26677  0.70060  0.17627  Biso   1.000  C
  C230     1.0000 0.48002  0.57079  0.12279  Biso   1.000  C
  H227     1.0000 0.46971  0.54080  0.20630  Biso   1.000  H
  O53      1.0000 0.46257  0.75221  0.19502  Biso   1.000  O
  C231     1.0000 0.47736  0.68571  0.11044  Biso   1.000  C
  O54      1.0000 0.28396  0.53282  0.21728  Biso   1.000  O
  C232     1.0000 0.25830  0.57954  0.12519  Biso   1.000  C
  C233     1.0000 0.25246  0.69446  0.11790  Biso   1.000  C
  H228     1.0000 0.26961  0.74230  0.19351  Biso   1.000  H
  O55      1.0000 0.48568  0.51207  0.09591  Biso   1.000  O
  C234     1.0000 0.48339  0.62481  0.08649  Biso   1.000  C
  C235     1.0000 0.45932  0.80634  0.15602  Biso   1.000  C
  H229     1.0000 0.47941  0.72290  0.08618  Biso   1.000  H
  C236     1.0000 0.28919  0.47347  0.18707  Biso   1.000  C
  H230     1.0000 0.25529  0.53780  0.10808  Biso   1.000  H
  C237     1.0000 0.24797  0.63366  0.09196  Biso   1.000  C
  O56      1.0000 0.24166  0.74597  0.08272  Biso   1.000  O
  C238     1.0000 0.47875  0.45514  0.12852  Biso   1.000  C
  C239     1.0000 0.49219  0.61785  0.02199  Biso   1.000  C
  H231     1.0000 0.45341  0.84503  0.17872  Biso   1.000  H
  H232     1.0000 0.43981  0.79821  0.12550  Biso   1.000  H
  H233     1.0000 0.48252  0.81301  0.13700  Biso   1.000  H
  H234     1.0000 0.30040  0.44179  0.21479  Biso   1.000  H
  H235     1.0000 0.30530  0.48053  0.15419  Biso   1.000  H
  H236     1.0000 0.26549  0.45712  0.17130  Biso   1.000  H
  C240     1.0000 0.23296  0.62670  0.02856  Biso   1.000  C
  C241     1.0000 0.25246  0.80808  0.10142  Biso   1.000  C
  H237     1.0000 0.49601  0.45262  0.16321  Biso   1.000  H
  H238     1.0000 0.48170  0.41722  0.10320  Biso   1.000  H
  H239     1.0000 0.45362  0.45630  0.14180  Biso   1.000  H
  C242     1.0000 0.45760  0.61707  0.98174  Biso   1.000  C
  H240     1.0000 0.50592  0.57722  0.01670  Biso   1.000  H
  H241     1.0000 0.50791  0.65432  0.01062  Biso   1.000  H
  H242     1.0000 0.21711  0.66423  0.01790  Biso   1.000  H
  H243     1.0000 0.21790  0.58699  0.02470  Biso   1.000  H
  C243     1.0000 0.26410  0.62302  0.98654  Biso   1.000  C
  H244     1.0000 0.23940  0.82002  0.13669  Biso   1.000  H
  H245     1.0000 0.24661  0.83923  0.06948  Biso   1.000  H
  H246     1.0000 0.27891  0.80842  0.11110  Biso   1.000  H
  C244     1.0000 0.44011  0.55884  0.96766  Biso   1.000  C
  C245     1.0000 0.44175  0.67410  0.95971  Biso   1.000  C
  C246     1.0000 0.28019  0.56416  0.97272  Biso   1.000  C
  C247     1.0000 0.27873  0.67952  0.96366  Biso   1.000  C
  C248     1.0000 0.40765  0.55690  0.93310  Biso   1.000  C
  H247     1.0000 0.45069  0.51952  0.98205  Biso   1.000  H
  C249     1.0000 0.40960  0.67216  0.92386  Biso   1.000  C
  O57      1.0000 0.45980  0.73093  0.97450  Biso   1.000  O
  O58      1.0000 0.26568  0.50917  0.99765  Biso   1.000  O
  C250     1.0000 0.30921  0.56208  0.93541  Biso   1.000  C
  H248     1.0000 0.26798  0.72000  0.97237  Biso   1.000  H
  C251     1.0000 0.30871  0.67773  0.92826  Biso   1.000  C
  C252     1.0000 0.39204  0.61417  0.91009  Biso   1.000  C
  O59      1.0000 0.38945  0.50041  0.91826  Biso   1.000  O
  H249     1.0000 0.39949  0.71139  0.90858  Biso   1.000  H
  C253     1.0000 0.43916  0.78868  0.97037  Biso   1.000  C
  C254     1.0000 0.28929  0.45509  0.00386  Biso   1.000  C
  C255     1.0000 0.32387  0.61843  0.91253  Biso   1.000  C
  H250     1.0000 0.31926  0.52140  0.92537  Biso   1.000  H
  O60      1.0000 0.32466  0.73219  0.90556  Biso   1.000  O
  C256     1.0000 0.35614  0.61412  0.87326  Biso   1.000  C
  C257     1.0000 0.40605  0.44126  0.93798  Biso   1.000  C
  H251     1.0000 0.45258  0.82331  0.99165  Biso   1.000  H
  H252     1.0000 0.41548  0.78201  0.98805  Biso   1.000  H
  H253     1.0000 0.43508  0.80082  0.92857  Biso   1.000  H
  H254     1.0000 0.27830  0.42249  0.02901  Biso   1.000  H
  H255     1.0000 0.31291  0.46873  0.02230  Biso   1.000  H
  H256     1.0000 0.29309  0.43652  0.96455  Biso   1.000  H
  C258     1.0000 0.31347  0.79274  0.92812  Biso   1.000  C
  H257     1.0000 0.35557  0.65132  0.84554  Biso   1.000  H
  H258     1.0000 0.35429  0.57403  0.84936  Biso   1.000  H
  H259     1.0000 0.40789  0.44039  0.98156  Biso   1.000  H
  H260     1.0000 0.43057  0.43792  0.92275  Biso   1.000  H
  H261     1.0000 0.39109  0.40469  0.92324  Biso   1.000  H
  H262     1.0000 0.31708  0.79279  0.97157  Biso   1.000  H
  H263     1.0000 0.28749  0.79981  0.91697  Biso   1.000  H
  H264     1.0000 0.32818  0.82733  0.91146  Biso   1.000  H
  C259     1.0000 0.56144  0.81746  0.70052  Biso   1.000  C
  O61      1.0000 0.59955  0.81940  0.68999  Biso   1.000  O
  H265     1.0000 0.54861  0.85021  0.67599  Biso   1.000  H
  H266     1.0000 0.55171  0.77451  0.69021  Biso   1.000  H
  H267     1.0000 0.55790  0.82631  0.74250  Biso   1.000  H
  C260     1.0000 0.62226  0.78157  0.72602  Biso   1.000  C
  C261     1.0000 0.61000  0.73122  0.76031  Biso   1.000  C
  C262     1.0000 0.65981  0.79603  0.72642  Biso   1.000  C
  C263     1.0000 0.63367  0.69582  0.79816  Biso   1.000  C
  H268     1.0000 0.58470  0.72053  0.75787  Biso   1.000  H
  C264     1.0000 0.68353  0.76015  0.76391  Biso   1.000  C
  C265     1.0000 0.67349  0.85151  0.69021  Biso   1.000  C
  C266     1.0000 0.61888  0.64329  0.83752  Biso   1.000  C
  C267     1.0000 0.67082  0.71202  0.80051  Biso   1.000  C
  H269     1.0000 0.70910  0.76880  0.76440  Biso   1.000  H
  H270     1.0000 0.69859  0.84193  0.67839  Biso   1.000  H
  H271     1.0000 0.65760  0.85630  0.65361  Biso   1.000  H
  C268     1.0000 0.67370  0.91410  0.72464  Biso   1.000  C
  C269     1.0000 0.60478  0.67187  0.89354  Biso   1.000  C
  H272     1.0000 0.63858  0.61180  0.84800  Biso   1.000  H
  H273     1.0000 0.59880  0.61993  0.81548  Biso   1.000  H
  O62      1.0000 0.69337  0.67734  0.84010  Biso   1.000  O
  C270     1.0000 0.64321  0.95468  0.72233  Biso   1.000  C
  C271     1.0000 0.70369  0.93122  0.76218  Biso   1.000  C
  C272     1.0000 0.56898  0.69495  0.89531  Biso   1.000  C
  C273     1.0000 0.62791  0.67932  0.94409  Biso   1.000  C
  C274     1.0000 0.72633  0.70762  0.85986  Biso   1.000  C
  H274     1.0000 0.62250  0.94370  0.69718  Biso   1.000  H
  C275     1.0000 0.64255  0.01069  0.75609  Biso   1.000  C
  O63      1.0000 0.73282  0.88851  0.76458  Biso   1.000  O
  C276     1.0000 0.70367  0.98868  0.79372  Biso   1.000  C
  O64      1.0000 0.54701  0.68706  0.84414  Biso   1.000  O
  C277     1.0000 0.55681  0.72353  0.94658  Biso   1.000  C
  H275     1.0000 0.65238  0.66399  0.94378  Biso   1.000  H
  C278     1.0000 0.61592  0.70868  0.99513  Biso   1.000  C
  H276     1.0000 0.74289  0.71004  0.82708  Biso   1.000  H
  H277     1.0000 0.72110  0.75144  0.87377  Biso   1.000  H
  H278     1.0000 0.73800  0.68252  0.89247  Biso   1.000  H
  O65      1.0000 0.61280  0.05146  0.75733  Biso   1.000  O
  C279     1.0000 0.67342  0.02897  0.79110  Biso   1.000  C
  C280     1.0000 0.75620  0.89045  0.81731  Biso   1.000  C
  H279     1.0000 0.72480  0.00063  0.81757  Biso   1.000  H
  C281     1.0000 0.51249  0.71826  0.84152  Biso   1.000  C
  C282     1.0000 0.58004  0.73088  0.99718  Biso   1.000  C
  H280     1.0000 0.53217  0.73843  0.94707  Biso   1.000  H
  O66      1.0000 0.63789  0.71695  0.04644  Biso   1.000  O
  C283     1.0000 0.57972  0.03062  0.72757  Biso   1.000  C
  C284     1.0000 0.67380  0.09141  0.82655  Biso   1.000  C
  H281     1.0000 0.77190  0.92880  0.81651  Biso   1.000  H
  H282     1.0000 0.74130  0.89233  0.85218  Biso   1.000  H
  H283     1.0000 0.77150  0.85151  0.81939  Biso   1.000  H
  H284     1.0000 0.50089  0.71333  0.80158  Biso   1.000  H
  H285     1.0000 0.49689  0.69872  0.87070  Biso   1.000  H
  H286     1.0000 0.51578  0.76430  0.85049  Biso   1.000  H
  C285     1.0000 0.56687  0.76305  0.05231  Biso   1.000  C
  C286     1.0000 0.67585  0.71439  0.04098  Biso   1.000  C
  H287     1.0000 0.57300  0.98800  0.74259  Biso   1.000  H
  H288     1.0000 0.58319  0.02781  0.68479  Biso   1.000  H
  H289     1.0000 0.56020  0.06172  0.73477  Biso   1.000  H
  C287     1.0000 0.65750  0.08053  0.88572  Biso   1.000  C
  H290     1.0000 0.65960  0.12493  0.80407  Biso   1.000  H
  H291     1.0000 0.69930  0.10704  0.83277  Biso   1.000  H
  C288     1.0000 0.57767  0.83395  0.05573  Biso   1.000  C
  H292     1.0000 0.53993  0.75942  0.05244  Biso   1.000  H
  H293     1.0000 0.57743  0.74031  0.08785  Biso   1.000  H
  H294     1.0000 0.68263  0.74293  0.00864  Biso   1.000  H
  H295     1.0000 0.68832  0.72851  0.07821  Biso   1.000  H
  H296     1.0000 0.68312  0.66989  0.03223  Biso   1.000  H
  C289     1.0000 0.68194  0.05736  0.93649  Biso   1.000  C
  C290     1.0000 0.62194  0.08885  0.89443  Biso   1.000  C
  C291     1.0000 0.55829  0.88048  0.02219  Biso   1.000  C
  C292     1.0000 0.60792  0.85383  0.09096  Biso   1.000  C
  C293     1.0000 0.66544  0.04329  0.99367  Biso   1.000  C
  O67      1.0000 0.71489  0.05088  0.93099  Biso   1.000  O
  C294     1.0000 0.60556  0.07487  0.95124  Biso   1.000  C
  H297     1.0000 0.60648  0.10452  0.86240  Biso   1.000  H
  O68      1.0000 0.52821  0.85828  0.98865  Biso   1.000  O
  C295     1.0000 0.56912  0.94467  0.02401  Biso   1.000  C
  H298     1.0000 0.62101  0.82293  0.11494  Biso   1.000  H
  C296     1.0000 0.61944  0.91787  0.09202  Biso   1.000  C
  C297     1.0000 0.62989  0.05103  0.00180  Biso   1.000  C
  H299     1.0000 0.68090  0.02810  0.02601  Biso   1.000  H
  O69      1.0000 0.57267  0.08319  0.95689  Biso   1.000  O
  C298     1.0000 0.51125  0.90283  0.94805  Biso   1.000  C
  C299     1.0000 0.59986  0.96430  0.05857  Biso   1.000  C
  H300     1.0000 0.55541  0.97582  0.00131  Biso   1.000  H
  O70      1.0000 0.65010  0.93911  0.12414  Biso   1.000  O
  C300     1.0000 0.61216  0.03463  0.05884  Biso   1.000  C
  H301     1.0000 0.49288  0.88024  0.92250  Biso   1.000  H
  H302     1.0000 0.49939  0.93712  0.96999  Biso   1.000  H
  H303     1.0000 0.52979  0.92184  0.92348  Biso   1.000  H
  C301     1.0000 0.66440  0.89881  0.16967  Biso   1.000  C
  H304     1.0000 0.62981  0.04213  0.09291  Biso   1.000  H
  H305     1.0000 0.59072  0.06312  0.06355  Biso   1.000  H
  H306     1.0000 0.67212  0.85761  0.15275  Biso   1.000  H
  H307     1.0000 0.68561  0.91990  0.18993  Biso   1.000  H
  H308     1.0000 0.64560  0.89083  0.19824  Biso   1.000  H
  C302     1.0000 0.43853  0.18254  0.29950  Biso   1.000  C
  O71      1.0000 0.40046  0.18065  0.30999  Biso   1.000  O
  H309     1.0000 0.45140  0.14979  0.32398  Biso   1.000  H
  H310     1.0000 0.44830  0.22549  0.30981  Biso   1.000  H
  H311     1.0000 0.44211  0.17369  0.25748  Biso   1.000  H
  C303     1.0000 0.37774  0.21843  0.27401  Biso   1.000  C
  C304     1.0000 0.34020  0.20397  0.27356  Biso   1.000  C
  C305     1.0000 0.39001  0.26883  0.23971  Biso   1.000  C
  C306     1.0000 0.31647  0.23985  0.23611  Biso   1.000  C
  C307     1.0000 0.32651  0.14849  0.30981  Biso   1.000  C
  C308     1.0000 0.36630  0.30418  0.20182  Biso   1.000  C
  H312     1.0000 0.41531  0.27952  0.24211  Biso   1.000  H
  C309     1.0000 0.32919  0.28803  0.19951  Biso   1.000  C
  H313     1.0000 0.29091  0.23120  0.23558  Biso   1.000  H
  H314     1.0000 0.30139  0.15811  0.32158  Biso   1.000  H
  H315     1.0000 0.34241  0.14370  0.34642  Biso   1.000  H
  C310     1.0000 0.32627  0.08595  0.27534  Biso   1.000  C
  C311     1.0000 0.38109  0.35671  0.16250  Biso   1.000  C
  O72      1.0000 0.30660  0.32271  0.15988  Biso   1.000  O
  C312     1.0000 0.35679  0.04537  0.27769  Biso   1.000  C
  C313     1.0000 0.29631  0.06878  0.23780  Biso   1.000  C
  C314     1.0000 0.39522  0.32813  0.10648  Biso   1.000  C
  H316     1.0000 0.36139  0.38820  0.15202  Biso   1.000  H
  H317     1.0000 0.40121  0.38012  0.18449  Biso   1.000  H
  C315     1.0000 0.27365  0.29238  0.14011  Biso   1.000  C
  H318     1.0000 0.37750  0.05630  0.30279  Biso   1.000  H
  C316     1.0000 0.35743  0.98936  0.24393  Biso   1.000  C
  O73      1.0000 0.26719  0.11149  0.23545  Biso   1.000  O
  C317     1.0000 0.29633  0.01137  0.20626  Biso   1.000  C
  C318     1.0000 0.37210  0.32068  0.05588  Biso   1.000  C
  C319     1.0000 0.43103  0.30510  0.10466  Biso   1.000  C
  H319     1.0000 0.25709  0.29001  0.17290  Biso   1.000  H
  H320     1.0000 0.27890  0.24861  0.12621  Biso   1.000  H
  H321     1.0000 0.26201  0.31748  0.10751  Biso   1.000  H
  O74      1.0000 0.38720  0.94859  0.24264  Biso   1.000  O
  C320     1.0000 0.32659  0.97103  0.20888  Biso   1.000  C
  C321     1.0000 0.24378  0.10955  0.18267  Biso   1.000  C
  H322     1.0000 0.27520  0.99942  0.18240  Biso   1.000  H
  H323     1.0000 0.34760  0.33601  0.05620  Biso   1.000  H
  C322     1.0000 0.38406  0.29137  0.00484  Biso   1.000  C
  O75      1.0000 0.45299  0.31294  0.15584  Biso   1.000  O
  C323     1.0000 0.44317  0.27647  0.05340  Biso   1.000  C
  C324     1.0000 0.42028  0.96938  0.27241  Biso   1.000  C
  C325     1.0000 0.32618  0.90859  0.17343  Biso   1.000  C
  H324     1.0000 0.22810  0.07120  0.18351  Biso   1.000  H
  H325     1.0000 0.25871  0.10771  0.14780  Biso   1.000  H
  H326     1.0000 0.22850  0.14849  0.18058  Biso   1.000  H
  C326     1.0000 0.41996  0.26917  0.00280  Biso   1.000  C
  O76      1.0000 0.36209  0.28305  0.95353  Biso   1.000  O
  C327     1.0000 0.48751  0.28174  0.15846  Biso   1.000  C
  H327     1.0000 0.46780  0.26162  0.05291  Biso   1.000  H
  H328     1.0000 0.42700  0.01200  0.25739  Biso   1.000  H
  H329     1.0000 0.41679  0.97219  0.31519  Biso   1.000  H
  H330     1.0000 0.43981  0.93828  0.26521  Biso   1.000  H
  C328     1.0000 0.34251  0.91947  0.11426  Biso   1.000  C
  H331     1.0000 0.34040  0.87511  0.19591  Biso   1.000  H
  H332     1.0000 0.30071  0.89301  0.16721  Biso   1.000  H
  C329     1.0000 0.43311  0.23695  0.94767  Biso   1.000  C
  C330     1.0000 0.32415  0.28566  0.95900  Biso   1.000  C
  H333     1.0000 0.49911  0.28672  0.19840  Biso   1.000  H
  H334     1.0000 0.50312  0.30133  0.12932  Biso   1.000  H
  H335     1.0000 0.48419  0.23570  0.14949  Biso   1.000  H
  C331     1.0000 0.31804  0.94264  0.06353  Biso   1.000  C
  C332     1.0000 0.37804  0.91120  0.10560  Biso   1.000  C
  C333     1.0000 0.42233  0.16609  0.94425  Biso   1.000  C
  H336     1.0000 0.46008  0.24063  0.94754  Biso   1.000  H
  H337     1.0000 0.42258  0.25969  0.91217  Biso   1.000  H
  H338     1.0000 0.31738  0.25712  0.99134  Biso   1.000  H
  H339     1.0000 0.31168  0.27149  0.92177  Biso   1.000  H
  H340     1.0000 0.31688  0.33011  0.96775  Biso   1.000  H
  O77      1.0000 0.28511  0.94912  0.06903  Biso   1.000  O
  C334     1.0000 0.33456  0.95671  0.00631  Biso   1.000  C
  H341     1.0000 0.39349  0.89548  0.13758  Biso   1.000  H
  C335     1.0000 0.39444  0.92513  0.04878  Biso   1.000  C
  C336     1.0000 0.44172  0.11956  0.97779  Biso   1.000  C
  C337     1.0000 0.39206  0.14622  0.90902  Biso   1.000  C
  C338     1.0000 0.37009  0.94902  0.99818  Biso   1.000  C
  H342     1.0000 0.31907  0.97190  0.97397  Biso   1.000  H
  O78      1.0000 0.42734  0.91681  0.04314  Biso   1.000  O
  O79      1.0000 0.47180  0.14172  0.01133  Biso   1.000  O
  C339     1.0000 0.43085  0.05533  0.97597  Biso   1.000  C
  H343     1.0000 0.37897  0.17712  0.88508  Biso   1.000  H
  C340     1.0000 0.38057  0.08213  0.90795  Biso   1.000  C
  C341     1.0000 0.38785  0.96542  0.94114  Biso   1.000  C
  C342     1.0000 0.48875  0.09722  0.05198  Biso   1.000  C
  C343     1.0000 0.40014  0.03574  0.94141  Biso   1.000  C
  H344     1.0000 0.44459  0.02418  0.99867  Biso   1.000  H
  O80      1.0000 0.34990  0.06094  0.87584  Biso   1.000  O
  H345     1.0000 0.37017  0.95792  0.90707  Biso   1.000  H
  H346     1.0000 0.40928  0.93688  0.93647  Biso   1.000  H
  H347     1.0000 0.50709  0.11981  0.07752  Biso   1.000  H
  H348     1.0000 0.50062  0.06288  0.02999  Biso   1.000  H
  H349     1.0000 0.47021  0.07821  0.07650  Biso   1.000  H
  C344     1.0000 0.33558  0.10119  0.83030  Biso   1.000  C
  H350     1.0000 0.32788  0.14239  0.84727  Biso   1.000  H
  H351     1.0000 0.31437  0.08010  0.81004  Biso   1.000  H
  H352     1.0000 0.35438  0.10921  0.80174  Biso   1.000  H
  C345     1.0000 0.73247  0.63129  0.55814  Biso   1.000  C
  C346     1.0000 0.76042  0.63391  0.51101  Biso   1.000  C
  C347     1.0000 0.75087  0.62607  0.61958  Biso   1.000  C
  H353     1.0000 0.71621  0.59362  0.55081  Biso   1.000  H
  H354     1.0000 0.71721  0.67081  0.55578  Biso   1.000  H
  C348     1.0000 0.77499  0.69195  0.49177  Biso   1.000  C
  C349     1.0000 0.77348  0.57688  0.48724  Biso   1.000  C
  C350     1.0000 0.76108  0.68068  0.65174  Biso   1.000  C
  C351     1.0000 0.75860  0.56576  0.64516  Biso   1.000  C
  O81      1.0000 0.76221  0.74800  0.51749  Biso   1.000  O
  C352     1.0000 0.80075  0.69282  0.44890  Biso   1.000  C
  C353     1.0000 0.80078  0.57727  0.44641  Biso   1.000  C
  H355     1.0000 0.76360  0.53669  0.49919  Biso   1.000  H
  H356     1.0000 0.75568  0.72213  0.63517  Biso   1.000  H
  C354     1.0000 0.77880  0.67681  0.70718  Biso   1.000  C
  O82      1.0000 0.74817  0.51274  0.61122  Biso   1.000  O
  C355     1.0000 0.77532  0.56189  0.70189  Biso   1.000  C
  C356     1.0000 0.78589  0.80135  0.51989  Biso   1.000  C
  H357     1.0000 0.80951  0.73320  0.43517  Biso   1.000  H
  C357     1.0000 0.81420  0.63570  0.42531  Biso   1.000  C
  O83      1.0000 0.81531  0.52140  0.42398  Biso   1.000  O
  O84      1.0000 0.79040  0.73011  0.74010  Biso   1.000  O
  C358     1.0000 0.78554  0.61683  0.73348  Biso   1.000  C
  C359     1.0000 0.76710  0.45364  0.62411  Biso   1.000  C
  H358     1.0000 0.77978  0.52063  0.71931  Biso   1.000  H
  H359     1.0000 0.78750  0.81964  0.48000  Biso   1.000  H
  H360     1.0000 0.77650  0.83420  0.54650  Biso   1.000  H
  H361     1.0000 0.81030  0.78752  0.53491  Biso   1.000  H
  C360     1.0000 0.84347  0.63753  0.38004  Biso   1.000  C
  C361     1.0000 0.81035  0.46404  0.45765  Biso   1.000  C
  C362     1.0000 0.79552  0.78830  0.70811  Biso   1.000  C
  C363     1.0000 0.80539  0.61151  0.79416  Biso   1.000  C
  H362     1.0000 0.76080  0.42201  0.59279  Biso   1.000  H
  H363     1.0000 0.79360  0.46152  0.62580  Biso   1.000  H
  H364     1.0000 0.75991  0.43681  0.66240  Biso   1.000  H
  C364     1.0000 0.88129  0.63400  0.41083  Biso   1.000  C
  H365     1.0000 0.84000  0.60063  0.35228  Biso   1.000  H
  H366     1.0000 0.84109  0.67802  0.35668  Biso   1.000  H
  H367     1.0000 0.82589  0.42960  0.44290  Biso   1.000  H
  H368     1.0000 0.81720  0.47241  0.49959  Biso   1.000  H
  H369     1.0000 0.78460  0.45069  0.45370  Biso   1.000  H
  H370     1.0000 0.80839  0.77881  0.67209  Biso   1.000  H
  H371     1.0000 0.77159  0.80759  0.69718  Biso   1.000  H
  H372     1.0000 0.81009  0.81862  0.73299  Biso   1.000  H
  C365     1.0000 0.84628  0.61132  0.78856  Biso   1.000  C
  H373     1.0000 0.79789  0.57112  0.81380  Biso   1.000  H
  H374     1.0000 0.79850  0.64832  0.81917  Biso   1.000  H
  C366     1.0000 0.89964  0.68953  0.43171  Biso   1.000  C
  C367     1.0000 0.89734  0.57403  0.42207  Biso   1.000  C
  C368     1.0000 0.86640  0.66443  0.78741  Biso   1.000  C
  C369     1.0000 0.86439  0.54752  0.78092  Biso   1.000  C
  O85      1.0000 0.88230  0.74728  0.41954  Biso   1.000  O
  C370     1.0000 0.93353  0.68401  0.46187  Biso   1.000  C
  H375     1.0000 0.88519  0.53601  0.40799  Biso   1.000  H
  C371     1.0000 0.93083  0.56875  0.45352  Biso   1.000  C
  C372     1.0000 0.90567  0.66365  0.77821  Biso   1.000  C
  H376     1.0000 0.85478  0.70501  0.79278  Biso   1.000  H
  C373     1.0000 0.90414  0.54704  0.77493  Biso   1.000  C
  O86      1.0000 0.84676  0.49785  0.78137  Biso   1.000  O
  C374     1.0000 0.90059  0.80479  0.43904  Biso   1.000  C
  C375     1.0000 0.94970  0.62394  0.47325  Biso   1.000  C
  H377     1.0000 0.94601  0.72203  0.47511  Biso   1.000  H
  O87      1.0000 0.94718  0.50965  0.46623  Biso   1.000  O
  C376     1.0000 0.92427  0.59937  0.77213  Biso   1.000  C
  O88      1.0000 0.92296  0.71395  0.77497  Biso   1.000  O
  H378     1.0000 0.91609  0.50631  0.77288  Biso   1.000  H
  H379     1.0000 0.92400  0.80832  0.41989  Biso   1.000  H
  H380     1.0000 0.88531  0.84242  0.42838  Biso   1.000  H
  H381     1.0000 0.90510  0.80334  0.48231  Biso   1.000  H
  C377     1.0000 0.98648  0.61881  0.50745  Biso   1.000  C
  C378     1.0000 0.92350  0.45514  0.46720  Biso   1.000  C
  C379     1.0000 0.96468  0.60063  0.76191  Biso   1.000  C
  C380     1.0000 0.98194  0.61499  0.57342  Biso   1.000  C
  H382     1.0000 0.99949  0.57973  0.49430  Biso   1.000  H
  H383     1.0000 0.00160  0.65703  0.49861  Biso   1.000  H
  H384     1.0000 0.91361  0.44609  0.42691  Biso   1.000  H
  H385     1.0000 0.93730  0.41751  0.48249  Biso   1.000  H
  H386     1.0000 0.90330  0.46433  0.49301  Biso   1.000  H
  C381     1.0000 0.97117  0.60590  0.69603  Biso   1.000  C
  H387     1.0000 0.97621  0.63792  0.78319  Biso   1.000  H
  H388     1.0000 0.97630  0.56063  0.77808  Biso   1.000  H
  C382     1.0000 0.97636  0.55555  0.60039  Biso   1.000  C
  C383     1.0000 0.98196  0.67052  0.60887  Biso   1.000  C
  C384     1.0000 0.97054  0.55062  0.66054  Biso   1.000  C
  C385     1.0000 0.97714  0.66568  0.66955  Biso   1.000  C
  H389     1.0000 0.97660  0.51729  0.57697  Biso   1.000  H
  O89      1.0000 0.98665  0.72813  0.57968  Biso   1.000  O
  O90      1.0000 0.96482  0.49287  0.68910  Biso   1.000  O
  H390     1.0000 0.97789  0.70360  0.69328  Biso   1.000  H
  C386     1.0000 0.98183  0.78597  0.61247  Biso   1.000  C
  C387     1.0000 0.95637  0.43874  0.65267  Biso   1.000  C
  H391     1.0000 0.98309  0.82331  0.58577  Biso   1.000  H
  H392     1.0000 0.95790  0.78510  0.63010  Biso   1.000  H
  H393     1.0000 0.00118  0.78941  0.64401  Biso   1.000  H
  H394     1.0000 0.93590  0.44943  0.62460  Biso   1.000  H
  H395     1.0000 0.97780  0.42699  0.63059  Biso   1.000  H
  H396     1.0000 0.94949  0.40222  0.67751  Biso   1.000  H
  C388     1.0000 0.26754  0.36871  0.44184  Biso   1.000  C
  C389     1.0000 0.24913  0.37393  0.38040  Biso   1.000  C
  C390     1.0000 0.23959  0.36614  0.48897  Biso   1.000  C
  H397     1.0000 0.28380  0.40638  0.44921  Biso   1.000  H
  H398     1.0000 0.28279  0.32919  0.44419  Biso   1.000  H
  C391     1.0000 0.23893  0.31932  0.34824  Biso   1.000  C
  C392     1.0000 0.24138  0.43429  0.35481  Biso   1.000  C
  C393     1.0000 0.22498  0.30805  0.50821  Biso   1.000  C
  C394     1.0000 0.22650  0.42312  0.51274  Biso   1.000  C
  C395     1.0000 0.22121  0.32319  0.29284  Biso   1.000  C
  H399     1.0000 0.24429  0.27792  0.36481  Biso   1.000  H
  C396     1.0000 0.22465  0.43816  0.29813  Biso   1.000  C
  O91      1.0000 0.25183  0.48726  0.38875  Biso   1.000  O
  O92      1.0000 0.23780  0.25200  0.48249  Biso   1.000  O
  C397     1.0000 0.19925  0.30718  0.55108  Biso   1.000  C
  C398     1.0000 0.19922  0.42278  0.55356  Biso   1.000  C
  H400     1.0000 0.23640  0.46331  0.50079  Biso   1.000  H
  O93      1.0000 0.20961  0.26994  0.25988  Biso   1.000  O
  C399     1.0000 0.21447  0.38322  0.26650  Biso   1.000  C
  H401     1.0000 0.22019  0.47942  0.28071  Biso   1.000  H
  C400     1.0000 0.23291  0.54636  0.37591  Biso   1.000  C
  C401     1.0000 0.21411  0.19869  0.48009  Biso   1.000  C
  H402     1.0000 0.19050  0.26680  0.56480  Biso   1.000  H
  C402     1.0000 0.18577  0.36430  0.57466  Biso   1.000  C
  O94      1.0000 0.18469  0.47860  0.57600  Biso   1.000  O
  C403     1.0000 0.20446  0.21170  0.29186  Biso   1.000  C
  C404     1.0000 0.19461  0.38849  0.20581  Biso   1.000  C
  H403     1.0000 0.23920  0.57799  0.40719  Biso   1.000  H
  H404     1.0000 0.20640  0.53852  0.37418  Biso   1.000  H
  H405     1.0000 0.24010  0.56319  0.33758  Biso   1.000  H
  H406     1.0000 0.21250  0.18041  0.51998  Biso   1.000  H
  H407     1.0000 0.22351  0.16580  0.45348  Biso   1.000  H
  H408     1.0000 0.18970  0.21253  0.46507  Biso   1.000  H
  C405     1.0000 0.15653  0.36252  0.61993  Biso   1.000  C
  C406     1.0000 0.18965  0.53596  0.54232  Biso   1.000  C
  H409     1.0000 0.19159  0.22119  0.32789  Biso   1.000  H
  H410     1.0000 0.22839  0.19241  0.30279  Biso   1.000  H
  H411     1.0000 0.18989  0.18143  0.26699  Biso   1.000  H
  C407     1.0000 0.15373  0.38873  0.21146  Biso   1.000  C
  H412     1.0000 0.20209  0.42892  0.18618  Biso   1.000  H
  H413     1.0000 0.20151  0.35173  0.18080  Biso   1.000  H
  C408     1.0000 0.11869  0.36600  0.58915  Biso   1.000  C
  H414     1.0000 0.15998  0.39942  0.64770  Biso   1.000  H
  H415     1.0000 0.15888  0.32198  0.64330  Biso   1.000  H
  H416     1.0000 0.17408  0.57040  0.55707  Biso   1.000  H
  H417     1.0000 0.18280  0.52759  0.50039  Biso   1.000  H
  H418     1.0000 0.21538  0.54931  0.54628  Biso   1.000  H
  C409     1.0000 0.13360  0.33562  0.21257  Biso   1.000  C
  C410     1.0000 0.13558  0.45253  0.21905  Biso   1.000  C
  C411     1.0000 0.10036  0.31047  0.56827  Biso   1.000  C
  C412     1.0000 0.10266  0.42597  0.57795  Biso   1.000  C
  C413     1.0000 0.09434  0.33635  0.22181  Biso   1.000  C
  H419     1.0000 0.14519  0.29499  0.20719  Biso   1.000  H
  C414     1.0000 0.09583  0.45296  0.22505  Biso   1.000  C
  O95      1.0000 0.15324  0.50215  0.21861  Biso   1.000  O
  O96      1.0000 0.11770  0.25272  0.58044  Biso   1.000  O
  C415     1.0000 0.06645  0.31603  0.53810  Biso   1.000  C
  H420     1.0000 0.11478  0.46399  0.59199  Biso   1.000  H
  C416     1.0000 0.06914  0.43129  0.54650  Biso   1.000  C
  C417     1.0000 0.07571  0.40068  0.22785  Biso   1.000  C
  O97      1.0000 0.07704  0.28605  0.22501  Biso   1.000  O
  H421     1.0000 0.08389  0.49369  0.22709  Biso   1.000  H
  C418     1.0000 0.09939  0.19521  0.56094  Biso   1.000  C
  C419     1.0000 0.05030  0.37611  0.52673  Biso   1.000  C
  H422     1.0000 0.05399  0.27802  0.52491  Biso   1.000  H
  O98      1.0000 0.05282  0.49035  0.53375  Biso   1.000  O
  C420     1.0000 0.03530  0.39942  0.23807  Biso   1.000  C
  H423     1.0000 0.07600  0.19168  0.58008  Biso   1.000  H
  H424     1.0000 0.11469  0.15758  0.57160  Biso   1.000  H
  H425     1.0000 0.09488  0.19671  0.51771  Biso   1.000  H
  C421     1.0000 0.01350  0.38119  0.49252  Biso   1.000  C
  C422     1.0000 0.07651  0.54486  0.53277  Biso   1.000  C
  C423     1.0000 0.02884  0.39410  0.30395  Biso   1.000  C
  H426     1.0000 0.02379  0.36213  0.21679  Biso   1.000  H
  H427     1.0000 0.02371  0.43942  0.22190  Biso   1.000  H
  C424     1.0000 0.01804  0.38505  0.42656  Biso   1.000  C
  H428     1.0000 0.00048  0.42031  0.50567  Biso   1.000  H
  H429     1.0000 0.99838  0.34302  0.50141  Biso   1.000  H
  H430     1.0000 0.08640  0.55391  0.57311  Biso   1.000  H
  H431     1.0000 0.06268  0.58249  0.51749  Biso   1.000  H
  H432     1.0000 0.09671  0.53572  0.50701  Biso   1.000  H
  C425     1.0000 0.02947  0.44938  0.33949  Biso   1.000  C
  C426     1.0000 0.02286  0.33437  0.33042  Biso   1.000  C
  C427     1.0000 0.02362  0.44445  0.39959  Biso   1.000  C
  C428     1.0000 0.01802  0.32953  0.39111  Biso   1.000  C
  O99      1.0000 0.03516  0.50713  0.31088  Biso   1.000  O
  H433     1.0000 0.02209  0.29640  0.30670  Biso   1.000  H
  H434     1.0000 0.02340  0.48271  0.42300  Biso   1.000  H
  O100     1.0000 0.01333  0.27192  0.42029  Biso   1.000  O
  C429     1.0000 0.04361  0.56126  0.34735  Biso   1.000  C
  C430     1.0000 0.01815  0.21403  0.38751  Biso   1.000  C
  H435     1.0000 0.06408  0.55062  0.37538  Biso   1.000  H
  H436     1.0000 0.02220  0.57301  0.36938  Biso   1.000  H
  H437     1.0000 0.05049  0.59782  0.32252  Biso   1.000  H
  H438     1.0000 0.01688  0.17669  0.41421  Biso   1.000  H
  H439     1.0000 0.04211  0.21490  0.36992  Biso   1.000  H
  H440     1.0000 0.99883  0.21059  0.35601  Biso   1.000  H
  O101     1.0000 0.78675  0.29969  0.56276  Biso   1.000  O
  C431     1.0000 0.81993  0.30075  0.56009  Biso   1.000  C
  C432     1.0000 0.84405  0.31632  0.61362  Biso   1.000  C
  C433     1.0000 0.83721  0.28793  0.50354  Biso   1.000  C
  C434     1.0000 0.82637  0.32426  0.67235  Biso   1.000  C
  C435     1.0000 0.88001  0.32203  0.60732  Biso   1.000  C
  H441     1.0000 0.82209  0.27579  0.46991  Biso   1.000  H
  C436     1.0000 0.87325  0.29262  0.49763  Biso   1.000  C
  C437     1.0000 0.82668  0.26181  0.70762  Biso   1.000  C
  H442     1.0000 0.83959  0.35811  0.69599  Biso   1.000  H
  H443     1.0000 0.80069  0.33881  0.66498  Biso   1.000  H
  C438     1.0000 0.89707  0.31192  0.55045  Biso   1.000  C
  H444     1.0000 0.89531  0.33320  0.64121  Biso   1.000  H
  C439     1.0000 0.89184  0.27787  0.44099  Biso   1.000  C
  C440     1.0000 0.79546  0.22356  0.70807  Biso   1.000  C
  C441     1.0000 0.85803  0.24281  0.74143  Biso   1.000  C
  O102     1.0000 0.93010  0.32015  0.54659  Biso   1.000  O
  C442     1.0000 0.90333  0.20716  0.43939  Biso   1.000  C
  H445     1.0000 0.87491  0.28740  0.40648  Biso   1.000  H
  H446     1.0000 0.91369  0.30583  0.43828  Biso   1.000  H
  C443     1.0000 0.79506  0.16706  0.74148  Biso   1.000  C
  H447     1.0000 0.77408  0.23623  0.68519  Biso   1.000  H
  C444     1.0000 0.85744  0.18646  0.77484  Biso   1.000  C
  O103     1.0000 0.88785  0.28329  0.73956  Biso   1.000  O
  C445     1.0000 0.93515  0.18631  0.47000  Biso   1.000  C
  C446     1.0000 0.88161  0.16213  0.40794  Biso   1.000  C
  O104     1.0000 0.76489  0.12740  0.74485  Biso   1.000  O
  C447     1.0000 0.82639  0.14810  0.77537  Biso   1.000  C
  H448     1.0000 0.87880  0.17388  0.79789  Biso   1.000  H
  C448     1.0000 0.92008  0.26544  0.77368  Biso   1.000  C
  C449     1.0000 0.94487  0.12131  0.47022  Biso   1.000  C
  H449     1.0000 0.95039  0.21678  0.49088  Biso   1.000  H
  O105     1.0000 0.85027  0.18554  0.37876  Biso   1.000  O
  C450     1.0000 0.89205  0.09751  0.40692  Biso   1.000  C
  C451     1.0000 0.73654  0.13412  0.69963  Biso   1.000  C
  C452     1.0000 0.82719  0.08493  0.80967  Biso   1.000  C
  H450     1.0000 0.92850  0.22302  0.76058  Biso   1.000  H
  H451     1.0000 0.93930  0.29761  0.76808  Biso   1.000  H
  H452     1.0000 0.91470  0.26341  0.81580  Biso   1.000  H
  O106     1.0000 0.97623  0.09751  0.49923  Biso   1.000  O
  C453     1.0000 0.92341  0.07599  0.43859  Biso   1.000  C
  C454     1.0000 0.83198  0.14312  0.33740  Biso   1.000  C
  H453     1.0000 0.87749  0.06752  0.38418  Biso   1.000  H
  H454     1.0000 0.74718  0.13320  0.66058  Biso   1.000  H
  H455     1.0000 0.71910  0.09852  0.70247  Biso   1.000  H
  H456     1.0000 0.72390  0.17538  0.70469  Biso   1.000  H
  C455     1.0000 0.84057  0.03047  0.77164  Biso   1.000  C
  H457     1.0000 0.80229  0.07482  0.82228  Biso   1.000  H
  H458     1.0000 0.84360  0.08929  0.84578  Biso   1.000  H
  C456     1.0000 0.99525  0.13930  0.54001  Biso   1.000  C
  C457     1.0000 0.93291  0.00469  0.44050  Biso   1.000  C
  H459     1.0000 0.84920  0.12813  0.30848  Biso   1.000  H
  H460     1.0000 0.82241  0.10593  0.35859  Biso   1.000  H
  H461     1.0000 0.81171  0.16609  0.31661  Biso   1.000  H
  C458     1.0000 0.81687  0.00010  0.73024  Biso   1.000  C
  C459     1.0000 0.87753  0.01214  0.77408  Biso   1.000  C
  H462     1.0000 0.97841  0.15502  0.56920  Biso   1.000  H
  H463     1.0000 0.00510  0.17611  0.51860  Biso   1.000  H
  H464     1.0000 0.01537  0.11560  0.56049  Biso   1.000  H
  C460     1.0000 0.91918  0.97214  0.49532  Biso   1.000  C
  H465     1.0000 0.92191  0.98322  0.40461  Biso   1.000  H
  H466     1.0000 0.95979  0.99961  0.44019  Biso   1.000  H
  H467     1.0000 0.79169  0.01180  0.72810  Biso   1.000  H
  C461     1.0000 0.82906  0.95308  0.69190  Biso   1.000  C
  O107     1.0000 0.90036  0.04561  0.81375  Biso   1.000  O
  C462     1.0000 0.88932  0.96281  0.73788  Biso   1.000  C
  C463     1.0000 0.94248  0.96290  0.54534  Biso   1.000  C
  C464     1.0000 0.88288  0.95202  0.49777  Biso   1.000  C
  O108     1.0000 0.80668  0.92382  0.64836  Biso   1.000  O
  C465     1.0000 0.86563  0.93291  0.69616  Biso   1.000  C
  C466     1.0000 0.93876  0.03608  0.80993  Biso   1.000  C
  H468     1.0000 0.91409  0.94912  0.74179  Biso   1.000  H
  C467     1.0000 0.93012  0.93495  0.59674  Biso   1.000  C
  H469     1.0000 0.96740  0.97601  0.54441  Biso   1.000  H
  C468     1.0000 0.87072  0.92261  0.54854  Biso   1.000  C
  O109     1.0000 0.86086  0.96135  0.44664  Biso   1.000  O
  C469     1.0000 0.77190  0.95289  0.63592  Biso   1.000  C
  C470     1.0000 0.87985  0.88247  0.65427  Biso   1.000  C
  H470     1.0000 0.94559  0.04401  0.76911  Biso   1.000  H
  H471     1.0000 0.95200  0.06622  0.83690  Biso   1.000  H
  H472     1.0000 0.94510  0.99149  0.82117  Biso   1.000  H
  C471     1.0000 0.89388  0.91318  0.59870  Biso   1.000  C
  O110     1.0000 0.95197  0.92638  0.64770  Biso   1.000  O
  H473     1.0000 0.84600  0.90849  0.54899  Biso   1.000  H
  C472     1.0000 0.82302  0.96440  0.45241  Biso   1.000  C
  H474     1.0000 0.75951  0.93108  0.60190  Biso   1.000  H
  H475     1.0000 0.75700  0.94888  0.67071  Biso   1.000  H
  H476     1.0000 0.77519  0.99869  0.62660  Biso   1.000  H
  H477     1.0000 0.85991  0.85170  0.64290  Biso   1.000  H
  H478     1.0000 0.89990  0.85780  0.67488  Biso   1.000  H
  C473     1.0000 0.98670  0.95705  0.64996  Biso   1.000  C
  H479     1.0000 0.81129  0.98278  0.41621  Biso   1.000  H
  H480     1.0000 0.81350  0.92068  0.45859  Biso   1.000  H
  H481     1.0000 0.81780  0.99168  0.48648  Biso   1.000  H
  H482     1.0000 0.98371  0.00300  0.64010  Biso   1.000  H
  H483     1.0000 0.99819  0.95289  0.68999  Biso   1.000  H
  H484     1.0000 0.00227  0.93649  0.62131  Biso   1.000  H
  O111     1.0000 0.21325  0.70031  0.43722  Biso   1.000  O
  C474     1.0000 0.18007  0.69930  0.43988  Biso   1.000  C
  C475     1.0000 0.15593  0.68372  0.38635  Biso   1.000  C
  C476     1.0000 0.16276  0.71207  0.49643  Biso   1.000  C
  C477     1.0000 0.17364  0.67574  0.32762  Biso   1.000  C
  C478     1.0000 0.11999  0.67797  0.39266  Biso   1.000  C
  H485     1.0000 0.17788  0.72421  0.53011  Biso   1.000  H
  C479     1.0000 0.12673  0.70738  0.50234  Biso   1.000  C
  C480     1.0000 0.17329  0.73823  0.29240  Biso   1.000  C
  H486     1.0000 0.16039  0.64193  0.30399  Biso   1.000  H
  H487     1.0000 0.19928  0.66123  0.33500  Biso   1.000  H
  C481     1.0000 0.10294  0.68808  0.44952  Biso   1.000  C
  H488     1.0000 0.10470  0.66680  0.35881  Biso   1.000  H
  C482     1.0000 0.10814  0.72213  0.55898  Biso   1.000  C
  C483     1.0000 0.14197  0.75719  0.25855  Biso   1.000  C
  C484     1.0000 0.20452  0.77644  0.29195  Biso   1.000  C
  O112     1.0000 0.06990  0.67985  0.45343  Biso   1.000  O
  C485     1.0000 0.09664  0.79289  0.56058  Biso   1.000  C
  H489     1.0000 0.12509  0.71260  0.59350  Biso   1.000  H
  H490     1.0000 0.08628  0.69422  0.56169  Biso   1.000  H
  O113     1.0000 0.11216  0.71671  0.26041  Biso   1.000  O
  C486     1.0000 0.14256  0.81354  0.22514  Biso   1.000  C
  C487     1.0000 0.20494  0.83299  0.25850  Biso   1.000  C
  H491     1.0000 0.22589  0.76382  0.31479  Biso   1.000  H
  C488     1.0000 0.06482  0.81369  0.53002  Biso   1.000  C
  C489     1.0000 0.11837  0.83787  0.59203  Biso   1.000  C
  C490     1.0000 0.07990  0.73461  0.22629  Biso   1.000  C
  H492     1.0000 0.12121  0.82612  0.20208  Biso   1.000  H
  C491     1.0000 0.17362  0.85195  0.22461  Biso   1.000  C
  O114     1.0000 0.23512  0.87260  0.25512  Biso   1.000  O
  C492     1.0000 0.05513  0.87874  0.52975  Biso   1.000  C
  H493     1.0000 0.04958  0.78322  0.50909  Biso   1.000  H
  O115     1.0000 0.14971  0.81446  0.62122  Biso   1.000  O
  C493     1.0000 0.10792  0.90254  0.59306  Biso   1.000  C
  H494     1.0000 0.07150  0.77703  0.23940  Biso   1.000  H
  H495     1.0000 0.06071  0.70239  0.23189  Biso   1.000  H
  H496     1.0000 0.08530  0.73664  0.18418  Biso   1.000  H
  C494     1.0000 0.17278  0.91511  0.19031  Biso   1.000  C
  C495     1.0000 0.26346  0.86588  0.30035  Biso   1.000  C
  O116     1.0000 0.02374  0.90249  0.50079  Biso   1.000  O
  C496     1.0000 0.07659  0.92401  0.56138  Biso   1.000  C
  C497     1.0000 0.16800  0.85688  0.66258  Biso   1.000  C
  H497     1.0000 0.12248  0.93253  0.61580  Biso   1.000  H
  C498     1.0000 0.15943  0.96958  0.22838  Biso   1.000  C
  H498     1.0000 0.19769  0.92522  0.17769  Biso   1.000  H
  H499     1.0000 0.15641  0.91071  0.15419  Biso   1.000  H
  H500     1.0000 0.25279  0.86680  0.33940  Biso   1.000  H
  H501     1.0000 0.28091  0.90152  0.29751  Biso   1.000  H
  H502     1.0000 0.27610  0.82462  0.29528  Biso   1.000  H
  C499     1.0000 0.00473  0.86070  0.45996  Biso   1.000  C
  C500     1.0000 0.06709  0.99531  0.55947  Biso   1.000  C
  H503     1.0000 0.15080  0.87192  0.69150  Biso   1.000  H
  H504     1.0000 0.17759  0.89412  0.64139  Biso   1.000  H
  H505     1.0000 0.18830  0.83391  0.68337  Biso   1.000  H
  C501     1.0000 0.18314  0.99990  0.26974  Biso   1.000  C
  C502     1.0000 0.12248  0.98786  0.22589  Biso   1.000  C
  H506     1.0000 0.02159  0.84503  0.43078  Biso   1.000  H
  H507     1.0000 0.99493  0.82389  0.48137  Biso   1.000  H
  H508     1.0000 0.98458  0.88440  0.43948  Biso   1.000  H
  C503     1.0000 0.08082  0.02786  0.50465  Biso   1.000  C
  H509     1.0000 0.07810  0.01683  0.59541  Biso   1.000  H
  H510     1.0000 0.04018  0.00044  0.55978  Biso   1.000  H
  H511     1.0000 0.20829  0.98820  0.27192  Biso   1.000  H
  C504     1.0000 0.17091  0.04696  0.30808  Biso   1.000  C
  O117     1.0000 0.09964  0.95444  0.18627  Biso   1.000  O
  C505     1.0000 0.11068  0.03724  0.26210  Biso   1.000  C
  C506     1.0000 0.11712  0.04798  0.50221  Biso   1.000  C
  C507     1.0000 0.05750  0.03710  0.45463  Biso   1.000  C
  O118     1.0000 0.19330  0.07618  0.35161  Biso   1.000  O
  C508     1.0000 0.13434  0.06713  0.30381  Biso   1.000  C
  C509     1.0000 0.06122  0.96392  0.19009  Biso   1.000  C
  H512     1.0000 0.08591  0.05093  0.25819  Biso   1.000  H
  C510     1.0000 0.12929  0.07744  0.45148  Biso   1.000  C
  O119     1.0000 0.13914  0.03865  0.55334  Biso   1.000  O
  C511     1.0000 0.06988  0.06510  0.40323  Biso   1.000  C
  H513     1.0000 0.03258  0.02404  0.45561  Biso   1.000  H
  C512     1.0000 0.22807  0.04711  0.36405  Biso   1.000  C
  C513     1.0000 0.12013  0.11758  0.34570  Biso   1.000  C
  H514     1.0000 0.05438  0.95603  0.23091  Biso   1.000  H
  H515     1.0000 0.04801  0.93383  0.16308  Biso   1.000  H
  H516     1.0000 0.05490  0.00851  0.17881  Biso   1.000  H
  C514     1.0000 0.10612  0.08682  0.40128  Biso   1.000  C
  H517     1.0000 0.15400  0.09151  0.45099  Biso   1.000  H
  C515     1.0000 0.17699  0.03560  0.54757  Biso   1.000  C
  O120     1.0000 0.04801  0.07362  0.35228  Biso   1.000  O
  H518     1.0000 0.24050  0.06892  0.39808  Biso   1.000  H
  H519     1.0000 0.24301  0.05112  0.32931  Biso   1.000  H
  H520     1.0000 0.22478  0.00131  0.37338  Biso   1.000  H
  H521     1.0000 0.14010  0.14834  0.35708  Biso   1.000  H
  H522     1.0000 0.10011  0.14220  0.32509  Biso   1.000  H
  H523     1.0000 0.18869  0.01722  0.58377  Biso   1.000  H
  H524     1.0000 0.18650  0.07932  0.54139  Biso   1.000  H
  H525     1.0000 0.18220  0.00832  0.51349  Biso   1.000  H
  C516     1.0000 0.01327  0.04295  0.35001  Biso   1.000  C
  H526     1.0000 0.01629  0.99700  0.35988  Biso   1.000  H
  H527     1.0000 0.99768  0.06351  0.37871  Biso   1.000  H
  H528     1.0000 0.00178  0.04711  0.30999  Biso   1.000  H
  C517     1.0000 0.73657  0.36590  0.19964  Biso   1.000  C
  O121     1.0000 0.76488  0.37262  0.24486  Biso   1.000  O
  H529     1.0000 0.74721  0.36682  0.16059  Biso   1.000  H
  H530     1.0000 0.71910  0.40150  0.20248  Biso   1.000  H
  H531     1.0000 0.72390  0.32459  0.20470  Biso   1.000  H
  C518     1.0000 0.79509  0.33296  0.24149  Biso   1.000  C
  C519     1.0000 0.79548  0.27642  0.20804  Biso   1.000  C
  C520     1.0000 0.82638  0.35192  0.27538  Biso   1.000  C
  C521     1.0000 0.82671  0.23821  0.20764  Biso   1.000  C
  H532     1.0000 0.77411  0.26380  0.18520  Biso   1.000  H
  C522     1.0000 0.82722  0.41509  0.30968  Biso   1.000  C
  C523     1.0000 0.85744  0.31357  0.27485  Biso   1.000  C
  C524     1.0000 0.85803  0.25722  0.24144  Biso   1.000  C
  C525     1.0000 0.82636  0.17572  0.17236  Biso   1.000  C
  C526     1.0000 0.84060  0.46955  0.27161  Biso   1.000  C
  H533     1.0000 0.80231  0.42520  0.32229  Biso   1.000  H
  H534     1.0000 0.84359  0.41069  0.34579  Biso   1.000  H
  H535     1.0000 0.87880  0.32609  0.29790  Biso   1.000  H
  O122     1.0000 0.88784  0.21674  0.23958  Biso   1.000  O
  C527     1.0000 0.84407  0.18370  0.11364  Biso   1.000  C
  H536     1.0000 0.83961  0.14191  0.19600  Biso   1.000  H
  H537     1.0000 0.80072  0.16121  0.16499  Biso   1.000  H
  C528     1.0000 0.81686  0.49993  0.23025  Biso   1.000  C
  C529     1.0000 0.87752  0.48784  0.27409  Biso   1.000  C
  C530     1.0000 0.92010  0.23458  0.27369  Biso   1.000  C
  C531     1.0000 0.81993  0.19927  0.06011  Biso   1.000  C
  C532     1.0000 0.88001  0.17794  0.10733  Biso   1.000  C
  C533     1.0000 0.82909  0.54694  0.19191  Biso   1.000  C
  H538     1.0000 0.79171  0.48822  0.22812  Biso   1.000  H
  O123     1.0000 0.90036  0.45441  0.31376  Biso   1.000  O
  C534     1.0000 0.88932  0.53722  0.23789  Biso   1.000  C
  H539     1.0000 0.92850  0.27700  0.26059  Biso   1.000  H
  H540     1.0000 0.93930  0.20242  0.26810  Biso   1.000  H
  H541     1.0000 0.91470  0.23661  0.31581  Biso   1.000  H
  O124     1.0000 0.78675  0.20034  0.06277  Biso   1.000  O
  C535     1.0000 0.83724  0.21209  0.00355  Biso   1.000  C
  C536     1.0000 0.89709  0.18805  0.05047  Biso   1.000  C
  H542     1.0000 0.89530  0.16682  0.14118  Biso   1.000  H
  O125     1.0000 0.80671  0.57615  0.14837  Biso   1.000  O
  C537     1.0000 0.86566  0.56711  0.19617  Biso   1.000  C
  C538     1.0000 0.93878  0.46389  0.30994  Biso   1.000  C
  H543     1.0000 0.91412  0.55091  0.24180  Biso   1.000  H
  H544     1.0000 0.82209  0.22418  0.96984  Biso   1.000  H
  C539     1.0000 0.87324  0.20740  0.99760  Biso   1.000  C
  O126     1.0000 0.93010  0.17983  0.04660  Biso   1.000  O
  C540     1.0000 0.77193  0.54713  0.13594  Biso   1.000  C
  C541     1.0000 0.87988  0.61756  0.15428  Biso   1.000  C
  H545     1.0000 0.94562  0.45601  0.26907  Biso   1.000  H
  H546     1.0000 0.95200  0.43381  0.33691  Biso   1.000  H
  H547     1.0000 0.94510  0.50849  0.32118  Biso   1.000  H
  C542     1.0000 0.89184  0.22215  0.94096  Biso   1.000  C
  H548     1.0000 0.75950  0.56890  0.10191  Biso   1.000  H
  H549     1.0000 0.75699  0.55110  0.17068  Biso   1.000  H
  H550     1.0000 0.77522  0.50133  0.12661  Biso   1.000  H
  C543     1.0000 0.89388  0.58680  0.09871  Biso   1.000  C
  H551     1.0000 0.85990  0.64832  0.14291  Biso   1.000  H
  H552     1.0000 0.89992  0.64222  0.17490  Biso   1.000  H
  C544     1.0000 0.90333  0.29287  0.93936  Biso   1.000  C
  H553     1.0000 0.87488  0.21262  0.90644  Biso   1.000  H
  H554     1.0000 0.91369  0.19420  0.93825  Biso   1.000  H
  C545     1.0000 0.93012  0.56508  0.09675  Biso   1.000  C
  C546     1.0000 0.87072  0.57741  0.04851  Biso   1.000  C
  C547     1.0000 0.93515  0.31366  0.96993  Biso   1.000  C
  C548     1.0000 0.88160  0.33785  0.90791  Biso   1.000  C
  O127     1.0000 0.95200  0.57359  0.14771  Biso   1.000  O
  C549     1.0000 0.94251  0.53712  0.04536  Biso   1.000  C
  H555     1.0000 0.84600  0.59154  0.04900  Biso   1.000  H
  C550     1.0000 0.88285  0.54800  0.99773  Biso   1.000  C
  C551     1.0000 0.94484  0.37872  0.97019  Biso   1.000  C
  H556     1.0000 0.95039  0.28319  0.99085  Biso   1.000  H
  O128     1.0000 0.85026  0.31449  0.87872  Biso   1.000  O
  C552     1.0000 0.89205  0.40252  0.90689  Biso   1.000  C
  C553     1.0000 0.98673  0.54297  0.14997  Biso   1.000  C
  H557     1.0000 0.96742  0.52401  0.04438  Biso   1.000  H
  C554     1.0000 0.91915  0.52788  0.99529  Biso   1.000  C
  O129     1.0000 0.86083  0.53867  0.94660  Biso   1.000  O
  O130     1.0000 0.97623  0.40247  0.99916  Biso   1.000  O
  C555     1.0000 0.92338  0.42399  0.93856  Biso   1.000  C
  C556     1.0000 0.83197  0.35686  0.83737  Biso   1.000  C
  H558     1.0000 0.87749  0.43250  0.88414  Biso   1.000  H
  H559     1.0000 0.98371  0.49703  0.14011  Biso   1.000  H
  H560     1.0000 0.99822  0.54713  0.19000  Biso   1.000  H
  H561     1.0000 0.00229  0.56353  0.12128  Biso   1.000  H
  C557     1.0000 0.93288  0.49533  0.94047  Biso   1.000  C
  C558     1.0000 0.82299  0.53562  0.95238  Biso   1.000  C
  C559     1.0000 0.99527  0.36073  0.04003  Biso   1.000  C
  H562     1.0000 0.84920  0.37190  0.80845  Biso   1.000  H
  H563     1.0000 0.82238  0.39410  0.85856  Biso   1.000  H
  H564     1.0000 0.81168  0.33393  0.81657  Biso   1.000  H
  H565     1.0000 0.92187  0.51681  0.90458  Biso   1.000  H
  H566     1.0000 0.95979  0.50041  0.94016  Biso   1.000  H
  H567     1.0000 0.81129  0.51719  0.91617  Biso   1.000  H
  H568     1.0000 0.81347  0.57930  0.95855  Biso   1.000  H
  H569     1.0000 0.81777  0.50830  0.98645  Biso   1.000  H
  H570     1.0000 0.97841  0.34501  0.06921  Biso   1.000  H
  H571     1.0000 0.00510  0.32392  0.01861  Biso   1.000  H
  H572     1.0000 0.01539  0.38443  0.06051  Biso   1.000  H
  C560     1.0000 0.26343  0.63415  0.80034  Biso   1.000  C
  O131     1.0000 0.23512  0.62742  0.75516  Biso   1.000  O
  H573     1.0000 0.25279  0.63323  0.83938  Biso   1.000  H
  H574     1.0000 0.28088  0.59850  0.79749  Biso   1.000  H
  H575     1.0000 0.27608  0.67541  0.79527  Biso   1.000  H
  C561     1.0000 0.20492  0.66704  0.75849  Biso   1.000  C
  C562     1.0000 0.17359  0.64808  0.72464  Biso   1.000  C
  C563     1.0000 0.20452  0.72358  0.79194  Biso   1.000  C
  C564     1.0000 0.17279  0.58491  0.69030  Biso   1.000  C
  C565     1.0000 0.14253  0.68648  0.72513  Biso   1.000  C
  C566     1.0000 0.17329  0.76179  0.79238  Biso   1.000  C
  H576     1.0000 0.22589  0.73620  0.81477  Biso   1.000  H
  C567     1.0000 0.15940  0.53045  0.72837  Biso   1.000  C
  H577     1.0000 0.19769  0.57480  0.67768  Biso   1.000  H
  H578     1.0000 0.15638  0.58931  0.65418  Biso   1.000  H
  C568     1.0000 0.14195  0.74283  0.75853  Biso   1.000  C
  H579     1.0000 0.12118  0.67391  0.70207  Biso   1.000  H
  C569     1.0000 0.17364  0.82428  0.82761  Biso   1.000  C
  C570     1.0000 0.18311  0.50012  0.76973  Biso   1.000  C
  C571     1.0000 0.12245  0.51216  0.72588  Biso   1.000  C
  O132     1.0000 0.11213  0.78331  0.76040  Biso   1.000  O
  C572     1.0000 0.15593  0.81630  0.88634  Biso   1.000  C
  H580     1.0000 0.16039  0.85814  0.80398  Biso   1.000  H
  H581     1.0000 0.19928  0.83884  0.83499  Biso   1.000  H
  C573     1.0000 0.17092  0.45306  0.80807  Biso   1.000  C
  H582     1.0000 0.20829  0.51183  0.77191  Biso   1.000  H
  O133     1.0000 0.09962  0.54563  0.68626  Biso   1.000  O
  C574     1.0000 0.11065  0.46278  0.76209  Biso   1.000  C
  C575     1.0000 0.07990  0.76547  0.72628  Biso   1.000  C
  C576     1.0000 0.18005  0.80073  0.93992  Biso   1.000  C
  C577     1.0000 0.11999  0.82206  0.89265  Biso   1.000  C
  O134     1.0000 0.19330  0.42385  0.85165  Biso   1.000  O
  C578     1.0000 0.13434  0.43294  0.80380  Biso   1.000  C
  C579     1.0000 0.06122  0.53611  0.69008  Biso   1.000  C
  H583     1.0000 0.08588  0.44909  0.75818  Biso   1.000  H
  H584     1.0000 0.07148  0.72300  0.73939  Biso   1.000  H
  H585     1.0000 0.06068  0.79763  0.73188  Biso   1.000  H
  H586     1.0000 0.08527  0.76343  0.68417  Biso   1.000  H
  O135     1.0000 0.21326  0.79971  0.93721  Biso   1.000  O
  C580     1.0000 0.16277  0.78796  0.99647  Biso   1.000  C
  C581     1.0000 0.10291  0.81195  0.94951  Biso   1.000  C
  H587     1.0000 0.10467  0.83323  0.85880  Biso   1.000  H
  C582     1.0000 0.22807  0.45291  0.86404  Biso   1.000  C
  C583     1.0000 0.12013  0.38249  0.84574  Biso   1.000  C
  H588     1.0000 0.05439  0.54399  0.73090  Biso   1.000  H
  H589     1.0000 0.04798  0.56619  0.66311  Biso   1.000  H
  H590     1.0000 0.05488  0.49151  0.67879  Biso   1.000  H
  H591     1.0000 0.17792  0.77582  0.03014  Biso   1.000  H
  C584     1.0000 0.12676  0.79265  0.00238  Biso   1.000  C
  O136     1.0000 0.06988  0.82017  0.95342  Biso   1.000  O
  H592     1.0000 0.24047  0.43110  0.89807  Biso   1.000  H
  H593     1.0000 0.24298  0.44890  0.82930  Biso   1.000  H
  H594     1.0000 0.22479  0.49872  0.87337  Biso   1.000  H
  C585     1.0000 0.10612  0.41320  0.90127  Biso   1.000  C
  H595     1.0000 0.14007  0.35173  0.85707  Biso   1.000  H
  H596     1.0000 0.10008  0.35782  0.82508  Biso   1.000  H
  C586     1.0000 0.10817  0.77790  0.05902  Biso   1.000  C
  C587     1.0000 0.06988  0.43497  0.90322  Biso   1.000  C
  C588     1.0000 0.12926  0.42259  0.95147  Biso   1.000  C
  C589     1.0000 0.09667  0.70718  0.06061  Biso   1.000  C
  H597     1.0000 0.12512  0.78742  0.09353  Biso   1.000  H
  H598     1.0000 0.08631  0.80580  0.06173  Biso   1.000  H
  O137     1.0000 0.04801  0.42641  0.85227  Biso   1.000  O
  C590     1.0000 0.05750  0.46293  0.95462  Biso   1.000  C
  H599     1.0000 0.15397  0.40851  0.95098  Biso   1.000  H
  C591     1.0000 0.11713  0.45204  0.00224  Biso   1.000  C
  C592     1.0000 0.06485  0.68634  0.03005  Biso   1.000  C
  C593     1.0000 0.11840  0.66215  0.09207  Biso   1.000  C
  C594     1.0000 0.01328  0.45707  0.85005  Biso   1.000  C
  H600     1.0000 0.03258  0.47599  0.95560  Biso   1.000  H
  C595     1.0000 0.08085  0.47216  0.00473  Biso   1.000  C
  O138     1.0000 0.13915  0.46138  0.05337  Biso   1.000  O
  C596     1.0000 0.05516  0.62128  0.02983  Biso   1.000  C
  H601     1.0000 0.04961  0.71681  0.00913  Biso   1.000  H
  C597     1.0000 0.10796  0.59748  0.09309  Biso   1.000  C
  O139     1.0000 0.14974  0.68556  0.12130  Biso   1.000  O
  H602     1.0000 0.01630  0.50302  0.85991  Biso   1.000  H
  H603     1.0000 0.00178  0.45291  0.80998  Biso   1.000  H
  H604     1.0000 0.99769  0.43652  0.87870  Biso   1.000  H
  C598     1.0000 0.06709  0.50472  0.05950  Biso   1.000  C
  C599     1.0000 0.17699  0.46443  0.04760  Biso   1.000  C
  C600     1.0000 0.07662  0.57601  0.06141  Biso   1.000  C
  O140     1.0000 0.02377  0.59753  0.00082  Biso   1.000  O
  H605     1.0000 0.12251  0.56750  0.11583  Biso   1.000  H
  C601     1.0000 0.16803  0.64314  0.16261  Biso   1.000  C
  H606     1.0000 0.07810  0.48319  0.09544  Biso   1.000  H
  H607     1.0000 0.04021  0.49959  0.05981  Biso   1.000  H
  H608     1.0000 0.18872  0.48281  0.08385  Biso   1.000  H
  H609     1.0000 0.18651  0.42070  0.04142  Biso   1.000  H
  H610     1.0000 0.18221  0.49170  0.01353  Biso   1.000  H
  C602     1.0000 0.00473  0.63932  0.95995  Biso   1.000  C
  H611     1.0000 0.15080  0.62810  0.19153  Biso   1.000  H
  H612     1.0000 0.17762  0.60590  0.14142  Biso   1.000  H
  H613     1.0000 0.18830  0.66612  0.18345  Biso   1.000  H
  H614     1.0000 0.02159  0.65499  0.93076  Biso   1.000  H
  H615     1.0000 0.99490  0.67613  0.98141  Biso   1.000  H
  H616     1.0000 0.98458  0.61562  0.93947  Biso   1.000  H
  O141     1.0000 0.79039  0.76992  0.24011  Biso   1.000  O
  C603     1.0000 0.79554  0.71173  0.20812  Biso   1.000  C
  C604     1.0000 0.77880  0.82322  0.20715  Biso   1.000  C
  H617     1.0000 0.80841  0.72121  0.17210  Biso   1.000  H
  H618     1.0000 0.77162  0.69243  0.19720  Biso   1.000  H
  H619     1.0000 0.81011  0.68140  0.23300  Biso   1.000  H
  C605     1.0000 0.76107  0.81935  0.15175  Biso   1.000  C
  C606     1.0000 0.78553  0.88324  0.23349  Biso   1.000  C
  H620     1.0000 0.75571  0.77790  0.13518  Biso   1.000  H
  C607     1.0000 0.75087  0.87395  0.11959  Biso   1.000  C
  C608     1.0000 0.77535  0.93814  0.20191  Biso   1.000  C
  C609     1.0000 0.80539  0.88851  0.29417  Biso   1.000  C
  C610     1.0000 0.75862  0.93427  0.14518  Biso   1.000  C
  C611     1.0000 0.73247  0.86873  0.05815  Biso   1.000  C
  H621     1.0000 0.77981  0.97944  0.21928  Biso   1.000  H
  C612     1.0000 0.84628  0.88871  0.28858  Biso   1.000  C
  H622     1.0000 0.79791  0.92890  0.31381  Biso   1.000  H
  H623     1.0000 0.79849  0.85170  0.31918  Biso   1.000  H
  O142     1.0000 0.74817  0.98728  0.11124  Biso   1.000  O
  C613     1.0000 0.76041  0.86612  0.01102  Biso   1.000  C
  H624     1.0000 0.71620  0.90641  0.05082  Biso   1.000  H
  H625     1.0000 0.71721  0.82921  0.05580  Biso   1.000  H
  C614     1.0000 0.86640  0.83560  0.28742  Biso   1.000  C
  C615     1.0000 0.86442  0.95250  0.28094  Biso   1.000  C
  C616     1.0000 0.76710  0.04638  0.12412  Biso   1.000  C
  C617     1.0000 0.77499  0.80808  0.99174  Biso   1.000  C
  C618     1.0000 0.77348  0.92314  0.98721  Biso   1.000  C
  C619     1.0000 0.90567  0.83637  0.27823  Biso   1.000  C
  H626     1.0000 0.85481  0.79502  0.29280  Biso   1.000  H
  C620     1.0000 0.90417  0.95299  0.27494  Biso   1.000  C
  O143     1.0000 0.84676  0.00218  0.28138  Biso   1.000  O
  H627     1.0000 0.76080  0.07802  0.09280  Biso   1.000  H
  H628     1.0000 0.79360  0.03850  0.12581  Biso   1.000  H
  H629     1.0000 0.75991  0.06322  0.16241  Biso   1.000  H
  O144     1.0000 0.76221  0.75202  0.01750  Biso   1.000  O
  C621     1.0000 0.80075  0.80721  0.94887  Biso   1.000  C
  C622     1.0000 0.80075  0.92276  0.94638  Biso   1.000  C
  H630     1.0000 0.76357  0.96334  0.99916  Biso   1.000  H
  C623     1.0000 0.92430  0.90070  0.27214  Biso   1.000  C
  O145     1.0000 0.92296  0.78607  0.27498  Biso   1.000  O
  H631     1.0000 0.91611  0.99371  0.27289  Biso   1.000  H
  C624     1.0000 0.78589  0.69872  0.01990  Biso   1.000  C
  H632     1.0000 0.80948  0.76682  0.93514  Biso   1.000  H
  C625     1.0000 0.81420  0.86433  0.92528  Biso   1.000  C
  O146     1.0000 0.81528  0.97862  0.92395  Biso   1.000  O
  C626     1.0000 0.96471  0.89940  0.26192  Biso   1.000  C
  H633     1.0000 0.77652  0.66583  0.04651  Biso   1.000  H
  H634     1.0000 0.81030  0.71250  0.03492  Biso   1.000  H
  H635     1.0000 0.78747  0.68044  0.97996  Biso   1.000  H
  C627     1.0000 0.84344  0.86249  0.88001  Biso   1.000  C
  C628     1.0000 0.81032  0.03599  0.95762  Biso   1.000  C
  C629     1.0000 0.97116  0.89412  0.19604  Biso   1.000  C
  H636     1.0000 0.97621  0.86210  0.28320  Biso   1.000  H
  H637     1.0000 0.97629  0.93940  0.27809  Biso   1.000  H
  C630     1.0000 0.88128  0.86602  0.91080  Biso   1.000  C
  H638     1.0000 0.83999  0.89940  0.85225  Biso   1.000  H
  H639     1.0000 0.84109  0.82201  0.85664  Biso   1.000  H
  H640     1.0000 0.82589  0.07042  0.94287  Biso   1.000  H
  H641     1.0000 0.81717  0.02762  0.99956  Biso   1.000  H
  H642     1.0000 0.78459  0.04933  0.95367  Biso   1.000  H
  C631     1.0000 0.97054  0.94941  0.16055  Biso   1.000  C
  C632     1.0000 0.97714  0.83439  0.16957  Biso   1.000  C
  C633     1.0000 0.89961  0.81050  0.93168  Biso   1.000  C
  C634     1.0000 0.89731  0.92600  0.92204  Biso   1.000  C
  C635     1.0000 0.97638  0.94447  0.10040  Biso   1.000  C
  O147     1.0000 0.96485  0.00716  0.18911  Biso   1.000  O
  C636     1.0000 0.98199  0.82950  0.10888  Biso   1.000  C
  H643     1.0000 0.97792  0.79642  0.19329  Biso   1.000  H
  O148     1.0000 0.88227  0.75274  0.91950  Biso   1.000  O
  C637     1.0000 0.93353  0.81606  0.96184  Biso   1.000  C
  H644     1.0000 0.88519  0.96401  0.90795  Biso   1.000  H
  C638     1.0000 0.93083  0.93127  0.95349  Biso   1.000  C
  C639     1.0000 0.98196  0.88503  0.07343  Biso   1.000  C
  H645     1.0000 0.97660  0.98273  0.07699  Biso   1.000  H
  C640     1.0000 0.95639  0.06128  0.15264  Biso   1.000  C
  O149     1.0000 0.98667  0.77195  0.07970  Biso   1.000  O
  C641     1.0000 0.90058  0.69524  0.93901  Biso   1.000  C
  C642     1.0000 0.94970  0.87608  0.97321  Biso   1.000  C
  H646     1.0000 0.94598  0.77799  0.97503  Biso   1.000  H
  O150     1.0000 0.94718  0.99037  0.96619  Biso   1.000  O
  C643     1.0000 0.98650  0.88121  0.00746  Biso   1.000  C
  H647     1.0000 0.93592  0.05064  0.12461  Biso   1.000  H
  H648     1.0000 0.97780  0.07304  0.13061  Biso   1.000  H
  H649     1.0000 0.94952  0.09780  0.17752  Biso   1.000  H
  C644     1.0000 0.98185  0.71405  0.11248  Biso   1.000  C
  H650     1.0000 0.92400  0.69170  0.91986  Biso   1.000  H
  H651     1.0000 0.88528  0.65761  0.92834  Biso   1.000  H
  H652     1.0000 0.90509  0.69674  0.98227  Biso   1.000  H
  C645     1.0000 0.92346  0.04489  0.96717  Biso   1.000  C
  H653     1.0000 0.99949  0.92034  0.99427  Biso   1.000  H
  H654     1.0000 0.00160  0.84300  0.99853  Biso   1.000  H
  H655     1.0000 0.98312  0.67671  0.08578  Biso   1.000  H
  H656     1.0000 0.95790  0.71492  0.13012  Biso   1.000  H
  H657     1.0000 0.00120  0.71062  0.14398  Biso   1.000  H
  H658     1.0000 0.91358  0.05393  0.92688  Biso   1.000  H
  H659     1.0000 0.93730  0.08252  0.98245  Biso   1.000  H
  H660     1.0000 0.90330  0.03574  0.99294  Biso   1.000  H
  O151     1.0000 0.20961  0.23008  0.75987  Biso   1.000  O
  C646     1.0000 0.22121  0.17683  0.79283  Biso   1.000  C
  C647     1.0000 0.20446  0.28827  0.79185  Biso   1.000  C
  C648     1.0000 0.21447  0.11681  0.76649  Biso   1.000  C
  C649     1.0000 0.23893  0.18065  0.84823  Biso   1.000  C
  H661     1.0000 0.19159  0.27879  0.82788  Biso   1.000  H
  H662     1.0000 0.22839  0.30762  0.80278  Biso   1.000  H
  H663     1.0000 0.18989  0.31860  0.76697  Biso   1.000  H
  C650     1.0000 0.19461  0.11149  0.70585  Biso   1.000  C
  C651     1.0000 0.22466  0.06186  0.79812  Biso   1.000  C
  H664     1.0000 0.24429  0.22210  0.86480  Biso   1.000  H
  C652     1.0000 0.24913  0.12605  0.88039  Biso   1.000  C
  C653     1.0000 0.15370  0.11129  0.71144  Biso   1.000  C
  H665     1.0000 0.20209  0.07110  0.68617  Biso   1.000  H
  H666     1.0000 0.20148  0.14830  0.68079  Biso   1.000  H
  C654     1.0000 0.24138  0.06573  0.85480  Biso   1.000  C
  H667     1.0000 0.22020  0.02060  0.78070  Biso   1.000  H
  C655     1.0000 0.26751  0.13132  0.94183  Biso   1.000  C
  C656     1.0000 0.13358  0.16440  0.71256  Biso   1.000  C
  C657     1.0000 0.13558  0.04750  0.71904  Biso   1.000  C
  O152     1.0000 0.25180  0.01277  0.88874  Biso   1.000  O
  C658     1.0000 0.23956  0.13388  0.98896  Biso   1.000  C
  H668     1.0000 0.28377  0.09359  0.94920  Biso   1.000  H
  H669     1.0000 0.28279  0.17079  0.94418  Biso   1.000  H
  C659     1.0000 0.09431  0.16368  0.72180  Biso   1.000  C
  H670     1.0000 0.14520  0.20498  0.70718  Biso   1.000  H
  C660     1.0000 0.09584  0.04706  0.72504  Biso   1.000  C
  O153     1.0000 0.15322  0.99787  0.71860  Biso   1.000  O
  C661     1.0000 0.23291  0.95362  0.87590  Biso   1.000  C
  C662     1.0000 0.22501  0.19192  0.00824  Biso   1.000  C
  C663     1.0000 0.22653  0.07686  0.01277  Biso   1.000  C
  C664     1.0000 0.07571  0.09935  0.72784  Biso   1.000  C
  O154     1.0000 0.07701  0.21398  0.72499  Biso   1.000  O
  H671     1.0000 0.08389  0.00629  0.72708  Biso   1.000  H
  H672     1.0000 0.23917  0.92198  0.90718  Biso   1.000  H
  H673     1.0000 0.20637  0.96150  0.87417  Biso   1.000  H
  H674     1.0000 0.24010  0.93678  0.83761  Biso   1.000  H
  O155     1.0000 0.23777  0.24803  0.98247  Biso   1.000  O
  C665     1.0000 0.19926  0.19279  0.05111  Biso   1.000  C
  C666     1.0000 0.19923  0.07724  0.05364  Biso   1.000  C
  H675     1.0000 0.23641  0.03671  0.00082  Biso   1.000  H
  C667     1.0000 0.03530  0.10060  0.73805  Biso   1.000  C
  C668     1.0000 0.21409  0.30133  0.98007  Biso   1.000  C
  H676     1.0000 0.19050  0.23323  0.06483  Biso   1.000  H
  C669     1.0000 0.18580  0.13567  0.07470  Biso   1.000  C
  O156     1.0000 0.18470  0.02138  0.07603  Biso   1.000  O
  C670     1.0000 0.02881  0.10593  0.80393  Biso   1.000  C
  H677     1.0000 0.02379  0.13790  0.71678  Biso   1.000  H
  H678     1.0000 0.02368  0.06060  0.72188  Biso   1.000  H
  H679     1.0000 0.22348  0.33422  0.95346  Biso   1.000  H
  H680     1.0000 0.18968  0.28750  0.96510  Biso   1.000  H
  H681     1.0000 0.21250  0.31961  0.02001  Biso   1.000  H
  C671     1.0000 0.15654  0.13751  0.11996  Biso   1.000  C
  C672     1.0000 0.18965  0.96406  0.04236  Biso   1.000  C
  C673     1.0000 0.02947  0.05064  0.83947  Biso   1.000  C
  C674     1.0000 0.02286  0.16566  0.83041  Biso   1.000  C
  C675     1.0000 0.11872  0.13403  0.08918  Biso   1.000  C
  H682     1.0000 0.16001  0.10060  0.14773  Biso   1.000  H
  H683     1.0000 0.15891  0.17799  0.14333  Biso   1.000  H
  H684     1.0000 0.17412  0.92958  0.05715  Biso   1.000  H
  H685     1.0000 0.18281  0.97238  0.00042  Biso   1.000  H
  H686     1.0000 0.21541  0.95071  0.04631  Biso   1.000  H
  C676     1.0000 0.02362  0.05553  0.89958  Biso   1.000  C
  O157     1.0000 0.03516  0.99289  0.81086  Biso   1.000  O
  C677     1.0000 0.01802  0.17050  0.89114  Biso   1.000  C
  H687     1.0000 0.02209  0.20363  0.80669  Biso   1.000  H
  C678     1.0000 0.10036  0.18950  0.06830  Biso   1.000  C
  C679     1.0000 0.10269  0.07405  0.07798  Biso   1.000  C
  C680     1.0000 0.01804  0.11497  0.92654  Biso   1.000  C
  H688     1.0000 0.02337  0.01732  0.92299  Biso   1.000  H
  C681     1.0000 0.04361  0.93872  0.84734  Biso   1.000  C
  O158     1.0000 0.01333  0.22810  0.92032  Biso   1.000  O
  C682     1.0000 0.06648  0.18399  0.03814  Biso   1.000  C
  O159     1.0000 0.11771  0.24730  0.08047  Biso   1.000  O
  C683     1.0000 0.06918  0.06873  0.04653  Biso   1.000  C
  H689     1.0000 0.11481  0.03599  0.09202  Biso   1.000  H
  C684     1.0000 0.01350  0.11879  0.99251  Biso   1.000  C
  H690     1.0000 0.06408  0.94941  0.87537  Biso   1.000  H
  H691     1.0000 0.02218  0.92701  0.86937  Biso   1.000  H
  H692     1.0000 0.05049  0.90220  0.82250  Biso   1.000  H
  C685     1.0000 0.01815  0.28600  0.88750  Biso   1.000  C
  C686     1.0000 0.05031  0.12392  0.02676  Biso   1.000  C
  H693     1.0000 0.05400  0.22201  0.02494  Biso   1.000  H
  C687     1.0000 0.09942  0.30476  0.06097  Biso   1.000  C
  O160     1.0000 0.05283  0.00967  0.03378  Biso   1.000  O
  H694     1.0000 0.99841  0.15700  0.00144  Biso   1.000  H
  H695     1.0000 0.00051  0.07971  0.00575  Biso   1.000  H
  H696     1.0000 0.01689  0.32329  0.91419  Biso   1.000  H
  H697     1.0000 0.04208  0.28513  0.86990  Biso   1.000  H
  H698     1.0000 0.99880  0.28938  0.85600  Biso   1.000  H
  H699     1.0000 0.07601  0.30830  0.08012  Biso   1.000  H
  H700     1.0000 0.11472  0.34239  0.07163  Biso   1.000  H
  H701     1.0000 0.09491  0.30331  0.01775  Biso   1.000  H
  C688     1.0000 0.07651  0.95516  0.03281  Biso   1.000  C
  H702     1.0000 0.08640  0.94612  0.07314  Biso   1.000  H
  H703     1.0000 0.06271  0.91748  0.01752  Biso   1.000  H
  H704     1.0000 0.09671  0.96430  0.00704  Biso   1.000  H
  Ne1      1.0000 0.13362  0.37918  0.40625  Biso   1.000  Ne
  He1      1.0000 0.12221  0.22771  0.38892  Biso   1.000  He
  He2      1.0000 0.13648  0.55066  0.40566  Biso   1.000  He
  Ar1      1.0000 0.13325  0.37531  0.39914  Biso   1.000  Ar
  Ne2      1.0000 0.37195  0.13003  0.10721  Biso   1.000  Ne
  He3      1.0000 0.45991  0.08483  0.18683  Biso   1.000  He
  He4      1.0000 0.30804  0.12214  0.04333  Biso   1.000  He
  Ar2      1.0000 0.36691  0.12761  0.10992  Biso   1.000  Ar
  Ne3      1.0000 0.37195  0.36998  0.60721  Biso   1.000  Ne
  He5      1.0000 0.46095  0.41547  0.68747  Biso   1.000  He
  He6      1.0000 0.30833  0.37783  0.54372  Biso   1.000  He
  Ar3      1.0000 0.36690  0.37242  0.60990  Biso   1.000  Ar
  Ne4      1.0000 0.36602  0.63104  0.08631  Biso   1.000  Ne
  He7      1.0000 0.37496  0.43204  0.10681  Biso   1.000  He
  He8      1.0000 0.35986  0.82401  0.08772  Biso   1.000  He
  Ar4      1.0000 0.36624  0.63265  0.08958  Biso   1.000  Ar
  Ne5      1.0000 0.12771  0.89118  0.39527  Biso   1.000  Ne
  He9      1.0000 0.19954  0.87872  0.44541  Biso   1.000  He
  He10     1.0000 0.05247  0.86757  0.32300  Biso   1.000  He
  Ar5      1.0000 0.12766  0.88760  0.39426  Biso   1.000  Ar
  Ne6      1.0000 0.63397  0.13103  0.41366  Biso   1.000  Ne
  He11     1.0000 0.64021  0.32167  0.41200  Biso   1.000  He
  He12     1.0000 0.62490  0.93511  0.39337  Biso   1.000  He
  Ar6      1.0000 0.63374  0.13252  0.41039  Biso   1.000  Ar
  Ne7      1.0000 0.36602  0.86899  0.58632  Biso   1.000  Ne
  He13     1.0000 0.37507  0.06525  0.60662  Biso   1.000  He
  He14     1.0000 0.35918  0.70797  0.59019  Biso   1.000  He
  Ar7      1.0000 0.36624  0.86743  0.58962  Biso   1.000  Ar
  Ne8      1.0000 0.13362  0.12083  0.90625  Biso   1.000  Ne
  He15     1.0000 0.13608  0.96220  0.90456  Biso   1.000  He
  He16     1.0000 0.12240  0.30532  0.88716  Biso   1.000  He
  Ar8      1.0000 0.13331  0.12407  0.89845  Biso   1.000  Ar
  Ne9      1.0000 0.62804  0.63004  0.39277  Biso   1.000  Ne
  He17     1.0000 0.69363  0.62173  0.45868  Biso   1.000  He
  He18     1.0000 0.56697  0.51719  0.35423  Biso   1.000  He
  Ar9      1.0000 0.63326  0.62788  0.39026  Biso   1.000  Ar
  Ne10     1.0000 0.12771  0.60885  0.89528  Biso   1.000  Ne
  He19     1.0000 0.19627  0.62047  0.94237  Biso   1.000  He
  He20     1.0000 0.05097  0.63293  0.82201  Biso   1.000  He
  Ar10     1.0000 0.12754  0.61290  0.89489  Biso   1.000  Ar
  Ne11     1.0000 0.63397  0.36898  0.91367  Biso   1.000  Ne
  He21     1.0000 0.64014  0.17582  0.91228  Biso   1.000  He
  He22     1.0000 0.62486  0.56441  0.89339  Biso   1.000  He
  Ar11     1.0000 0.63374  0.36746  0.91040  Biso   1.000  Ar
  Ne12     1.0000 0.87229  0.39118  0.10471  Biso   1.000  Ne
  He23     1.0000 0.96767  0.36100  0.19023  Biso   1.000  He
  He24     1.0000 0.78018  0.37458  0.02930  Biso   1.000  He
  Ar12     1.0000 0.87246  0.38712  0.10510  Biso   1.000  Ar
  Ne13     1.0000 0.62804  0.86999  0.89278  Biso   1.000  Ne
  He25     1.0000 0.69924  0.87960  0.96550  Biso   1.000  He
  He26     1.0000 0.54382  0.91410  0.81543  Biso   1.000  He
  Ar13     1.0000 0.63310  0.87242  0.89007  Biso   1.000  Ar
  Ne14     1.0000 0.87229  0.10883  0.60471  Biso   1.000  Ne
  He27     1.0000 0.96626  0.13854  0.68930  Biso   1.000  He
  He28     1.0000 0.80506  0.12015  0.55878  Biso   1.000  He
  Ar14     1.0000 0.87246  0.11291  0.60509  Biso   1.000  Ar
  Ne15     1.0000 0.86638  0.62083  0.59374  Biso   1.000  Ne
  He29     1.0000 0.87759  0.80516  0.61282  Biso   1.000  He
  He30     1.0000 0.86377  0.45776  0.59506  Biso   1.000  He
  Ar15     1.0000 0.86675  0.62470  0.60085  Biso   1.000  Ar
  Ne16     1.0000 0.86638  0.87920  0.09373  Biso   1.000  Ne
  He31     1.0000 0.87779  0.72621  0.11115  Biso   1.000  He
  He32     1.0000 0.86347  0.05255  0.09411  Biso   1.000  He
  Ar16     1.0000 0.86675  0.87535  0.10081  Biso   1.000  Ar
