data_image0
_cell_length_a       33.589
_cell_length_b       33.589
_cell_length_c       35.842
_cell_angle_alpha    90
_cell_angle_beta     90
_cell_angle_gamma    90

_symmetry_space_group_name_H-M    "P 1"
_symmetry_int_tables_number       1

loop_
  _symmetry_equiv_pos_as_xyz
  'x, y, z'

loop_
  _atom_site_label
  _atom_site_occupancy
  _atom_site_fract_x
  _atom_site_fract_y
  _atom_site_fract_z
  _atom_site_thermal_displace_type
  _atom_site_B_iso_or_equiv
  _atom_site_type_symbol
  C1       1.0000 0.51448  0.42696  0.37347  Biso   1.000  C
  C2       1.0000 0.47361  0.41910  0.36117  Biso   1.000  C
  N1       1.0000 0.54327  0.40430  0.36505  Biso   1.000  N
  H1       1.0000 0.51960  0.44979  0.38832  Biso   1.000  H
  C3       1.0000 0.46533  0.38566  0.33904  Biso   1.000  C
  C4       1.0000 0.44276  0.44467  0.37213  Biso   1.000  C
  C5       1.0000 0.58373  0.41323  0.37849  Biso   1.000  C
  C6       1.0000 0.42576  0.37834  0.32766  Biso   1.000  C
  O1       1.0000 0.49424  0.36033  0.32844  Biso   1.000  O
  C7       1.0000 0.40400  0.43711  0.36086  Biso   1.000  C
  H2       1.0000 0.44839  0.46721  0.38731  Biso   1.000  H
  H3       1.0000 0.58361  0.43910  0.39231  Biso   1.000  H
  C8       1.0000 0.59633  0.37986  0.40458  Biso   1.000  C
  C9       1.0000 0.61219  0.41600  0.34527  Biso   1.000  C
  C10      1.0000 0.41761  0.34309  0.30489  Biso   1.000  C
  C11      1.0000 0.39599  0.40469  0.33910  Biso   1.000  C
  H4       1.0000 0.51660  0.37000  0.33399  Biso   1.000  H
  O2       1.0000 0.37310  0.46173  0.37116  Biso   1.000  O
  N2       1.0000 0.57066  0.37828  0.43664  Biso   1.000  N
  H5       1.0000 0.59460  0.35401  0.39091  Biso   1.000  H
  C12      1.0000 0.64015  0.38688  0.41694  Biso   1.000  C
  C13      1.0000 0.65510  0.42308  0.35829  Biso   1.000  C
  H6       1.0000 0.60380  0.43809  0.32880  Biso   1.000  H
  H7       1.0000 0.61091  0.39099  0.33070  Biso   1.000  H
  N3       1.0000 0.38364  0.33597  0.28977  Biso   1.000  N
  H8       1.0000 0.43851  0.32451  0.30110  Biso   1.000  H
  H9       1.0000 0.36929  0.39989  0.33151  Biso   1.000  H
  H10      1.0000 0.37911  0.47301  0.39130  Biso   1.000  H
  C14      1.0000 0.55801  0.34446  0.44652  Biso   1.000  C
  H11      1.0000 0.64170  0.41180  0.43159  Biso   1.000  H
  H12      1.0000 0.64861  0.36470  0.43329  Biso   1.000  H
  C15      1.0000 0.66843  0.38965  0.38402  Biso   1.000  C
  H13      1.0000 0.67299  0.42439  0.33639  Biso   1.000  H
  H14      1.0000 0.65679  0.44881  0.37160  Biso   1.000  H
  C16      1.0000 0.38093  0.29962  0.26717  Biso   1.000  C
  H15      1.0000 0.56441  0.32249  0.43100  Biso   1.000  H
  C17      1.0000 0.53461  0.33651  0.47969  Biso   1.000  C
  H16      1.0000 0.66861  0.36411  0.37021  Biso   1.000  H
  H17      1.0000 0.69579  0.39501  0.39311  Biso   1.000  H
  C18      1.0000 0.34493  0.27473  0.28037  Biso   1.000  C
  H18      1.0000 0.40591  0.28369  0.26991  Biso   1.000  H
  C19      1.0000 0.37494  0.31114  0.22652  Biso   1.000  C
  C20      1.0000 0.51925  0.29792  0.48611  Biso   1.000  C
  C21      1.0000 0.52842  0.36569  0.50572  Biso   1.000  C
  C22      1.0000 0.34056  0.23773  0.25610  Biso   1.000  C
  N4       1.0000 0.35199  0.26238  0.31856  Biso   1.000  N
  H19      1.0000 0.32010  0.29111  0.27900  Biso   1.000  H
  C23      1.0000 0.36941  0.27393  0.20141  Biso   1.000  C
  H20      1.0000 0.39831  0.32651  0.21779  Biso   1.000  H
  H21      1.0000 0.35119  0.32841  0.22440  Biso   1.000  H
  C24      1.0000 0.49713  0.29042  0.51774  Biso   1.000  C
  O3       1.0000 0.52824  0.26899  0.46250  Biso   1.000  O
  C25      1.0000 0.50576  0.35866  0.53753  Biso   1.000  C
  H22      1.0000 0.53979  0.39129  0.50201  Biso   1.000  H
  C26      1.0000 0.33416  0.24943  0.21567  Biso   1.000  C
  H23      1.0000 0.36479  0.22120  0.25819  Biso   1.000  H
  H24      1.0000 0.31769  0.22171  0.26491  Biso   1.000  H
  C27      1.0000 0.32692  0.27131  0.34298  Biso   1.000  C
  H25      1.0000 0.36449  0.28229  0.17530  Biso   1.000  H
  H26      1.0000 0.39391  0.25750  0.20191  Biso   1.000  H
  C28      1.0000 0.48054  0.25062  0.52483  Biso   1.000  C
  C29      1.0000 0.49067  0.32115  0.54325  Biso   1.000  C
  H27      1.0000 0.52169  0.24702  0.47179  Biso   1.000  H
  O4       1.0000 0.49894  0.38789  0.56264  Biso   1.000  O
  H28      1.0000 0.30939  0.26530  0.21341  Biso   1.000  H
  H29      1.0000 0.33109  0.22519  0.20021  Biso   1.000  H
  C30      1.0000 0.33183  0.25922  0.38148  Biso   1.000  C
  H30      1.0000 0.30409  0.28640  0.33611  Biso   1.000  H
  N5       1.0000 0.48751  0.22195  0.50335  Biso   1.000  N
  H31      1.0000 0.46420  0.24651  0.54609  Biso   1.000  H
  H32      1.0000 0.47551  0.31600  0.56509  Biso   1.000  H
  H33      1.0000 0.51160  0.40829  0.55611  Biso   1.000  H
  C31      1.0000 0.36509  0.23692  0.39303  Biso   1.000  C
  C32      1.0000 0.30001  0.26571  0.40500  Biso   1.000  C
  C33      1.0000 0.31481  0.28360  0.41259  Biso   1.000  C
  C34      1.0000 0.47340  0.18143  0.51122  Biso   1.000  C
  O5       1.0000 0.39203  0.22490  0.36831  Biso   1.000  O
  C35      1.0000 0.36985  0.22710  0.43089  Biso   1.000  C
  H34      1.0000 0.27640  0.27801  0.39590  Biso   1.000  H
  C36      1.0000 0.30251  0.25419  0.44149  Biso   1.000  C
  C37      1.0000 0.31871  0.27360  0.44850  Biso   1.000  C
  H35      1.0000 0.30060  0.30721  0.40659  Biso   1.000  H
  C38      1.0000 0.44914  0.16669  0.47854  Biso   1.000  C
  H36      1.0000 0.45649  0.18170  0.53421  Biso   1.000  H
  C39      1.0000 0.50978  0.15481  0.51772  Biso   1.000  C
  H37      1.0000 0.38569  0.23311  0.34700  Biso   1.000  H
  C40      1.0000 0.40567  0.20388  0.44138  Biso   1.000  C
  C41      1.0000 0.33651  0.23389  0.45321  Biso   1.000  C
  C42      1.0000 0.34889  0.24850  0.45941  Biso   1.000  C
  O6       1.0000 0.27021  0.26169  0.46409  Biso   1.000  O
  O7       1.0000 0.29560  0.29179  0.47631  Biso   1.000  O
  N6       1.0000 0.41314  0.19078  0.47377  Biso   1.000  N
  H38      1.0000 0.46560  0.16901  0.45542  Biso   1.000  H
  C43      1.0000 0.43752  0.12305  0.48373  Biso   1.000  C
  C44      1.0000 0.49778  0.11141  0.52285  Biso   1.000  C
  H39      1.0000 0.52800  0.15699  0.49609  Biso   1.000  H
  H40      1.0000 0.52419  0.16410  0.54020  Biso   1.000  H
  H41      1.0000 0.42451  0.19840  0.42230  Biso   1.000  H
  H42      1.0000 0.33702  0.22400  0.47801  Biso   1.000  H
  H43      1.0000 0.35559  0.24541  0.48499  Biso   1.000  H
  H44      1.0000 0.27271  0.25100  0.48320  Biso   1.000  H
  H45      1.0000 0.28691  0.27441  0.49102  Biso   1.000  H
  O8       1.0000 0.29179  0.29560  0.52372  Biso   1.000  O
  H46      1.0000 0.41981  0.12049  0.50569  Biso   1.000  H
  H47      1.0000 0.42270  0.11370  0.46150  Biso   1.000  H
  C45      1.0000 0.47408  0.09726  0.48934  Biso   1.000  C
  H48      1.0000 0.52190  0.09479  0.52581  Biso   1.000  H
  H49      1.0000 0.48150  0.10861  0.54570  Biso   1.000  H
  O9       1.0000 0.26169  0.27021  0.53591  Biso   1.000  O
  H50      1.0000 0.27441  0.28691  0.50901  Biso   1.000  H
  C46      1.0000 0.27360  0.31871  0.55150  Biso   1.000  C
  H51      1.0000 0.49099  0.09840  0.46672  Biso   1.000  H
  H52      1.0000 0.46581  0.06931  0.49319  Biso   1.000  H
  H53      1.0000 0.25100  0.27271  0.51680  Biso   1.000  H
  C47      1.0000 0.25419  0.30251  0.55851  Biso   1.000  C
  C48      1.0000 0.26571  0.30001  0.59500  Biso   1.000  C
  C49      1.0000 0.23389  0.33651  0.54682  Biso   1.000  C
  C50      1.0000 0.28360  0.31481  0.58741  Biso   1.000  C
  C51      1.0000 0.24850  0.34889  0.54059  Biso   1.000  C
  C52      1.0000 0.25922  0.33183  0.61852  Biso   1.000  C
  H54      1.0000 0.27801  0.27640  0.60410  Biso   1.000  H
  C53      1.0000 0.22710  0.36985  0.56911  Biso   1.000  C
  H55      1.0000 0.22400  0.33702  0.52201  Biso   1.000  H
  H56      1.0000 0.30721  0.30060  0.59341  Biso   1.000  H
  H57      1.0000 0.24541  0.35559  0.51501  Biso   1.000  H
  C54      1.0000 0.23692  0.36509  0.60697  Biso   1.000  C
  C55      1.0000 0.27131  0.32692  0.65702  Biso   1.000  C
  C56      1.0000 0.20388  0.40567  0.55862  Biso   1.000  C
  O10      1.0000 0.22490  0.39203  0.63169  Biso   1.000  O
  N7       1.0000 0.26238  0.35199  0.68144  Biso   1.000  N
  H58      1.0000 0.28640  0.30409  0.66391  Biso   1.000  H
  N8       1.0000 0.19078  0.41314  0.52625  Biso   1.000  N
  H59      1.0000 0.19840  0.42451  0.57770  Biso   1.000  H
  H60      1.0000 0.23311  0.38569  0.65300  Biso   1.000  H
  C57      1.0000 0.27473  0.34493  0.71963  Biso   1.000  C
  C58      1.0000 0.16669  0.44914  0.52148  Biso   1.000  C
  H61      1.0000 0.29111  0.32010  0.72100  Biso   1.000  H
  C59      1.0000 0.29962  0.38093  0.73283  Biso   1.000  C
  C60      1.0000 0.23773  0.34056  0.74390  Biso   1.000  C
  C61      1.0000 0.18143  0.47340  0.48878  Biso   1.000  C
  H62      1.0000 0.16901  0.46560  0.54461  Biso   1.000  H
  C62      1.0000 0.12305  0.43752  0.51627  Biso   1.000  C
  N9       1.0000 0.33597  0.38364  0.71023  Biso   1.000  N
  H63      1.0000 0.28369  0.40591  0.73009  Biso   1.000  H
  C63      1.0000 0.31114  0.37494  0.77348  Biso   1.000  C
  C64      1.0000 0.24943  0.33416  0.78433  Biso   1.000  C
  H64      1.0000 0.22120  0.36479  0.74181  Biso   1.000  H
  H65      1.0000 0.22171  0.31769  0.73512  Biso   1.000  H
  N10      1.0000 0.22195  0.48751  0.49665  Biso   1.000  N
  H66      1.0000 0.18170  0.45649  0.46579  Biso   1.000  H
  C65      1.0000 0.15481  0.50978  0.48228  Biso   1.000  C
  H67      1.0000 0.12049  0.41981  0.49431  Biso   1.000  H
  H68      1.0000 0.11370  0.42270  0.53850  Biso   1.000  H
  C66      1.0000 0.09726  0.47408  0.51066  Biso   1.000  C
  C67      1.0000 0.34309  0.41761  0.69513  Biso   1.000  C
  H69      1.0000 0.32651  0.39831  0.78221  Biso   1.000  H
  H70      1.0000 0.32841  0.35119  0.77560  Biso   1.000  H
  C68      1.0000 0.27393  0.36941  0.79859  Biso   1.000  C
  H71      1.0000 0.26530  0.30939  0.78659  Biso   1.000  H
  H72      1.0000 0.22519  0.33109  0.79982  Biso   1.000  H
  C69      1.0000 0.25062  0.48054  0.47517  Biso   1.000  C
  C70      1.0000 0.11141  0.49778  0.47715  Biso   1.000  C
  H73      1.0000 0.15699  0.52800  0.50391  Biso   1.000  H
  H74      1.0000 0.16410  0.52419  0.45980  Biso   1.000  H
  H75      1.0000 0.09840  0.49099  0.53331  Biso   1.000  H
  H76      1.0000 0.06931  0.46581  0.50681  Biso   1.000  H
  H77      1.0000 0.32451  0.43851  0.69890  Biso   1.000  H
  C71      1.0000 0.37834  0.42576  0.67237  Biso   1.000  C
  H78      1.0000 0.28229  0.36449  0.82470  Biso   1.000  H
  H79      1.0000 0.25750  0.39391  0.79811  Biso   1.000  H
  C72      1.0000 0.29042  0.49713  0.48228  Biso   1.000  C
  H80      1.0000 0.24651  0.46420  0.45391  Biso   1.000  H
  H81      1.0000 0.09479  0.52190  0.47419  Biso   1.000  H
  H82      1.0000 0.10861  0.48150  0.45430  Biso   1.000  H
  C73      1.0000 0.38566  0.46533  0.66096  Biso   1.000  C
  C74      1.0000 0.40469  0.39599  0.66090  Biso   1.000  C
  C75      1.0000 0.29792  0.51925  0.51389  Biso   1.000  C
  C76      1.0000 0.32115  0.49067  0.45675  Biso   1.000  C
  O11      1.0000 0.36033  0.49424  0.67156  Biso   1.000  O
  C77      1.0000 0.41910  0.47361  0.63883  Biso   1.000  C
  C78      1.0000 0.43711  0.40400  0.63917  Biso   1.000  C
  H83      1.0000 0.39989  0.36929  0.66852  Biso   1.000  H
  O12      1.0000 0.26899  0.52824  0.53753  Biso   1.000  O
  C79      1.0000 0.33651  0.53461  0.52031  Biso   1.000  C
  H84      1.0000 0.31600  0.47551  0.43491  Biso   1.000  H
  C80      1.0000 0.35866  0.50576  0.46247  Biso   1.000  C
  H85      1.0000 0.37000  0.51660  0.66601  Biso   1.000  H
  C81      1.0000 0.44467  0.44276  0.62789  Biso   1.000  C
  C82      1.0000 0.42696  0.51448  0.62653  Biso   1.000  C
  O13      1.0000 0.46173  0.37310  0.62884  Biso   1.000  O
  H86      1.0000 0.24702  0.52169  0.52821  Biso   1.000  H
  C83      1.0000 0.34446  0.55801  0.55348  Biso   1.000  C
  C84      1.0000 0.36569  0.52842  0.49428  Biso   1.000  C
  O14      1.0000 0.38789  0.49894  0.43736  Biso   1.000  O
  H87      1.0000 0.46721  0.44839  0.61272  Biso   1.000  H
  N11      1.0000 0.40430  0.54327  0.63495  Biso   1.000  N
  H88      1.0000 0.44979  0.51960  0.61171  Biso   1.000  H
  H89      1.0000 0.47301  0.37911  0.60870  Biso   1.000  H
  N12      1.0000 0.37828  0.57066  0.56336  Biso   1.000  N
  H90      1.0000 0.32249  0.56441  0.56900  Biso   1.000  H
  H91      1.0000 0.39129  0.53979  0.49799  Biso   1.000  H
  H92      1.0000 0.40829  0.51160  0.44389  Biso   1.000  H
  C85      1.0000 0.41323  0.58373  0.62153  Biso   1.000  C
  C86      1.0000 0.37986  0.59633  0.59542  Biso   1.000  C
  H93      1.0000 0.43910  0.58361  0.60769  Biso   1.000  H
  C87      1.0000 0.41600  0.61219  0.65473  Biso   1.000  C
  H94      1.0000 0.35401  0.59460  0.60909  Biso   1.000  H
  C88      1.0000 0.38688  0.64015  0.58306  Biso   1.000  C
  C89      1.0000 0.42308  0.65510  0.64173  Biso   1.000  C
  H95      1.0000 0.43809  0.60380  0.67120  Biso   1.000  H
  H96      1.0000 0.39099  0.61091  0.66930  Biso   1.000  H
  H97      1.0000 0.41180  0.64170  0.56841  Biso   1.000  H
  H98      1.0000 0.36470  0.64861  0.56671  Biso   1.000  H
  C90      1.0000 0.38965  0.66843  0.61598  Biso   1.000  C
  H99      1.0000 0.42439  0.67299  0.66361  Biso   1.000  H
  H100     1.0000 0.44881  0.65679  0.62840  Biso   1.000  H
  H101     1.0000 0.36411  0.66861  0.62979  Biso   1.000  H
  H102     1.0000 0.39501  0.69579  0.60691  Biso   1.000  H
  C91      1.0000 0.48555  0.57304  0.37347  Biso   1.000  C
  N13      1.0000 0.45673  0.59570  0.36505  Biso   1.000  N
  C92      1.0000 0.52639  0.58090  0.36117  Biso   1.000  C
  H103     1.0000 0.48040  0.55021  0.38832  Biso   1.000  H
  C93      1.0000 0.41627  0.58677  0.37849  Biso   1.000  C
  C94      1.0000 0.53467  0.61434  0.33904  Biso   1.000  C
  C95      1.0000 0.55727  0.55533  0.37213  Biso   1.000  C
  C96      1.0000 0.38781  0.58400  0.34527  Biso   1.000  C
  C97      1.0000 0.40367  0.62014  0.40458  Biso   1.000  C
  H104     1.0000 0.41642  0.56090  0.39231  Biso   1.000  H
  O15      1.0000 0.50576  0.63967  0.32844  Biso   1.000  O
  C98      1.0000 0.57427  0.62166  0.32766  Biso   1.000  C
  H105     1.0000 0.55161  0.53279  0.38731  Biso   1.000  H
  C99      1.0000 0.59600  0.56289  0.36086  Biso   1.000  C
  C100     1.0000 0.34490  0.57692  0.35829  Biso   1.000  C
  H106     1.0000 0.39620  0.56191  0.32880  Biso   1.000  H
  H107     1.0000 0.38912  0.60901  0.33070  Biso   1.000  H
  C101     1.0000 0.35985  0.61312  0.41694  Biso   1.000  C
  N14      1.0000 0.42934  0.62172  0.43664  Biso   1.000  N
  H108     1.0000 0.40540  0.64602  0.39091  Biso   1.000  H
  H109     1.0000 0.48340  0.63000  0.33399  Biso   1.000  H
  C102     1.0000 0.58239  0.65691  0.30489  Biso   1.000  C
  C103     1.0000 0.60401  0.59531  0.33910  Biso   1.000  C
  O16      1.0000 0.62690  0.53827  0.37116  Biso   1.000  O
  C104     1.0000 0.33157  0.61035  0.38402  Biso   1.000  C
  H110     1.0000 0.32701  0.57561  0.33639  Biso   1.000  H
  H111     1.0000 0.34321  0.55119  0.37160  Biso   1.000  H
  H112     1.0000 0.35830  0.58820  0.43159  Biso   1.000  H
  H113     1.0000 0.35139  0.63530  0.43329  Biso   1.000  H
  C105     1.0000 0.44199  0.65554  0.44652  Biso   1.000  C
  N15      1.0000 0.61636  0.66403  0.28977  Biso   1.000  N
  H114     1.0000 0.56149  0.67549  0.30110  Biso   1.000  H
  H115     1.0000 0.63071  0.60011  0.33151  Biso   1.000  H
  H116     1.0000 0.62089  0.52699  0.39130  Biso   1.000  H
  H117     1.0000 0.33139  0.63589  0.37021  Biso   1.000  H
  H118     1.0000 0.30421  0.60499  0.39311  Biso   1.000  H
  H119     1.0000 0.43559  0.67751  0.43100  Biso   1.000  H
  C106     1.0000 0.46539  0.66349  0.47969  Biso   1.000  C
  C107     1.0000 0.61907  0.70038  0.26717  Biso   1.000  C
  C108     1.0000 0.48075  0.70208  0.48611  Biso   1.000  C
  C109     1.0000 0.47158  0.63431  0.50572  Biso   1.000  C
  C110     1.0000 0.65507  0.72527  0.28037  Biso   1.000  C
  H120     1.0000 0.59409  0.71631  0.26991  Biso   1.000  H
  C111     1.0000 0.62506  0.68889  0.22652  Biso   1.000  C
  O17      1.0000 0.47176  0.73101  0.46250  Biso   1.000  O
  C112     1.0000 0.50287  0.70958  0.51774  Biso   1.000  C
  C113     1.0000 0.49424  0.64134  0.53753  Biso   1.000  C
  H121     1.0000 0.46021  0.60871  0.50201  Biso   1.000  H
  N16      1.0000 0.64801  0.73762  0.31856  Biso   1.000  N
  H122     1.0000 0.67990  0.70889  0.27900  Biso   1.000  H
  C114     1.0000 0.65944  0.76227  0.25610  Biso   1.000  C
  H123     1.0000 0.60171  0.67349  0.21779  Biso   1.000  H
  H124     1.0000 0.64881  0.67159  0.22440  Biso   1.000  H
  C115     1.0000 0.63059  0.72607  0.20141  Biso   1.000  C
  H125     1.0000 0.47831  0.75301  0.47179  Biso   1.000  H
  C116     1.0000 0.50933  0.67885  0.54325  Biso   1.000  C
  C117     1.0000 0.51946  0.74938  0.52483  Biso   1.000  C
  O18      1.0000 0.50106  0.61211  0.56264  Biso   1.000  O
  C118     1.0000 0.67308  0.72869  0.34298  Biso   1.000  C
  C119     1.0000 0.66584  0.75057  0.21567  Biso   1.000  C
  H126     1.0000 0.63521  0.77880  0.25819  Biso   1.000  H
  H127     1.0000 0.68231  0.77829  0.26491  Biso   1.000  H
  H128     1.0000 0.63551  0.71771  0.17530  Biso   1.000  H
  H129     1.0000 0.60609  0.74250  0.20191  Biso   1.000  H
  H130     1.0000 0.52449  0.68400  0.56509  Biso   1.000  H
  N17      1.0000 0.51249  0.77805  0.50335  Biso   1.000  N
  H131     1.0000 0.53580  0.75349  0.54609  Biso   1.000  H
  H132     1.0000 0.48840  0.59171  0.55611  Biso   1.000  H
  C120     1.0000 0.66817  0.74078  0.38148  Biso   1.000  C
  H133     1.0000 0.69591  0.71360  0.33611  Biso   1.000  H
  H134     1.0000 0.69061  0.73470  0.21341  Biso   1.000  H
  H135     1.0000 0.66891  0.77481  0.20021  Biso   1.000  H
  C121     1.0000 0.52660  0.81857  0.51122  Biso   1.000  C
  C122     1.0000 0.63491  0.76308  0.39303  Biso   1.000  C
  C123     1.0000 0.69999  0.73429  0.40500  Biso   1.000  C
  C124     1.0000 0.68519  0.71640  0.41259  Biso   1.000  C
  H136     1.0000 0.54351  0.81830  0.53421  Biso   1.000  H
  C125     1.0000 0.55086  0.83331  0.47854  Biso   1.000  C
  C126     1.0000 0.49022  0.84519  0.51772  Biso   1.000  C
  C127     1.0000 0.63018  0.77290  0.43089  Biso   1.000  C
  O19      1.0000 0.60800  0.77510  0.36831  Biso   1.000  O
  H137     1.0000 0.72360  0.72199  0.39590  Biso   1.000  H
  C128     1.0000 0.69749  0.74581  0.44149  Biso   1.000  C
  C129     1.0000 0.68129  0.72640  0.44850  Biso   1.000  C
  H138     1.0000 0.69940  0.69282  0.40659  Biso   1.000  H
  N18      1.0000 0.58686  0.80922  0.47377  Biso   1.000  N
  H139     1.0000 0.53440  0.83102  0.45542  Biso   1.000  H
  C130     1.0000 0.56251  0.87695  0.48373  Biso   1.000  C
  C131     1.0000 0.50222  0.88859  0.52285  Biso   1.000  C
  H140     1.0000 0.47200  0.84301  0.49609  Biso   1.000  H
  H141     1.0000 0.47581  0.83590  0.54020  Biso   1.000  H
  C132     1.0000 0.59433  0.79612  0.44138  Biso   1.000  C
  C133     1.0000 0.66349  0.76611  0.45321  Biso   1.000  C
  C134     1.0000 0.65111  0.75150  0.45941  Biso   1.000  C
  H142     1.0000 0.61431  0.76689  0.34700  Biso   1.000  H
  O20      1.0000 0.72979  0.73831  0.46409  Biso   1.000  O
  O21      1.0000 0.70440  0.70821  0.47631  Biso   1.000  O
  H143     1.0000 0.58019  0.87951  0.50569  Biso   1.000  H
  H144     1.0000 0.57730  0.88630  0.46150  Biso   1.000  H
  C135     1.0000 0.52595  0.90274  0.48934  Biso   1.000  C
  H145     1.0000 0.47810  0.90521  0.52581  Biso   1.000  H
  H146     1.0000 0.51850  0.89139  0.54570  Biso   1.000  H
  H147     1.0000 0.57552  0.80160  0.42230  Biso   1.000  H
  H148     1.0000 0.66301  0.77600  0.47801  Biso   1.000  H
  H149     1.0000 0.64441  0.75459  0.48499  Biso   1.000  H
  H150     1.0000 0.72729  0.74900  0.48320  Biso   1.000  H
  H151     1.0000 0.71309  0.72559  0.49102  Biso   1.000  H
  O22      1.0000 0.70821  0.70440  0.52372  Biso   1.000  O
  H152     1.0000 0.50901  0.90160  0.46672  Biso   1.000  H
  H153     1.0000 0.53419  0.93069  0.49319  Biso   1.000  H
  O23      1.0000 0.73831  0.72979  0.53591  Biso   1.000  O
  H154     1.0000 0.72559  0.71309  0.50901  Biso   1.000  H
  C136     1.0000 0.72640  0.68129  0.55150  Biso   1.000  C
  H155     1.0000 0.74900  0.72729  0.51680  Biso   1.000  H
  C137     1.0000 0.74581  0.69749  0.55851  Biso   1.000  C
  C138     1.0000 0.73429  0.69999  0.59500  Biso   1.000  C
  C139     1.0000 0.76611  0.66349  0.54682  Biso   1.000  C
  C140     1.0000 0.71640  0.68519  0.58741  Biso   1.000  C
  C141     1.0000 0.75150  0.65111  0.54059  Biso   1.000  C
  C142     1.0000 0.74078  0.66817  0.61852  Biso   1.000  C
  H156     1.0000 0.72199  0.72360  0.60410  Biso   1.000  H
  C143     1.0000 0.77290  0.63018  0.56911  Biso   1.000  C
  H157     1.0000 0.77600  0.66301  0.52201  Biso   1.000  H
  H158     1.0000 0.69282  0.69940  0.59341  Biso   1.000  H
  H159     1.0000 0.75459  0.64441  0.51501  Biso   1.000  H
  C144     1.0000 0.76308  0.63491  0.60697  Biso   1.000  C
  C145     1.0000 0.72869  0.67308  0.65702  Biso   1.000  C
  C146     1.0000 0.79612  0.59433  0.55862  Biso   1.000  C
  O24      1.0000 0.77510  0.60800  0.63169  Biso   1.000  O
  N19      1.0000 0.73762  0.64801  0.68144  Biso   1.000  N
  H160     1.0000 0.71360  0.69591  0.66391  Biso   1.000  H
  N20      1.0000 0.80922  0.58686  0.52625  Biso   1.000  N
  H161     1.0000 0.80160  0.57552  0.57770  Biso   1.000  H
  H162     1.0000 0.76689  0.61431  0.65300  Biso   1.000  H
  C147     1.0000 0.72527  0.65507  0.71963  Biso   1.000  C
  C148     1.0000 0.83331  0.55086  0.52148  Biso   1.000  C
  H163     1.0000 0.70889  0.67990  0.72100  Biso   1.000  H
  C149     1.0000 0.70038  0.61907  0.73283  Biso   1.000  C
  C150     1.0000 0.76227  0.65944  0.74390  Biso   1.000  C
  C151     1.0000 0.81857  0.52660  0.48878  Biso   1.000  C
  H164     1.0000 0.83102  0.53440  0.54461  Biso   1.000  H
  C152     1.0000 0.87695  0.56251  0.51627  Biso   1.000  C
  N21      1.0000 0.66403  0.61636  0.71023  Biso   1.000  N
  H165     1.0000 0.71631  0.59409  0.73009  Biso   1.000  H
  C153     1.0000 0.68889  0.62506  0.77348  Biso   1.000  C
  C154     1.0000 0.75057  0.66584  0.78433  Biso   1.000  C
  H166     1.0000 0.77880  0.63521  0.74181  Biso   1.000  H
  H167     1.0000 0.77829  0.68231  0.73512  Biso   1.000  H
  N22      1.0000 0.77805  0.51249  0.49665  Biso   1.000  N
  H168     1.0000 0.81830  0.54351  0.46579  Biso   1.000  H
  C155     1.0000 0.84519  0.49022  0.48228  Biso   1.000  C
  H169     1.0000 0.87951  0.58019  0.49431  Biso   1.000  H
  H170     1.0000 0.88630  0.57730  0.53850  Biso   1.000  H
  C156     1.0000 0.90274  0.52595  0.51066  Biso   1.000  C
  C157     1.0000 0.65691  0.58239  0.69513  Biso   1.000  C
  H171     1.0000 0.67349  0.60171  0.78221  Biso   1.000  H
  H172     1.0000 0.67159  0.64881  0.77560  Biso   1.000  H
  C158     1.0000 0.72607  0.63059  0.79859  Biso   1.000  C
  H173     1.0000 0.73470  0.69061  0.78659  Biso   1.000  H
  H174     1.0000 0.77481  0.66891  0.79982  Biso   1.000  H
  C159     1.0000 0.74938  0.51946  0.47517  Biso   1.000  C
  C160     1.0000 0.88859  0.50222  0.47715  Biso   1.000  C
  H175     1.0000 0.84301  0.47200  0.50391  Biso   1.000  H
  H176     1.0000 0.83590  0.47581  0.45980  Biso   1.000  H
  H177     1.0000 0.90160  0.50901  0.53331  Biso   1.000  H
  H178     1.0000 0.93069  0.53419  0.50681  Biso   1.000  H
  H179     1.0000 0.67549  0.56149  0.69890  Biso   1.000  H
  C161     1.0000 0.62166  0.57427  0.67237  Biso   1.000  C
  H180     1.0000 0.71771  0.63551  0.82470  Biso   1.000  H
  H181     1.0000 0.74250  0.60609  0.79811  Biso   1.000  H
  C162     1.0000 0.70958  0.50287  0.48228  Biso   1.000  C
  H182     1.0000 0.75349  0.53580  0.45391  Biso   1.000  H
  H183     1.0000 0.90521  0.47810  0.47419  Biso   1.000  H
  H184     1.0000 0.89139  0.51850  0.45430  Biso   1.000  H
  C163     1.0000 0.61434  0.53467  0.66096  Biso   1.000  C
  C164     1.0000 0.59531  0.60401  0.66090  Biso   1.000  C
  C165     1.0000 0.70208  0.48075  0.51389  Biso   1.000  C
  C166     1.0000 0.67885  0.50933  0.45675  Biso   1.000  C
  O25      1.0000 0.63967  0.50576  0.67156  Biso   1.000  O
  C167     1.0000 0.58090  0.52639  0.63883  Biso   1.000  C
  C168     1.0000 0.56289  0.59600  0.63917  Biso   1.000  C
  H185     1.0000 0.60011  0.63071  0.66852  Biso   1.000  H
  O26      1.0000 0.73101  0.47176  0.53753  Biso   1.000  O
  C169     1.0000 0.66349  0.46539  0.52031  Biso   1.000  C
  H186     1.0000 0.68400  0.52449  0.43491  Biso   1.000  H
  C170     1.0000 0.64134  0.49424  0.46247  Biso   1.000  C
  H187     1.0000 0.63000  0.48340  0.66601  Biso   1.000  H
  C171     1.0000 0.55533  0.55727  0.62789  Biso   1.000  C
  C172     1.0000 0.57304  0.48555  0.62653  Biso   1.000  C
  O27      1.0000 0.53827  0.62690  0.62884  Biso   1.000  O
  H188     1.0000 0.75301  0.47831  0.52821  Biso   1.000  H
  C173     1.0000 0.65554  0.44199  0.55348  Biso   1.000  C
  C174     1.0000 0.63431  0.47158  0.49428  Biso   1.000  C
  O28      1.0000 0.61211  0.50106  0.43736  Biso   1.000  O
  H189     1.0000 0.53279  0.55161  0.61272  Biso   1.000  H
  N23      1.0000 0.59570  0.45673  0.63495  Biso   1.000  N
  H190     1.0000 0.55021  0.48040  0.61171  Biso   1.000  H
  H191     1.0000 0.52699  0.62089  0.60870  Biso   1.000  H
  N24      1.0000 0.62172  0.42934  0.56336  Biso   1.000  N
  H192     1.0000 0.67751  0.43559  0.56900  Biso   1.000  H
  H193     1.0000 0.60871  0.46021  0.49799  Biso   1.000  H
  H194     1.0000 0.59171  0.48840  0.44389  Biso   1.000  H
  C175     1.0000 0.58677  0.41627  0.62153  Biso   1.000  C
  C176     1.0000 0.62014  0.40367  0.59542  Biso   1.000  C
  H195     1.0000 0.56090  0.41642  0.60769  Biso   1.000  H
  C177     1.0000 0.58400  0.38781  0.65473  Biso   1.000  C
  H196     1.0000 0.64602  0.40540  0.60909  Biso   1.000  H
  C178     1.0000 0.61312  0.35985  0.58306  Biso   1.000  C
  C179     1.0000 0.57692  0.34490  0.64173  Biso   1.000  C
  H197     1.0000 0.56191  0.39620  0.67120  Biso   1.000  H
  H198     1.0000 0.60901  0.38912  0.66930  Biso   1.000  H
  H199     1.0000 0.58820  0.35830  0.56841  Biso   1.000  H
  H200     1.0000 0.63530  0.35139  0.56671  Biso   1.000  H
  C180     1.0000 0.61035  0.33157  0.61598  Biso   1.000  C
  H201     1.0000 0.57561  0.32701  0.66361  Biso   1.000  H
  H202     1.0000 0.55119  0.34321  0.62840  Biso   1.000  H
  H203     1.0000 0.63589  0.33139  0.62979  Biso   1.000  H
  H204     1.0000 0.60499  0.30421  0.60691  Biso   1.000  H
  C181     1.0000 0.61142  0.50222  0.27286  Biso   1.000  C
  C182     1.0000 0.59728  0.52595  0.23936  Biso   1.000  C
  H205     1.0000 0.59481  0.47810  0.27579  Biso   1.000  H
  H206     1.0000 0.60859  0.51850  0.29571  Biso   1.000  H
  C183     1.0000 0.65480  0.49022  0.26770  Biso   1.000  C
  C184     1.0000 0.62306  0.56251  0.23375  Biso   1.000  C
  H207     1.0000 0.59841  0.50901  0.21670  Biso   1.000  H
  H208     1.0000 0.56929  0.53419  0.24321  Biso   1.000  H
  C185     1.0000 0.68144  0.52660  0.26120  Biso   1.000  C
  H209     1.0000 0.65700  0.47200  0.24611  Biso   1.000  H
  H210     1.0000 0.66412  0.47581  0.29019  Biso   1.000  H
  C186     1.0000 0.66671  0.55086  0.22853  Biso   1.000  C
  H211     1.0000 0.62050  0.58019  0.25571  Biso   1.000  H
  H212     1.0000 0.61371  0.57730  0.21151  Biso   1.000  H
  N25      1.0000 0.72193  0.51249  0.25333  Biso   1.000  N
  H213     1.0000 0.68171  0.54351  0.28419  Biso   1.000  H
  N26      1.0000 0.69079  0.58686  0.22376  Biso   1.000  N
  H214     1.0000 0.66900  0.53440  0.20540  Biso   1.000  H
  C187     1.0000 0.75060  0.51946  0.27482  Biso   1.000  C
  C188     1.0000 0.70389  0.59433  0.19137  Biso   1.000  C
  C189     1.0000 0.79044  0.50287  0.26773  Biso   1.000  C
  H215     1.0000 0.74649  0.53580  0.29611  Biso   1.000  H
  H216     1.0000 0.69841  0.57552  0.17231  Biso   1.000  H
  C190     1.0000 0.72711  0.63018  0.18091  Biso   1.000  C
  C191     1.0000 0.79791  0.48075  0.23609  Biso   1.000  C
  C192     1.0000 0.82113  0.50933  0.29326  Biso   1.000  C
  C193     1.0000 0.73694  0.63491  0.14304  Biso   1.000  C
  C194     1.0000 0.73390  0.66349  0.20320  Biso   1.000  C
  C195     1.0000 0.74849  0.65111  0.20939  Biso   1.000  C
  O29      1.0000 0.76900  0.47176  0.21249  Biso   1.000  O
  C196     1.0000 0.83649  0.46539  0.22967  Biso   1.000  C
  H217     1.0000 0.81601  0.52449  0.31511  Biso   1.000  H
  C197     1.0000 0.85864  0.49424  0.28754  Biso   1.000  C
  O30      1.0000 0.72488  0.60800  0.11830  Biso   1.000  O
  C198     1.0000 0.75924  0.66817  0.13147  Biso   1.000  C
  C199     1.0000 0.75421  0.69749  0.19151  Biso   1.000  C
  H218     1.0000 0.72402  0.66301  0.22800  Biso   1.000  H
  C200     1.0000 0.77362  0.68129  0.19851  Biso   1.000  C
  H219     1.0000 0.74539  0.64441  0.23500  Biso   1.000  H
  H220     1.0000 0.74700  0.47831  0.22181  Biso   1.000  H
  C201     1.0000 0.84447  0.44199  0.19653  Biso   1.000  C
  C202     1.0000 0.86570  0.47158  0.25573  Biso   1.000  C
  O31      1.0000 0.88788  0.50106  0.31265  Biso   1.000  O
  H221     1.0000 0.73310  0.61431  0.09701  Biso   1.000  H
  C203     1.0000 0.76570  0.69999  0.15501  Biso   1.000  C
  C204     1.0000 0.77132  0.67308  0.09299  Biso   1.000  C
  C205     1.0000 0.78359  0.68519  0.16260  Biso   1.000  C
  O32      1.0000 0.76171  0.72979  0.21411  Biso   1.000  O
  O33      1.0000 0.79181  0.70440  0.22630  Biso   1.000  O
  N27      1.0000 0.87829  0.42934  0.18662  Biso   1.000  N
  H222     1.0000 0.82250  0.43559  0.18099  Biso   1.000  H
  H223     1.0000 0.89130  0.46021  0.25199  Biso   1.000  H
  H224     1.0000 0.90830  0.48840  0.30609  Biso   1.000  H
  H225     1.0000 0.77799  0.72360  0.14589  Biso   1.000  H
  N28      1.0000 0.76236  0.64801  0.06855  Biso   1.000  N
  H226     1.0000 0.78639  0.69591  0.08610  Biso   1.000  H
  H227     1.0000 0.80720  0.69940  0.15660  Biso   1.000  H
  H228     1.0000 0.75099  0.72729  0.23319  Biso   1.000  H
  H229     1.0000 0.77439  0.71309  0.24100  Biso   1.000  H
  O34      1.0000 0.79559  0.70821  0.27370  Biso   1.000  O
  C206     1.0000 0.87987  0.40367  0.15460  Biso   1.000  C
  C207     1.0000 0.77472  0.65507  0.03036  Biso   1.000  C
  O35      1.0000 0.77019  0.73831  0.28589  Biso   1.000  O
  H230     1.0000 0.78689  0.72559  0.25900  Biso   1.000  H
  C208     1.0000 0.81869  0.72640  0.30149  Biso   1.000  C
  C209     1.0000 0.91322  0.41627  0.12848  Biso   1.000  C
  H231     1.0000 0.85400  0.40540  0.14090  Biso   1.000  H
  C210     1.0000 0.88687  0.35985  0.16693  Biso   1.000  C
  H232     1.0000 0.79109  0.67990  0.02899  Biso   1.000  H
  C211     1.0000 0.79961  0.61907  0.01719  Biso   1.000  C
  C212     1.0000 0.73771  0.65944  0.00608  Biso   1.000  C
  H233     1.0000 0.77269  0.74900  0.26681  Biso   1.000  H
  C213     1.0000 0.80249  0.74581  0.30849  Biso   1.000  C
  C214     1.0000 0.79999  0.73429  0.34501  Biso   1.000  C
  C215     1.0000 0.83649  0.76611  0.29680  Biso   1.000  C
  C216     1.0000 0.81479  0.71640  0.33740  Biso   1.000  C
  C217     1.0000 0.84891  0.75150  0.29061  Biso   1.000  C
  N29      1.0000 0.90431  0.45673  0.11506  Biso   1.000  N
  H234     1.0000 0.93912  0.41642  0.14229  Biso   1.000  H
  C218     1.0000 0.91601  0.38781  0.09528  Biso   1.000  C
  H235     1.0000 0.91182  0.35830  0.18160  Biso   1.000  H
  H236     1.0000 0.86469  0.35139  0.18330  Biso   1.000  H
  C219     1.0000 0.88967  0.33157  0.13403  Biso   1.000  C
  N30      1.0000 0.83599  0.61636  0.03976  Biso   1.000  N
  H237     1.0000 0.78371  0.59409  0.01989  Biso   1.000  H
  C220     1.0000 0.81113  0.62506  0.97651  Biso   1.000  C
  H238     1.0000 0.72119  0.63521  0.00820  Biso   1.000  H
  H239     1.0000 0.72169  0.68231  0.01490  Biso   1.000  H
  C221     1.0000 0.74944  0.66584  0.96565  Biso   1.000  C
  C222     1.0000 0.83182  0.74078  0.36853  Biso   1.000  C
  H240     1.0000 0.77641  0.72199  0.35411  Biso   1.000  H
  C223     1.0000 0.86984  0.77290  0.31909  Biso   1.000  C
  H241     1.0000 0.83700  0.77600  0.27200  Biso   1.000  H
  H242     1.0000 0.80059  0.69282  0.34340  Biso   1.000  H
  H243     1.0000 0.85561  0.75459  0.26500  Biso   1.000  H
  C224     1.0000 0.92697  0.48555  0.12349  Biso   1.000  C
  C225     1.0000 0.92307  0.34490  0.10828  Biso   1.000  C
  H244     1.0000 0.93810  0.39620  0.07879  Biso   1.000  H
  H245     1.0000 0.89101  0.38912  0.08069  Biso   1.000  H
  H246     1.0000 0.86409  0.33139  0.12019  Biso   1.000  H
  H247     1.0000 0.89500  0.30421  0.14310  Biso   1.000  H
  C226     1.0000 0.84310  0.58239  0.05488  Biso   1.000  C
  H248     1.0000 0.82649  0.60171  0.96780  Biso   1.000  H
  H249     1.0000 0.82840  0.64881  0.97439  Biso   1.000  H
  C227     1.0000 0.77394  0.63059  0.95140  Biso   1.000  C
  H250     1.0000 0.76531  0.69061  0.96339  Biso   1.000  H
  H251     1.0000 0.72521  0.66891  0.95020  Biso   1.000  H
  C228     1.0000 0.86510  0.76308  0.35698  Biso   1.000  C
  C229     1.0000 0.82691  0.72869  0.40701  Biso   1.000  C
  C230     1.0000 0.90568  0.79612  0.30863  Biso   1.000  C
  C231     1.0000 0.91911  0.52639  0.11118  Biso   1.000  C
  H252     1.0000 0.94980  0.48040  0.13830  Biso   1.000  H
  H253     1.0000 0.92441  0.32701  0.08641  Biso   1.000  H
  H254     1.0000 0.94879  0.34321  0.12159  Biso   1.000  H
  H255     1.0000 0.82450  0.56149  0.05111  Biso   1.000  H
  C232     1.0000 0.87835  0.57427  0.07765  Biso   1.000  C
  H256     1.0000 0.78231  0.63551  0.92531  Biso   1.000  H
  H257     1.0000 0.75751  0.60609  0.95190  Biso   1.000  H
  O36      1.0000 0.89202  0.77510  0.38170  Biso   1.000  O
  N31      1.0000 0.85201  0.73762  0.43145  Biso   1.000  N
  H258     1.0000 0.80410  0.71360  0.41390  Biso   1.000  H
  N32      1.0000 0.91313  0.80922  0.27624  Biso   1.000  N
  H259     1.0000 0.92450  0.80160  0.32769  Biso   1.000  H
  C233     1.0000 0.88568  0.53467  0.08903  Biso   1.000  C
  C234     1.0000 0.94468  0.55727  0.12212  Biso   1.000  C
  C235     1.0000 0.90470  0.60401  0.08911  Biso   1.000  C
  H260     1.0000 0.88571  0.76689  0.40299  Biso   1.000  H
  C236     1.0000 0.84495  0.72527  0.46964  Biso   1.000  C
  C237     1.0000 0.94912  0.83331  0.27147  Biso   1.000  C
  O37      1.0000 0.86034  0.50576  0.07846  Biso   1.000  O
  H261     1.0000 0.96719  0.55161  0.13730  Biso   1.000  H
  C238     1.0000 0.93712  0.59600  0.11085  Biso   1.000  C
  H262     1.0000 0.89991  0.63071  0.08150  Biso   1.000  H
  H263     1.0000 0.82009  0.70889  0.47101  Biso   1.000  H
  C239     1.0000 0.88094  0.70038  0.48281  Biso   1.000  C
  C240     1.0000 0.84057  0.76227  0.49392  Biso   1.000  C
  C241     1.0000 0.97341  0.81857  0.23880  Biso   1.000  C
  H264     1.0000 0.96561  0.83102  0.29460  Biso   1.000  H
  C242     1.0000 0.93751  0.87695  0.26625  Biso   1.000  C
  H265     1.0000 0.87002  0.48340  0.08401  Biso   1.000  H
  O38      1.0000 0.96174  0.62690  0.12117  Biso   1.000  O
  N33      1.0000 0.88365  0.66403  0.46024  Biso   1.000  N
  H266     1.0000 0.90589  0.71631  0.48011  Biso   1.000  H
  C243     1.0000 0.87496  0.68889  0.52349  Biso   1.000  C
  C244     1.0000 0.83414  0.75057  0.53435  Biso   1.000  C
  H267     1.0000 0.86481  0.77880  0.49180  Biso   1.000  H
  H268     1.0000 0.81771  0.77829  0.48510  Biso   1.000  H
  N34      1.0000 0.98753  0.77805  0.24667  Biso   1.000  N
  H269     1.0000 0.95650  0.81830  0.21581  Biso   1.000  H
  C245     1.0000 0.00977  0.84519  0.23230  Biso   1.000  C
  H270     1.0000 0.91980  0.87951  0.24429  Biso   1.000  H
  H271     1.0000 0.92271  0.88630  0.28849  Biso   1.000  H
  C246     1.0000 0.97407  0.90274  0.26064  Biso   1.000  C
  H272     1.0000 0.97300  0.62089  0.14131  Biso   1.000  H
  C247     1.0000 0.91759  0.65691  0.44512  Biso   1.000  C
  H273     1.0000 0.89830  0.67349  0.53220  Biso   1.000  H
  H274     1.0000 0.85120  0.67159  0.52561  Biso   1.000  H
  C248     1.0000 0.86939  0.72607  0.54860  Biso   1.000  C
  H275     1.0000 0.80940  0.73470  0.53661  Biso   1.000  H
  H276     1.0000 0.83111  0.77481  0.54980  Biso   1.000  H
  C249     1.0000 0.98056  0.74938  0.22518  Biso   1.000  C
  C250     1.0000 0.99780  0.88859  0.22714  Biso   1.000  C
  H277     1.0000 0.02802  0.84301  0.25389  Biso   1.000  H
  H278     1.0000 0.02420  0.83590  0.20981  Biso   1.000  H
  H279     1.0000 0.99101  0.90160  0.28330  Biso   1.000  H
  H280     1.0000 0.96579  0.93069  0.25679  Biso   1.000  H
  H281     1.0000 0.93849  0.67549  0.44891  Biso   1.000  H
  C251     1.0000 0.92575  0.62166  0.42235  Biso   1.000  C
  H282     1.0000 0.86451  0.71771  0.57472  Biso   1.000  H
  H283     1.0000 0.89389  0.74250  0.54810  Biso   1.000  H
  C252     1.0000 0.99714  0.70958  0.23227  Biso   1.000  C
  H284     1.0000 0.96421  0.75349  0.20389  Biso   1.000  H
  H285     1.0000 0.98151  0.89139  0.20431  Biso   1.000  H
  H286     1.0000 0.02191  0.90521  0.22421  Biso   1.000  H
  C253     1.0000 0.96535  0.61434  0.41097  Biso   1.000  C
  C254     1.0000 0.89598  0.59531  0.41091  Biso   1.000  C
  C255     1.0000 0.99068  0.67885  0.20674  Biso   1.000  C
  C256     1.0000 0.01926  0.70208  0.26391  Biso   1.000  C
  O39      1.0000 0.99425  0.63967  0.42154  Biso   1.000  O
  C257     1.0000 0.97359  0.58090  0.38885  Biso   1.000  C
  C258     1.0000 0.90399  0.56289  0.38915  Biso   1.000  C
  H287     1.0000 0.86930  0.60011  0.41850  Biso   1.000  H
  H288     1.0000 0.97550  0.68400  0.18489  Biso   1.000  H
  C259     1.0000 0.00578  0.64134  0.21246  Biso   1.000  C
  O40      1.0000 0.02825  0.73101  0.28751  Biso   1.000  O
  C260     1.0000 0.03462  0.66349  0.27033  Biso   1.000  C
  H289     1.0000 0.01661  0.63000  0.41599  Biso   1.000  H
  C261     1.0000 0.94275  0.55533  0.37788  Biso   1.000  C
  C262     1.0000 0.01447  0.57304  0.37651  Biso   1.000  C
  O41      1.0000 0.87311  0.53827  0.37883  Biso   1.000  O
  O42      1.0000 0.99896  0.61211  0.18735  Biso   1.000  O
  C263     1.0000 0.02843  0.63431  0.24429  Biso   1.000  C
  H290     1.0000 0.02170  0.75301  0.27819  Biso   1.000  H
  C264     1.0000 0.05802  0.65554  0.30347  Biso   1.000  C
  H291     1.0000 0.94841  0.53279  0.36270  Biso   1.000  H
  N35      1.0000 0.04329  0.59570  0.38494  Biso   1.000  N
  H292     1.0000 0.01959  0.55021  0.36170  Biso   1.000  H
  H293     1.0000 0.87910  0.52699  0.35871  Biso   1.000  H
  H294     1.0000 0.01161  0.59171  0.19391  Biso   1.000  H
  H295     1.0000 0.03980  0.60871  0.24801  Biso   1.000  H
  N36      1.0000 0.07068  0.62172  0.31338  Biso   1.000  N
  H296     1.0000 0.06440  0.67751  0.31901  Biso   1.000  H
  C265     1.0000 0.08372  0.58677  0.37152  Biso   1.000  C
  C266     1.0000 0.09634  0.62014  0.34540  Biso   1.000  C
  H297     1.0000 0.08360  0.56090  0.35771  Biso   1.000  H
  C267     1.0000 0.11221  0.58400  0.40472  Biso   1.000  C
  H298     1.0000 0.09461  0.64602  0.35910  Biso   1.000  H
  C268     1.0000 0.14014  0.61312  0.33307  Biso   1.000  C
  C269     1.0000 0.15511  0.57692  0.39172  Biso   1.000  C
  H299     1.0000 0.10381  0.56191  0.42121  Biso   1.000  H
  H300     1.0000 0.11090  0.60901  0.41931  Biso   1.000  H
  H301     1.0000 0.14171  0.58820  0.31840  Biso   1.000  H
  H302     1.0000 0.14859  0.63530  0.31670  Biso   1.000  H
  C270     1.0000 0.16845  0.61035  0.36597  Biso   1.000  C
  H303     1.0000 0.17300  0.57561  0.41359  Biso   1.000  H
  H304     1.0000 0.15681  0.55119  0.37841  Biso   1.000  H
  H305     1.0000 0.16860  0.63589  0.37981  Biso   1.000  H
  H306     1.0000 0.19581  0.60499  0.35690  Biso   1.000  H
  C271     1.0000 0.38858  0.49778  0.27286  Biso   1.000  C
  C272     1.0000 0.34520  0.50978  0.26770  Biso   1.000  C
  C273     1.0000 0.40272  0.47408  0.23936  Biso   1.000  C
  H307     1.0000 0.40519  0.52190  0.27579  Biso   1.000  H
  H308     1.0000 0.39141  0.48150  0.29571  Biso   1.000  H
  C274     1.0000 0.31856  0.47340  0.26120  Biso   1.000  C
  H309     1.0000 0.34300  0.52800  0.24611  Biso   1.000  H
  H310     1.0000 0.33591  0.52419  0.29019  Biso   1.000  H
  C275     1.0000 0.37694  0.43752  0.23375  Biso   1.000  C
  H311     1.0000 0.40159  0.49099  0.21670  Biso   1.000  H
  H312     1.0000 0.43071  0.46581  0.24321  Biso   1.000  H
  C276     1.0000 0.33332  0.44914  0.22853  Biso   1.000  C
  N37      1.0000 0.27807  0.48751  0.25333  Biso   1.000  N
  H313     1.0000 0.31829  0.45649  0.28419  Biso   1.000  H
  H314     1.0000 0.37950  0.41981  0.25571  Biso   1.000  H
  H315     1.0000 0.38629  0.42270  0.21151  Biso   1.000  H
  N38      1.0000 0.30921  0.41314  0.22376  Biso   1.000  N
  H316     1.0000 0.33100  0.46560  0.20540  Biso   1.000  H
  C277     1.0000 0.24940  0.48054  0.27482  Biso   1.000  C
  C278     1.0000 0.29611  0.40567  0.19137  Biso   1.000  C
  C279     1.0000 0.20956  0.49713  0.26773  Biso   1.000  C
  H317     1.0000 0.25351  0.46420  0.29611  Biso   1.000  H
  C280     1.0000 0.27289  0.36985  0.18091  Biso   1.000  C
  H318     1.0000 0.30159  0.42451  0.17231  Biso   1.000  H
  C281     1.0000 0.20209  0.51925  0.23609  Biso   1.000  C
  C282     1.0000 0.17887  0.49067  0.29326  Biso   1.000  C
  C283     1.0000 0.26610  0.33651  0.20320  Biso   1.000  C
  C284     1.0000 0.25151  0.34889  0.20939  Biso   1.000  C
  C285     1.0000 0.26306  0.36509  0.14304  Biso   1.000  C
  O43      1.0000 0.23100  0.52824  0.21249  Biso   1.000  O
  C286     1.0000 0.16351  0.53461  0.22967  Biso   1.000  C
  H319     1.0000 0.18399  0.47551  0.31511  Biso   1.000  H
  C287     1.0000 0.14136  0.50576  0.28754  Biso   1.000  C
  C288     1.0000 0.24579  0.30251  0.19151  Biso   1.000  C
  C289     1.0000 0.22641  0.31871  0.19851  Biso   1.000  C
  H320     1.0000 0.27601  0.33702  0.22800  Biso   1.000  H
  H321     1.0000 0.25461  0.35559  0.23500  Biso   1.000  H
  C290     1.0000 0.24079  0.33183  0.13147  Biso   1.000  C
  O44      1.0000 0.27512  0.39203  0.11830  Biso   1.000  O
  H322     1.0000 0.25300  0.52169  0.22181  Biso   1.000  H
  C291     1.0000 0.15553  0.55801  0.19653  Biso   1.000  C
  C292     1.0000 0.13430  0.52842  0.25573  Biso   1.000  C
  O45      1.0000 0.11212  0.49894  0.31265  Biso   1.000  O
  O46      1.0000 0.23829  0.27021  0.21411  Biso   1.000  O
  C293     1.0000 0.23430  0.30001  0.15501  Biso   1.000  C
  C294     1.0000 0.21641  0.31481  0.16260  Biso   1.000  C
  O47      1.0000 0.20819  0.29560  0.22630  Biso   1.000  O
  C295     1.0000 0.22868  0.32692  0.09299  Biso   1.000  C
  H323     1.0000 0.26690  0.38569  0.09701  Biso   1.000  H
  N39      1.0000 0.12171  0.57066  0.18662  Biso   1.000  N
  H324     1.0000 0.17750  0.56441  0.18099  Biso   1.000  H
  H325     1.0000 0.10870  0.53979  0.25199  Biso   1.000  H
  H326     1.0000 0.09170  0.51160  0.30609  Biso   1.000  H
  H327     1.0000 0.24901  0.27271  0.23319  Biso   1.000  H
  H328     1.0000 0.22561  0.28691  0.24100  Biso   1.000  H
  H329     1.0000 0.22201  0.27640  0.14589  Biso   1.000  H
  H330     1.0000 0.19280  0.30060  0.15660  Biso   1.000  H
  O48      1.0000 0.20441  0.29179  0.27370  Biso   1.000  O
  N40      1.0000 0.23764  0.35199  0.06855  Biso   1.000  N
  H331     1.0000 0.21361  0.30409  0.08610  Biso   1.000  H
  C296     1.0000 0.12013  0.59633  0.15460  Biso   1.000  C
  O49      1.0000 0.22981  0.26169  0.28589  Biso   1.000  O
  H332     1.0000 0.21311  0.27441  0.25900  Biso   1.000  H
  C297     1.0000 0.18131  0.27360  0.30149  Biso   1.000  C
  C298     1.0000 0.22528  0.34493  0.03036  Biso   1.000  C
  C299     1.0000 0.08678  0.58373  0.12848  Biso   1.000  C
  H333     1.0000 0.14600  0.59460  0.14090  Biso   1.000  H
  C300     1.0000 0.11313  0.64015  0.16693  Biso   1.000  C
  H334     1.0000 0.22731  0.25100  0.26681  Biso   1.000  H
  C301     1.0000 0.19751  0.25419  0.30849  Biso   1.000  C
  C302     1.0000 0.20001  0.26571  0.34501  Biso   1.000  C
  C303     1.0000 0.16351  0.23389  0.29680  Biso   1.000  C
  C304     1.0000 0.18521  0.28360  0.33740  Biso   1.000  C
  C305     1.0000 0.15109  0.24850  0.29061  Biso   1.000  C
  H335     1.0000 0.20891  0.32010  0.02899  Biso   1.000  H
  C306     1.0000 0.20039  0.38093  0.01719  Biso   1.000  C
  C307     1.0000 0.26229  0.34056  0.00608  Biso   1.000  C
  N41      1.0000 0.09569  0.54327  0.11506  Biso   1.000  N
  H336     1.0000 0.06091  0.58361  0.14229  Biso   1.000  H
  C308     1.0000 0.08399  0.61219  0.09528  Biso   1.000  C
  H337     1.0000 0.08821  0.64170  0.18160  Biso   1.000  H
  H338     1.0000 0.13531  0.64861  0.18330  Biso   1.000  H
  C309     1.0000 0.11036  0.66843  0.13403  Biso   1.000  C
  C310     1.0000 0.16818  0.25922  0.36853  Biso   1.000  C
  H339     1.0000 0.22361  0.27801  0.35411  Biso   1.000  H
  C311     1.0000 0.13016  0.22710  0.31909  Biso   1.000  C
  H340     1.0000 0.16300  0.22400  0.27200  Biso   1.000  H
  H341     1.0000 0.19941  0.30721  0.34340  Biso   1.000  H
  H342     1.0000 0.14439  0.24541  0.26500  Biso   1.000  H
  N42      1.0000 0.16401  0.38364  0.03976  Biso   1.000  N
  H343     1.0000 0.21629  0.40591  0.01989  Biso   1.000  H
  C312     1.0000 0.18887  0.37494  0.97651  Biso   1.000  C
  H344     1.0000 0.27881  0.36479  0.00820  Biso   1.000  H
  H345     1.0000 0.27831  0.31769  0.01490  Biso   1.000  H
  C313     1.0000 0.25056  0.33416  0.96565  Biso   1.000  C
  C314     1.0000 0.07303  0.51448  0.12349  Biso   1.000  C
  C315     1.0000 0.07693  0.65510  0.10828  Biso   1.000  C
  H346     1.0000 0.06190  0.60380  0.07879  Biso   1.000  H
  H347     1.0000 0.10899  0.61091  0.08069  Biso   1.000  H
  H348     1.0000 0.13591  0.66861  0.12019  Biso   1.000  H
  H349     1.0000 0.10500  0.69579  0.14310  Biso   1.000  H
  C316     1.0000 0.13490  0.23692  0.35698  Biso   1.000  C
  C317     1.0000 0.17309  0.27131  0.40701  Biso   1.000  C
  C318     1.0000 0.09432  0.20388  0.30863  Biso   1.000  C
  C319     1.0000 0.15690  0.41761  0.05488  Biso   1.000  C
  H350     1.0000 0.17351  0.39831  0.96780  Biso   1.000  H
  H351     1.0000 0.17160  0.35119  0.97439  Biso   1.000  H
  C320     1.0000 0.22606  0.36941  0.95140  Biso   1.000  C
  H352     1.0000 0.23469  0.30939  0.96339  Biso   1.000  H
  H353     1.0000 0.27479  0.33109  0.95020  Biso   1.000  H
  C321     1.0000 0.08089  0.47361  0.11118  Biso   1.000  C
  H354     1.0000 0.05020  0.51960  0.13830  Biso   1.000  H
  H355     1.0000 0.07559  0.67299  0.08641  Biso   1.000  H
  H356     1.0000 0.05121  0.65679  0.12159  Biso   1.000  H
  O50      1.0000 0.10798  0.22490  0.38170  Biso   1.000  O
  N43      1.0000 0.14799  0.26238  0.43145  Biso   1.000  N
  H357     1.0000 0.19590  0.28640  0.41390  Biso   1.000  H
  N44      1.0000 0.08687  0.19078  0.27624  Biso   1.000  N
  H358     1.0000 0.07550  0.19840  0.32769  Biso   1.000  H
  H359     1.0000 0.17550  0.43851  0.05111  Biso   1.000  H
  C322     1.0000 0.12165  0.42576  0.07765  Biso   1.000  C
  H360     1.0000 0.21769  0.36449  0.92531  Biso   1.000  H
  H361     1.0000 0.24249  0.39391  0.95190  Biso   1.000  H
  C323     1.0000 0.11432  0.46533  0.08903  Biso   1.000  C
  C324     1.0000 0.05532  0.44276  0.12212  Biso   1.000  C
  H362     1.0000 0.11429  0.23311  0.40299  Biso   1.000  H
  C325     1.0000 0.15505  0.27473  0.46964  Biso   1.000  C
  C326     1.0000 0.05088  0.16669  0.27147  Biso   1.000  C
  C327     1.0000 0.09530  0.39599  0.08911  Biso   1.000  C
  O51      1.0000 0.13966  0.49424  0.07846  Biso   1.000  O
  C328     1.0000 0.06288  0.40400  0.11085  Biso   1.000  C
  H363     1.0000 0.03281  0.44839  0.13730  Biso   1.000  H
  H364     1.0000 0.17991  0.29111  0.47101  Biso   1.000  H
  C329     1.0000 0.11906  0.29962  0.48281  Biso   1.000  C
  C330     1.0000 0.15943  0.23773  0.49392  Biso   1.000  C
  C331     1.0000 0.02659  0.18143  0.23880  Biso   1.000  C
  H365     1.0000 0.03439  0.16901  0.29460  Biso   1.000  H
  C332     1.0000 0.06249  0.12305  0.26625  Biso   1.000  C
  H366     1.0000 0.10009  0.36929  0.08150  Biso   1.000  H
  H367     1.0000 0.13001  0.51660  0.08401  Biso   1.000  H
  O52      1.0000 0.03826  0.37310  0.12117  Biso   1.000  O
  N45      1.0000 0.11635  0.33597  0.46024  Biso   1.000  N
  H368     1.0000 0.09411  0.28369  0.48011  Biso   1.000  H
  C333     1.0000 0.12504  0.31114  0.52349  Biso   1.000  C
  C334     1.0000 0.16586  0.24943  0.53435  Biso   1.000  C
  H369     1.0000 0.13519  0.22120  0.49180  Biso   1.000  H
  H370     1.0000 0.18229  0.22171  0.48510  Biso   1.000  H
  N46      1.0000 0.01247  0.22195  0.24667  Biso   1.000  N
  H371     1.0000 0.04350  0.18170  0.21581  Biso   1.000  H
  C335     1.0000 0.99023  0.15481  0.23230  Biso   1.000  C
  H372     1.0000 0.08020  0.12049  0.24429  Biso   1.000  H
  H373     1.0000 0.07729  0.11370  0.28849  Biso   1.000  H
  C336     1.0000 0.02593  0.09726  0.26064  Biso   1.000  C
  H374     1.0000 0.02700  0.37911  0.14131  Biso   1.000  H
  C337     1.0000 0.08241  0.34309  0.44512  Biso   1.000  C
  H375     1.0000 0.10170  0.32651  0.53220  Biso   1.000  H
  H376     1.0000 0.14880  0.32841  0.52561  Biso   1.000  H
  C338     1.0000 0.13061  0.27393  0.54860  Biso   1.000  C
  H377     1.0000 0.19060  0.26530  0.53661  Biso   1.000  H
  H378     1.0000 0.16889  0.22519  0.54980  Biso   1.000  H
  C339     1.0000 0.01944  0.25062  0.22518  Biso   1.000  C
  C340     1.0000 0.00220  0.11141  0.22714  Biso   1.000  C
  H379     1.0000 0.97201  0.15699  0.25389  Biso   1.000  H
  H380     1.0000 0.97580  0.16410  0.20981  Biso   1.000  H
  H381     1.0000 0.00899  0.09840  0.28330  Biso   1.000  H
  H382     1.0000 0.03421  0.06931  0.25679  Biso   1.000  H
  H383     1.0000 0.06151  0.32451  0.44891  Biso   1.000  H
  C341     1.0000 0.07425  0.37834  0.42235  Biso   1.000  C
  H384     1.0000 0.13549  0.28229  0.57472  Biso   1.000  H
  H385     1.0000 0.10611  0.25750  0.54810  Biso   1.000  H
  C342     1.0000 0.00286  0.29042  0.23227  Biso   1.000  C
  H386     1.0000 0.03579  0.24651  0.20389  Biso   1.000  H
  H387     1.0000 0.01849  0.10861  0.20431  Biso   1.000  H
  H388     1.0000 0.97809  0.09479  0.22421  Biso   1.000  H
  C343     1.0000 0.03468  0.38566  0.41097  Biso   1.000  C
  C344     1.0000 0.10402  0.40469  0.41091  Biso   1.000  C
  C345     1.0000 0.00932  0.32115  0.20674  Biso   1.000  C
  C346     1.0000 0.98074  0.29792  0.26391  Biso   1.000  C
  O53      1.0000 0.00575  0.36033  0.42154  Biso   1.000  O
  C347     1.0000 0.02641  0.41910  0.38885  Biso   1.000  C
  C348     1.0000 0.09601  0.43711  0.38915  Biso   1.000  C
  H389     1.0000 0.13070  0.39989  0.41850  Biso   1.000  H
  H390     1.0000 0.02450  0.31600  0.18489  Biso   1.000  H
  C349     1.0000 0.99422  0.35866  0.21246  Biso   1.000  C
  O54      1.0000 0.97175  0.26899  0.28751  Biso   1.000  O
  C350     1.0000 0.96538  0.33651  0.27033  Biso   1.000  C
  H391     1.0000 0.98339  0.37000  0.41599  Biso   1.000  H
  C351     1.0000 0.05725  0.44467  0.37788  Biso   1.000  C
  C352     1.0000 0.98553  0.42696  0.37651  Biso   1.000  C
  O55      1.0000 0.12689  0.46173  0.37883  Biso   1.000  O
  O56      1.0000 0.00104  0.38789  0.18735  Biso   1.000  O
  C353     1.0000 0.97157  0.36569  0.24429  Biso   1.000  C
  H392     1.0000 0.97830  0.24702  0.27819  Biso   1.000  H
  C354     1.0000 0.94198  0.34446  0.30347  Biso   1.000  C
  H393     1.0000 0.05159  0.46721  0.36270  Biso   1.000  H
  N47      1.0000 0.95671  0.40430  0.38494  Biso   1.000  N
  H394     1.0000 0.98041  0.44979  0.36170  Biso   1.000  H
  H395     1.0000 0.12090  0.47301  0.35871  Biso   1.000  H
  H396     1.0000 0.98839  0.40829  0.19391  Biso   1.000  H
  H397     1.0000 0.96020  0.39129  0.24801  Biso   1.000  H
  N48      1.0000 0.92932  0.37828  0.31338  Biso   1.000  N
  H398     1.0000 0.93560  0.32249  0.31901  Biso   1.000  H
  C355     1.0000 0.91628  0.41323  0.37152  Biso   1.000  C
  C356     1.0000 0.90366  0.37986  0.34540  Biso   1.000  C
  H399     1.0000 0.91640  0.43910  0.35771  Biso   1.000  H
  C357     1.0000 0.88779  0.41600  0.40472  Biso   1.000  C
  H400     1.0000 0.90539  0.35401  0.35910  Biso   1.000  H
  C358     1.0000 0.85986  0.38688  0.33307  Biso   1.000  C
  C359     1.0000 0.84489  0.42308  0.39172  Biso   1.000  C
  H401     1.0000 0.89619  0.43809  0.42121  Biso   1.000  H
  H402     1.0000 0.88910  0.39099  0.41931  Biso   1.000  H
  H403     1.0000 0.85829  0.41180  0.31840  Biso   1.000  H
  H404     1.0000 0.85141  0.36470  0.31670  Biso   1.000  H
  C360     1.0000 0.83155  0.38965  0.36597  Biso   1.000  C
  H405     1.0000 0.82700  0.42439  0.41359  Biso   1.000  H
  H406     1.0000 0.84319  0.44881  0.37841  Biso   1.000  H
  H407     1.0000 0.83140  0.36411  0.37981  Biso   1.000  H
  H408     1.0000 0.80419  0.39501  0.35690  Biso   1.000  H
  C361     1.0000 0.55652  0.39903  0.25001  Biso   1.000  C
  C362     1.0000 0.55506  0.35538  0.23791  Biso   1.000  C
  C363     1.0000 0.53294  0.42594  0.22354  Biso   1.000  C
  H409     1.0000 0.54539  0.40150  0.27551  Biso   1.000  H
  H410     1.0000 0.58460  0.40799  0.25071  Biso   1.000  H
  C364     1.0000 0.51237  0.34136  0.23433  Biso   1.000  C
  N49      1.0000 0.57552  0.33183  0.26661  Biso   1.000  N
  H411     1.0000 0.56900  0.35220  0.21341  Biso   1.000  H
  C365     1.0000 0.49049  0.41103  0.21888  Biso   1.000  C
  H412     1.0000 0.53250  0.45339  0.23361  Biso   1.000  H
  H413     1.0000 0.54631  0.42660  0.19890  Biso   1.000  H
  N50      1.0000 0.51133  0.30016  0.22058  Biso   1.000  N
  H414     1.0000 0.49909  0.34279  0.25919  Biso   1.000  H
  C366     1.0000 0.48980  0.36771  0.20646  Biso   1.000  C
  C367     1.0000 0.60755  0.31329  0.25741  Biso   1.000  C
  H415     1.0000 0.47661  0.42761  0.20021  Biso   1.000  H
  H416     1.0000 0.47620  0.41359  0.24290  Biso   1.000  H
  C368     1.0000 0.49361  0.27449  0.24050  Biso   1.000  C
  H417     1.0000 0.50219  0.36539  0.18149  Biso   1.000  H
  H418     1.0000 0.46191  0.35851  0.20451  Biso   1.000  H
  C369     1.0000 0.63083  0.29105  0.28483  Biso   1.000  C
  H419     1.0000 0.61630  0.31409  0.23221  Biso   1.000  H
  C370     1.0000 0.48897  0.23234  0.22976  Biso   1.000  C
  H420     1.0000 0.48269  0.28289  0.26371  Biso   1.000  H
  C371     1.0000 0.61919  0.28825  0.32194  Biso   1.000  C
  C372     1.0000 0.66602  0.27313  0.27286  Biso   1.000  C
  C373     1.0000 0.46727  0.20691  0.25364  Biso   1.000  C
  C374     1.0000 0.50588  0.21745  0.19748  Biso   1.000  C
  C375     1.0000 0.64280  0.26702  0.34766  Biso   1.000  C
  O57      1.0000 0.58525  0.30590  0.33388  Biso   1.000  O
  H421     1.0000 0.67349  0.27461  0.24731  Biso   1.000  H
  C376     1.0000 0.69043  0.25291  0.29837  Biso   1.000  C
  C377     1.0000 0.46477  0.16630  0.24441  Biso   1.000  C
  O58      1.0000 0.44973  0.22171  0.28433  Biso   1.000  O
  C378     1.0000 0.50296  0.17780  0.18810  Biso   1.000  C
  H422     1.0000 0.51990  0.23499  0.18141  Biso   1.000  H
  C379     1.0000 0.62881  0.26312  0.38617  Biso   1.000  C
  C380     1.0000 0.67817  0.24978  0.33547  Biso   1.000  C
  H423     1.0000 0.57510  0.31891  0.31630  Biso   1.000  H
  O59      1.0000 0.72512  0.23671  0.28679  Biso   1.000  O
  C381     1.0000 0.44184  0.13868  0.26787  Biso   1.000  C
  C382     1.0000 0.48278  0.15225  0.21226  Biso   1.000  C
  H424     1.0000 0.43342  0.20510  0.29270  Biso   1.000  H
  O60      1.0000 0.51949  0.16440  0.15596  Biso   1.000  O
  N51      1.0000 0.64831  0.24648  0.41223  Biso   1.000  N
  H425     1.0000 0.60341  0.27381  0.39211  Biso   1.000  H
  H426     1.0000 0.69430  0.23561  0.35271  Biso   1.000  H
  H427     1.0000 0.73771  0.22790  0.30531  Biso   1.000  H
  H428     1.0000 0.72670  0.23889  0.26349  Biso   1.000  H
  N52      1.0000 0.42240  0.15053  0.29650  Biso   1.000  N
  H429     1.0000 0.44139  0.11120  0.26159  Biso   1.000  H
  H430     1.0000 0.48129  0.12471  0.20649  Biso   1.000  H
  H431     1.0000 0.52791  0.14109  0.15909  Biso   1.000  H
  C383     1.0000 0.63018  0.24603  0.44944  Biso   1.000  C
  C384     1.0000 0.39811  0.12168  0.31686  Biso   1.000  C
  C385     1.0000 0.62860  0.20388  0.46487  Biso   1.000  C
  H432     1.0000 0.60240  0.25681  0.44771  Biso   1.000  H
  C386     1.0000 0.65447  0.27253  0.47592  Biso   1.000  C
  C387     1.0000 0.35479  0.13621  0.31692  Biso   1.000  C
  H433     1.0000 0.39960  0.09521  0.30411  Biso   1.000  H
  C388     1.0000 0.41332  0.11772  0.35662  Biso   1.000  C
  N53      1.0000 0.60174  0.18009  0.44144  Biso   1.000  N
  H434     1.0000 0.65590  0.19200  0.46420  Biso   1.000  H
  C389     1.0000 0.61300  0.20319  0.50466  Biso   1.000  C
  H435     1.0000 0.68231  0.26291  0.47670  Biso   1.000  H
  H436     1.0000 0.65471  0.30010  0.46621  Biso   1.000  H
  C390     1.0000 0.63750  0.27241  0.51509  Biso   1.000  C
  C391     1.0000 0.32773  0.10941  0.34008  Biso   1.000  C
  H437     1.0000 0.35381  0.16360  0.32710  Biso   1.000  H
  H438     1.0000 0.34482  0.13710  0.29089  Biso   1.000  H
  N54      1.0000 0.45366  0.10185  0.35696  Biso   1.000  N
  H439     1.0000 0.41329  0.14451  0.36870  Biso   1.000  H
  C392     1.0000 0.38661  0.08979  0.37880  Biso   1.000  C
  C393     1.0000 0.61446  0.14910  0.42506  Biso   1.000  C
  C394     1.0000 0.63607  0.23037  0.53044  Biso   1.000  C
  H440     1.0000 0.58472  0.21129  0.50460  Biso   1.000  H
  H441     1.0000 0.61440  0.17559  0.51431  Biso   1.000  H
  H442     1.0000 0.61029  0.28381  0.51482  Biso   1.000  H
  H443     1.0000 0.65420  0.28929  0.53150  Biso   1.000  H
  C395     1.0000 0.34395  0.10497  0.37981  Biso   1.000  C
  H444     1.0000 0.32591  0.08291  0.32819  Biso   1.000  H
  H445     1.0000 0.30060  0.12099  0.34100  Biso   1.000  H
  C396     1.0000 0.47965  0.12183  0.37534  Biso   1.000  C
  H446     1.0000 0.38721  0.06300  0.36731  Biso   1.000  H
  H447     1.0000 0.39692  0.08750  0.40461  Biso   1.000  H
  C397     1.0000 0.58704  0.12391  0.40369  Biso   1.000  C
  H448     1.0000 0.64179  0.14219  0.42671  Biso   1.000  H
  H449     1.0000 0.66349  0.22010  0.53340  Biso   1.000  H
  H450     1.0000 0.62330  0.23061  0.55530  Biso   1.000  H
  H451     1.0000 0.34309  0.13111  0.39270  Biso   1.000  H
  H452     1.0000 0.32710  0.08610  0.39401  Biso   1.000  H
  H453     1.0000 0.47161  0.14609  0.38661  Biso   1.000  H
  C398     1.0000 0.52106  0.10923  0.37983  Biso   1.000  C
  C399     1.0000 0.54699  0.13430  0.39995  Biso   1.000  C
  C400     1.0000 0.60073  0.08887  0.38792  Biso   1.000  C
  C401     1.0000 0.53574  0.07419  0.36471  Biso   1.000  C
  O61      1.0000 0.53196  0.16800  0.41507  Biso   1.000  O
  C402     1.0000 0.57504  0.06350  0.36881  Biso   1.000  C
  H454     1.0000 0.62809  0.08199  0.39021  Biso   1.000  H
  H455     1.0000 0.51829  0.05719  0.35121  Biso   1.000  H
  H456     1.0000 0.54929  0.17869  0.42860  Biso   1.000  H
  O62      1.0000 0.58891  0.02807  0.35528  Biso   1.000  O
  H457     1.0000 0.57081  0.01679  0.34309  Biso   1.000  H
  C403     1.0000 0.44348  0.60097  0.25001  Biso   1.000  C
  C404     1.0000 0.46706  0.57406  0.22354  Biso   1.000  C
  C405     1.0000 0.44494  0.64462  0.23791  Biso   1.000  C
  H458     1.0000 0.45461  0.59850  0.27551  Biso   1.000  H
  H459     1.0000 0.41540  0.59201  0.25071  Biso   1.000  H
  C406     1.0000 0.50951  0.58897  0.21888  Biso   1.000  C
  H460     1.0000 0.46750  0.54661  0.23361  Biso   1.000  H
  H461     1.0000 0.45369  0.57340  0.19890  Biso   1.000  H
  C407     1.0000 0.48763  0.65864  0.23433  Biso   1.000  C
  N55      1.0000 0.42448  0.66817  0.26661  Biso   1.000  N
  H462     1.0000 0.43100  0.64780  0.21341  Biso   1.000  H
  C408     1.0000 0.51020  0.63229  0.20646  Biso   1.000  C
  H463     1.0000 0.52342  0.57239  0.20021  Biso   1.000  H
  H464     1.0000 0.52380  0.58641  0.24290  Biso   1.000  H
  N56      1.0000 0.48867  0.69984  0.22058  Biso   1.000  N
  H465     1.0000 0.50091  0.65721  0.25919  Biso   1.000  H
  C409     1.0000 0.39245  0.68671  0.25741  Biso   1.000  C
  H466     1.0000 0.49781  0.63461  0.18149  Biso   1.000  H
  H467     1.0000 0.53809  0.64149  0.20451  Biso   1.000  H
  C410     1.0000 0.50642  0.72551  0.24050  Biso   1.000  C
  C411     1.0000 0.36917  0.70895  0.28483  Biso   1.000  C
  H468     1.0000 0.38370  0.68591  0.23221  Biso   1.000  H
  H469     1.0000 0.51731  0.71711  0.26371  Biso   1.000  H
  C412     1.0000 0.51103  0.76766  0.22976  Biso   1.000  C
  C413     1.0000 0.38081  0.71175  0.32194  Biso   1.000  C
  C414     1.0000 0.33398  0.72687  0.27286  Biso   1.000  C
  C415     1.0000 0.53276  0.79312  0.25364  Biso   1.000  C
  C416     1.0000 0.49412  0.78255  0.19748  Biso   1.000  C
  O63      1.0000 0.41475  0.69410  0.33388  Biso   1.000  O
  C417     1.0000 0.35720  0.73298  0.34766  Biso   1.000  C
  H470     1.0000 0.32651  0.72542  0.24731  Biso   1.000  H
  C418     1.0000 0.30957  0.74709  0.29837  Biso   1.000  C
  O64      1.0000 0.55027  0.77829  0.28433  Biso   1.000  O
  C419     1.0000 0.53523  0.83370  0.24441  Biso   1.000  C
  C420     1.0000 0.49704  0.82220  0.18810  Biso   1.000  C
  H471     1.0000 0.48010  0.76501  0.18141  Biso   1.000  H
  H472     1.0000 0.42490  0.68112  0.31630  Biso   1.000  H
  C421     1.0000 0.37119  0.73688  0.38617  Biso   1.000  C
  C422     1.0000 0.32183  0.75022  0.33547  Biso   1.000  C
  O65      1.0000 0.27488  0.76329  0.28679  Biso   1.000  O
  H473     1.0000 0.56661  0.79490  0.29270  Biso   1.000  H
  C423     1.0000 0.51722  0.84775  0.21226  Biso   1.000  C
  C424     1.0000 0.55816  0.86132  0.26787  Biso   1.000  C
  O66      1.0000 0.48054  0.83560  0.15596  Biso   1.000  O
  N57      1.0000 0.35169  0.75352  0.41223  Biso   1.000  N
  H474     1.0000 0.39659  0.72619  0.39211  Biso   1.000  H
  H475     1.0000 0.30570  0.76442  0.35271  Biso   1.000  H
  H476     1.0000 0.26229  0.77210  0.30531  Biso   1.000  H
  H477     1.0000 0.27330  0.76111  0.26349  Biso   1.000  H
  H478     1.0000 0.51871  0.87532  0.20649  Biso   1.000  H
  N58      1.0000 0.57760  0.84947  0.29650  Biso   1.000  N
  H479     1.0000 0.55861  0.88880  0.26159  Biso   1.000  H
  H480     1.0000 0.47209  0.85891  0.15909  Biso   1.000  H
  C425     1.0000 0.36985  0.75397  0.44944  Biso   1.000  C
  C426     1.0000 0.60189  0.87832  0.31686  Biso   1.000  C
  C427     1.0000 0.37140  0.79612  0.46487  Biso   1.000  C
  H481     1.0000 0.39760  0.74319  0.44771  Biso   1.000  H
  C428     1.0000 0.34553  0.72747  0.47592  Biso   1.000  C
  H482     1.0000 0.60040  0.90479  0.30411  Biso   1.000  H
  C429     1.0000 0.58668  0.88228  0.35662  Biso   1.000  C
  C430     1.0000 0.64521  0.86379  0.31692  Biso   1.000  C
  N59      1.0000 0.39829  0.81991  0.44144  Biso   1.000  N
  H483     1.0000 0.34410  0.80800  0.46420  Biso   1.000  H
  C431     1.0000 0.38700  0.79681  0.50466  Biso   1.000  C
  H484     1.0000 0.31769  0.73712  0.47670  Biso   1.000  H
  H485     1.0000 0.34529  0.69990  0.46621  Biso   1.000  H
  C432     1.0000 0.36250  0.72759  0.51509  Biso   1.000  C
  N60      1.0000 0.54634  0.89815  0.35696  Biso   1.000  N
  H486     1.0000 0.58671  0.85549  0.36870  Biso   1.000  H
  C433     1.0000 0.61339  0.91021  0.37880  Biso   1.000  C
  C434     1.0000 0.67227  0.89059  0.34008  Biso   1.000  C
  H487     1.0000 0.64619  0.83640  0.32710  Biso   1.000  H
  H488     1.0000 0.65521  0.86290  0.29089  Biso   1.000  H
  C435     1.0000 0.38554  0.85090  0.42506  Biso   1.000  C
  C436     1.0000 0.36393  0.76963  0.53044  Biso   1.000  C
  H489     1.0000 0.41531  0.78871  0.50460  Biso   1.000  H
  H490     1.0000 0.38560  0.82441  0.51431  Biso   1.000  H
  H491     1.0000 0.38971  0.71622  0.51482  Biso   1.000  H
  H492     1.0000 0.34580  0.71071  0.53150  Biso   1.000  H
  C437     1.0000 0.52035  0.87817  0.37534  Biso   1.000  C
  H493     1.0000 0.61279  0.93700  0.36731  Biso   1.000  H
  H494     1.0000 0.60311  0.91250  0.40461  Biso   1.000  H
  C438     1.0000 0.65605  0.89503  0.37981  Biso   1.000  C
  H495     1.0000 0.67409  0.91712  0.32819  Biso   1.000  H
  H496     1.0000 0.69940  0.87901  0.34100  Biso   1.000  H
  C439     1.0000 0.41296  0.87609  0.40369  Biso   1.000  C
  H497     1.0000 0.35821  0.85781  0.42671  Biso   1.000  H
  H498     1.0000 0.33651  0.77990  0.53340  Biso   1.000  H
  H499     1.0000 0.37670  0.76939  0.55530  Biso   1.000  H
  H500     1.0000 0.52839  0.85391  0.38661  Biso   1.000  H
  C440     1.0000 0.47894  0.89077  0.37983  Biso   1.000  C
  H501     1.0000 0.65691  0.86892  0.39270  Biso   1.000  H
  H502     1.0000 0.67290  0.91390  0.39401  Biso   1.000  H
  C441     1.0000 0.45301  0.86570  0.39995  Biso   1.000  C
  C442     1.0000 0.39927  0.91113  0.38792  Biso   1.000  C
  C443     1.0000 0.46426  0.92581  0.36471  Biso   1.000  C
  O67      1.0000 0.46804  0.83200  0.41507  Biso   1.000  O
  H503     1.0000 0.37191  0.91801  0.39021  Biso   1.000  H
  C444     1.0000 0.42496  0.93650  0.36881  Biso   1.000  C
  H504     1.0000 0.48171  0.94281  0.35121  Biso   1.000  H
  H505     1.0000 0.45071  0.82131  0.42860  Biso   1.000  H
  O68      1.0000 0.41109  0.97196  0.35528  Biso   1.000  O
  H506     1.0000 0.42919  0.98321  0.34309  Biso   1.000  H
  C445     1.0000 0.72759  0.36250  0.48491  Biso   1.000  C
  C446     1.0000 0.72747  0.34553  0.52411  Biso   1.000  C
  H507     1.0000 0.71622  0.38971  0.48521  Biso   1.000  H
  H508     1.0000 0.71071  0.34580  0.46850  Biso   1.000  H
  C447     1.0000 0.76963  0.36393  0.46956  Biso   1.000  C
  C448     1.0000 0.75397  0.36985  0.55058  Biso   1.000  C
  H509     1.0000 0.73712  0.31769  0.52330  Biso   1.000  H
  H510     1.0000 0.69990  0.34529  0.53382  Biso   1.000  H
  H511     1.0000 0.77990  0.33651  0.46660  Biso   1.000  H
  H512     1.0000 0.76939  0.37670  0.44470  Biso   1.000  H
  C449     1.0000 0.79681  0.38700  0.49534  Biso   1.000  C
  N61      1.0000 0.75352  0.35169  0.58777  Biso   1.000  N
  C450     1.0000 0.79612  0.37140  0.53515  Biso   1.000  C
  H513     1.0000 0.74319  0.39760  0.55231  Biso   1.000  H
  H514     1.0000 0.78871  0.41531  0.49540  Biso   1.000  H
  H515     1.0000 0.82441  0.38560  0.48572  Biso   1.000  H
  C451     1.0000 0.73688  0.37119  0.61383  Biso   1.000  C
  N62      1.0000 0.81991  0.39829  0.55856  Biso   1.000  N
  H516     1.0000 0.80800  0.34410  0.53580  Biso   1.000  H
  H517     1.0000 0.72619  0.39659  0.60789  Biso   1.000  H
  C452     1.0000 0.73298  0.35720  0.65234  Biso   1.000  C
  C453     1.0000 0.85090  0.38554  0.57494  Biso   1.000  C
  C454     1.0000 0.71175  0.38081  0.67806  Biso   1.000  C
  C455     1.0000 0.75022  0.32183  0.66456  Biso   1.000  C
  C456     1.0000 0.87609  0.41296  0.59631  Biso   1.000  C
  H518     1.0000 0.85781  0.35821  0.57329  Biso   1.000  H
  O69      1.0000 0.69410  0.41475  0.66612  Biso   1.000  O
  C457     1.0000 0.70895  0.36917  0.71519  Biso   1.000  C
  C458     1.0000 0.74709  0.30957  0.70163  Biso   1.000  C
  H519     1.0000 0.76442  0.30570  0.64731  Biso   1.000  H
  C459     1.0000 0.86570  0.45301  0.60005  Biso   1.000  C
  C460     1.0000 0.91113  0.39927  0.61208  Biso   1.000  C
  H520     1.0000 0.68112  0.42490  0.68370  Biso   1.000  H
  C461     1.0000 0.72687  0.33398  0.72714  Biso   1.000  C
  C462     1.0000 0.68671  0.39245  0.74259  Biso   1.000  C
  O70      1.0000 0.76329  0.27488  0.71321  Biso   1.000  O
  O71      1.0000 0.83200  0.46804  0.58493  Biso   1.000  O
  C463     1.0000 0.89077  0.47894  0.62019  Biso   1.000  C
  H521     1.0000 0.91801  0.37191  0.60982  Biso   1.000  H
  C464     1.0000 0.93650  0.42496  0.63119  Biso   1.000  C
  H522     1.0000 0.72542  0.32651  0.75269  Biso   1.000  H
  N63      1.0000 0.66817  0.42448  0.73339  Biso   1.000  N
  H523     1.0000 0.68591  0.38370  0.76781  Biso   1.000  H
  H524     1.0000 0.77210  0.26229  0.69472  Biso   1.000  H
  H525     1.0000 0.76111  0.27330  0.73651  Biso   1.000  H
  H526     1.0000 0.82131  0.45071  0.57140  Biso   1.000  H
  C465     1.0000 0.87817  0.52035  0.62469  Biso   1.000  C
  C466     1.0000 0.92581  0.46426  0.63529  Biso   1.000  C
  O72      1.0000 0.97196  0.41109  0.64475  Biso   1.000  O
  C467     1.0000 0.64462  0.44494  0.76209  Biso   1.000  C
  N64      1.0000 0.89815  0.54634  0.64304  Biso   1.000  N
  H527     1.0000 0.85391  0.52839  0.61341  Biso   1.000  H
  H528     1.0000 0.94281  0.48171  0.64879  Biso   1.000  H
  H529     1.0000 0.98321  0.42919  0.65691  Biso   1.000  H
  H530     1.0000 0.64780  0.43100  0.78659  Biso   1.000  H
  C468     1.0000 0.65864  0.48763  0.76567  Biso   1.000  C
  C469     1.0000 0.60097  0.44348  0.74999  Biso   1.000  C
  C470     1.0000 0.88228  0.58668  0.64338  Biso   1.000  C
  N65      1.0000 0.69984  0.48867  0.77942  Biso   1.000  N
  H531     1.0000 0.65721  0.50091  0.74081  Biso   1.000  H
  C471     1.0000 0.63229  0.51020  0.79357  Biso   1.000  C
  C472     1.0000 0.57406  0.46706  0.77646  Biso   1.000  C
  H532     1.0000 0.59850  0.45461  0.72451  Biso   1.000  H
  H533     1.0000 0.59201  0.41540  0.74932  Biso   1.000  H
  C473     1.0000 0.87832  0.60189  0.68314  Biso   1.000  C
  H534     1.0000 0.85549  0.58671  0.63130  Biso   1.000  H
  C474     1.0000 0.91021  0.61339  0.62120  Biso   1.000  C
  C475     1.0000 0.72551  0.50642  0.75950  Biso   1.000  C
  H535     1.0000 0.63461  0.49781  0.81851  Biso   1.000  H
  H536     1.0000 0.64149  0.53809  0.79549  Biso   1.000  H
  C476     1.0000 0.58897  0.50951  0.78112  Biso   1.000  C
  H537     1.0000 0.54661  0.46750  0.76639  Biso   1.000  H
  H538     1.0000 0.57340  0.45369  0.80110  Biso   1.000  H
  N66      1.0000 0.84947  0.57760  0.70350  Biso   1.000  N
  H539     1.0000 0.90479  0.60040  0.69592  Biso   1.000  H
  C477     1.0000 0.86379  0.64521  0.68308  Biso   1.000  C
  H540     1.0000 0.93700  0.61279  0.63269  Biso   1.000  H
  H541     1.0000 0.91250  0.60311  0.59539  Biso   1.000  H
  C478     1.0000 0.89503  0.65605  0.62019  Biso   1.000  C
  H542     1.0000 0.71711  0.51731  0.73631  Biso   1.000  H
  C479     1.0000 0.76766  0.51103  0.77024  Biso   1.000  C
  H543     1.0000 0.57239  0.52342  0.79982  Biso   1.000  H
  H544     1.0000 0.58641  0.52380  0.75710  Biso   1.000  H
  C480     1.0000 0.86132  0.55816  0.73216  Biso   1.000  C
  C481     1.0000 0.89059  0.67227  0.65992  Biso   1.000  C
  H545     1.0000 0.83640  0.64619  0.67290  Biso   1.000  H
  H546     1.0000 0.86290  0.65521  0.70911  Biso   1.000  H
  H547     1.0000 0.86892  0.65691  0.60730  Biso   1.000  H
  H548     1.0000 0.91390  0.67290  0.60599  Biso   1.000  H
  C482     1.0000 0.79312  0.53276  0.74636  Biso   1.000  C
  C483     1.0000 0.78255  0.49412  0.80252  Biso   1.000  C
  C484     1.0000 0.83370  0.53523  0.75559  Biso   1.000  C
  H549     1.0000 0.88880  0.55861  0.73841  Biso   1.000  H
  H550     1.0000 0.91712  0.67409  0.67181  Biso   1.000  H
  H551     1.0000 0.87901  0.69940  0.65900  Biso   1.000  H
  O73      1.0000 0.77829  0.55027  0.71567  Biso   1.000  O
  C485     1.0000 0.82220  0.49704  0.81190  Biso   1.000  C
  H552     1.0000 0.76501  0.48010  0.81859  Biso   1.000  H
  C486     1.0000 0.84775  0.51722  0.78776  Biso   1.000  C
  H553     1.0000 0.79490  0.56661  0.70730  Biso   1.000  H
  O74      1.0000 0.83560  0.48054  0.84404  Biso   1.000  O
  H554     1.0000 0.87532  0.51871  0.79351  Biso   1.000  H
  H555     1.0000 0.85891  0.47209  0.84091  Biso   1.000  H
  C487     1.0000 0.27241  0.63750  0.48491  Biso   1.000  C
  C488     1.0000 0.27253  0.65447  0.52411  Biso   1.000  C
  C489     1.0000 0.23037  0.63607  0.46956  Biso   1.000  C
  H556     1.0000 0.28381  0.61029  0.48521  Biso   1.000  H
  H557     1.0000 0.28929  0.65420  0.46850  Biso   1.000  H
  C490     1.0000 0.24603  0.63018  0.55058  Biso   1.000  C
  H558     1.0000 0.26291  0.68231  0.52330  Biso   1.000  H
  H559     1.0000 0.30010  0.65471  0.53382  Biso   1.000  H
  C491     1.0000 0.20319  0.61300  0.49534  Biso   1.000  C
  H560     1.0000 0.22010  0.66349  0.46660  Biso   1.000  H
  H561     1.0000 0.23061  0.62330  0.44470  Biso   1.000  H
  C492     1.0000 0.20388  0.62860  0.53515  Biso   1.000  C
  N67      1.0000 0.24648  0.64831  0.58777  Biso   1.000  N
  H562     1.0000 0.25681  0.60240  0.55231  Biso   1.000  H
  H563     1.0000 0.21129  0.58472  0.49540  Biso   1.000  H
  H564     1.0000 0.17559  0.61440  0.48572  Biso   1.000  H
  N68      1.0000 0.18009  0.60174  0.55856  Biso   1.000  N
  H565     1.0000 0.19200  0.65590  0.53580  Biso   1.000  H
  C493     1.0000 0.26312  0.62881  0.61383  Biso   1.000  C
  C494     1.0000 0.14910  0.61446  0.57494  Biso   1.000  C
  H566     1.0000 0.27381  0.60341  0.60789  Biso   1.000  H
  C495     1.0000 0.26702  0.64280  0.65234  Biso   1.000  C
  C496     1.0000 0.12391  0.58704  0.59631  Biso   1.000  C
  H567     1.0000 0.14219  0.64179  0.57329  Biso   1.000  H
  C497     1.0000 0.28825  0.61919  0.67806  Biso   1.000  C
  C498     1.0000 0.24978  0.67817  0.66456  Biso   1.000  C
  C499     1.0000 0.13430  0.54699  0.60005  Biso   1.000  C
  C500     1.0000 0.08887  0.60073  0.61208  Biso   1.000  C
  C501     1.0000 0.29105  0.63083  0.71519  Biso   1.000  C
  O75      1.0000 0.30590  0.58525  0.66612  Biso   1.000  O
  C502     1.0000 0.25291  0.69043  0.70163  Biso   1.000  C
  H568     1.0000 0.23561  0.69430  0.64731  Biso   1.000  H
  C503     1.0000 0.10923  0.52106  0.62019  Biso   1.000  C
  O76      1.0000 0.16800  0.53196  0.58493  Biso   1.000  O
  C504     1.0000 0.06350  0.57504  0.63119  Biso   1.000  C
  H569     1.0000 0.08199  0.62809  0.60982  Biso   1.000  H
  C505     1.0000 0.31329  0.60755  0.74259  Biso   1.000  C
  C506     1.0000 0.27313  0.66602  0.72714  Biso   1.000  C
  H570     1.0000 0.31891  0.57510  0.68370  Biso   1.000  H
  O77      1.0000 0.23671  0.72512  0.71321  Biso   1.000  O
  C507     1.0000 0.12183  0.47965  0.62469  Biso   1.000  C
  C508     1.0000 0.07419  0.53574  0.63529  Biso   1.000  C
  H571     1.0000 0.17869  0.54929  0.57140  Biso   1.000  H
  O78      1.0000 0.02807  0.58891  0.64475  Biso   1.000  O
  N69      1.0000 0.33183  0.57552  0.73339  Biso   1.000  N
  H572     1.0000 0.31409  0.61630  0.76781  Biso   1.000  H
  H573     1.0000 0.27461  0.67349  0.75269  Biso   1.000  H
  H574     1.0000 0.22790  0.73771  0.69472  Biso   1.000  H
  H575     1.0000 0.23889  0.72670  0.73651  Biso   1.000  H
  N70      1.0000 0.10185  0.45366  0.64304  Biso   1.000  N
  H576     1.0000 0.14609  0.47161  0.61341  Biso   1.000  H
  H577     1.0000 0.05719  0.51829  0.64879  Biso   1.000  H
  H578     1.0000 0.01679  0.57081  0.65691  Biso   1.000  H
  C509     1.0000 0.35538  0.55506  0.76209  Biso   1.000  C
  C510     1.0000 0.11772  0.41332  0.64338  Biso   1.000  C
  C511     1.0000 0.34136  0.51237  0.76567  Biso   1.000  C
  H579     1.0000 0.35220  0.56900  0.78659  Biso   1.000  H
  C512     1.0000 0.39903  0.55652  0.74999  Biso   1.000  C
  C513     1.0000 0.08979  0.38661  0.62120  Biso   1.000  C
  C514     1.0000 0.12168  0.39811  0.68314  Biso   1.000  C
  H580     1.0000 0.14451  0.41329  0.63130  Biso   1.000  H
  N71      1.0000 0.30016  0.51133  0.77942  Biso   1.000  N
  H581     1.0000 0.34279  0.49909  0.74081  Biso   1.000  H
  C515     1.0000 0.36771  0.48980  0.79357  Biso   1.000  C
  C516     1.0000 0.42594  0.53294  0.77646  Biso   1.000  C
  H582     1.0000 0.40150  0.54539  0.72451  Biso   1.000  H
  H583     1.0000 0.40799  0.58460  0.74932  Biso   1.000  H
  C517     1.0000 0.10497  0.34395  0.62019  Biso   1.000  C
  H584     1.0000 0.06300  0.38721  0.63269  Biso   1.000  H
  H585     1.0000 0.08750  0.39692  0.59539  Biso   1.000  H
  C518     1.0000 0.13621  0.35479  0.68308  Biso   1.000  C
  N72      1.0000 0.15053  0.42240  0.70350  Biso   1.000  N
  H586     1.0000 0.09521  0.39960  0.69592  Biso   1.000  H
  C519     1.0000 0.27449  0.49361  0.75950  Biso   1.000  C
  H587     1.0000 0.36539  0.50219  0.81851  Biso   1.000  H
  H588     1.0000 0.35851  0.46191  0.79549  Biso   1.000  H
  C520     1.0000 0.41103  0.49049  0.78112  Biso   1.000  C
  H589     1.0000 0.45339  0.53250  0.76639  Biso   1.000  H
  H590     1.0000 0.42660  0.54631  0.80110  Biso   1.000  H
  H591     1.0000 0.13111  0.34309  0.60730  Biso   1.000  H
  H592     1.0000 0.08610  0.32710  0.60599  Biso   1.000  H
  C521     1.0000 0.10941  0.32773  0.65992  Biso   1.000  C
  H593     1.0000 0.16360  0.35381  0.67290  Biso   1.000  H
  H594     1.0000 0.13710  0.34482  0.70911  Biso   1.000  H
  C522     1.0000 0.13868  0.44184  0.73216  Biso   1.000  C
  C523     1.0000 0.23234  0.48897  0.77024  Biso   1.000  C
  H595     1.0000 0.28289  0.48269  0.73631  Biso   1.000  H
  H596     1.0000 0.42761  0.47661  0.79982  Biso   1.000  H
  H597     1.0000 0.41359  0.47620  0.75710  Biso   1.000  H
  H598     1.0000 0.08291  0.32591  0.67181  Biso   1.000  H
  H599     1.0000 0.12099  0.30060  0.65900  Biso   1.000  H
  C524     1.0000 0.16630  0.46477  0.75559  Biso   1.000  C
  H600     1.0000 0.11120  0.44139  0.73841  Biso   1.000  H
  C525     1.0000 0.20691  0.46727  0.74636  Biso   1.000  C
  C526     1.0000 0.21745  0.50588  0.80252  Biso   1.000  C
  C527     1.0000 0.15225  0.48278  0.78776  Biso   1.000  C
  O79      1.0000 0.22171  0.44973  0.71567  Biso   1.000  O
  C528     1.0000 0.17780  0.50296  0.81190  Biso   1.000  C
  H601     1.0000 0.23499  0.51990  0.81859  Biso   1.000  H
  H602     1.0000 0.12471  0.48129  0.79351  Biso   1.000  H
  H603     1.0000 0.20510  0.43342  0.70730  Biso   1.000  H
  O80      1.0000 0.16440  0.51949  0.84404  Biso   1.000  O
  H604     1.0000 0.14109  0.52791  0.84091  Biso   1.000  H
  C529     1.0000 0.70318  0.38700  0.25467  Biso   1.000  C
  C530     1.0000 0.70386  0.37140  0.21486  Biso   1.000  C
  C531     1.0000 0.73039  0.36393  0.28045  Biso   1.000  C
  H605     1.0000 0.71130  0.41531  0.25459  Biso   1.000  H
  H606     1.0000 0.67561  0.38560  0.26430  Biso   1.000  H
  N73      1.0000 0.68010  0.39829  0.19145  Biso   1.000  N
  H607     1.0000 0.69201  0.34410  0.21419  Biso   1.000  H
  C532     1.0000 0.74605  0.36985  0.19943  Biso   1.000  C
  C533     1.0000 0.77243  0.36250  0.26511  Biso   1.000  C
  H608     1.0000 0.72012  0.33651  0.28341  Biso   1.000  H
  H609     1.0000 0.73060  0.37670  0.30531  Biso   1.000  H
  C534     1.0000 0.64911  0.38554  0.17507  Biso   1.000  C
  N74      1.0000 0.74649  0.35169  0.16221  Biso   1.000  N
  H610     1.0000 0.75680  0.39760  0.19770  Biso   1.000  H
  C535     1.0000 0.77251  0.34553  0.22591  Biso   1.000  C
  H611     1.0000 0.78380  0.38971  0.26480  Biso   1.000  H
  H612     1.0000 0.78931  0.34580  0.28151  Biso   1.000  H
  C536     1.0000 0.62389  0.41296  0.15370  Biso   1.000  C
  H613     1.0000 0.64220  0.35821  0.17669  Biso   1.000  H
  C537     1.0000 0.76314  0.37119  0.13615  Biso   1.000  C
  H614     1.0000 0.76290  0.31769  0.22669  Biso   1.000  H
  H615     1.0000 0.80011  0.34529  0.21620  Biso   1.000  H
  C538     1.0000 0.58888  0.39927  0.13791  Biso   1.000  C
  C539     1.0000 0.63429  0.45301  0.14994  Biso   1.000  C
  H616     1.0000 0.77379  0.39659  0.14210  Biso   1.000  H
  C540     1.0000 0.76704  0.35720  0.09765  Biso   1.000  C
  C541     1.0000 0.56352  0.42496  0.11880  Biso   1.000  C
  H617     1.0000 0.58201  0.37191  0.14020  Biso   1.000  H
  C542     1.0000 0.60922  0.47894  0.12982  Biso   1.000  C
  O81      1.0000 0.66799  0.46804  0.16509  Biso   1.000  O
  C543     1.0000 0.78826  0.38081  0.07193  Biso   1.000  C
  C544     1.0000 0.74977  0.32183  0.08546  Biso   1.000  C
  O82      1.0000 0.52806  0.41109  0.10527  Biso   1.000  O
  C545     1.0000 0.57421  0.46426  0.11473  Biso   1.000  C
  C546     1.0000 0.62181  0.52035  0.12533  Biso   1.000  C
  H618     1.0000 0.67870  0.45071  0.17859  Biso   1.000  H
  O83      1.0000 0.80592  0.41475  0.08387  Biso   1.000  O
  C547     1.0000 0.79106  0.36917  0.03482  Biso   1.000  C
  C548     1.0000 0.75290  0.30957  0.04835  Biso   1.000  C
  H619     1.0000 0.73560  0.30570  0.10270  Biso   1.000  H
  H620     1.0000 0.51681  0.42919  0.09310  Biso   1.000  H
  H621     1.0000 0.55721  0.48171  0.10119  Biso   1.000  H
  N75      1.0000 0.60183  0.54634  0.10697  Biso   1.000  N
  H622     1.0000 0.64610  0.52839  0.13660  Biso   1.000  H
  H623     1.0000 0.81890  0.42490  0.06629  Biso   1.000  H
  C549     1.0000 0.77314  0.33398  0.02288  Biso   1.000  C
  C550     1.0000 0.81330  0.39245  0.00739  Biso   1.000  C
  O84      1.0000 0.73670  0.27488  0.03680  Biso   1.000  O
  C551     1.0000 0.61773  0.58668  0.10663  Biso   1.000  C
  H624     1.0000 0.77460  0.32651  0.99729  Biso   1.000  H
  N76      1.0000 0.83182  0.42448  0.01660  Biso   1.000  N
  H625     1.0000 0.81411  0.38370  0.98220  Biso   1.000  H
  H626     1.0000 0.72792  0.26229  0.05530  Biso   1.000  H
  H627     1.0000 0.73890  0.27330  0.01350  Biso   1.000  H
  C552     1.0000 0.62169  0.60189  0.06685  Biso   1.000  C
  H628     1.0000 0.64450  0.58671  0.11869  Biso   1.000  H
  C553     1.0000 0.58981  0.61339  0.12882  Biso   1.000  C
  C554     1.0000 0.85537  0.44494  0.98789  Biso   1.000  C
  N77      1.0000 0.65051  0.57760  0.04651  Biso   1.000  N
  H629     1.0000 0.59519  0.60040  0.05410  Biso   1.000  H
  C555     1.0000 0.63622  0.64521  0.06693  Biso   1.000  C
  H630     1.0000 0.56301  0.61279  0.11729  Biso   1.000  H
  H631     1.0000 0.58751  0.60311  0.15460  Biso   1.000  H
  C556     1.0000 0.60499  0.65605  0.12982  Biso   1.000  C
  C557     1.0000 0.84138  0.48763  0.98432  Biso   1.000  C
  C558     1.0000 0.89904  0.44348  0.00000  Biso   1.000  C
  H632     1.0000 0.85221  0.43100  0.96339  Biso   1.000  H
  C559     1.0000 0.63869  0.55816  0.01786  Biso   1.000  C
  C560     1.0000 0.60940  0.67227  0.09006  Biso   1.000  C
  H633     1.0000 0.66361  0.64619  0.07709  Biso   1.000  H
  H634     1.0000 0.63711  0.65521  0.04090  Biso   1.000  H
  H635     1.0000 0.63110  0.65691  0.14271  Biso   1.000  H
  H636     1.0000 0.58611  0.67290  0.14399  Biso   1.000  H
  N78      1.0000 0.80017  0.48867  0.97059  Biso   1.000  N
  H637     1.0000 0.84281  0.50091  0.00921  Biso   1.000  H
  C561     1.0000 0.86772  0.51020  0.95645  Biso   1.000  C
  H638     1.0000 0.90152  0.45461  0.02550  Biso   1.000  H
  H639     1.0000 0.90801  0.41540  0.00070  Biso   1.000  H
  C562     1.0000 0.92593  0.46706  0.97355  Biso   1.000  C
  H640     1.0000 0.61121  0.55861  0.01161  Biso   1.000  H
  C563     1.0000 0.66632  0.53523  0.99442  Biso   1.000  C
  H641     1.0000 0.58290  0.67409  0.07820  Biso   1.000  H
  H642     1.0000 0.62101  0.69940  0.09101  Biso   1.000  H
  C564     1.0000 0.77451  0.50642  0.99049  Biso   1.000  C
  H643     1.0000 0.86540  0.49781  0.93150  Biso   1.000  H
  H644     1.0000 0.85850  0.53809  0.95449  Biso   1.000  H
  C565     1.0000 0.91104  0.50951  0.96889  Biso   1.000  C
  H645     1.0000 0.95341  0.46750  0.98359  Biso   1.000  H
  H646     1.0000 0.92661  0.45369  0.94889  Biso   1.000  H
  C566     1.0000 0.70690  0.53276  0.00363  Biso   1.000  C
  C567     1.0000 0.65227  0.51722  0.96225  Biso   1.000  C
  C568     1.0000 0.73235  0.51103  0.97974  Biso   1.000  C
  H647     1.0000 0.78291  0.51731  0.01370  Biso   1.000  H
  H648     1.0000 0.92760  0.52342  0.95020  Biso   1.000  H
  H649     1.0000 0.91360  0.52380  0.99291  Biso   1.000  H
  O85      1.0000 0.72172  0.55027  0.03435  Biso   1.000  O
  H650     1.0000 0.62470  0.51871  0.95650  Biso   1.000  H
  C569     1.0000 0.67778  0.49704  0.93812  Biso   1.000  C
  C570     1.0000 0.71744  0.49412  0.94749  Biso   1.000  C
  H651     1.0000 0.70511  0.56661  0.04269  Biso   1.000  H
  O86      1.0000 0.66441  0.48054  0.90595  Biso   1.000  O
  H652     1.0000 0.73500  0.48010  0.93139  Biso   1.000  H
  H653     1.0000 0.64110  0.47209  0.90910  Biso   1.000  H
  C571     1.0000 0.29682  0.61300  0.25467  Biso   1.000  C
  C572     1.0000 0.29614  0.62860  0.21486  Biso   1.000  C
  C573     1.0000 0.26961  0.63607  0.28045  Biso   1.000  C
  H654     1.0000 0.28870  0.58472  0.25459  Biso   1.000  H
  H655     1.0000 0.32439  0.61440  0.26430  Biso   1.000  H
  N79      1.0000 0.31990  0.60174  0.19145  Biso   1.000  N
  H656     1.0000 0.30799  0.65590  0.21419  Biso   1.000  H
  C574     1.0000 0.25395  0.63018  0.19943  Biso   1.000  C
  C575     1.0000 0.22757  0.63750  0.26511  Biso   1.000  C
  H657     1.0000 0.27991  0.66349  0.28341  Biso   1.000  H
  H658     1.0000 0.26940  0.62330  0.30531  Biso   1.000  H
  C576     1.0000 0.35089  0.61446  0.17507  Biso   1.000  C
  N80      1.0000 0.25351  0.64831  0.16221  Biso   1.000  N
  H659     1.0000 0.24320  0.60240  0.19770  Biso   1.000  H
  C577     1.0000 0.22749  0.65447  0.22591  Biso   1.000  C
  H660     1.0000 0.21620  0.61029  0.26480  Biso   1.000  H
  H661     1.0000 0.21069  0.65420  0.28151  Biso   1.000  H
  C578     1.0000 0.37611  0.58704  0.15370  Biso   1.000  C
  H662     1.0000 0.35780  0.64179  0.17669  Biso   1.000  H
  C579     1.0000 0.23686  0.62881  0.13615  Biso   1.000  C
  H663     1.0000 0.23710  0.68231  0.22669  Biso   1.000  H
  H664     1.0000 0.19989  0.65471  0.21620  Biso   1.000  H
  C580     1.0000 0.36571  0.54699  0.14994  Biso   1.000  C
  C581     1.0000 0.41112  0.60073  0.13791  Biso   1.000  C
  H665     1.0000 0.22621  0.60341  0.14210  Biso   1.000  H
  C582     1.0000 0.23299  0.64280  0.09765  Biso   1.000  C
  C583     1.0000 0.39078  0.52106  0.12982  Biso   1.000  C
  O87      1.0000 0.33201  0.53196  0.16509  Biso   1.000  O
  C584     1.0000 0.43648  0.57504  0.11880  Biso   1.000  C
  H666     1.0000 0.41799  0.62809  0.14020  Biso   1.000  H
  C585     1.0000 0.21174  0.61919  0.07193  Biso   1.000  C
  C586     1.0000 0.25023  0.67817  0.08546  Biso   1.000  C
  C587     1.0000 0.37819  0.47965  0.12533  Biso   1.000  C
  C588     1.0000 0.42579  0.53574  0.11473  Biso   1.000  C
  H667     1.0000 0.32130  0.54929  0.17859  Biso   1.000  H
  O88      1.0000 0.47194  0.58891  0.10527  Biso   1.000  O
  C589     1.0000 0.20894  0.63083  0.03482  Biso   1.000  C
  O89      1.0000 0.19408  0.58525  0.08387  Biso   1.000  O
  C590     1.0000 0.24710  0.69043  0.04835  Biso   1.000  C
  H668     1.0000 0.26440  0.69430  0.10270  Biso   1.000  H
  N81      1.0000 0.39817  0.45366  0.10697  Biso   1.000  N
  H669     1.0000 0.35390  0.47161  0.13660  Biso   1.000  H
  H670     1.0000 0.44279  0.51829  0.10119  Biso   1.000  H
  H671     1.0000 0.48319  0.57081  0.09310  Biso   1.000  H
  C591     1.0000 0.18670  0.60755  0.00739  Biso   1.000  C
  C592     1.0000 0.22686  0.66602  0.02288  Biso   1.000  C
  H672     1.0000 0.18110  0.57510  0.06629  Biso   1.000  H
  O90      1.0000 0.26330  0.72512  0.03680  Biso   1.000  O
  C593     1.0000 0.38227  0.41332  0.10663  Biso   1.000  C
  N82      1.0000 0.16818  0.57552  0.01660  Biso   1.000  N
  H673     1.0000 0.18589  0.61630  0.98220  Biso   1.000  H
  H674     1.0000 0.22540  0.67349  0.99729  Biso   1.000  H
  H675     1.0000 0.27211  0.73771  0.05530  Biso   1.000  H
  H676     1.0000 0.26110  0.72670  0.01350  Biso   1.000  H
  C594     1.0000 0.41019  0.38661  0.12882  Biso   1.000  C
  C595     1.0000 0.37831  0.39811  0.06685  Biso   1.000  C
  H677     1.0000 0.35550  0.41329  0.11869  Biso   1.000  H
  C596     1.0000 0.14463  0.55506  0.98789  Biso   1.000  C
  C597     1.0000 0.39501  0.34395  0.12982  Biso   1.000  C
  H678     1.0000 0.43699  0.38721  0.11729  Biso   1.000  H
  H679     1.0000 0.41252  0.39692  0.15460  Biso   1.000  H
  C598     1.0000 0.36378  0.35479  0.06693  Biso   1.000  C
  N83      1.0000 0.34949  0.42240  0.04651  Biso   1.000  N
  H680     1.0000 0.40481  0.39960  0.05410  Biso   1.000  H
  C599     1.0000 0.15862  0.51237  0.98432  Biso   1.000  C
  C600     1.0000 0.10096  0.55652  0.00000  Biso   1.000  C
  H681     1.0000 0.14779  0.56900  0.96339  Biso   1.000  H
  H682     1.0000 0.36890  0.34309  0.14271  Biso   1.000  H
  H683     1.0000 0.41392  0.32710  0.14399  Biso   1.000  H
  C601     1.0000 0.39060  0.32773  0.09006  Biso   1.000  C
  H684     1.0000 0.33639  0.35381  0.07709  Biso   1.000  H
  H685     1.0000 0.36289  0.34482  0.04090  Biso   1.000  H
  C602     1.0000 0.36131  0.44184  0.01786  Biso   1.000  C
  N84      1.0000 0.19983  0.51133  0.97059  Biso   1.000  N
  H686     1.0000 0.15719  0.49909  0.00921  Biso   1.000  H
  C603     1.0000 0.13228  0.48980  0.95645  Biso   1.000  C
  H687     1.0000 0.09851  0.54539  0.02550  Biso   1.000  H
  H688     1.0000 0.09199  0.58460  0.00070  Biso   1.000  H
  C604     1.0000 0.07407  0.53294  0.97355  Biso   1.000  C
  H689     1.0000 0.41710  0.32591  0.07820  Biso   1.000  H
  H690     1.0000 0.37899  0.30060  0.09101  Biso   1.000  H
  H691     1.0000 0.38879  0.44139  0.01161  Biso   1.000  H
  C605     1.0000 0.33368  0.46477  0.99442  Biso   1.000  C
  C606     1.0000 0.22549  0.49361  0.99049  Biso   1.000  C
  H692     1.0000 0.13460  0.50219  0.93150  Biso   1.000  H
  H693     1.0000 0.14150  0.46191  0.95449  Biso   1.000  H
  C607     1.0000 0.08896  0.49049  0.96889  Biso   1.000  C
  H694     1.0000 0.04659  0.53250  0.98359  Biso   1.000  H
  H695     1.0000 0.07339  0.54631  0.94889  Biso   1.000  H
  C608     1.0000 0.29310  0.46727  0.00363  Biso   1.000  C
  C609     1.0000 0.34773  0.48278  0.96225  Biso   1.000  C
  C610     1.0000 0.26765  0.48897  0.97974  Biso   1.000  C
  H696     1.0000 0.21709  0.48269  0.01370  Biso   1.000  H
  H697     1.0000 0.07240  0.47661  0.95020  Biso   1.000  H
  H698     1.0000 0.08640  0.47620  0.99291  Biso   1.000  H
  O91      1.0000 0.27828  0.44973  0.03435  Biso   1.000  O
  H699     1.0000 0.37530  0.48129  0.95650  Biso   1.000  H
  C611     1.0000 0.32222  0.50296  0.93812  Biso   1.000  C
  C612     1.0000 0.28256  0.50588  0.94749  Biso   1.000  C
  H700     1.0000 0.29489  0.43342  0.04269  Biso   1.000  H
  O92      1.0000 0.33559  0.51949  0.90595  Biso   1.000  O
  H701     1.0000 0.26500  0.51990  0.93139  Biso   1.000  H
  H702     1.0000 0.35890  0.52791  0.90910  Biso   1.000  H
  C613     1.0000 0.50222  0.61142  0.72714  Biso   1.000  C
  C614     1.0000 0.52595  0.59728  0.76064  Biso   1.000  C
  H703     1.0000 0.47810  0.59481  0.72421  Biso   1.000  H
  H704     1.0000 0.51850  0.60859  0.70431  Biso   1.000  H
  C615     1.0000 0.49022  0.65480  0.73230  Biso   1.000  C
  C616     1.0000 0.56251  0.62306  0.76625  Biso   1.000  C
  H705     1.0000 0.50901  0.59841  0.78330  Biso   1.000  H
  H706     1.0000 0.53419  0.56929  0.75679  Biso   1.000  H
  C617     1.0000 0.52660  0.68144  0.73880  Biso   1.000  C
  H707     1.0000 0.47200  0.65700  0.75389  Biso   1.000  H
  H708     1.0000 0.47581  0.66412  0.70981  Biso   1.000  H
  C618     1.0000 0.55086  0.66671  0.77147  Biso   1.000  C
  H709     1.0000 0.58019  0.62050  0.74429  Biso   1.000  H
  H710     1.0000 0.57730  0.61371  0.78852  Biso   1.000  H
  N85      1.0000 0.51249  0.72193  0.74667  Biso   1.000  N
  H711     1.0000 0.54351  0.68171  0.71581  Biso   1.000  H
  N86      1.0000 0.58686  0.69079  0.77624  Biso   1.000  N
  H712     1.0000 0.53440  0.66900  0.79460  Biso   1.000  H
  C619     1.0000 0.51946  0.75060  0.72518  Biso   1.000  C
  C620     1.0000 0.59433  0.70389  0.80863  Biso   1.000  C
  C621     1.0000 0.50287  0.79044  0.73227  Biso   1.000  C
  H713     1.0000 0.53580  0.74649  0.70389  Biso   1.000  H
  H714     1.0000 0.57552  0.69841  0.82772  Biso   1.000  H
  C622     1.0000 0.63018  0.72711  0.81909  Biso   1.000  C
  C623     1.0000 0.48075  0.79791  0.76391  Biso   1.000  C
  C624     1.0000 0.50933  0.82113  0.70674  Biso   1.000  C
  C625     1.0000 0.63491  0.73694  0.85698  Biso   1.000  C
  C626     1.0000 0.66349  0.73390  0.79680  Biso   1.000  C
  C627     1.0000 0.65111  0.74849  0.79061  Biso   1.000  C
  O93      1.0000 0.47176  0.76900  0.78751  Biso   1.000  O
  C628     1.0000 0.46539  0.83649  0.77033  Biso   1.000  C
  H715     1.0000 0.52449  0.81601  0.68489  Biso   1.000  H
  C629     1.0000 0.49424  0.85864  0.71246  Biso   1.000  C
  O94      1.0000 0.60800  0.72488  0.88170  Biso   1.000  O
  C630     1.0000 0.66817  0.75924  0.86853  Biso   1.000  C
  C631     1.0000 0.69749  0.75421  0.80849  Biso   1.000  C
  H716     1.0000 0.66301  0.72402  0.77200  Biso   1.000  H
  C632     1.0000 0.68129  0.77362  0.80152  Biso   1.000  C
  H717     1.0000 0.64441  0.74539  0.76500  Biso   1.000  H
  H718     1.0000 0.47831  0.74700  0.77819  Biso   1.000  H
  C633     1.0000 0.44199  0.84447  0.80347  Biso   1.000  C
  C634     1.0000 0.47158  0.86570  0.74429  Biso   1.000  C
  O95      1.0000 0.50106  0.88788  0.68735  Biso   1.000  O
  H719     1.0000 0.61431  0.73310  0.90302  Biso   1.000  H
  C635     1.0000 0.69999  0.76570  0.84501  Biso   1.000  C
  C636     1.0000 0.67308  0.77132  0.90704  Biso   1.000  C
  C637     1.0000 0.68519  0.78359  0.83740  Biso   1.000  C
  O96      1.0000 0.72979  0.76171  0.78589  Biso   1.000  O
  O97      1.0000 0.70440  0.79181  0.77370  Biso   1.000  O
  N87      1.0000 0.42934  0.87829  0.81338  Biso   1.000  N
  H720     1.0000 0.43559  0.82250  0.81901  Biso   1.000  H
  H721     1.0000 0.46021  0.89130  0.74801  Biso   1.000  H
  H722     1.0000 0.48840  0.90830  0.69391  Biso   1.000  H
  H723     1.0000 0.72360  0.77799  0.85411  Biso   1.000  H
  N88      1.0000 0.64801  0.76236  0.93145  Biso   1.000  N
  H724     1.0000 0.69591  0.78639  0.91390  Biso   1.000  H
  H725     1.0000 0.69940  0.80720  0.84340  Biso   1.000  H
  H726     1.0000 0.72729  0.75099  0.76681  Biso   1.000  H
  H727     1.0000 0.71309  0.77439  0.75900  Biso   1.000  H
  O98      1.0000 0.70821  0.79559  0.72630  Biso   1.000  O
  C638     1.0000 0.40367  0.87987  0.84540  Biso   1.000  C
  C639     1.0000 0.65507  0.77472  0.96964  Biso   1.000  C
  O99      1.0000 0.73831  0.77019  0.71411  Biso   1.000  O
  H728     1.0000 0.72559  0.78689  0.74100  Biso   1.000  H
  C640     1.0000 0.72640  0.81869  0.69851  Biso   1.000  C
  C641     1.0000 0.41627  0.91322  0.87152  Biso   1.000  C
  H729     1.0000 0.40540  0.85400  0.85910  Biso   1.000  H
  C642     1.0000 0.35985  0.88687  0.83307  Biso   1.000  C
  H730     1.0000 0.67990  0.79109  0.97101  Biso   1.000  H
  C643     1.0000 0.61907  0.79961  0.98281  Biso   1.000  C
  C644     1.0000 0.65944  0.73771  0.99392  Biso   1.000  C
  H731     1.0000 0.74900  0.77269  0.73322  Biso   1.000  H
  C645     1.0000 0.74581  0.80249  0.69151  Biso   1.000  C
  C646     1.0000 0.73429  0.79999  0.65501  Biso   1.000  C
  C647     1.0000 0.76611  0.83649  0.70320  Biso   1.000  C
  C648     1.0000 0.71640  0.81479  0.66260  Biso   1.000  C
  C649     1.0000 0.75150  0.84891  0.70939  Biso   1.000  C
  N89      1.0000 0.45673  0.90431  0.88497  Biso   1.000  N
  H732     1.0000 0.41642  0.93912  0.85771  Biso   1.000  H
  C650     1.0000 0.38781  0.91601  0.90475  Biso   1.000  C
  H733     1.0000 0.35830  0.91182  0.81840  Biso   1.000  H
  H734     1.0000 0.35139  0.86469  0.81670  Biso   1.000  H
  C651     1.0000 0.33157  0.88967  0.86597  Biso   1.000  C
  N90      1.0000 0.61636  0.83599  0.96024  Biso   1.000  N
  H735     1.0000 0.59409  0.78371  0.98011  Biso   1.000  H
  C652     1.0000 0.62506  0.81113  0.02349  Biso   1.000  C
  H736     1.0000 0.63521  0.72119  0.99180  Biso   1.000  H
  H737     1.0000 0.68231  0.72169  0.98510  Biso   1.000  H
  C653     1.0000 0.66584  0.74944  0.03435  Biso   1.000  C
  C654     1.0000 0.74078  0.83182  0.63147  Biso   1.000  C
  H738     1.0000 0.72199  0.77641  0.64589  Biso   1.000  H
  C655     1.0000 0.77290  0.86984  0.68091  Biso   1.000  C
  H739     1.0000 0.77600  0.83700  0.72800  Biso   1.000  H
  H740     1.0000 0.69282  0.80059  0.65660  Biso   1.000  H
  H741     1.0000 0.75459  0.85561  0.73500  Biso   1.000  H
  C656     1.0000 0.48555  0.92697  0.87651  Biso   1.000  C
  C657     1.0000 0.34490  0.92307  0.89172  Biso   1.000  C
  H742     1.0000 0.39620  0.93810  0.92121  Biso   1.000  H
  H743     1.0000 0.38912  0.89101  0.91931  Biso   1.000  H
  H744     1.0000 0.33139  0.86409  0.87981  Biso   1.000  H
  H745     1.0000 0.30421  0.89500  0.85690  Biso   1.000  H
  C658     1.0000 0.58239  0.84310  0.94512  Biso   1.000  C
  H746     1.0000 0.60171  0.82649  0.03220  Biso   1.000  H
  H747     1.0000 0.64881  0.82840  0.02561  Biso   1.000  H
  C659     1.0000 0.63059  0.77394  0.04860  Biso   1.000  C
  H748     1.0000 0.69061  0.76531  0.03661  Biso   1.000  H
  H749     1.0000 0.66891  0.72521  0.04980  Biso   1.000  H
  C660     1.0000 0.76308  0.86510  0.64304  Biso   1.000  C
  C661     1.0000 0.72869  0.82691  0.59299  Biso   1.000  C
  C662     1.0000 0.79612  0.90568  0.69140  Biso   1.000  C
  C663     1.0000 0.52639  0.91911  0.88885  Biso   1.000  C
  H750     1.0000 0.48040  0.94980  0.86170  Biso   1.000  H
  H751     1.0000 0.32701  0.92441  0.91359  Biso   1.000  H
  H752     1.0000 0.34321  0.94879  0.87841  Biso   1.000  H
  H753     1.0000 0.56149  0.82450  0.94891  Biso   1.000  H
  C664     1.0000 0.57427  0.87835  0.92235  Biso   1.000  C
  H754     1.0000 0.63551  0.78231  0.07472  Biso   1.000  H
  H755     1.0000 0.60609  0.75751  0.04810  Biso   1.000  H
  O100     1.0000 0.77510  0.89202  0.61832  Biso   1.000  O
  N91      1.0000 0.73762  0.85201  0.56855  Biso   1.000  N
  H756     1.0000 0.71360  0.80410  0.58610  Biso   1.000  H
  N92      1.0000 0.80922  0.91313  0.72376  Biso   1.000  N
  H757     1.0000 0.80160  0.92450  0.67231  Biso   1.000  H
  C665     1.0000 0.53467  0.88568  0.91097  Biso   1.000  C
  C666     1.0000 0.55727  0.94468  0.87788  Biso   1.000  C
  C667     1.0000 0.60401  0.90470  0.91091  Biso   1.000  C
  H758     1.0000 0.76689  0.88571  0.59701  Biso   1.000  H
  C668     1.0000 0.72527  0.84495  0.53036  Biso   1.000  C
  C669     1.0000 0.83331  0.94912  0.72853  Biso   1.000  C
  O101     1.0000 0.50576  0.86034  0.92154  Biso   1.000  O
  H759     1.0000 0.55161  0.96719  0.86270  Biso   1.000  H
  C670     1.0000 0.59600  0.93712  0.88915  Biso   1.000  C
  H760     1.0000 0.63071  0.89991  0.91850  Biso   1.000  H
  H761     1.0000 0.70889  0.82009  0.52902  Biso   1.000  H
  C671     1.0000 0.70038  0.88094  0.51719  Biso   1.000  C
  C672     1.0000 0.76227  0.84057  0.50608  Biso   1.000  C
  C673     1.0000 0.81857  0.97341  0.76120  Biso   1.000  C
  H762     1.0000 0.83102  0.96561  0.70540  Biso   1.000  H
  C674     1.0000 0.87695  0.93751  0.73375  Biso   1.000  C
  H763     1.0000 0.48340  0.87002  0.91599  Biso   1.000  H
  O102     1.0000 0.62690  0.96174  0.87886  Biso   1.000  O
  N93      1.0000 0.66403  0.88365  0.53979  Biso   1.000  N
  H764     1.0000 0.71631  0.90589  0.51989  Biso   1.000  H
  C675     1.0000 0.68889  0.87496  0.47654  Biso   1.000  C
  C676     1.0000 0.75057  0.83414  0.46565  Biso   1.000  C
  H765     1.0000 0.77880  0.86481  0.50820  Biso   1.000  H
  H766     1.0000 0.77829  0.81771  0.51490  Biso   1.000  H
  N94      1.0000 0.77805  0.98753  0.75333  Biso   1.000  N
  H767     1.0000 0.81830  0.95650  0.78419  Biso   1.000  H
  C677     1.0000 0.84519  0.00977  0.76770  Biso   1.000  C
  H768     1.0000 0.87951  0.91980  0.75571  Biso   1.000  H
  H769     1.0000 0.88630  0.92271  0.71151  Biso   1.000  H
  C678     1.0000 0.90274  0.97407  0.73936  Biso   1.000  C
  H770     1.0000 0.62089  0.97300  0.85871  Biso   1.000  H
  C679     1.0000 0.65691  0.91759  0.55488  Biso   1.000  C
  H771     1.0000 0.67349  0.89830  0.46780  Biso   1.000  H
  H772     1.0000 0.67159  0.85120  0.47442  Biso   1.000  H
  C680     1.0000 0.72607  0.86939  0.45143  Biso   1.000  C
  H773     1.0000 0.73470  0.80940  0.46339  Biso   1.000  H
  H774     1.0000 0.77481  0.83111  0.45020  Biso   1.000  H
  C681     1.0000 0.74938  0.98056  0.77482  Biso   1.000  C
  C682     1.0000 0.88859  0.99780  0.77286  Biso   1.000  C
  H775     1.0000 0.84301  0.02802  0.74611  Biso   1.000  H
  H776     1.0000 0.83590  0.02420  0.79022  Biso   1.000  H
  H777     1.0000 0.90160  0.99101  0.71670  Biso   1.000  H
  H778     1.0000 0.93069  0.96579  0.74321  Biso   1.000  H
  H779     1.0000 0.67549  0.93849  0.55111  Biso   1.000  H
  C683     1.0000 0.62166  0.92575  0.57765  Biso   1.000  C
  H780     1.0000 0.71771  0.86451  0.42531  Biso   1.000  H
  H781     1.0000 0.74250  0.89389  0.45190  Biso   1.000  H
  C684     1.0000 0.70958  0.99714  0.76773  Biso   1.000  C
  H782     1.0000 0.75349  0.96421  0.79611  Biso   1.000  H
  H783     1.0000 0.89139  0.98151  0.79571  Biso   1.000  H
  H784     1.0000 0.90521  0.02191  0.77579  Biso   1.000  H
  C685     1.0000 0.61434  0.96535  0.58903  Biso   1.000  C
  C686     1.0000 0.59531  0.89598  0.58911  Biso   1.000  C
  C687     1.0000 0.67885  0.99068  0.79326  Biso   1.000  C
  C688     1.0000 0.70208  0.01926  0.73609  Biso   1.000  C
  O103     1.0000 0.63967  0.99425  0.57846  Biso   1.000  O
  C689     1.0000 0.58090  0.97359  0.61118  Biso   1.000  C
  C690     1.0000 0.56289  0.90399  0.61085  Biso   1.000  C
  H785     1.0000 0.60011  0.86930  0.58150  Biso   1.000  H
  H786     1.0000 0.68400  0.97550  0.81511  Biso   1.000  H
  C691     1.0000 0.64134  0.00578  0.78754  Biso   1.000  C
  O104     1.0000 0.73101  0.02825  0.71249  Biso   1.000  O
  C692     1.0000 0.66349  0.03462  0.72967  Biso   1.000  C
  H787     1.0000 0.63000  0.01661  0.58401  Biso   1.000  H
  C693     1.0000 0.55533  0.94275  0.62212  Biso   1.000  C
  C694     1.0000 0.57304  0.01447  0.62349  Biso   1.000  C
  O105     1.0000 0.53827  0.87311  0.62117  Biso   1.000  O
  O106     1.0000 0.61211  0.99896  0.81265  Biso   1.000  O
  C695     1.0000 0.63431  0.02843  0.75573  Biso   1.000  C
  H788     1.0000 0.75301  0.02170  0.72181  Biso   1.000  H
  C696     1.0000 0.65554  0.05802  0.69653  Biso   1.000  C
  H789     1.0000 0.53279  0.94841  0.63730  Biso   1.000  H
  N95      1.0000 0.59570  0.04329  0.61506  Biso   1.000  N
  H790     1.0000 0.55021  0.01959  0.63830  Biso   1.000  H
  H791     1.0000 0.52699  0.87910  0.64131  Biso   1.000  H
  H792     1.0000 0.59171  0.01161  0.80609  Biso   1.000  H
  H793     1.0000 0.60871  0.03980  0.75199  Biso   1.000  H
  N96      1.0000 0.62172  0.07068  0.68662  Biso   1.000  N
  H794     1.0000 0.67751  0.06440  0.68102  Biso   1.000  H
  C697     1.0000 0.58677  0.08372  0.62848  Biso   1.000  C
  C698     1.0000 0.62014  0.09634  0.65460  Biso   1.000  C
  H795     1.0000 0.56090  0.08360  0.64229  Biso   1.000  H
  C699     1.0000 0.58400  0.11221  0.59528  Biso   1.000  C
  H796     1.0000 0.64602  0.09461  0.64090  Biso   1.000  H
  C700     1.0000 0.61312  0.14014  0.66695  Biso   1.000  C
  C701     1.0000 0.57692  0.15511  0.60828  Biso   1.000  C
  H797     1.0000 0.56191  0.10381  0.57879  Biso   1.000  H
  H798     1.0000 0.60901  0.11090  0.58072  Biso   1.000  H
  H799     1.0000 0.58820  0.14171  0.68160  Biso   1.000  H
  H800     1.0000 0.63530  0.14859  0.68330  Biso   1.000  H
  C702     1.0000 0.61035  0.16845  0.63403  Biso   1.000  C
  H801     1.0000 0.57561  0.17300  0.58641  Biso   1.000  H
  H802     1.0000 0.55119  0.15681  0.62162  Biso   1.000  H
  H803     1.0000 0.63589  0.16860  0.62019  Biso   1.000  H
  H804     1.0000 0.60499  0.19581  0.64310  Biso   1.000  H
  C703     1.0000 0.49778  0.38858  0.72714  Biso   1.000  C
  C704     1.0000 0.50978  0.34520  0.73230  Biso   1.000  C
  C705     1.0000 0.47408  0.40272  0.76064  Biso   1.000  C
  H805     1.0000 0.52190  0.40519  0.72421  Biso   1.000  H
  H806     1.0000 0.48150  0.39141  0.70431  Biso   1.000  H
  C706     1.0000 0.47340  0.31856  0.73880  Biso   1.000  C
  H807     1.0000 0.52800  0.34300  0.75389  Biso   1.000  H
  H808     1.0000 0.52419  0.33591  0.70981  Biso   1.000  H
  C707     1.0000 0.43752  0.37694  0.76625  Biso   1.000  C
  H809     1.0000 0.49099  0.40159  0.78330  Biso   1.000  H
  H810     1.0000 0.46581  0.43071  0.75679  Biso   1.000  H
  C708     1.0000 0.44914  0.33332  0.77147  Biso   1.000  C
  N97      1.0000 0.48751  0.27807  0.74667  Biso   1.000  N
  H811     1.0000 0.45649  0.31829  0.71581  Biso   1.000  H
  H812     1.0000 0.41981  0.37950  0.74429  Biso   1.000  H
  H813     1.0000 0.42270  0.38629  0.78852  Biso   1.000  H
  N98      1.0000 0.41314  0.30921  0.77624  Biso   1.000  N
  H814     1.0000 0.46560  0.33100  0.79460  Biso   1.000  H
  C709     1.0000 0.48054  0.24940  0.72518  Biso   1.000  C
  C710     1.0000 0.40567  0.29611  0.80863  Biso   1.000  C
  C711     1.0000 0.49713  0.20956  0.73227  Biso   1.000  C
  H815     1.0000 0.46420  0.25351  0.70389  Biso   1.000  H
  C712     1.0000 0.36985  0.27289  0.81909  Biso   1.000  C
  H816     1.0000 0.42451  0.30159  0.82772  Biso   1.000  H
  C713     1.0000 0.51925  0.20209  0.76391  Biso   1.000  C
  C714     1.0000 0.49067  0.17887  0.70674  Biso   1.000  C
  C715     1.0000 0.33651  0.26610  0.79680  Biso   1.000  C
  C716     1.0000 0.34889  0.25151  0.79061  Biso   1.000  C
  C717     1.0000 0.36509  0.26306  0.85698  Biso   1.000  C
  O107     1.0000 0.52824  0.23100  0.78751  Biso   1.000  O
  C718     1.0000 0.53461  0.16351  0.77033  Biso   1.000  C
  H817     1.0000 0.47551  0.18399  0.68489  Biso   1.000  H
  C719     1.0000 0.50576  0.14136  0.71246  Biso   1.000  C
  C720     1.0000 0.31871  0.22641  0.80152  Biso   1.000  C
  C721     1.0000 0.30251  0.24579  0.80849  Biso   1.000  C
  H818     1.0000 0.33702  0.27601  0.77200  Biso   1.000  H
  H819     1.0000 0.35559  0.25461  0.76500  Biso   1.000  H
  C722     1.0000 0.33183  0.24079  0.86853  Biso   1.000  C
  O108     1.0000 0.39203  0.27512  0.88170  Biso   1.000  O
  H820     1.0000 0.52169  0.25300  0.77819  Biso   1.000  H
  C723     1.0000 0.55801  0.15553  0.80347  Biso   1.000  C
  C724     1.0000 0.52842  0.13430  0.74429  Biso   1.000  C
  O109     1.0000 0.49894  0.11212  0.68735  Biso   1.000  O
  O110     1.0000 0.29560  0.20819  0.77370  Biso   1.000  O
  C725     1.0000 0.30001  0.23430  0.84501  Biso   1.000  C
  C726     1.0000 0.31481  0.21641  0.83740  Biso   1.000  C
  O111     1.0000 0.27021  0.23829  0.78589  Biso   1.000  O
  C727     1.0000 0.32692  0.22868  0.90704  Biso   1.000  C
  H821     1.0000 0.38569  0.26690  0.90302  Biso   1.000  H
  N99      1.0000 0.57066  0.12171  0.81338  Biso   1.000  N
  H822     1.0000 0.56441  0.17750  0.81901  Biso   1.000  H
  H823     1.0000 0.53979  0.10870  0.74801  Biso   1.000  H
  H824     1.0000 0.51160  0.09170  0.69391  Biso   1.000  H
  O112     1.0000 0.29179  0.20441  0.72630  Biso   1.000  O
  H825     1.0000 0.28691  0.22561  0.75900  Biso   1.000  H
  H826     1.0000 0.27640  0.22201  0.85411  Biso   1.000  H
  H827     1.0000 0.30060  0.19280  0.84340  Biso   1.000  H
  H828     1.0000 0.27271  0.24901  0.76681  Biso   1.000  H
  N100     1.0000 0.35199  0.23764  0.93145  Biso   1.000  N
  H829     1.0000 0.30409  0.21361  0.91390  Biso   1.000  H
  C728     1.0000 0.59633  0.12013  0.84540  Biso   1.000  C
  C729     1.0000 0.27360  0.18131  0.69851  Biso   1.000  C
  O113     1.0000 0.26169  0.22981  0.71411  Biso   1.000  O
  H830     1.0000 0.27441  0.21311  0.74100  Biso   1.000  H
  C730     1.0000 0.34493  0.22528  0.96964  Biso   1.000  C
  C731     1.0000 0.58373  0.08678  0.87152  Biso   1.000  C
  H831     1.0000 0.59460  0.14600  0.85910  Biso   1.000  H
  C732     1.0000 0.64015  0.11313  0.83307  Biso   1.000  C
  C733     1.0000 0.26571  0.20001  0.65501  Biso   1.000  C
  C734     1.0000 0.28360  0.18521  0.66260  Biso   1.000  C
  C735     1.0000 0.23389  0.16351  0.70320  Biso   1.000  C
  C736     1.0000 0.24850  0.15109  0.70939  Biso   1.000  C
  C737     1.0000 0.25419  0.19751  0.69151  Biso   1.000  C
  H832     1.0000 0.25100  0.22731  0.73322  Biso   1.000  H
  H833     1.0000 0.32010  0.20891  0.97101  Biso   1.000  H
  C738     1.0000 0.38093  0.20039  0.98281  Biso   1.000  C
  C739     1.0000 0.34056  0.26229  0.99392  Biso   1.000  C
  N101     1.0000 0.54327  0.09569  0.88497  Biso   1.000  N
  H834     1.0000 0.58361  0.06091  0.85771  Biso   1.000  H
  C740     1.0000 0.61219  0.08399  0.90475  Biso   1.000  C
  H835     1.0000 0.64170  0.08821  0.81840  Biso   1.000  H
  H836     1.0000 0.64861  0.13531  0.81670  Biso   1.000  H
  C741     1.0000 0.66843  0.11036  0.86597  Biso   1.000  C
  C742     1.0000 0.25922  0.16818  0.63147  Biso   1.000  C
  H837     1.0000 0.27801  0.22361  0.64589  Biso   1.000  H
  H838     1.0000 0.30721  0.19941  0.65660  Biso   1.000  H
  C743     1.0000 0.22710  0.13016  0.68091  Biso   1.000  C
  H839     1.0000 0.22400  0.16300  0.72800  Biso   1.000  H
  H840     1.0000 0.24541  0.14439  0.73500  Biso   1.000  H
  N102     1.0000 0.38364  0.16401  0.96024  Biso   1.000  N
  H841     1.0000 0.40591  0.21629  0.98011  Biso   1.000  H
  C744     1.0000 0.37494  0.18887  0.02349  Biso   1.000  C
  H842     1.0000 0.36479  0.27881  0.99180  Biso   1.000  H
  H843     1.0000 0.31769  0.27831  0.98510  Biso   1.000  H
  C745     1.0000 0.33416  0.25056  0.03435  Biso   1.000  C
  C746     1.0000 0.51448  0.07303  0.87651  Biso   1.000  C
  C747     1.0000 0.65510  0.07693  0.89172  Biso   1.000  C
  H844     1.0000 0.60380  0.06190  0.92121  Biso   1.000  H
  H845     1.0000 0.61091  0.10899  0.91931  Biso   1.000  H
  H846     1.0000 0.66861  0.13591  0.87981  Biso   1.000  H
  H847     1.0000 0.69579  0.10500  0.85690  Biso   1.000  H
  C748     1.0000 0.27131  0.17309  0.59299  Biso   1.000  C
  C749     1.0000 0.23692  0.13490  0.64304  Biso   1.000  C
  C750     1.0000 0.20388  0.09432  0.69140  Biso   1.000  C
  C751     1.0000 0.41761  0.15690  0.94512  Biso   1.000  C
  H848     1.0000 0.39831  0.17351  0.03220  Biso   1.000  H
  H849     1.0000 0.35119  0.17160  0.02561  Biso   1.000  H
  C752     1.0000 0.36941  0.22606  0.04860  Biso   1.000  C
  H850     1.0000 0.30939  0.23469  0.03661  Biso   1.000  H
  H851     1.0000 0.33109  0.27479  0.04980  Biso   1.000  H
  C753     1.0000 0.47361  0.08089  0.88885  Biso   1.000  C
  H852     1.0000 0.51960  0.05020  0.86170  Biso   1.000  H
  H853     1.0000 0.67299  0.07559  0.91359  Biso   1.000  H
  H854     1.0000 0.65679  0.05121  0.87841  Biso   1.000  H
  N103     1.0000 0.26238  0.14799  0.56855  Biso   1.000  N
  H855     1.0000 0.28640  0.19590  0.58610  Biso   1.000  H
  O114     1.0000 0.22490  0.10798  0.61832  Biso   1.000  O
  N104     1.0000 0.19078  0.08687  0.72376  Biso   1.000  N
  H856     1.0000 0.19840  0.07550  0.67231  Biso   1.000  H
  H857     1.0000 0.43851  0.17550  0.94891  Biso   1.000  H
  C754     1.0000 0.42576  0.12165  0.92235  Biso   1.000  C
  H858     1.0000 0.36449  0.21769  0.07472  Biso   1.000  H
  H859     1.0000 0.39391  0.24249  0.04810  Biso   1.000  H
  C755     1.0000 0.46533  0.11432  0.91097  Biso   1.000  C
  C756     1.0000 0.44276  0.05532  0.87788  Biso   1.000  C
  C757     1.0000 0.27473  0.15505  0.53036  Biso   1.000  C
  H860     1.0000 0.23311  0.11429  0.59701  Biso   1.000  H
  C758     1.0000 0.16669  0.05088  0.72853  Biso   1.000  C
  C759     1.0000 0.39599  0.09530  0.91091  Biso   1.000  C
  O115     1.0000 0.49424  0.13966  0.92154  Biso   1.000  O
  C760     1.0000 0.40400  0.06288  0.88915  Biso   1.000  C
  H861     1.0000 0.44839  0.03281  0.86270  Biso   1.000  H
  C761     1.0000 0.23773  0.15943  0.50608  Biso   1.000  C
  C762     1.0000 0.29962  0.11906  0.51719  Biso   1.000  C
  H862     1.0000 0.29111  0.17991  0.52902  Biso   1.000  H
  C763     1.0000 0.18143  0.02659  0.76120  Biso   1.000  C
  H863     1.0000 0.16901  0.03439  0.70540  Biso   1.000  H
  C764     1.0000 0.12305  0.06249  0.73375  Biso   1.000  C
  H864     1.0000 0.36929  0.10009  0.91850  Biso   1.000  H
  H865     1.0000 0.51660  0.13001  0.91599  Biso   1.000  H
  O116     1.0000 0.37310  0.03826  0.87886  Biso   1.000  O
  C765     1.0000 0.24943  0.16586  0.46565  Biso   1.000  C
  H866     1.0000 0.22120  0.13519  0.50820  Biso   1.000  H
  H867     1.0000 0.22171  0.18229  0.51490  Biso   1.000  H
  C766     1.0000 0.31114  0.12504  0.47654  Biso   1.000  C
  N105     1.0000 0.33597  0.11635  0.53979  Biso   1.000  N
  H868     1.0000 0.28369  0.09411  0.51989  Biso   1.000  H
  N106     1.0000 0.22195  0.01247  0.75333  Biso   1.000  N
  H869     1.0000 0.18170  0.04350  0.78419  Biso   1.000  H
  C767     1.0000 0.15481  0.99023  0.76770  Biso   1.000  C
  H870     1.0000 0.12049  0.08020  0.75571  Biso   1.000  H
  H871     1.0000 0.11370  0.07729  0.71151  Biso   1.000  H
  C768     1.0000 0.09726  0.02593  0.73936  Biso   1.000  C
  H872     1.0000 0.37911  0.02700  0.85871  Biso   1.000  H
  C769     1.0000 0.27393  0.13061  0.45143  Biso   1.000  C
  H873     1.0000 0.26530  0.19060  0.46339  Biso   1.000  H
  H874     1.0000 0.22519  0.16889  0.45020  Biso   1.000  H
  H875     1.0000 0.32651  0.10170  0.46780  Biso   1.000  H
  H876     1.0000 0.32841  0.14880  0.47442  Biso   1.000  H
  C770     1.0000 0.34309  0.08241  0.55488  Biso   1.000  C
  C771     1.0000 0.25062  0.01944  0.77482  Biso   1.000  C
  C772     1.0000 0.11141  0.00220  0.77286  Biso   1.000  C
  H877     1.0000 0.15699  0.97201  0.74611  Biso   1.000  H
  H878     1.0000 0.16410  0.97580  0.79022  Biso   1.000  H
  H879     1.0000 0.09840  0.00899  0.71670  Biso   1.000  H
  H880     1.0000 0.06931  0.03421  0.74321  Biso   1.000  H
  H881     1.0000 0.28229  0.13549  0.42531  Biso   1.000  H
  H882     1.0000 0.25750  0.10611  0.45190  Biso   1.000  H
  H883     1.0000 0.32451  0.06151  0.55111  Biso   1.000  H
  C773     1.0000 0.37834  0.07425  0.57765  Biso   1.000  C
  C774     1.0000 0.29042  0.00286  0.76773  Biso   1.000  C
  H884     1.0000 0.24651  0.03579  0.79611  Biso   1.000  H
  H885     1.0000 0.10861  0.01849  0.79571  Biso   1.000  H
  H886     1.0000 0.09479  0.97809  0.77579  Biso   1.000  H
  C775     1.0000 0.38566  0.03468  0.58903  Biso   1.000  C
  C776     1.0000 0.40469  0.10402  0.58911  Biso   1.000  C
  C777     1.0000 0.32115  0.00932  0.79326  Biso   1.000  C
  C778     1.0000 0.29792  0.98074  0.73609  Biso   1.000  C
  O117     1.0000 0.36033  0.00575  0.57846  Biso   1.000  O
  C779     1.0000 0.41910  0.02641  0.61118  Biso   1.000  C
  C780     1.0000 0.43711  0.09601  0.61085  Biso   1.000  C
  H887     1.0000 0.39989  0.13070  0.58150  Biso   1.000  H
  H888     1.0000 0.31600  0.02450  0.81511  Biso   1.000  H
  C781     1.0000 0.35866  0.99422  0.78754  Biso   1.000  C
  C782     1.0000 0.33651  0.96538  0.72967  Biso   1.000  C
  O118     1.0000 0.26899  0.97175  0.71249  Biso   1.000  O
  H889     1.0000 0.37000  0.98339  0.58401  Biso   1.000  H
  C783     1.0000 0.44467  0.05725  0.62212  Biso   1.000  C
  C784     1.0000 0.42696  0.98553  0.62349  Biso   1.000  C
  O119     1.0000 0.46173  0.12689  0.62117  Biso   1.000  O
  C785     1.0000 0.36569  0.97157  0.75573  Biso   1.000  C
  O120     1.0000 0.38789  0.00104  0.81265  Biso   1.000  O
  C786     1.0000 0.34446  0.94198  0.69653  Biso   1.000  C
  H890     1.0000 0.24702  0.97830  0.72181  Biso   1.000  H
  H891     1.0000 0.46721  0.05159  0.63730  Biso   1.000  H
  N107     1.0000 0.40430  0.95671  0.61506  Biso   1.000  N
  H892     1.0000 0.44979  0.98041  0.63830  Biso   1.000  H
  H893     1.0000 0.47301  0.12090  0.64131  Biso   1.000  H
  H894     1.0000 0.39129  0.96020  0.75199  Biso   1.000  H
  H895     1.0000 0.40829  0.98839  0.80609  Biso   1.000  H
  N108     1.0000 0.37828  0.92932  0.68662  Biso   1.000  N
  H896     1.0000 0.32249  0.93560  0.68102  Biso   1.000  H
  C787     1.0000 0.41323  0.91628  0.62848  Biso   1.000  C
  C788     1.0000 0.37986  0.90366  0.65460  Biso   1.000  C
  H897     1.0000 0.43910  0.91640  0.64229  Biso   1.000  H
  C789     1.0000 0.41600  0.88779  0.59528  Biso   1.000  C
  H898     1.0000 0.35401  0.90539  0.64090  Biso   1.000  H
  C790     1.0000 0.38688  0.85986  0.66695  Biso   1.000  C
  C791     1.0000 0.42308  0.84489  0.60828  Biso   1.000  C
  H899     1.0000 0.43809  0.89619  0.57879  Biso   1.000  H
  H900     1.0000 0.39099  0.88910  0.58072  Biso   1.000  H
  H901     1.0000 0.41180  0.85829  0.68160  Biso   1.000  H
  H902     1.0000 0.36470  0.85141  0.68330  Biso   1.000  H
  C792     1.0000 0.38965  0.83155  0.63403  Biso   1.000  C
  H903     1.0000 0.42439  0.82700  0.58641  Biso   1.000  H
  H904     1.0000 0.44881  0.84319  0.62162  Biso   1.000  H
  H905     1.0000 0.36411  0.83140  0.62019  Biso   1.000  H
  H906     1.0000 0.39501  0.80419  0.64310  Biso   1.000  H
  O121     1.0000 0.77490  0.23671  0.46320  Biso   1.000  O
  H907     1.0000 0.76230  0.22790  0.44470  Biso   1.000  H
  C793     1.0000 0.80955  0.25291  0.45165  Biso   1.000  C
  H908     1.0000 0.77329  0.23889  0.48650  Biso   1.000  H
  C794     1.0000 0.83399  0.27313  0.47712  Biso   1.000  C
  C795     1.0000 0.82185  0.24978  0.41454  Biso   1.000  C
  C796     1.0000 0.86918  0.29105  0.46518  Biso   1.000  C
  H909     1.0000 0.82649  0.27461  0.50271  Biso   1.000  H
  C797     1.0000 0.85722  0.26702  0.40235  Biso   1.000  C
  H910     1.0000 0.80571  0.23561  0.39730  Biso   1.000  H
  C798     1.0000 0.88082  0.28825  0.42807  Biso   1.000  C
  C799     1.0000 0.89244  0.31329  0.49261  Biso   1.000  C
  C800     1.0000 0.87121  0.26312  0.36385  Biso   1.000  C
  O122     1.0000 0.91476  0.30590  0.41613  Biso   1.000  O
  N109     1.0000 0.92447  0.33183  0.48340  Biso   1.000  N
  H911     1.0000 0.88371  0.31409  0.51780  Biso   1.000  H
  N110     1.0000 0.85171  0.24648  0.33779  Biso   1.000  N
  H912     1.0000 0.89660  0.27381  0.35790  Biso   1.000  H
  H913     1.0000 0.92492  0.31891  0.43371  Biso   1.000  H
  C801     1.0000 0.94492  0.35538  0.51211  Biso   1.000  C
  C802     1.0000 0.86984  0.24603  0.30057  Biso   1.000  C
  H914     1.0000 0.93099  0.35220  0.53661  Biso   1.000  H
  C803     1.0000 0.98761  0.34136  0.51568  Biso   1.000  C
  C804     1.0000 0.94349  0.39903  0.50000  Biso   1.000  C
  C805     1.0000 0.87142  0.20388  0.28514  Biso   1.000  C
  H915     1.0000 0.89762  0.25681  0.30230  Biso   1.000  H
  C806     1.0000 0.84554  0.27253  0.27409  Biso   1.000  C
  N111     1.0000 0.98869  0.30016  0.52941  Biso   1.000  N
  H916     1.0000 0.00089  0.34279  0.49079  Biso   1.000  H
  C807     1.0000 0.01018  0.36771  0.54355  Biso   1.000  C
  C808     1.0000 0.96704  0.42594  0.52645  Biso   1.000  C
  H917     1.0000 0.95460  0.40150  0.47450  Biso   1.000  H
  H918     1.0000 0.91539  0.40799  0.49930  Biso   1.000  H
  N112     1.0000 0.89827  0.18009  0.30855  Biso   1.000  N
  H919     1.0000 0.84412  0.19200  0.28581  Biso   1.000  H
  C809     1.0000 0.88702  0.20319  0.24535  Biso   1.000  C
  H920     1.0000 0.81771  0.26291  0.27331  Biso   1.000  H
  H921     1.0000 0.84531  0.30010  0.28380  Biso   1.000  H
  C810     1.0000 0.86251  0.27241  0.23489  Biso   1.000  C
  C811     1.0000 0.00640  0.27449  0.50951  Biso   1.000  C
  H922     1.0000 0.99780  0.36539  0.56850  Biso   1.000  H
  H923     1.0000 0.03811  0.35851  0.54551  Biso   1.000  H
  C812     1.0000 0.00950  0.41103  0.53111  Biso   1.000  C
  H924     1.0000 0.96749  0.45339  0.51641  Biso   1.000  H
  H925     1.0000 0.95371  0.42660  0.55111  Biso   1.000  H
  C813     1.0000 0.88556  0.14910  0.32493  Biso   1.000  C
  C814     1.0000 0.86394  0.23037  0.21955  Biso   1.000  C
  H926     1.0000 0.91530  0.21129  0.24541  Biso   1.000  H
  H927     1.0000 0.88562  0.17559  0.23570  Biso   1.000  H
  H928     1.0000 0.88970  0.28381  0.23520  Biso   1.000  H
  H929     1.0000 0.84581  0.28929  0.21851  Biso   1.000  H
  H930     1.0000 0.01730  0.28289  0.48630  Biso   1.000  H
  C815     1.0000 0.01105  0.23234  0.52026  Biso   1.000  C
  H931     1.0000 0.02340  0.42761  0.54980  Biso   1.000  H
  H932     1.0000 0.02382  0.41359  0.50711  Biso   1.000  H
  C816     1.0000 0.91295  0.12391  0.34630  Biso   1.000  C
  H933     1.0000 0.85820  0.14219  0.32331  Biso   1.000  H
  H934     1.0000 0.83649  0.22010  0.21659  Biso   1.000  H
  H935     1.0000 0.87672  0.23061  0.19469  Biso   1.000  H
  C817     1.0000 0.99413  0.21745  0.55254  Biso   1.000  C
  C818     1.0000 0.03275  0.20691  0.49637  Biso   1.000  C
  C819     1.0000 0.95302  0.13430  0.35006  Biso   1.000  C
  C820     1.0000 0.89928  0.08887  0.36209  Biso   1.000  C
  C821     1.0000 0.99702  0.17780  0.56188  Biso   1.000  C
  H936     1.0000 0.98011  0.23499  0.56861  Biso   1.000  H
  O123     1.0000 0.05028  0.22171  0.46565  Biso   1.000  O
  C822     1.0000 0.03525  0.16630  0.50558  Biso   1.000  C
  O124     1.0000 0.96803  0.16800  0.33491  Biso   1.000  O
  C823     1.0000 0.97892  0.10923  0.37018  Biso   1.000  C
  H937     1.0000 0.87189  0.08199  0.35980  Biso   1.000  H
  C824     1.0000 0.92498  0.06350  0.38120  Biso   1.000  C
  O125     1.0000 0.98053  0.16440  0.59405  Biso   1.000  O
  C825     1.0000 0.01724  0.15225  0.53775  Biso   1.000  C
  H938     1.0000 0.06660  0.20510  0.45731  Biso   1.000  H
  C826     1.0000 0.05817  0.13868  0.48214  Biso   1.000  C
  H939     1.0000 0.95070  0.17869  0.32141  Biso   1.000  H
  C827     1.0000 0.96424  0.07419  0.38527  Biso   1.000  C
  C828     1.0000 0.02033  0.12183  0.37467  Biso   1.000  C
  O126     1.0000 0.91107  0.02807  0.39473  Biso   1.000  O
  H940     1.0000 0.97210  0.14109  0.59090  Biso   1.000  H
  H941     1.0000 0.01870  0.12471  0.54350  Biso   1.000  H
  N113     1.0000 0.07758  0.15053  0.45349  Biso   1.000  N
  H942     1.0000 0.05859  0.11120  0.48839  Biso   1.000  H
  H943     1.0000 0.98169  0.05719  0.39881  Biso   1.000  H
  N114     1.0000 0.04632  0.10185  0.39303  Biso   1.000  N
  H944     1.0000 0.02840  0.14609  0.36340  Biso   1.000  H
  H945     1.0000 0.92920  0.01679  0.40690  Biso   1.000  H
  C829     1.0000 0.10191  0.12168  0.43315  Biso   1.000  C
  C830     1.0000 0.08670  0.11772  0.39337  Biso   1.000  C
  H946     1.0000 0.10039  0.09521  0.44590  Biso   1.000  H
  C831     1.0000 0.14523  0.13621  0.43307  Biso   1.000  C
  H947     1.0000 0.08670  0.14451  0.38131  Biso   1.000  H
  C832     1.0000 0.11337  0.08979  0.37118  Biso   1.000  C
  C833     1.0000 0.17226  0.10941  0.40994  Biso   1.000  C
  H948     1.0000 0.14621  0.16360  0.42291  Biso   1.000  H
  H949     1.0000 0.15520  0.13710  0.45910  Biso   1.000  H
  H950     1.0000 0.11280  0.06300  0.38271  Biso   1.000  H
  H951     1.0000 0.10310  0.08750  0.34540  Biso   1.000  H
  C834     1.0000 0.15606  0.10497  0.37018  Biso   1.000  C
  H952     1.0000 0.17410  0.08291  0.42180  Biso   1.000  H
  H953     1.0000 0.19941  0.12099  0.40899  Biso   1.000  H
  H954     1.0000 0.15690  0.13111  0.35729  Biso   1.000  H
  H955     1.0000 0.17291  0.08610  0.35601  Biso   1.000  H
  O127     1.0000 0.22510  0.76329  0.46320  Biso   1.000  O
  C835     1.0000 0.19045  0.74709  0.45165  Biso   1.000  C
  H956     1.0000 0.23770  0.77210  0.44470  Biso   1.000  H
  H957     1.0000 0.22671  0.76111  0.48650  Biso   1.000  H
  C836     1.0000 0.16601  0.72687  0.47712  Biso   1.000  C
  C837     1.0000 0.17818  0.75022  0.41454  Biso   1.000  C
  C838     1.0000 0.13082  0.70895  0.46518  Biso   1.000  C
  H958     1.0000 0.17351  0.72542  0.50271  Biso   1.000  H
  C839     1.0000 0.14281  0.73298  0.40235  Biso   1.000  C
  H959     1.0000 0.19429  0.76442  0.39730  Biso   1.000  H
  C840     1.0000 0.10756  0.68671  0.49261  Biso   1.000  C
  C841     1.0000 0.11918  0.71175  0.42807  Biso   1.000  C
  C842     1.0000 0.12879  0.73688  0.36385  Biso   1.000  C
  N115     1.0000 0.07553  0.66817  0.48340  Biso   1.000  N
  H960     1.0000 0.11629  0.68591  0.51780  Biso   1.000  H
  O128     1.0000 0.08524  0.69410  0.41613  Biso   1.000  O
  N116     1.0000 0.14829  0.75352  0.33779  Biso   1.000  N
  H961     1.0000 0.10340  0.72619  0.35790  Biso   1.000  H
  C843     1.0000 0.05508  0.64462  0.51211  Biso   1.000  C
  H962     1.0000 0.07511  0.68112  0.43371  Biso   1.000  H
  C844     1.0000 0.13016  0.75397  0.30057  Biso   1.000  C
  C845     1.0000 0.05651  0.60097  0.50000  Biso   1.000  C
  H963     1.0000 0.06901  0.64780  0.53661  Biso   1.000  H
  C846     1.0000 0.01239  0.65864  0.51568  Biso   1.000  C
  C847     1.0000 0.12858  0.79612  0.28514  Biso   1.000  C
  H964     1.0000 0.10241  0.74319  0.30230  Biso   1.000  H
  C848     1.0000 0.15449  0.72747  0.27409  Biso   1.000  C
  C849     1.0000 0.03296  0.57406  0.52645  Biso   1.000  C
  H965     1.0000 0.04540  0.59850  0.47450  Biso   1.000  H
  H966     1.0000 0.08461  0.59201  0.49930  Biso   1.000  H
  N117     1.0000 0.01131  0.69984  0.52941  Biso   1.000  N
  H967     1.0000 0.99911  0.65721  0.49079  Biso   1.000  H
  C850     1.0000 0.98982  0.63229  0.54355  Biso   1.000  C
  N118     1.0000 0.10173  0.81991  0.30855  Biso   1.000  N
  H968     1.0000 0.15591  0.80800  0.28581  Biso   1.000  H
  C851     1.0000 0.11301  0.79681  0.24535  Biso   1.000  C
  H969     1.0000 0.18229  0.73712  0.27331  Biso   1.000  H
  H970     1.0000 0.15469  0.69990  0.28380  Biso   1.000  H
  C852     1.0000 0.13752  0.72759  0.23489  Biso   1.000  C
  H971     1.0000 0.03251  0.54661  0.51641  Biso   1.000  H
  H972     1.0000 0.04629  0.57340  0.55111  Biso   1.000  H
  C853     1.0000 0.99050  0.58897  0.53111  Biso   1.000  C
  C854     1.0000 0.99360  0.72551  0.50951  Biso   1.000  C
  H973     1.0000 0.00220  0.63461  0.56850  Biso   1.000  H
  H974     1.0000 0.96189  0.64149  0.54551  Biso   1.000  H
  C855     1.0000 0.11444  0.85090  0.32493  Biso   1.000  C
  C856     1.0000 0.13606  0.76963  0.21955  Biso   1.000  C
  H975     1.0000 0.08470  0.78871  0.24541  Biso   1.000  H
  H976     1.0000 0.11441  0.82441  0.23570  Biso   1.000  H
  H977     1.0000 0.11030  0.71622  0.23520  Biso   1.000  H
  H978     1.0000 0.15419  0.71071  0.21851  Biso   1.000  H
  H979     1.0000 0.97660  0.57239  0.54980  Biso   1.000  H
  H980     1.0000 0.97621  0.58641  0.50711  Biso   1.000  H
  H981     1.0000 0.98270  0.71711  0.48630  Biso   1.000  H
  C857     1.0000 0.98895  0.76766  0.52026  Biso   1.000  C
  C858     1.0000 0.08705  0.87609  0.34630  Biso   1.000  C
  H982     1.0000 0.14180  0.85781  0.32331  Biso   1.000  H
  H983     1.0000 0.16351  0.77990  0.21659  Biso   1.000  H
  H984     1.0000 0.12331  0.76939  0.19469  Biso   1.000  H
  C859     1.0000 0.00589  0.78255  0.55254  Biso   1.000  C
  C860     1.0000 0.96725  0.79312  0.49637  Biso   1.000  C
  C861     1.0000 0.04698  0.86570  0.35006  Biso   1.000  C
  C862     1.0000 0.10072  0.91113  0.36209  Biso   1.000  C
  C863     1.0000 0.00298  0.82220  0.56188  Biso   1.000  C
  H985     1.0000 0.01989  0.76501  0.56861  Biso   1.000  H
  O129     1.0000 0.94972  0.77829  0.46565  Biso   1.000  O
  C864     1.0000 0.96475  0.83370  0.50558  Biso   1.000  C
  C865     1.0000 0.02108  0.89077  0.37018  Biso   1.000  C
  O130     1.0000 0.03197  0.83200  0.33491  Biso   1.000  O
  H986     1.0000 0.12811  0.91801  0.35980  Biso   1.000  H
  C866     1.0000 0.07502  0.93650  0.38120  Biso   1.000  C
  O131     1.0000 0.01947  0.83560  0.59405  Biso   1.000  O
  C867     1.0000 0.98279  0.84775  0.53775  Biso   1.000  C
  H987     1.0000 0.93340  0.79490  0.45731  Biso   1.000  H
  C868     1.0000 0.94183  0.86132  0.48214  Biso   1.000  C
  C869     1.0000 0.97967  0.87817  0.37467  Biso   1.000  C
  C870     1.0000 0.03576  0.92581  0.38527  Biso   1.000  C
  H988     1.0000 0.04930  0.82131  0.32141  Biso   1.000  H
  O132     1.0000 0.08893  0.97196  0.39473  Biso   1.000  O
  H989     1.0000 0.02790  0.85891  0.59090  Biso   1.000  H
  H990     1.0000 0.98130  0.87532  0.54350  Biso   1.000  H
  N119     1.0000 0.92242  0.84947  0.45349  Biso   1.000  N
  H991     1.0000 0.94141  0.88880  0.48839  Biso   1.000  H
  N120     1.0000 0.95368  0.89815  0.39303  Biso   1.000  N
  H992     1.0000 0.97160  0.85391  0.36340  Biso   1.000  H
  H993     1.0000 0.01831  0.94281  0.39881  Biso   1.000  H
  H994     1.0000 0.07080  0.98321  0.40690  Biso   1.000  H
  C871     1.0000 0.89809  0.87832  0.43315  Biso   1.000  C
  C872     1.0000 0.91330  0.88228  0.39337  Biso   1.000  C
  H995     1.0000 0.89961  0.90479  0.44590  Biso   1.000  H
  C873     1.0000 0.85480  0.86379  0.43307  Biso   1.000  C
  H996     1.0000 0.91330  0.85549  0.38131  Biso   1.000  H
  C874     1.0000 0.88663  0.91021  0.37118  Biso   1.000  C
  C875     1.0000 0.82774  0.89059  0.40994  Biso   1.000  C
  H997     1.0000 0.85379  0.83640  0.42291  Biso   1.000  H
  H998     1.0000 0.84480  0.86290  0.45910  Biso   1.000  H
  H999     1.0000 0.88720  0.93700  0.38271  Biso   1.000  H
  H1000    1.0000 0.89690  0.91250  0.34540  Biso   1.000  H
  C876     1.0000 0.84394  0.89503  0.37018  Biso   1.000  C
  H1001    1.0000 0.82590  0.91712  0.42180  Biso   1.000  H
  H1002    1.0000 0.80059  0.87901  0.40899  Biso   1.000  H
  H1003    1.0000 0.84310  0.86892  0.35729  Biso   1.000  H
  H1004    1.0000 0.82709  0.91390  0.35601  Biso   1.000  H
  O133     1.0000 0.76329  0.22510  0.53680  Biso   1.000  O
  C877     1.0000 0.74709  0.19045  0.54835  Biso   1.000  C
  H1005    1.0000 0.77210  0.23770  0.55530  Biso   1.000  H
  H1006    1.0000 0.76111  0.22671  0.51350  Biso   1.000  H
  C878     1.0000 0.72687  0.16601  0.52288  Biso   1.000  C
  C879     1.0000 0.75022  0.17818  0.58546  Biso   1.000  C
  C880     1.0000 0.70895  0.13082  0.53482  Biso   1.000  C
  H1007    1.0000 0.72542  0.17351  0.49729  Biso   1.000  H
  C881     1.0000 0.73298  0.14281  0.59765  Biso   1.000  C
  H1008    1.0000 0.76442  0.19429  0.60270  Biso   1.000  H
  C882     1.0000 0.68671  0.10756  0.50739  Biso   1.000  C
  C883     1.0000 0.71175  0.11918  0.57195  Biso   1.000  C
  C884     1.0000 0.73688  0.12879  0.63615  Biso   1.000  C
  N121     1.0000 0.66817  0.07553  0.51660  Biso   1.000  N
  H1009    1.0000 0.68591  0.11629  0.48220  Biso   1.000  H
  O134     1.0000 0.69410  0.08524  0.58390  Biso   1.000  O
  N122     1.0000 0.75352  0.14829  0.66221  Biso   1.000  N
  H1010    1.0000 0.72619  0.10340  0.64210  Biso   1.000  H
  C885     1.0000 0.64462  0.05508  0.48789  Biso   1.000  C
  H1011    1.0000 0.68112  0.07511  0.56629  Biso   1.000  H
  C886     1.0000 0.75397  0.13016  0.69943  Biso   1.000  C
  C887     1.0000 0.60097  0.05651  0.50000  Biso   1.000  C
  H1012    1.0000 0.64780  0.06901  0.46339  Biso   1.000  H
  C888     1.0000 0.65864  0.01239  0.48432  Biso   1.000  C
  C889     1.0000 0.79612  0.12858  0.71486  Biso   1.000  C
  H1013    1.0000 0.74319  0.10241  0.69770  Biso   1.000  H
  C890     1.0000 0.72747  0.15449  0.72591  Biso   1.000  C
  C891     1.0000 0.57406  0.03296  0.47355  Biso   1.000  C
  H1014    1.0000 0.59850  0.04540  0.52550  Biso   1.000  H
  H1015    1.0000 0.59201  0.08461  0.50070  Biso   1.000  H
  C892     1.0000 0.63229  0.98982  0.45645  Biso   1.000  C
  N123     1.0000 0.69984  0.01131  0.47059  Biso   1.000  N
  H1016    1.0000 0.65721  0.99911  0.50921  Biso   1.000  H
  N124     1.0000 0.81991  0.10173  0.69145  Biso   1.000  N
  H1017    1.0000 0.80800  0.15591  0.71419  Biso   1.000  H
  C893     1.0000 0.79681  0.11301  0.75467  Biso   1.000  C
  H1018    1.0000 0.73712  0.18229  0.72672  Biso   1.000  H
  H1019    1.0000 0.69990  0.15469  0.71620  Biso   1.000  H
  C894     1.0000 0.72759  0.13752  0.76511  Biso   1.000  C
  H1020    1.0000 0.54661  0.03251  0.48359  Biso   1.000  H
  H1021    1.0000 0.57340  0.04629  0.44891  Biso   1.000  H
  C895     1.0000 0.58897  0.99050  0.46889  Biso   1.000  C
  H1022    1.0000 0.63461  0.00220  0.43150  Biso   1.000  H
  H1023    1.0000 0.64149  0.96189  0.45449  Biso   1.000  H
  C896     1.0000 0.72551  0.99360  0.49051  Biso   1.000  C
  C897     1.0000 0.85090  0.11444  0.67507  Biso   1.000  C
  C898     1.0000 0.76963  0.13606  0.78045  Biso   1.000  C
  H1024    1.0000 0.78871  0.08470  0.75462  Biso   1.000  H
  H1025    1.0000 0.82441  0.11441  0.76430  Biso   1.000  H
  H1026    1.0000 0.71622  0.11030  0.76480  Biso   1.000  H
  H1027    1.0000 0.71071  0.15419  0.78151  Biso   1.000  H
  H1028    1.0000 0.57239  0.97660  0.45020  Biso   1.000  H
  H1029    1.0000 0.58641  0.97621  0.49291  Biso   1.000  H
  H1030    1.0000 0.71711  0.98270  0.51370  Biso   1.000  H
  C899     1.0000 0.76766  0.98895  0.47974  Biso   1.000  C
  C900     1.0000 0.87609  0.08705  0.65370  Biso   1.000  C
  H1031    1.0000 0.85781  0.14180  0.67669  Biso   1.000  H
  H1032    1.0000 0.77990  0.16351  0.78341  Biso   1.000  H
  H1033    1.0000 0.76939  0.12331  0.80531  Biso   1.000  H
  C901     1.0000 0.78255  0.00589  0.44749  Biso   1.000  C
  C902     1.0000 0.79312  0.96725  0.50365  Biso   1.000  C
  C903     1.0000 0.86570  0.04698  0.64994  Biso   1.000  C
  C904     1.0000 0.91113  0.10072  0.63791  Biso   1.000  C
  C905     1.0000 0.82220  0.00298  0.43812  Biso   1.000  C
  H1034    1.0000 0.76501  0.01989  0.43139  Biso   1.000  H
  O135     1.0000 0.77829  0.94972  0.53435  Biso   1.000  O
  C906     1.0000 0.83370  0.96475  0.49442  Biso   1.000  C
  C907     1.0000 0.89077  0.02108  0.62982  Biso   1.000  C
  O136     1.0000 0.83200  0.03197  0.66509  Biso   1.000  O
  H1035    1.0000 0.91801  0.12811  0.64020  Biso   1.000  H
  C908     1.0000 0.93650  0.07502  0.61883  Biso   1.000  C
  O137     1.0000 0.83560  0.01947  0.40595  Biso   1.000  O
  C909     1.0000 0.84775  0.98279  0.46225  Biso   1.000  C
  H1036    1.0000 0.79490  0.93340  0.54272  Biso   1.000  H
  C910     1.0000 0.86132  0.94183  0.51786  Biso   1.000  C
  C911     1.0000 0.87817  0.97967  0.62533  Biso   1.000  C
  C912     1.0000 0.92581  0.03576  0.61473  Biso   1.000  C
  H1037    1.0000 0.82131  0.04930  0.67862  Biso   1.000  H
  O138     1.0000 0.97196  0.08893  0.60527  Biso   1.000  O
  H1038    1.0000 0.85891  0.02790  0.40910  Biso   1.000  H
  H1039    1.0000 0.87532  0.98130  0.45650  Biso   1.000  H
  N125     1.0000 0.84947  0.92242  0.54651  Biso   1.000  N
  H1040    1.0000 0.88880  0.94141  0.51161  Biso   1.000  H
  N126     1.0000 0.89815  0.95368  0.60697  Biso   1.000  N
  H1041    1.0000 0.85391  0.97160  0.63660  Biso   1.000  H
  H1042    1.0000 0.94281  0.01831  0.60119  Biso   1.000  H
  H1043    1.0000 0.98321  0.07080  0.59310  Biso   1.000  H
  C913     1.0000 0.87832  0.89809  0.56688  Biso   1.000  C
  C914     1.0000 0.88228  0.91330  0.60663  Biso   1.000  C
  H1044    1.0000 0.90479  0.89961  0.55410  Biso   1.000  H
  C915     1.0000 0.86379  0.85480  0.56693  Biso   1.000  C
  H1045    1.0000 0.85549  0.91330  0.61872  Biso   1.000  H
  C916     1.0000 0.91021  0.88663  0.62882  Biso   1.000  C
  C917     1.0000 0.89059  0.82774  0.59006  Biso   1.000  C
  H1046    1.0000 0.83640  0.85379  0.57712  Biso   1.000  H
  H1047    1.0000 0.86290  0.84480  0.54090  Biso   1.000  H
  H1048    1.0000 0.93700  0.88720  0.61729  Biso   1.000  H
  H1049    1.0000 0.91250  0.89690  0.65460  Biso   1.000  H
  C918     1.0000 0.89503  0.84394  0.62982  Biso   1.000  C
  H1050    1.0000 0.91712  0.82590  0.57820  Biso   1.000  H
  H1051    1.0000 0.87901  0.80059  0.59101  Biso   1.000  H
  H1052    1.0000 0.86892  0.84310  0.64271  Biso   1.000  H
  H1053    1.0000 0.91390  0.82709  0.64399  Biso   1.000  H
  O139     1.0000 0.23671  0.77490  0.53680  Biso   1.000  O
  H1054    1.0000 0.22790  0.76230  0.55530  Biso   1.000  H
  C919     1.0000 0.25291  0.80955  0.54835  Biso   1.000  C
  H1055    1.0000 0.23889  0.77329  0.51350  Biso   1.000  H
  C920     1.0000 0.27313  0.83399  0.52288  Biso   1.000  C
  C921     1.0000 0.24978  0.82185  0.58546  Biso   1.000  C
  C922     1.0000 0.29105  0.86918  0.53482  Biso   1.000  C
  H1056    1.0000 0.27461  0.82649  0.49729  Biso   1.000  H
  C923     1.0000 0.26702  0.85722  0.59765  Biso   1.000  C
  H1057    1.0000 0.23561  0.80571  0.60270  Biso   1.000  H
  C924     1.0000 0.28825  0.88082  0.57195  Biso   1.000  C
  C925     1.0000 0.31329  0.89244  0.50739  Biso   1.000  C
  C926     1.0000 0.26312  0.87121  0.63615  Biso   1.000  C
  O140     1.0000 0.30590  0.91476  0.58390  Biso   1.000  O
  N127     1.0000 0.33183  0.92447  0.51660  Biso   1.000  N
  H1058    1.0000 0.31409  0.88371  0.48220  Biso   1.000  H
  N128     1.0000 0.24648  0.85171  0.66221  Biso   1.000  N
  H1059    1.0000 0.27381  0.89660  0.64210  Biso   1.000  H
  H1060    1.0000 0.31891  0.92492  0.56629  Biso   1.000  H
  C927     1.0000 0.35538  0.94492  0.48789  Biso   1.000  C
  C928     1.0000 0.24603  0.86984  0.69943  Biso   1.000  C
  H1061    1.0000 0.35220  0.93099  0.46339  Biso   1.000  H
  C929     1.0000 0.34136  0.98761  0.48432  Biso   1.000  C
  C930     1.0000 0.39903  0.94349  0.50000  Biso   1.000  C
  C931     1.0000 0.20388  0.87142  0.71486  Biso   1.000  C
  H1062    1.0000 0.25681  0.89762  0.69770  Biso   1.000  H
  C932     1.0000 0.27253  0.84554  0.72591  Biso   1.000  C
  N129     1.0000 0.30016  0.98869  0.47059  Biso   1.000  N
  H1063    1.0000 0.34279  0.00089  0.50921  Biso   1.000  H
  C933     1.0000 0.36771  0.01018  0.45645  Biso   1.000  C
  C934     1.0000 0.42594  0.96704  0.47355  Biso   1.000  C
  H1064    1.0000 0.40150  0.95460  0.52550  Biso   1.000  H
  H1065    1.0000 0.40799  0.91539  0.50070  Biso   1.000  H
  N130     1.0000 0.18009  0.89827  0.69145  Biso   1.000  N
  H1066    1.0000 0.19200  0.84412  0.71419  Biso   1.000  H
  C935     1.0000 0.20319  0.88702  0.75467  Biso   1.000  C
  H1067    1.0000 0.26291  0.81771  0.72672  Biso   1.000  H
  H1068    1.0000 0.30010  0.84531  0.71620  Biso   1.000  H
  C936     1.0000 0.27241  0.86251  0.76511  Biso   1.000  C
  C937     1.0000 0.27449  0.00640  0.49051  Biso   1.000  C
  H1069    1.0000 0.36539  0.99780  0.43150  Biso   1.000  H
  H1070    1.0000 0.35851  0.03811  0.45449  Biso   1.000  H
  C938     1.0000 0.41103  0.00950  0.46889  Biso   1.000  C
  H1071    1.0000 0.45339  0.96749  0.48359  Biso   1.000  H
  H1072    1.0000 0.42660  0.95371  0.44891  Biso   1.000  H
  C939     1.0000 0.14910  0.88556  0.67507  Biso   1.000  C
  C940     1.0000 0.23037  0.86394  0.78045  Biso   1.000  C
  H1073    1.0000 0.21129  0.91530  0.75462  Biso   1.000  H
  H1074    1.0000 0.17559  0.88562  0.76430  Biso   1.000  H
  H1075    1.0000 0.28381  0.88970  0.76480  Biso   1.000  H
  H1076    1.0000 0.28929  0.84581  0.78151  Biso   1.000  H
  H1077    1.0000 0.28289  0.01730  0.51370  Biso   1.000  H
  C941     1.0000 0.23234  0.01105  0.47974  Biso   1.000  C
  H1078    1.0000 0.42761  0.02340  0.45020  Biso   1.000  H
  H1079    1.0000 0.41359  0.02382  0.49291  Biso   1.000  H
  C942     1.0000 0.12391  0.91295  0.65370  Biso   1.000  C
  H1080    1.0000 0.14219  0.85820  0.67669  Biso   1.000  H
  H1081    1.0000 0.22010  0.83649  0.78341  Biso   1.000  H
  H1082    1.0000 0.23061  0.87672  0.80531  Biso   1.000  H
  C943     1.0000 0.21745  0.99413  0.44749  Biso   1.000  C
  C944     1.0000 0.20691  0.03275  0.50365  Biso   1.000  C
  C945     1.0000 0.13430  0.95302  0.64994  Biso   1.000  C
  C946     1.0000 0.08887  0.89928  0.63791  Biso   1.000  C
  C947     1.0000 0.17780  0.99702  0.43812  Biso   1.000  C
  H1083    1.0000 0.23499  0.98011  0.43139  Biso   1.000  H
  O141     1.0000 0.22171  0.05028  0.53435  Biso   1.000  O
  C948     1.0000 0.16630  0.03525  0.49442  Biso   1.000  C
  O142     1.0000 0.16800  0.96803  0.66509  Biso   1.000  O
  C949     1.0000 0.10923  0.97892  0.62982  Biso   1.000  C
  H1084    1.0000 0.08199  0.87189  0.64020  Biso   1.000  H
  C950     1.0000 0.06350  0.92498  0.61883  Biso   1.000  C
  O143     1.0000 0.16440  0.98053  0.40595  Biso   1.000  O
  C951     1.0000 0.15225  0.01724  0.46225  Biso   1.000  C
  H1085    1.0000 0.20510  0.06660  0.54272  Biso   1.000  H
  C952     1.0000 0.13868  0.05817  0.51786  Biso   1.000  C
  H1086    1.0000 0.17869  0.95070  0.67862  Biso   1.000  H
  C953     1.0000 0.07419  0.96424  0.61473  Biso   1.000  C
  C954     1.0000 0.12183  0.02033  0.62533  Biso   1.000  C
  O144     1.0000 0.02807  0.91107  0.60527  Biso   1.000  O
  H1087    1.0000 0.14109  0.97210  0.40910  Biso   1.000  H
  H1088    1.0000 0.12471  0.01870  0.45650  Biso   1.000  H
  N131     1.0000 0.15053  0.07758  0.54651  Biso   1.000  N
  H1089    1.0000 0.11120  0.05859  0.51161  Biso   1.000  H
  H1090    1.0000 0.05719  0.98169  0.60119  Biso   1.000  H
  N132     1.0000 0.10185  0.04632  0.60697  Biso   1.000  N
  H1091    1.0000 0.14609  0.02840  0.63660  Biso   1.000  H
  H1092    1.0000 0.01679  0.92920  0.59310  Biso   1.000  H
  C955     1.0000 0.12168  0.10191  0.56688  Biso   1.000  C
  C956     1.0000 0.11772  0.08670  0.60663  Biso   1.000  C
  H1093    1.0000 0.09521  0.10039  0.55410  Biso   1.000  H
  C957     1.0000 0.13621  0.14523  0.56693  Biso   1.000  C
  H1094    1.0000 0.14451  0.08670  0.61872  Biso   1.000  H
  C958     1.0000 0.08979  0.11337  0.62882  Biso   1.000  C
  C959     1.0000 0.10941  0.17226  0.59006  Biso   1.000  C
  H1095    1.0000 0.16360  0.14621  0.57712  Biso   1.000  H
  H1096    1.0000 0.13710  0.15520  0.54090  Biso   1.000  H
  H1097    1.0000 0.06300  0.11280  0.61729  Biso   1.000  H
  H1098    1.0000 0.08750  0.10310  0.65460  Biso   1.000  H
  C960     1.0000 0.10497  0.15606  0.62982  Biso   1.000  C
  H1099    1.0000 0.08291  0.17410  0.57820  Biso   1.000  H
  H1100    1.0000 0.12099  0.19941  0.59101  Biso   1.000  H
  H1101    1.0000 0.13111  0.15690  0.64271  Biso   1.000  H
  H1102    1.0000 0.08610  0.17291  0.64399  Biso   1.000  H
  C961     1.0000 0.61300  0.29682  0.74535  Biso   1.000  C
  C962     1.0000 0.63607  0.26961  0.71955  Biso   1.000  C
  C963     1.0000 0.62860  0.29614  0.78514  Biso   1.000  C
  H1103    1.0000 0.58472  0.28870  0.74541  Biso   1.000  H
  H1104    1.0000 0.61440  0.32439  0.73570  Biso   1.000  H
  C964     1.0000 0.63750  0.22757  0.73489  Biso   1.000  C
  H1105    1.0000 0.66349  0.27991  0.71662  Biso   1.000  H
  H1106    1.0000 0.62330  0.26940  0.69472  Biso   1.000  H
  C965     1.0000 0.63018  0.25395  0.80057  Biso   1.000  C
  N133     1.0000 0.60174  0.31990  0.80858  Biso   1.000  N
  H1107    1.0000 0.65590  0.30799  0.78581  Biso   1.000  H
  C966     1.0000 0.65447  0.22749  0.77409  Biso   1.000  C
  H1108    1.0000 0.61029  0.21620  0.73520  Biso   1.000  H
  H1109    1.0000 0.65420  0.21069  0.71851  Biso   1.000  H
  N134     1.0000 0.64831  0.25351  0.83779  Biso   1.000  N
  H1110    1.0000 0.60240  0.24320  0.80230  Biso   1.000  H
  C967     1.0000 0.61446  0.35089  0.82493  Biso   1.000  C
  H1111    1.0000 0.68231  0.23710  0.77331  Biso   1.000  H
  H1112    1.0000 0.65471  0.19989  0.78380  Biso   1.000  H
  C968     1.0000 0.62881  0.23686  0.86385  Biso   1.000  C
  C969     1.0000 0.58704  0.37611  0.84630  Biso   1.000  C
  H1113    1.0000 0.64179  0.35780  0.82331  Biso   1.000  H
  H1114    1.0000 0.60341  0.22621  0.85790  Biso   1.000  H
  C970     1.0000 0.64280  0.23299  0.90235  Biso   1.000  C
  C971     1.0000 0.54699  0.36571  0.85006  Biso   1.000  C
  C972     1.0000 0.60073  0.41112  0.86209  Biso   1.000  C
  C973     1.0000 0.61919  0.21174  0.92807  Biso   1.000  C
  C974     1.0000 0.67817  0.25023  0.91454  Biso   1.000  C
  O145     1.0000 0.53196  0.33201  0.83491  Biso   1.000  O
  C975     1.0000 0.52106  0.39078  0.87018  Biso   1.000  C
  H1115    1.0000 0.62809  0.41799  0.85980  Biso   1.000  H
  C976     1.0000 0.57504  0.43648  0.88120  Biso   1.000  C
  O146     1.0000 0.58525  0.19408  0.91613  Biso   1.000  O
  C977     1.0000 0.63083  0.20894  0.96518  Biso   1.000  C
  C978     1.0000 0.69043  0.24710  0.95165  Biso   1.000  C
  H1116    1.0000 0.69430  0.26440  0.89730  Biso   1.000  H
  H1117    1.0000 0.54929  0.32130  0.82141  Biso   1.000  H
  C979     1.0000 0.47965  0.37819  0.87467  Biso   1.000  C
  C980     1.0000 0.53574  0.42579  0.88527  Biso   1.000  C
  O147     1.0000 0.58891  0.47194  0.89473  Biso   1.000  O
  H1118    1.0000 0.57510  0.18110  0.93371  Biso   1.000  H
  C981     1.0000 0.66602  0.22686  0.97712  Biso   1.000  C
  C982     1.0000 0.60755  0.18670  0.99261  Biso   1.000  C
  O148     1.0000 0.72512  0.26330  0.96323  Biso   1.000  O
  N135     1.0000 0.45366  0.39817  0.89306  Biso   1.000  N
  H1119    1.0000 0.47161  0.35390  0.86340  Biso   1.000  H
  H1120    1.0000 0.51829  0.44279  0.89881  Biso   1.000  H
  H1121    1.0000 0.57081  0.48319  0.90690  Biso   1.000  H
  H1122    1.0000 0.67349  0.22540  0.00271  Biso   1.000  H
  N136     1.0000 0.57552  0.16818  0.98340  Biso   1.000  N
  H1123    1.0000 0.61630  0.18589  0.01780  Biso   1.000  H
  H1124    1.0000 0.73771  0.27211  0.94470  Biso   1.000  H
  H1125    1.0000 0.72670  0.26110  0.98650  Biso   1.000  H
  C983     1.0000 0.41332  0.38227  0.89337  Biso   1.000  C
  C984     1.0000 0.55506  0.14463  0.01211  Biso   1.000  C
  C985     1.0000 0.39811  0.37831  0.93315  Biso   1.000  C
  H1126    1.0000 0.41329  0.35550  0.88131  Biso   1.000  H
  C986     1.0000 0.38661  0.41019  0.87118  Biso   1.000  C
  C987     1.0000 0.55652  0.10096  0.00000  Biso   1.000  C
  H1127    1.0000 0.56900  0.14779  0.03661  Biso   1.000  H
  C988     1.0000 0.51237  0.15862  0.01568  Biso   1.000  C
  N137     1.0000 0.42240  0.34949  0.95352  Biso   1.000  N
  H1128    1.0000 0.39960  0.40481  0.94590  Biso   1.000  H
  C989     1.0000 0.35479  0.36378  0.93307  Biso   1.000  C
  H1129    1.0000 0.38721  0.43699  0.88271  Biso   1.000  H
  H1130    1.0000 0.39692  0.41252  0.84540  Biso   1.000  H
  C990     1.0000 0.34395  0.39501  0.87021  Biso   1.000  C
  H1131    1.0000 0.54539  0.09851  0.97450  Biso   1.000  H
  H1132    1.0000 0.58460  0.09199  0.99930  Biso   1.000  H
  C991     1.0000 0.53294  0.07407  0.02648  Biso   1.000  C
  H1133    1.0000 0.49909  0.15719  0.99079  Biso   1.000  H
  N138     1.0000 0.51133  0.19983  0.02941  Biso   1.000  N
  C992     1.0000 0.48980  0.13228  0.04355  Biso   1.000  C
  C993     1.0000 0.44184  0.36131  0.98214  Biso   1.000  C
  C994     1.0000 0.32773  0.39060  0.90994  Biso   1.000  C
  H1134    1.0000 0.35381  0.33639  0.92291  Biso   1.000  H
  H1135    1.0000 0.34482  0.36289  0.95910  Biso   1.000  H
  H1136    1.0000 0.34309  0.36890  0.85732  Biso   1.000  H
  H1137    1.0000 0.32710  0.41392  0.85601  Biso   1.000  H
  C995     1.0000 0.49049  0.08896  0.03111  Biso   1.000  C
  H1138    1.0000 0.53250  0.04659  0.01641  Biso   1.000  H
  H1139    1.0000 0.54631  0.07339  0.05111  Biso   1.000  H
  C996     1.0000 0.49361  0.22549  0.00951  Biso   1.000  C
  H1140    1.0000 0.50219  0.13460  0.06850  Biso   1.000  H
  H1141    1.0000 0.46191  0.14150  0.04551  Biso   1.000  H
  H1142    1.0000 0.44139  0.38879  0.98839  Biso   1.000  H
  C997     1.0000 0.46477  0.33368  0.00561  Biso   1.000  C
  H1143    1.0000 0.32591  0.41710  0.92180  Biso   1.000  H
  H1144    1.0000 0.30060  0.37899  0.90902  Biso   1.000  H
  H1145    1.0000 0.47661  0.07240  0.04980  Biso   1.000  H
  H1146    1.0000 0.47620  0.08640  0.00711  Biso   1.000  H
  H1147    1.0000 0.48269  0.21709  0.98630  Biso   1.000  H
  C998     1.0000 0.48897  0.26765  0.02026  Biso   1.000  C
  C999     1.0000 0.46727  0.29310  0.99637  Biso   1.000  C
  C1000    1.0000 0.48278  0.34773  0.03775  Biso   1.000  C
  C1001    1.0000 0.50588  0.28256  0.05254  Biso   1.000  C
  O149     1.0000 0.44973  0.27828  0.96565  Biso   1.000  O
  H1148    1.0000 0.48129  0.37530  0.04350  Biso   1.000  H
  C1002    1.0000 0.50296  0.32222  0.06188  Biso   1.000  C
  H1149    1.0000 0.51990  0.26500  0.06861  Biso   1.000  H
  H1150    1.0000 0.43342  0.29489  0.95731  Biso   1.000  H
  O150     1.0000 0.51949  0.33559  0.09405  Biso   1.000  O
  H1151    1.0000 0.52791  0.35890  0.09090  Biso   1.000  H
  C1003    1.0000 0.38700  0.70318  0.74535  Biso   1.000  C
  C1004    1.0000 0.36393  0.73039  0.71955  Biso   1.000  C
  C1005    1.0000 0.37140  0.70386  0.78514  Biso   1.000  C
  H1152    1.0000 0.41531  0.71130  0.74541  Biso   1.000  H
  H1153    1.0000 0.38560  0.67561  0.73570  Biso   1.000  H
  C1006    1.0000 0.36250  0.77243  0.73489  Biso   1.000  C
  H1154    1.0000 0.33651  0.72012  0.71662  Biso   1.000  H
  H1155    1.0000 0.37670  0.73060  0.69472  Biso   1.000  H
  C1007    1.0000 0.36985  0.74605  0.80057  Biso   1.000  C
  N139     1.0000 0.39829  0.68010  0.80858  Biso   1.000  N
  H1156    1.0000 0.34410  0.69201  0.78581  Biso   1.000  H
  C1008    1.0000 0.34553  0.77251  0.77409  Biso   1.000  C
  H1157    1.0000 0.38971  0.78380  0.73520  Biso   1.000  H
  H1158    1.0000 0.34580  0.78931  0.71851  Biso   1.000  H
  N140     1.0000 0.35169  0.74649  0.83779  Biso   1.000  N
  H1159    1.0000 0.39760  0.75680  0.80230  Biso   1.000  H
  C1009    1.0000 0.38554  0.64911  0.82493  Biso   1.000  C
  H1160    1.0000 0.31769  0.76290  0.77331  Biso   1.000  H
  H1161    1.0000 0.34529  0.80011  0.78380  Biso   1.000  H
  C1010    1.0000 0.37119  0.76314  0.86385  Biso   1.000  C
  C1011    1.0000 0.41296  0.62389  0.84630  Biso   1.000  C
  H1162    1.0000 0.35821  0.64220  0.82331  Biso   1.000  H
  H1163    1.0000 0.39659  0.77379  0.85790  Biso   1.000  H
  C1012    1.0000 0.35720  0.76704  0.90235  Biso   1.000  C
  C1013    1.0000 0.45301  0.63429  0.85006  Biso   1.000  C
  C1014    1.0000 0.39927  0.58888  0.86209  Biso   1.000  C
  C1015    1.0000 0.38081  0.78826  0.92807  Biso   1.000  C
  C1016    1.0000 0.32183  0.74977  0.91454  Biso   1.000  C
  O151     1.0000 0.46804  0.66799  0.83491  Biso   1.000  O
  C1017    1.0000 0.47894  0.60922  0.87018  Biso   1.000  C
  H1164    1.0000 0.37191  0.58201  0.85980  Biso   1.000  H
  C1018    1.0000 0.42496  0.56352  0.88120  Biso   1.000  C
  O152     1.0000 0.41475  0.80592  0.91613  Biso   1.000  O
  C1019    1.0000 0.36917  0.79106  0.96518  Biso   1.000  C
  C1020    1.0000 0.30957  0.75290  0.95165  Biso   1.000  C
  H1165    1.0000 0.30570  0.73560  0.89730  Biso   1.000  H
  H1166    1.0000 0.45071  0.67870  0.82141  Biso   1.000  H
  C1021    1.0000 0.52035  0.62181  0.87467  Biso   1.000  C
  C1022    1.0000 0.46426  0.57421  0.88527  Biso   1.000  C
  O153     1.0000 0.41109  0.52806  0.89473  Biso   1.000  O
  H1167    1.0000 0.42490  0.81890  0.93371  Biso   1.000  H
  C1023    1.0000 0.33398  0.77314  0.97712  Biso   1.000  C
  C1024    1.0000 0.39245  0.81330  0.99261  Biso   1.000  C
  O154     1.0000 0.27488  0.73670  0.96323  Biso   1.000  O
  N141     1.0000 0.54634  0.60183  0.89306  Biso   1.000  N
  H1168    1.0000 0.52839  0.64610  0.86340  Biso   1.000  H
  H1169    1.0000 0.48171  0.55721  0.89881  Biso   1.000  H
  H1170    1.0000 0.42919  0.51681  0.90690  Biso   1.000  H
  H1171    1.0000 0.32651  0.77460  0.00271  Biso   1.000  H
  N142     1.0000 0.42448  0.83182  0.98340  Biso   1.000  N
  H1172    1.0000 0.38370  0.81411  0.01780  Biso   1.000  H
  H1173    1.0000 0.26229  0.72792  0.94470  Biso   1.000  H
  H1174    1.0000 0.27330  0.73890  0.98650  Biso   1.000  H
  C1025    1.0000 0.58668  0.61773  0.89337  Biso   1.000  C
  C1026    1.0000 0.44494  0.85537  0.01211  Biso   1.000  C
  C1027    1.0000 0.60189  0.62169  0.93315  Biso   1.000  C
  H1175    1.0000 0.58671  0.64450  0.88131  Biso   1.000  H
  C1028    1.0000 0.61339  0.58981  0.87118  Biso   1.000  C
  C1029    1.0000 0.44348  0.89904  0.00000  Biso   1.000  C
  H1176    1.0000 0.43100  0.85221  0.03661  Biso   1.000  H
  C1030    1.0000 0.48763  0.84138  0.01568  Biso   1.000  C
  N143     1.0000 0.57760  0.65051  0.95352  Biso   1.000  N
  H1177    1.0000 0.60040  0.59519  0.94590  Biso   1.000  H
  C1031    1.0000 0.64521  0.63622  0.93307  Biso   1.000  C
  H1178    1.0000 0.61279  0.56301  0.88271  Biso   1.000  H
  H1179    1.0000 0.60311  0.58751  0.84540  Biso   1.000  H
  C1032    1.0000 0.65605  0.60499  0.87021  Biso   1.000  C
  H1180    1.0000 0.45461  0.90152  0.97450  Biso   1.000  H
  H1181    1.0000 0.41540  0.90801  0.99930  Biso   1.000  H
  C1033    1.0000 0.46706  0.92593  0.02648  Biso   1.000  C
  H1182    1.0000 0.50091  0.84281  0.99079  Biso   1.000  H
  N144     1.0000 0.48867  0.80017  0.02941  Biso   1.000  N
  C1034    1.0000 0.51020  0.86772  0.04355  Biso   1.000  C
  C1035    1.0000 0.55816  0.63869  0.98214  Biso   1.000  C
  C1036    1.0000 0.67227  0.60940  0.90994  Biso   1.000  C
  H1183    1.0000 0.64619  0.66361  0.92291  Biso   1.000  H
  H1184    1.0000 0.65521  0.63711  0.95910  Biso   1.000  H
  H1185    1.0000 0.65691  0.63110  0.85732  Biso   1.000  H
  H1186    1.0000 0.67290  0.58611  0.85601  Biso   1.000  H
  C1037    1.0000 0.50951  0.91104  0.03111  Biso   1.000  C
  H1187    1.0000 0.46750  0.95341  0.01641  Biso   1.000  H
  H1188    1.0000 0.45369  0.92661  0.05111  Biso   1.000  H
  C1038    1.0000 0.50642  0.77451  0.00951  Biso   1.000  C
  H1189    1.0000 0.49781  0.86540  0.06850  Biso   1.000  H
  H1190    1.0000 0.53809  0.85850  0.04551  Biso   1.000  H
  H1191    1.0000 0.55861  0.61121  0.98839  Biso   1.000  H
  C1039    1.0000 0.53523  0.66632  0.00561  Biso   1.000  C
  H1192    1.0000 0.67409  0.58290  0.92180  Biso   1.000  H
  H1193    1.0000 0.69940  0.62101  0.90902  Biso   1.000  H
  H1194    1.0000 0.52342  0.92760  0.04980  Biso   1.000  H
  H1195    1.0000 0.52380  0.91360  0.00711  Biso   1.000  H
  H1196    1.0000 0.51731  0.78291  0.98630  Biso   1.000  H
  C1040    1.0000 0.51103  0.73235  0.02026  Biso   1.000  C
  C1041    1.0000 0.53276  0.70690  0.99637  Biso   1.000  C
  C1042    1.0000 0.51722  0.65227  0.03775  Biso   1.000  C
  C1043    1.0000 0.49412  0.71744  0.05254  Biso   1.000  C
  O155     1.0000 0.55027  0.72172  0.96565  Biso   1.000  O
  H1197    1.0000 0.51871  0.62470  0.04350  Biso   1.000  H
  C1044    1.0000 0.49704  0.67778  0.06188  Biso   1.000  C
  H1198    1.0000 0.48010  0.73500  0.06861  Biso   1.000  H
  H1199    1.0000 0.56661  0.70511  0.95731  Biso   1.000  H
  O156     1.0000 0.48054  0.66441  0.09405  Biso   1.000  O
  H1200    1.0000 0.47209  0.64110  0.09090  Biso   1.000  H
  O157     1.0000 0.73670  0.22510  0.21321  Biso   1.000  O
  C1045    1.0000 0.75290  0.19045  0.20163  Biso   1.000  C
  H1201    1.0000 0.72792  0.23770  0.19469  Biso   1.000  H
  H1202    1.0000 0.73890  0.22671  0.23651  Biso   1.000  H
  C1046    1.0000 0.74977  0.17818  0.16453  Biso   1.000  C
  C1047    1.0000 0.77314  0.16601  0.22714  Biso   1.000  C
  C1048    1.0000 0.76704  0.14281  0.15234  Biso   1.000  C
  H1203    1.0000 0.73560  0.19429  0.14731  Biso   1.000  H
  C1049    1.0000 0.79106  0.13082  0.21519  Biso   1.000  C
  H1204    1.0000 0.77460  0.17351  0.25269  Biso   1.000  H
  C1050    1.0000 0.76314  0.12879  0.11383  Biso   1.000  C
  C1051    1.0000 0.78826  0.11918  0.17806  Biso   1.000  C
  C1052    1.0000 0.81330  0.10756  0.24259  Biso   1.000  C
  N145     1.0000 0.74649  0.14829  0.08777  Biso   1.000  N
  H1205    1.0000 0.77379  0.10340  0.10789  Biso   1.000  H
  O158     1.0000 0.80592  0.08524  0.16612  Biso   1.000  O
  N146     1.0000 0.83182  0.07553  0.23339  Biso   1.000  N
  H1206    1.0000 0.81411  0.11629  0.26781  Biso   1.000  H
  C1053    1.0000 0.74605  0.13016  0.05058  Biso   1.000  C
  H1207    1.0000 0.81890  0.07511  0.18370  Biso   1.000  H
  C1054    1.0000 0.85537  0.05508  0.26209  Biso   1.000  C
  C1055    1.0000 0.70386  0.12858  0.03513  Biso   1.000  C
  H1208    1.0000 0.75680  0.10241  0.05231  Biso   1.000  H
  C1056    1.0000 0.77251  0.15449  0.02408  Biso   1.000  C
  C1057    1.0000 0.84138  0.01239  0.26567  Biso   1.000  C
  H1209    1.0000 0.85221  0.06901  0.28659  Biso   1.000  H
  C1058    1.0000 0.89904  0.05651  0.24999  Biso   1.000  C
  N147     1.0000 0.68010  0.10173  0.05856  Biso   1.000  N
  H1210    1.0000 0.69201  0.15591  0.03580  Biso   1.000  H
  C1059    1.0000 0.70318  0.11301  0.99534  Biso   1.000  C
  H1211    1.0000 0.76290  0.18229  0.02330  Biso   1.000  H
  H1212    1.0000 0.80011  0.15469  0.03379  Biso   1.000  H
  C1060    1.0000 0.77243  0.13752  0.98491  Biso   1.000  C
  N148     1.0000 0.80017  0.01131  0.27942  Biso   1.000  N
  H1213    1.0000 0.84281  0.99911  0.24081  Biso   1.000  H
  C1061    1.0000 0.86772  0.98982  0.29354  Biso   1.000  C
  C1062    1.0000 0.92593  0.03296  0.27646  Biso   1.000  C
  H1214    1.0000 0.90152  0.04540  0.22451  Biso   1.000  H
  H1215    1.0000 0.90801  0.08461  0.24929  Biso   1.000  H
  C1063    1.0000 0.64911  0.11444  0.07494  Biso   1.000  C
  C1064    1.0000 0.73039  0.13606  0.96956  Biso   1.000  C
  H1216    1.0000 0.71130  0.08470  0.99540  Biso   1.000  H
  H1217    1.0000 0.67561  0.11441  0.98569  Biso   1.000  H
  H1218    1.0000 0.78380  0.11030  0.98521  Biso   1.000  H
  H1219    1.0000 0.78931  0.15419  0.96850  Biso   1.000  H
  C1065    1.0000 0.77451  0.99360  0.25950  Biso   1.000  C
  H1220    1.0000 0.86540  0.00220  0.31851  Biso   1.000  H
  H1221    1.0000 0.85850  0.96189  0.29549  Biso   1.000  H
  C1066    1.0000 0.91104  0.99050  0.28112  Biso   1.000  C
  H1222    1.0000 0.95341  0.03251  0.26639  Biso   1.000  H
  H1223    1.0000 0.92661  0.04629  0.30110  Biso   1.000  H
  C1067    1.0000 0.62389  0.08705  0.09631  Biso   1.000  C
  H1224    1.0000 0.64220  0.14180  0.07329  Biso   1.000  H
  H1225    1.0000 0.72012  0.16351  0.96660  Biso   1.000  H
  H1226    1.0000 0.73060  0.12331  0.94470  Biso   1.000  H
  C1068    1.0000 0.73235  0.98895  0.27024  Biso   1.000  C
  H1227    1.0000 0.78291  0.98270  0.23631  Biso   1.000  H
  H1228    1.0000 0.92760  0.97660  0.29979  Biso   1.000  H
  H1229    1.0000 0.91360  0.97621  0.25710  Biso   1.000  H
  C1069    1.0000 0.58888  0.10072  0.11208  Biso   1.000  C
  C1070    1.0000 0.63429  0.04698  0.10005  Biso   1.000  C
  C1071    1.0000 0.70690  0.96725  0.24636  Biso   1.000  C
  C1072    1.0000 0.71744  0.00589  0.30252  Biso   1.000  C
  C1073    1.0000 0.56352  0.07502  0.13119  Biso   1.000  C
  H1230    1.0000 0.58201  0.12811  0.10979  Biso   1.000  H
  C1074    1.0000 0.60922  0.02108  0.12019  Biso   1.000  C
  O159     1.0000 0.66799  0.03197  0.08493  Biso   1.000  O
  C1075    1.0000 0.66632  0.96475  0.25559  Biso   1.000  C
  O160     1.0000 0.72172  0.94972  0.21567  Biso   1.000  O
  C1076    1.0000 0.67778  0.00298  0.31190  Biso   1.000  C
  H1231    1.0000 0.73500  0.01989  0.31859  Biso   1.000  H
  O161     1.0000 0.52806  0.08893  0.14472  Biso   1.000  O
  C1077    1.0000 0.57421  0.03576  0.13529  Biso   1.000  C
  C1078    1.0000 0.62181  0.97967  0.12466  Biso   1.000  C
  H1232    1.0000 0.67870  0.04930  0.07140  Biso   1.000  H
  C1079    1.0000 0.63869  0.94183  0.23213  Biso   1.000  C
  C1080    1.0000 0.65227  0.98279  0.28776  Biso   1.000  C
  H1233    1.0000 0.70511  0.93340  0.20730  Biso   1.000  H
  O162     1.0000 0.66441  0.01947  0.34404  Biso   1.000  O
  H1234    1.0000 0.51681  0.07080  0.15691  Biso   1.000  H
  H1235    1.0000 0.55721  0.01831  0.14879  Biso   1.000  H
  N149     1.0000 0.60183  0.95368  0.14304  Biso   1.000  N
  H1236    1.0000 0.64610  0.97160  0.11341  Biso   1.000  H
  N150     1.0000 0.65051  0.92242  0.20350  Biso   1.000  N
  H1237    1.0000 0.61121  0.94141  0.23841  Biso   1.000  H
  H1238    1.0000 0.62470  0.98130  0.29351  Biso   1.000  H
  H1239    1.0000 0.64110  0.02790  0.34091  Biso   1.000  H
  C1081    1.0000 0.61773  0.91330  0.14338  Biso   1.000  C
  C1082    1.0000 0.62169  0.89809  0.18314  Biso   1.000  C
  H1240    1.0000 0.64450  0.91330  0.13130  Biso   1.000  H
  C1083    1.0000 0.58981  0.88663  0.12120  Biso   1.000  C
  H1241    1.0000 0.59519  0.89961  0.19589  Biso   1.000  H
  C1084    1.0000 0.63622  0.85480  0.18308  Biso   1.000  C
  H1242    1.0000 0.56301  0.88720  0.13269  Biso   1.000  H
  H1243    1.0000 0.58751  0.89690  0.09539  Biso   1.000  H
  C1085    1.0000 0.60499  0.84394  0.12019  Biso   1.000  C
  C1086    1.0000 0.60940  0.82774  0.15992  Biso   1.000  C
  H1244    1.0000 0.66361  0.85379  0.17290  Biso   1.000  H
  H1245    1.0000 0.63711  0.84480  0.20911  Biso   1.000  H
  H1246    1.0000 0.63110  0.84310  0.10730  Biso   1.000  H
  H1247    1.0000 0.58611  0.82709  0.10599  Biso   1.000  H
  H1248    1.0000 0.58290  0.82590  0.17181  Biso   1.000  H
  H1249    1.0000 0.62101  0.80059  0.15900  Biso   1.000  H
  O163     1.0000 0.26330  0.77490  0.21321  Biso   1.000  O
  H1250    1.0000 0.27211  0.76230  0.19469  Biso   1.000  H
  C1087    1.0000 0.24710  0.80955  0.20163  Biso   1.000  C
  H1251    1.0000 0.26110  0.77329  0.23651  Biso   1.000  H
  C1088    1.0000 0.22686  0.83399  0.22714  Biso   1.000  C
  C1089    1.0000 0.25023  0.82185  0.16453  Biso   1.000  C
  C1090    1.0000 0.20894  0.86918  0.21519  Biso   1.000  C
  H1252    1.0000 0.22540  0.82649  0.25269  Biso   1.000  H
  C1091    1.0000 0.23299  0.85722  0.15234  Biso   1.000  C
  H1253    1.0000 0.26440  0.80571  0.14731  Biso   1.000  H
  C1092    1.0000 0.21174  0.88082  0.17806  Biso   1.000  C
  C1093    1.0000 0.18670  0.89244  0.24259  Biso   1.000  C
  C1094    1.0000 0.23686  0.87121  0.11383  Biso   1.000  C
  O164     1.0000 0.19408  0.91476  0.16612  Biso   1.000  O
  N151     1.0000 0.16818  0.92447  0.23339  Biso   1.000  N
  H1254    1.0000 0.18589  0.88371  0.26781  Biso   1.000  H
  N152     1.0000 0.25351  0.85171  0.08777  Biso   1.000  N
  H1255    1.0000 0.22621  0.89660  0.10789  Biso   1.000  H
  H1256    1.0000 0.18110  0.92492  0.18370  Biso   1.000  H
  C1095    1.0000 0.14463  0.94492  0.26209  Biso   1.000  C
  C1096    1.0000 0.25395  0.86984  0.05058  Biso   1.000  C
  H1257    1.0000 0.14779  0.93099  0.28659  Biso   1.000  H
  C1097    1.0000 0.15862  0.98761  0.26567  Biso   1.000  C
  C1098    1.0000 0.10096  0.94349  0.24999  Biso   1.000  C
  C1099    1.0000 0.29614  0.87142  0.03513  Biso   1.000  C
  H1258    1.0000 0.24320  0.89762  0.05231  Biso   1.000  H
  C1100    1.0000 0.22749  0.84554  0.02408  Biso   1.000  C
  N153     1.0000 0.19983  0.98869  0.27942  Biso   1.000  N
  H1259    1.0000 0.15719  0.00089  0.24081  Biso   1.000  H
  C1101    1.0000 0.13228  0.01018  0.29354  Biso   1.000  C
  C1102    1.0000 0.07407  0.96704  0.27646  Biso   1.000  C
  H1260    1.0000 0.09851  0.95460  0.22451  Biso   1.000  H
  H1261    1.0000 0.09199  0.91539  0.24929  Biso   1.000  H
  N154     1.0000 0.31990  0.89827  0.05856  Biso   1.000  N
  H1262    1.0000 0.30799  0.84412  0.03580  Biso   1.000  H
  C1103    1.0000 0.29682  0.88702  0.99534  Biso   1.000  C
  H1263    1.0000 0.23710  0.81771  0.02330  Biso   1.000  H
  H1264    1.0000 0.19989  0.84531  0.03379  Biso   1.000  H
  C1104    1.0000 0.22757  0.86251  0.98491  Biso   1.000  C
  C1105    1.0000 0.22549  0.00640  0.25950  Biso   1.000  C
  H1265    1.0000 0.13460  0.99780  0.31851  Biso   1.000  H
  H1266    1.0000 0.14150  0.03811  0.29549  Biso   1.000  H
  C1106    1.0000 0.08896  0.00950  0.28112  Biso   1.000  C
  H1267    1.0000 0.04659  0.96749  0.26639  Biso   1.000  H
  H1268    1.0000 0.07339  0.95371  0.30110  Biso   1.000  H
  C1107    1.0000 0.35089  0.88556  0.07494  Biso   1.000  C
  C1108    1.0000 0.26961  0.86394  0.96956  Biso   1.000  C
  H1269    1.0000 0.28870  0.91530  0.99540  Biso   1.000  H
  H1270    1.0000 0.32439  0.88562  0.98569  Biso   1.000  H
  H1271    1.0000 0.21620  0.88970  0.98521  Biso   1.000  H
  H1272    1.0000 0.21069  0.84581  0.96850  Biso   1.000  H
  H1273    1.0000 0.21709  0.01730  0.23631  Biso   1.000  H
  C1109    1.0000 0.26765  0.01105  0.27024  Biso   1.000  C
  H1274    1.0000 0.07240  0.02340  0.29979  Biso   1.000  H
  H1275    1.0000 0.08640  0.02382  0.25710  Biso   1.000  H
  C1110    1.0000 0.37611  0.91295  0.09631  Biso   1.000  C
  H1276    1.0000 0.35780  0.85820  0.07329  Biso   1.000  H
  H1277    1.0000 0.27991  0.83649  0.96660  Biso   1.000  H
  H1278    1.0000 0.26940  0.87672  0.94470  Biso   1.000  H
  C1111    1.0000 0.28256  0.99413  0.30252  Biso   1.000  C
  C1112    1.0000 0.29310  0.03275  0.24636  Biso   1.000  C
  C1113    1.0000 0.36571  0.95302  0.10005  Biso   1.000  C
  C1114    1.0000 0.41112  0.89928  0.11208  Biso   1.000  C
  C1115    1.0000 0.32222  0.99702  0.31190  Biso   1.000  C
  H1279    1.0000 0.26500  0.98011  0.31859  Biso   1.000  H
  O165     1.0000 0.27828  0.05028  0.21567  Biso   1.000  O
  C1116    1.0000 0.33368  0.03525  0.25559  Biso   1.000  C
  O166     1.0000 0.33201  0.96803  0.08493  Biso   1.000  O
  C1117    1.0000 0.39078  0.97892  0.12019  Biso   1.000  C
  H1280    1.0000 0.41799  0.87189  0.10979  Biso   1.000  H
  C1118    1.0000 0.43648  0.92498  0.13119  Biso   1.000  C
  O167     1.0000 0.33559  0.98053  0.34404  Biso   1.000  O
  C1119    1.0000 0.34773  0.01724  0.28776  Biso   1.000  C
  H1281    1.0000 0.29489  0.06660  0.20730  Biso   1.000  H
  C1120    1.0000 0.36131  0.05817  0.23213  Biso   1.000  C
  H1282    1.0000 0.32130  0.95070  0.07140  Biso   1.000  H
  C1121    1.0000 0.42579  0.96424  0.13529  Biso   1.000  C
  C1122    1.0000 0.37819  0.02033  0.12466  Biso   1.000  C
  O168     1.0000 0.47194  0.91107  0.14472  Biso   1.000  O
  H1283    1.0000 0.35890  0.97210  0.34091  Biso   1.000  H
  H1284    1.0000 0.37530  0.01870  0.29351  Biso   1.000  H
  N155     1.0000 0.34949  0.07758  0.20350  Biso   1.000  N
  H1285    1.0000 0.38879  0.05859  0.23841  Biso   1.000  H
  H1286    1.0000 0.44279  0.98169  0.14879  Biso   1.000  H
  N156     1.0000 0.39817  0.04632  0.14304  Biso   1.000  N
  H1287    1.0000 0.35390  0.02840  0.11341  Biso   1.000  H
  H1288    1.0000 0.48319  0.92920  0.15691  Biso   1.000  H
  C1123    1.0000 0.37831  0.10191  0.18314  Biso   1.000  C
  C1124    1.0000 0.38227  0.08670  0.14338  Biso   1.000  C
  H1289    1.0000 0.40481  0.10039  0.19589  Biso   1.000  H
  C1125    1.0000 0.36378  0.14523  0.18308  Biso   1.000  C
  H1290    1.0000 0.35550  0.08670  0.13130  Biso   1.000  H
  C1126    1.0000 0.41019  0.11337  0.12120  Biso   1.000  C
  C1127    1.0000 0.39060  0.17226  0.15992  Biso   1.000  C
  H1291    1.0000 0.33639  0.14621  0.17290  Biso   1.000  H
  H1292    1.0000 0.36289  0.15520  0.20911  Biso   1.000  H
  H1293    1.0000 0.43699  0.11280  0.13269  Biso   1.000  H
  H1294    1.0000 0.41252  0.10310  0.09539  Biso   1.000  H
  C1128    1.0000 0.39501  0.15606  0.12019  Biso   1.000  C
  H1295    1.0000 0.41710  0.17410  0.17181  Biso   1.000  H
  H1296    1.0000 0.37899  0.19941  0.15900  Biso   1.000  H
  H1297    1.0000 0.36890  0.15690  0.10730  Biso   1.000  H
  H1298    1.0000 0.41392  0.17291  0.10599  Biso   1.000  H
  C1129    1.0000 0.74944  0.83414  0.28433  Biso   1.000  C
  C1130    1.0000 0.73771  0.84057  0.24390  Biso   1.000  C
  C1131    1.0000 0.77394  0.86939  0.29859  Biso   1.000  C
  H1299    1.0000 0.76531  0.80940  0.28659  Biso   1.000  H
  H1300    1.0000 0.72521  0.83111  0.29979  Biso   1.000  H
  C1132    1.0000 0.77472  0.84495  0.21963  Biso   1.000  C
  H1301    1.0000 0.72119  0.86481  0.24181  Biso   1.000  H
  H1302    1.0000 0.72169  0.81771  0.23512  Biso   1.000  H
  C1133    1.0000 0.81113  0.87496  0.27348  Biso   1.000  C
  H1303    1.0000 0.78231  0.86451  0.32470  Biso   1.000  H
  H1304    1.0000 0.75751  0.89389  0.29811  Biso   1.000  H
  N157     1.0000 0.76236  0.85201  0.18144  Biso   1.000  N
  H1305    1.0000 0.79109  0.82009  0.22100  Biso   1.000  H
  C1134    1.0000 0.79961  0.88094  0.23283  Biso   1.000  C
  H1306    1.0000 0.82649  0.89830  0.28221  Biso   1.000  H
  H1307    1.0000 0.82840  0.85120  0.27560  Biso   1.000  H
  C1135    1.0000 0.77132  0.82691  0.15702  Biso   1.000  C
  N158     1.0000 0.83599  0.88365  0.21023  Biso   1.000  N
  H1308    1.0000 0.78371  0.90589  0.23009  Biso   1.000  H
  C1136    1.0000 0.75924  0.83182  0.11852  Biso   1.000  C
  H1309    1.0000 0.78639  0.80410  0.16391  Biso   1.000  H
  C1137    1.0000 0.84310  0.91759  0.19513  Biso   1.000  C
  C1138    1.0000 0.76570  0.79999  0.09500  Biso   1.000  C
  C1139    1.0000 0.78359  0.81479  0.08741  Biso   1.000  C
  C1140    1.0000 0.73694  0.86510  0.10697  Biso   1.000  C
  H1310    1.0000 0.82450  0.93849  0.19890  Biso   1.000  H
  C1141    1.0000 0.87835  0.92575  0.17234  Biso   1.000  C
  C1142    1.0000 0.75421  0.80249  0.05851  Biso   1.000  C
  C1143    1.0000 0.77362  0.81869  0.05150  Biso   1.000  C
  H1311    1.0000 0.77799  0.77641  0.10410  Biso   1.000  H
  H1312    1.0000 0.80720  0.80059  0.09341  Biso   1.000  H
  C1144    1.0000 0.72711  0.86984  0.06911  Biso   1.000  C
  O169     1.0000 0.72488  0.89202  0.13169  Biso   1.000  O
  C1145    1.0000 0.88568  0.96535  0.16096  Biso   1.000  C
  C1146    1.0000 0.90470  0.89598  0.16090  Biso   1.000  C
  O170     1.0000 0.76171  0.77019  0.03591  Biso   1.000  O
  C1147    1.0000 0.73390  0.83649  0.04679  Biso   1.000  C
  C1148    1.0000 0.74849  0.84891  0.04059  Biso   1.000  C
  O171     1.0000 0.79181  0.79559  0.02369  Biso   1.000  O
  C1149    1.0000 0.70389  0.90568  0.05862  Biso   1.000  C
  H1313    1.0000 0.73310  0.88571  0.15300  Biso   1.000  H
  O172     1.0000 0.86034  0.99425  0.17156  Biso   1.000  O
  C1150    1.0000 0.91911  0.97359  0.13883  Biso   1.000  C
  C1151    1.0000 0.93712  0.90399  0.13914  Biso   1.000  C
  H1314    1.0000 0.89991  0.86930  0.16849  Biso   1.000  H
  H1315    1.0000 0.75099  0.77269  0.01680  Biso   1.000  H
  H1316    1.0000 0.77439  0.78689  0.00901  Biso   1.000  H
  H1317    1.0000 0.72402  0.83700  0.02201  Biso   1.000  H
  H1318    1.0000 0.74539  0.85561  0.01501  Biso   1.000  H
  O173     1.0000 0.79559  0.79181  0.97631  Biso   1.000  O
  N159     1.0000 0.69079  0.91313  0.02623  Biso   1.000  N
  H1319    1.0000 0.69841  0.92450  0.07770  Biso   1.000  H
  H1320    1.0000 0.87002  0.01661  0.16601  Biso   1.000  H
  C1152    1.0000 0.94468  0.94275  0.12789  Biso   1.000  C
  C1153    1.0000 0.92697  0.01447  0.12653  Biso   1.000  C
  O174     1.0000 0.96174  0.87311  0.12884  Biso   1.000  O
  O175     1.0000 0.77019  0.76171  0.96409  Biso   1.000  O
  H1321    1.0000 0.78689  0.77439  0.99102  Biso   1.000  H
  C1154    1.0000 0.81869  0.77362  0.94850  Biso   1.000  C
  C1155    1.0000 0.66671  0.94912  0.02148  Biso   1.000  C
  H1322    1.0000 0.96719  0.94841  0.11269  Biso   1.000  H
  N160     1.0000 0.90431  0.04329  0.13495  Biso   1.000  N
  H1323    1.0000 0.94980  0.01959  0.11171  Biso   1.000  H
  H1324    1.0000 0.97300  0.87910  0.10870  Biso   1.000  H
  H1325    1.0000 0.77269  0.75099  0.98320  Biso   1.000  H
  C1156    1.0000 0.80249  0.75421  0.94149  Biso   1.000  C
  C1157    1.0000 0.79999  0.76570  0.90500  Biso   1.000  C
  C1158    1.0000 0.83649  0.73390  0.95321  Biso   1.000  C
  C1159    1.0000 0.81479  0.78359  0.91262  Biso   1.000  C
  C1160    1.0000 0.84891  0.74849  0.95941  Biso   1.000  C
  H1326    1.0000 0.66900  0.96561  0.04461  Biso   1.000  H
  C1161    1.0000 0.62306  0.93751  0.01627  Biso   1.000  C
  C1162    1.0000 0.68144  0.97341  0.98878  Biso   1.000  C
  C1163    1.0000 0.91322  0.08372  0.12153  Biso   1.000  C
  C1164    1.0000 0.83182  0.75924  0.88148  Biso   1.000  C
  H1327    1.0000 0.77641  0.77799  0.89590  Biso   1.000  H
  C1165    1.0000 0.86984  0.72711  0.93092  Biso   1.000  C
  H1328    1.0000 0.83700  0.72402  0.97801  Biso   1.000  H
  H1329    1.0000 0.80059  0.80720  0.90662  Biso   1.000  H
  H1330    1.0000 0.85561  0.74539  0.98502  Biso   1.000  H
  H1331    1.0000 0.61371  0.92271  0.03850  Biso   1.000  H
  C1166    1.0000 0.59728  0.97407  0.01066  Biso   1.000  C
  H1332    1.0000 0.62050  0.91980  0.99431  Biso   1.000  H
  N161     1.0000 0.72193  0.98753  0.99665  Biso   1.000  N
  H1333    1.0000 0.68171  0.95650  0.96579  Biso   1.000  H
  C1167    1.0000 0.65480  0.00977  0.98228  Biso   1.000  C
  C1168    1.0000 0.87987  0.09634  0.09542  Biso   1.000  C
  H1334    1.0000 0.93912  0.08360  0.10769  Biso   1.000  H
  C1169    1.0000 0.91601  0.11221  0.15473  Biso   1.000  C
  C1170    1.0000 0.86510  0.73694  0.89303  Biso   1.000  C
  C1171    1.0000 0.82691  0.77132  0.84298  Biso   1.000  C
  C1172    1.0000 0.90568  0.70389  0.94138  Biso   1.000  C
  H1335    1.0000 0.59841  0.99101  0.03331  Biso   1.000  H
  H1336    1.0000 0.56929  0.96579  0.00681  Biso   1.000  H
  C1173    1.0000 0.61142  0.99780  0.97715  Biso   1.000  C
  C1174    1.0000 0.75060  0.98056  0.97517  Biso   1.000  C
  H1337    1.0000 0.66412  0.02420  0.95980  Biso   1.000  H
  H1338    1.0000 0.65700  0.02802  0.00391  Biso   1.000  H
  N162     1.0000 0.87829  0.07068  0.06336  Biso   1.000  N
  H1339    1.0000 0.85400  0.09461  0.10909  Biso   1.000  H
  C1175    1.0000 0.88687  0.14014  0.08306  Biso   1.000  C
  C1176    1.0000 0.92307  0.15511  0.14173  Biso   1.000  C
  H1340    1.0000 0.93810  0.10381  0.17120  Biso   1.000  H
  H1341    1.0000 0.89101  0.11090  0.16930  Biso   1.000  H
  O176     1.0000 0.89202  0.72488  0.86831  Biso   1.000  O
  N163     1.0000 0.85201  0.76236  0.81856  Biso   1.000  N
  H1342    1.0000 0.80410  0.78639  0.83611  Biso   1.000  H
  N164     1.0000 0.91313  0.69079  0.97377  Biso   1.000  N
  H1343    1.0000 0.92450  0.69841  0.92230  Biso   1.000  H
  H1344    1.0000 0.60859  0.98151  0.95430  Biso   1.000  H
  H1345    1.0000 0.59481  0.02191  0.97419  Biso   1.000  H
  C1177    1.0000 0.79044  0.99714  0.98228  Biso   1.000  C
  H1346    1.0000 0.74649  0.96421  0.95391  Biso   1.000  H
  C1178    1.0000 0.84447  0.05802  0.05348  Biso   1.000  C
  H1347    1.0000 0.91182  0.14171  0.06841  Biso   1.000  H
  H1348    1.0000 0.86469  0.14859  0.06671  Biso   1.000  H
  C1179    1.0000 0.88967  0.16845  0.11598  Biso   1.000  C
  H1349    1.0000 0.92441  0.17300  0.16361  Biso   1.000  H
  H1350    1.0000 0.94879  0.15681  0.12840  Biso   1.000  H
  H1351    1.0000 0.88571  0.73310  0.84700  Biso   1.000  H
  C1180    1.0000 0.84495  0.77472  0.78037  Biso   1.000  C
  C1181    1.0000 0.94912  0.66671  0.97854  Biso   1.000  C
  C1182    1.0000 0.82113  0.99068  0.95675  Biso   1.000  C
  C1183    1.0000 0.79791  0.01926  0.01389  Biso   1.000  C
  C1184    1.0000 0.83649  0.03462  0.02031  Biso   1.000  C
  H1352    1.0000 0.82250  0.06440  0.06900  Biso   1.000  H
  H1353    1.0000 0.86409  0.16860  0.12979  Biso   1.000  H
  H1354    1.0000 0.89500  0.19581  0.10691  Biso   1.000  H
  H1355    1.0000 0.82009  0.79109  0.77900  Biso   1.000  H
  C1185    1.0000 0.88094  0.79961  0.76717  Biso   1.000  C
  C1186    1.0000 0.84057  0.73771  0.75610  Biso   1.000  C
  C1187    1.0000 0.97341  0.68144  0.01122  Biso   1.000  C
  H1356    1.0000 0.96561  0.66900  0.95542  Biso   1.000  H
  C1188    1.0000 0.93751  0.62306  0.98373  Biso   1.000  C
  H1357    1.0000 0.81601  0.97550  0.93491  Biso   1.000  H
  C1189    1.0000 0.85864  0.00578  0.96247  Biso   1.000  C
  O177     1.0000 0.76900  0.02825  0.03750  Biso   1.000  O
  C1190    1.0000 0.86570  0.02843  0.99428  Biso   1.000  C
  N165     1.0000 0.88365  0.83599  0.78977  Biso   1.000  N
  H1358    1.0000 0.90589  0.78371  0.76991  Biso   1.000  H
  C1191    1.0000 0.87496  0.81113  0.72652  Biso   1.000  C
  C1192    1.0000 0.83414  0.74944  0.71567  Biso   1.000  C
  H1359    1.0000 0.86481  0.72119  0.75822  Biso   1.000  H
  H1360    1.0000 0.81771  0.72169  0.76491  Biso   1.000  H
  N166     1.0000 0.98753  0.72193  0.00335  Biso   1.000  N
  H1361    1.0000 0.95650  0.68171  0.03421  Biso   1.000  H
  C1193    1.0000 0.00977  0.65480  0.01772  Biso   1.000  C
  H1362    1.0000 0.91980  0.62050  0.00572  Biso   1.000  H
  H1363    1.0000 0.92271  0.61371  0.96150  Biso   1.000  H
  C1194    1.0000 0.97407  0.59728  0.98934  Biso   1.000  C
  O178     1.0000 0.88788  0.99896  0.93736  Biso   1.000  O
  H1364    1.0000 0.74700  0.02170  0.02821  Biso   1.000  H
  H1365    1.0000 0.89130  0.03980  0.99799  Biso   1.000  H
  C1195    1.0000 0.91759  0.84310  0.80489  Biso   1.000  C
  H1366    1.0000 0.89830  0.82649  0.71782  Biso   1.000  H
  H1367    1.0000 0.85120  0.82840  0.72440  Biso   1.000  H
  C1196    1.0000 0.86939  0.77394  0.70141  Biso   1.000  C
  H1368    1.0000 0.80940  0.76531  0.71341  Biso   1.000  H
  H1369    1.0000 0.83111  0.72521  0.70021  Biso   1.000  H
  C1197    1.0000 0.98056  0.75060  0.02483  Biso   1.000  C
  C1198    1.0000 0.99780  0.61142  0.02288  Biso   1.000  C
  H1370    1.0000 0.02802  0.65700  0.99609  Biso   1.000  H
  H1371    1.0000 0.02420  0.66412  0.04020  Biso   1.000  H
  H1372    1.0000 0.99101  0.59841  0.96672  Biso   1.000  H
  H1373    1.0000 0.96579  0.56929  0.99319  Biso   1.000  H
  H1374    1.0000 0.90830  0.01161  0.94389  Biso   1.000  H
  H1375    1.0000 0.93849  0.82450  0.80110  Biso   1.000  H
  C1199    1.0000 0.92575  0.87835  0.82766  Biso   1.000  C
  H1376    1.0000 0.86451  0.78231  0.67530  Biso   1.000  H
  H1377    1.0000 0.89389  0.75751  0.70191  Biso   1.000  H
  C1200    1.0000 0.99714  0.79044  0.01774  Biso   1.000  C
  H1378    1.0000 0.96421  0.74649  0.04612  Biso   1.000  H
  H1379    1.0000 0.98151  0.60859  0.04570  Biso   1.000  H
  H1380    1.0000 0.02191  0.59481  0.02581  Biso   1.000  H
  C1201    1.0000 0.96535  0.88568  0.83904  Biso   1.000  C
  C1202    1.0000 0.89598  0.90470  0.83910  Biso   1.000  C
  C1203    1.0000 0.99068  0.82113  0.04325  Biso   1.000  C
  C1204    1.0000 0.01926  0.79791  0.98611  Biso   1.000  C
  O179     1.0000 0.99425  0.86034  0.82844  Biso   1.000  O
  C1205    1.0000 0.97359  0.91911  0.86117  Biso   1.000  C
  C1206    1.0000 0.90399  0.93712  0.86086  Biso   1.000  C
  H1381    1.0000 0.86930  0.89991  0.83151  Biso   1.000  H
  H1382    1.0000 0.97550  0.81601  0.06512  Biso   1.000  H
  C1207    1.0000 0.00578  0.85864  0.03753  Biso   1.000  C
  O180     1.0000 0.02825  0.76900  0.96250  Biso   1.000  O
  C1208    1.0000 0.03462  0.83649  0.97969  Biso   1.000  C
  H1383    1.0000 0.01661  0.87002  0.83399  Biso   1.000  H
  C1209    1.0000 0.94275  0.94468  0.87213  Biso   1.000  C
  C1210    1.0000 0.01447  0.92697  0.87347  Biso   1.000  C
  O181     1.0000 0.87311  0.96174  0.87116  Biso   1.000  O
  O182     1.0000 0.99896  0.88788  0.06264  Biso   1.000  O
  C1211    1.0000 0.02843  0.86570  0.00572  Biso   1.000  C
  H1384    1.0000 0.02170  0.74700  0.97179  Biso   1.000  H
  C1212    1.0000 0.05802  0.84447  0.94652  Biso   1.000  C
  H1385    1.0000 0.94841  0.96719  0.88731  Biso   1.000  H
  N167     1.0000 0.04329  0.90431  0.86505  Biso   1.000  N
  H1386    1.0000 0.01959  0.94980  0.88832  Biso   1.000  H
  H1387    1.0000 0.87910  0.97300  0.89130  Biso   1.000  H
  H1388    1.0000 0.01161  0.90830  0.05611  Biso   1.000  H
  H1389    1.0000 0.03980  0.89130  0.00201  Biso   1.000  H
  N168     1.0000 0.07068  0.87829  0.93664  Biso   1.000  N
  H1390    1.0000 0.06440  0.82250  0.93100  Biso   1.000  H
  C1213    1.0000 0.08372  0.91322  0.87849  Biso   1.000  C
  C1214    1.0000 0.09634  0.87987  0.90458  Biso   1.000  C
  H1391    1.0000 0.08360  0.93912  0.89231  Biso   1.000  H
  C1215    1.0000 0.11221  0.91601  0.84527  Biso   1.000  C
  H1392    1.0000 0.09461  0.85400  0.89091  Biso   1.000  H
  C1216    1.0000 0.14014  0.88687  0.91694  Biso   1.000  C
  C1217    1.0000 0.15511  0.92307  0.85829  Biso   1.000  C
  H1393    1.0000 0.10381  0.93810  0.82880  Biso   1.000  H
  H1394    1.0000 0.11090  0.89101  0.83070  Biso   1.000  H
  H1395    1.0000 0.14171  0.91182  0.93162  Biso   1.000  H
  H1396    1.0000 0.14859  0.86469  0.93332  Biso   1.000  H
  C1218    1.0000 0.16845  0.88967  0.88405  Biso   1.000  C
  H1397    1.0000 0.17300  0.92441  0.83639  Biso   1.000  H
  H1398    1.0000 0.15681  0.94879  0.87160  Biso   1.000  H
  H1399    1.0000 0.16860  0.86409  0.87021  Biso   1.000  H
  H1400    1.0000 0.19581  0.89500  0.89311  Biso   1.000  H
  C1219    1.0000 0.25056  0.16586  0.28433  Biso   1.000  C
  C1220    1.0000 0.26229  0.15943  0.24390  Biso   1.000  C
  C1221    1.0000 0.22606  0.13061  0.29859  Biso   1.000  C
  H1401    1.0000 0.23469  0.19060  0.28659  Biso   1.000  H
  H1402    1.0000 0.27479  0.16889  0.29979  Biso   1.000  H
  C1222    1.0000 0.22528  0.15505  0.21963  Biso   1.000  C
  H1403    1.0000 0.27881  0.13519  0.24181  Biso   1.000  H
  H1404    1.0000 0.27831  0.18229  0.23512  Biso   1.000  H
  C1223    1.0000 0.18887  0.12504  0.27348  Biso   1.000  C
  H1405    1.0000 0.21769  0.13549  0.32470  Biso   1.000  H
  H1406    1.0000 0.24249  0.10611  0.29811  Biso   1.000  H
  N169     1.0000 0.23764  0.14799  0.18144  Biso   1.000  N
  H1407    1.0000 0.20891  0.17991  0.22100  Biso   1.000  H
  C1224    1.0000 0.20039  0.11906  0.23283  Biso   1.000  C
  H1408    1.0000 0.17351  0.10170  0.28221  Biso   1.000  H
  H1409    1.0000 0.17160  0.14880  0.27560  Biso   1.000  H
  C1225    1.0000 0.22868  0.17309  0.15702  Biso   1.000  C
  N170     1.0000 0.16401  0.11635  0.21023  Biso   1.000  N
  H1410    1.0000 0.21629  0.09411  0.23009  Biso   1.000  H
  C1226    1.0000 0.24079  0.16818  0.11852  Biso   1.000  C
  H1411    1.0000 0.21361  0.19590  0.16391  Biso   1.000  H
  C1227    1.0000 0.15690  0.08241  0.19513  Biso   1.000  C
  C1228    1.0000 0.26306  0.13490  0.10697  Biso   1.000  C
  C1229    1.0000 0.23430  0.20001  0.09500  Biso   1.000  C
  C1230    1.0000 0.21641  0.18521  0.08741  Biso   1.000  C
  H1412    1.0000 0.17550  0.06151  0.19890  Biso   1.000  H
  C1231    1.0000 0.12165  0.07425  0.17234  Biso   1.000  C
  O183     1.0000 0.27512  0.10798  0.13169  Biso   1.000  O
  C1232    1.0000 0.27289  0.13016  0.06911  Biso   1.000  C
  H1413    1.0000 0.22201  0.22361  0.10410  Biso   1.000  H
  C1233    1.0000 0.24579  0.19751  0.05851  Biso   1.000  C
  C1234    1.0000 0.22641  0.18131  0.05150  Biso   1.000  C
  H1414    1.0000 0.19280  0.19941  0.09341  Biso   1.000  H
  C1235    1.0000 0.11432  0.03468  0.16096  Biso   1.000  C
  C1236    1.0000 0.09530  0.10402  0.16090  Biso   1.000  C
  H1415    1.0000 0.26690  0.11429  0.15300  Biso   1.000  H
  C1237    1.0000 0.29611  0.09432  0.05862  Biso   1.000  C
  C1238    1.0000 0.26610  0.16351  0.04679  Biso   1.000  C
  C1239    1.0000 0.25151  0.15109  0.04059  Biso   1.000  C
  O184     1.0000 0.23829  0.22981  0.03591  Biso   1.000  O
  O185     1.0000 0.20819  0.20441  0.02369  Biso   1.000  O
  O186     1.0000 0.13966  0.00575  0.17156  Biso   1.000  O
  C1240    1.0000 0.08089  0.02641  0.13883  Biso   1.000  C
  C1241    1.0000 0.06288  0.09601  0.13914  Biso   1.000  C
  H1416    1.0000 0.10009  0.13070  0.16849  Biso   1.000  H
  N171     1.0000 0.30921  0.08687  0.02623  Biso   1.000  N
  H1417    1.0000 0.30159  0.07550  0.07770  Biso   1.000  H
  H1418    1.0000 0.27601  0.16300  0.02201  Biso   1.000  H
  H1419    1.0000 0.25461  0.14439  0.01501  Biso   1.000  H
  H1420    1.0000 0.24901  0.22731  0.01680  Biso   1.000  H
  H1421    1.0000 0.22561  0.21311  0.00901  Biso   1.000  H
  O187     1.0000 0.20441  0.20819  0.97631  Biso   1.000  O
  H1422    1.0000 0.13001  0.98339  0.16601  Biso   1.000  H
  C1242    1.0000 0.05532  0.05725  0.12789  Biso   1.000  C
  C1243    1.0000 0.07303  0.98553  0.12653  Biso   1.000  C
  O188     1.0000 0.03826  0.12689  0.12884  Biso   1.000  O
  C1244    1.0000 0.33332  0.05088  0.02148  Biso   1.000  C
  O189     1.0000 0.22981  0.23829  0.96409  Biso   1.000  O
  H1423    1.0000 0.21311  0.22561  0.99102  Biso   1.000  H
  C1245    1.0000 0.18131  0.22641  0.94850  Biso   1.000  C
  H1424    1.0000 0.03281  0.05159  0.11269  Biso   1.000  H
  N172     1.0000 0.09569  0.95671  0.13495  Biso   1.000  N
  H1425    1.0000 0.05020  0.98041  0.11171  Biso   1.000  H
  H1426    1.0000 0.02700  0.12090  0.10870  Biso   1.000  H
  H1427    1.0000 0.33100  0.03439  0.04461  Biso   1.000  H
  C1246    1.0000 0.37694  0.06249  0.01627  Biso   1.000  C
  C1247    1.0000 0.31856  0.02659  0.98878  Biso   1.000  C
  H1428    1.0000 0.22731  0.24901  0.98320  Biso   1.000  H
  C1248    1.0000 0.19751  0.24579  0.94149  Biso   1.000  C
  C1249    1.0000 0.20001  0.23430  0.90500  Biso   1.000  C
  C1250    1.0000 0.16351  0.26610  0.95321  Biso   1.000  C
  C1251    1.0000 0.18521  0.21641  0.91262  Biso   1.000  C
  C1252    1.0000 0.15109  0.25151  0.95941  Biso   1.000  C
  C1253    1.0000 0.08678  0.91628  0.12153  Biso   1.000  C
  H1429    1.0000 0.38629  0.07729  0.03850  Biso   1.000  H
  C1254    1.0000 0.40272  0.02593  0.01066  Biso   1.000  C
  H1430    1.0000 0.37950  0.08020  0.99431  Biso   1.000  H
  C1255    1.0000 0.34520  0.99023  0.98228  Biso   1.000  C
  N173     1.0000 0.27807  0.01247  0.99665  Biso   1.000  N
  H1431    1.0000 0.31829  0.04350  0.96579  Biso   1.000  H
  C1256    1.0000 0.16818  0.24079  0.88148  Biso   1.000  C
  H1432    1.0000 0.22361  0.22201  0.89590  Biso   1.000  H
  C1257    1.0000 0.13016  0.27289  0.93092  Biso   1.000  C
  H1433    1.0000 0.16300  0.27601  0.97801  Biso   1.000  H
  H1434    1.0000 0.19941  0.19280  0.90662  Biso   1.000  H
  H1435    1.0000 0.14439  0.25461  0.98502  Biso   1.000  H
  H1436    1.0000 0.06091  0.91640  0.10769  Biso   1.000  H
  C1258    1.0000 0.12013  0.90366  0.09542  Biso   1.000  C
  C1259    1.0000 0.08399  0.88779  0.15473  Biso   1.000  C
  H1437    1.0000 0.40159  0.00899  0.03331  Biso   1.000  H
  H1438    1.0000 0.43071  0.03421  0.00681  Biso   1.000  H
  C1260    1.0000 0.38858  0.00220  0.97715  Biso   1.000  C
  H1439    1.0000 0.33591  0.97580  0.95980  Biso   1.000  H
  H1440    1.0000 0.34300  0.97201  0.00391  Biso   1.000  H
  C1261    1.0000 0.24940  0.01944  0.97517  Biso   1.000  C
  C1262    1.0000 0.13490  0.26306  0.89303  Biso   1.000  C
  C1263    1.0000 0.17309  0.22868  0.84298  Biso   1.000  C
  C1264    1.0000 0.09432  0.29611  0.94138  Biso   1.000  C
  N174     1.0000 0.12171  0.92932  0.06336  Biso   1.000  N
  H1441    1.0000 0.14600  0.90539  0.10909  Biso   1.000  H
  C1265    1.0000 0.11313  0.85986  0.08306  Biso   1.000  C
  C1266    1.0000 0.07693  0.84489  0.14173  Biso   1.000  C
  H1442    1.0000 0.06190  0.89619  0.17120  Biso   1.000  H
  H1443    1.0000 0.10899  0.88910  0.16930  Biso   1.000  H
  H1444    1.0000 0.40519  0.97809  0.97419  Biso   1.000  H
  H1445    1.0000 0.39141  0.01849  0.95430  Biso   1.000  H
  C1267    1.0000 0.20956  0.00286  0.98228  Biso   1.000  C
  H1446    1.0000 0.25351  0.03579  0.95391  Biso   1.000  H
  O190     1.0000 0.10798  0.27512  0.86831  Biso   1.000  O
  N175     1.0000 0.14799  0.23764  0.81856  Biso   1.000  N
  H1447    1.0000 0.19590  0.21361  0.83611  Biso   1.000  H
  N176     1.0000 0.08687  0.30921  0.97377  Biso   1.000  N
  H1448    1.0000 0.07550  0.30159  0.92230  Biso   1.000  H
  C1268    1.0000 0.15553  0.94198  0.05348  Biso   1.000  C
  H1449    1.0000 0.08821  0.85829  0.06841  Biso   1.000  H
  H1450    1.0000 0.13531  0.85141  0.06671  Biso   1.000  H
  C1269    1.0000 0.11036  0.83155  0.11598  Biso   1.000  C
  H1451    1.0000 0.07559  0.82700  0.16361  Biso   1.000  H
  H1452    1.0000 0.05121  0.84319  0.12840  Biso   1.000  H
  C1270    1.0000 0.20209  0.98074  0.01389  Biso   1.000  C
  C1271    1.0000 0.17887  0.00932  0.95675  Biso   1.000  C
  H1453    1.0000 0.11429  0.26690  0.84700  Biso   1.000  H
  C1272    1.0000 0.15505  0.22528  0.78037  Biso   1.000  C
  C1273    1.0000 0.05088  0.33332  0.97854  Biso   1.000  C
  H1454    1.0000 0.17750  0.93560  0.06900  Biso   1.000  H
  C1274    1.0000 0.16351  0.96538  0.02031  Biso   1.000  C
  H1455    1.0000 0.13591  0.83140  0.12979  Biso   1.000  H
  H1456    1.0000 0.10500  0.80419  0.10691  Biso   1.000  H
  O191     1.0000 0.23100  0.97175  0.03750  Biso   1.000  O
  C1275    1.0000 0.14136  0.99422  0.96247  Biso   1.000  C
  H1457    1.0000 0.18399  0.02450  0.93491  Biso   1.000  H
  H1458    1.0000 0.17991  0.20891  0.77900  Biso   1.000  H
  C1276    1.0000 0.11906  0.20039  0.76717  Biso   1.000  C
  C1277    1.0000 0.15943  0.26229  0.75610  Biso   1.000  C
  C1278    1.0000 0.02659  0.31856  0.01122  Biso   1.000  C
  H1459    1.0000 0.03439  0.33100  0.95542  Biso   1.000  H
  C1279    1.0000 0.06249  0.37694  0.98373  Biso   1.000  C
  C1280    1.0000 0.13430  0.97157  0.99428  Biso   1.000  C
  H1460    1.0000 0.25300  0.97830  0.02821  Biso   1.000  H
  O192     1.0000 0.11212  0.00104  0.93736  Biso   1.000  O
  N177     1.0000 0.11635  0.16401  0.78977  Biso   1.000  N
  H1461    1.0000 0.09411  0.21629  0.76991  Biso   1.000  H
  C1281    1.0000 0.12504  0.18887  0.72652  Biso   1.000  C
  C1282    1.0000 0.16586  0.25056  0.71567  Biso   1.000  C
  H1462    1.0000 0.13519  0.27881  0.75822  Biso   1.000  H
  H1463    1.0000 0.18229  0.27831  0.76491  Biso   1.000  H
  N178     1.0000 0.01247  0.27807  0.00335  Biso   1.000  N
  H1464    1.0000 0.04350  0.31829  0.03421  Biso   1.000  H
  C1283    1.0000 0.99023  0.34520  0.01772  Biso   1.000  C
  H1465    1.0000 0.08020  0.37950  0.00572  Biso   1.000  H
  H1466    1.0000 0.07729  0.38629  0.96150  Biso   1.000  H
  C1284    1.0000 0.02593  0.40272  0.98934  Biso   1.000  C
  H1467    1.0000 0.10870  0.96020  0.99799  Biso   1.000  H
  H1468    1.0000 0.09170  0.98839  0.94389  Biso   1.000  H
  C1285    1.0000 0.08241  0.15690  0.80489  Biso   1.000  C
  H1469    1.0000 0.10170  0.17351  0.71782  Biso   1.000  H
  H1470    1.0000 0.14880  0.17160  0.72440  Biso   1.000  H
  C1286    1.0000 0.13061  0.22606  0.70141  Biso   1.000  C
  H1471    1.0000 0.19060  0.23469  0.71341  Biso   1.000  H
  H1472    1.0000 0.16889  0.27479  0.70021  Biso   1.000  H
  C1287    1.0000 0.01944  0.24940  0.02483  Biso   1.000  C
  C1288    1.0000 0.00220  0.38858  0.02288  Biso   1.000  C
  H1473    1.0000 0.97201  0.34300  0.99609  Biso   1.000  H
  H1474    1.0000 0.97580  0.33591  0.04020  Biso   1.000  H
  H1475    1.0000 0.00899  0.40159  0.96672  Biso   1.000  H
  H1476    1.0000 0.03421  0.43071  0.99319  Biso   1.000  H
  H1477    1.0000 0.06151  0.17550  0.80110  Biso   1.000  H
  C1289    1.0000 0.07425  0.12165  0.82766  Biso   1.000  C
  H1478    1.0000 0.13549  0.21769  0.67530  Biso   1.000  H
  H1479    1.0000 0.10611  0.24249  0.70191  Biso   1.000  H
  C1290    1.0000 0.00286  0.20956  0.01774  Biso   1.000  C
  H1480    1.0000 0.03579  0.25351  0.04612  Biso   1.000  H
  H1481    1.0000 0.01849  0.39141  0.04570  Biso   1.000  H
  H1482    1.0000 0.97809  0.40519  0.02581  Biso   1.000  H
  C1291    1.0000 0.03468  0.11432  0.83904  Biso   1.000  C
  C1292    1.0000 0.10402  0.09530  0.83910  Biso   1.000  C
  C1293    1.0000 0.00932  0.17887  0.04325  Biso   1.000  C
  C1294    1.0000 0.98074  0.20209  0.98611  Biso   1.000  C
  O193     1.0000 0.00575  0.13966  0.82844  Biso   1.000  O
  C1295    1.0000 0.02641  0.08089  0.86117  Biso   1.000  C
  C1296    1.0000 0.09601  0.06288  0.86086  Biso   1.000  C
  H1483    1.0000 0.13070  0.10009  0.83151  Biso   1.000  H
  H1484    1.0000 0.02450  0.18399  0.06512  Biso   1.000  H
  C1297    1.0000 0.99422  0.14136  0.03753  Biso   1.000  C
  O194     1.0000 0.97175  0.23100  0.96250  Biso   1.000  O
  C1298    1.0000 0.96538  0.16351  0.97969  Biso   1.000  C
  H1485    1.0000 0.98339  0.13001  0.83399  Biso   1.000  H
  C1299    1.0000 0.98553  0.07303  0.87347  Biso   1.000  C
  C1300    1.0000 0.05725  0.05532  0.87213  Biso   1.000  C
  O195     1.0000 0.12689  0.03826  0.87116  Biso   1.000  O
  O196     1.0000 0.00104  0.11212  0.06264  Biso   1.000  O
  C1301    1.0000 0.97157  0.13430  0.00572  Biso   1.000  C
  H1486    1.0000 0.97830  0.25300  0.97179  Biso   1.000  H
  C1302    1.0000 0.94198  0.15553  0.94652  Biso   1.000  C
  N179     1.0000 0.95671  0.09569  0.86505  Biso   1.000  N
  H1487    1.0000 0.98041  0.05020  0.88832  Biso   1.000  H
  H1488    1.0000 0.05159  0.03281  0.88731  Biso   1.000  H
  H1489    1.0000 0.12090  0.02700  0.89130  Biso   1.000  H
  H1490    1.0000 0.98839  0.09170  0.05611  Biso   1.000  H
  H1491    1.0000 0.96020  0.10870  0.00201  Biso   1.000  H
  N180     1.0000 0.92932  0.12171  0.93664  Biso   1.000  N
  H1492    1.0000 0.93560  0.17750  0.93100  Biso   1.000  H
  C1303    1.0000 0.91628  0.08678  0.87849  Biso   1.000  C
  C1304    1.0000 0.90366  0.12013  0.90458  Biso   1.000  C
  H1493    1.0000 0.91640  0.06091  0.89231  Biso   1.000  H
  C1305    1.0000 0.88779  0.08399  0.84527  Biso   1.000  C
  H1494    1.0000 0.90539  0.14600  0.89091  Biso   1.000  H
  C1306    1.0000 0.85986  0.11313  0.91694  Biso   1.000  C
  C1307    1.0000 0.84489  0.07693  0.85829  Biso   1.000  C
  H1495    1.0000 0.89619  0.06190  0.82880  Biso   1.000  H
  H1496    1.0000 0.88910  0.10899  0.83070  Biso   1.000  H
  H1497    1.0000 0.85829  0.08821  0.93162  Biso   1.000  H
  H1498    1.0000 0.85141  0.13531  0.93332  Biso   1.000  H
  C1308    1.0000 0.83155  0.11036  0.88405  Biso   1.000  C
  H1499    1.0000 0.82700  0.07559  0.83639  Biso   1.000  H
  H1500    1.0000 0.84319  0.05121  0.87160  Biso   1.000  H
  H1501    1.0000 0.83140  0.13591  0.87021  Biso   1.000  H
  H1502    1.0000 0.80419  0.10500  0.89311  Biso   1.000  H
  O197     1.0000 0.77490  0.26330  0.78679  Biso   1.000  O
  H1503    1.0000 0.76230  0.27211  0.80531  Biso   1.000  H
  C1309    1.0000 0.80955  0.24710  0.79837  Biso   1.000  C
  H1504    1.0000 0.77329  0.26110  0.76352  Biso   1.000  H
  C1310    1.0000 0.83399  0.22686  0.77286  Biso   1.000  C
  C1311    1.0000 0.82185  0.25023  0.83547  Biso   1.000  C
  C1312    1.0000 0.86918  0.20894  0.78483  Biso   1.000  C
  H1505    1.0000 0.82649  0.22540  0.74731  Biso   1.000  H
  C1313    1.0000 0.85722  0.23299  0.84766  Biso   1.000  C
  H1506    1.0000 0.80571  0.26440  0.85271  Biso   1.000  H
  C1314    1.0000 0.88082  0.21174  0.82194  Biso   1.000  C
  C1315    1.0000 0.89244  0.18670  0.75741  Biso   1.000  C
  C1316    1.0000 0.87121  0.23686  0.88617  Biso   1.000  C
  O198     1.0000 0.91476  0.19408  0.83388  Biso   1.000  O
  N181     1.0000 0.92447  0.16818  0.76661  Biso   1.000  N
  H1507    1.0000 0.88371  0.18589  0.73221  Biso   1.000  H
  N182     1.0000 0.85171  0.25351  0.91223  Biso   1.000  N
  H1508    1.0000 0.89660  0.22621  0.89211  Biso   1.000  H
  H1509    1.0000 0.92492  0.18110  0.81630  Biso   1.000  H
  C1317    1.0000 0.94492  0.14463  0.73791  Biso   1.000  C
  C1318    1.0000 0.86984  0.25395  0.94944  Biso   1.000  C
  H1510    1.0000 0.93099  0.14779  0.71341  Biso   1.000  H
  C1319    1.0000 0.98761  0.15862  0.73433  Biso   1.000  C
  C1320    1.0000 0.94349  0.10096  0.75001  Biso   1.000  C
  C1321    1.0000 0.87142  0.29614  0.96487  Biso   1.000  C
  H1511    1.0000 0.89762  0.24320  0.94771  Biso   1.000  H
  C1322    1.0000 0.84554  0.22749  0.97592  Biso   1.000  C
  N183     1.0000 0.98869  0.19983  0.72061  Biso   1.000  N
  H1512    1.0000 0.00089  0.15719  0.75919  Biso   1.000  H
  C1323    1.0000 0.01018  0.13228  0.70646  Biso   1.000  C
  C1324    1.0000 0.96704  0.07407  0.72354  Biso   1.000  C
  H1513    1.0000 0.95460  0.09851  0.77551  Biso   1.000  H
  H1514    1.0000 0.91539  0.09199  0.75071  Biso   1.000  H
  N184     1.0000 0.89827  0.31990  0.94144  Biso   1.000  N
  H1515    1.0000 0.84412  0.30799  0.96420  Biso   1.000  H
  C1325    1.0000 0.88702  0.29682  0.00466  Biso   1.000  C
  H1516    1.0000 0.81771  0.23710  0.97670  Biso   1.000  H
  H1517    1.0000 0.84531  0.19989  0.96621  Biso   1.000  H
  C1326    1.0000 0.86251  0.22757  0.01509  Biso   1.000  C
  C1327    1.0000 0.00640  0.22549  0.74050  Biso   1.000  C
  H1518    1.0000 0.99780  0.13460  0.68149  Biso   1.000  H
  H1519    1.0000 0.03811  0.14150  0.70451  Biso   1.000  H
  C1328    1.0000 0.00950  0.08896  0.71891  Biso   1.000  C
  H1520    1.0000 0.96749  0.04659  0.73361  Biso   1.000  H
  H1521    1.0000 0.95371  0.07339  0.69890  Biso   1.000  H
  C1329    1.0000 0.88556  0.35089  0.92509  Biso   1.000  C
  C1330    1.0000 0.86394  0.26961  0.03047  Biso   1.000  C
  H1522    1.0000 0.91530  0.28870  0.00460  Biso   1.000  H
  H1523    1.0000 0.88562  0.32439  0.01431  Biso   1.000  H
  H1524    1.0000 0.88970  0.21620  0.01482  Biso   1.000  H
  H1525    1.0000 0.84581  0.21069  0.03150  Biso   1.000  H
  H1526    1.0000 0.01730  0.21709  0.76371  Biso   1.000  H
  C1331    1.0000 0.01105  0.26765  0.72976  Biso   1.000  C
  H1527    1.0000 0.02340  0.07240  0.70021  Biso   1.000  H
  H1528    1.0000 0.02382  0.08640  0.74290  Biso   1.000  H
  C1332    1.0000 0.91295  0.37611  0.90372  Biso   1.000  C
  H1529    1.0000 0.85820  0.35780  0.92671  Biso   1.000  H
  H1530    1.0000 0.83649  0.27991  0.03340  Biso   1.000  H
  H1531    1.0000 0.87672  0.26940  0.05530  Biso   1.000  H
  C1333    1.0000 0.99413  0.28256  0.69748  Biso   1.000  C
  C1334    1.0000 0.03275  0.29310  0.75364  Biso   1.000  C
  C1335    1.0000 0.95302  0.36571  0.89995  Biso   1.000  C
  C1336    1.0000 0.89928  0.41112  0.88792  Biso   1.000  C
  C1337    1.0000 0.99702  0.32222  0.68810  Biso   1.000  C
  H1532    1.0000 0.98011  0.26500  0.68141  Biso   1.000  H
  O199     1.0000 0.05028  0.27828  0.78433  Biso   1.000  O
  C1338    1.0000 0.03525  0.33368  0.74441  Biso   1.000  C
  O200     1.0000 0.96803  0.33201  0.91507  Biso   1.000  O
  C1339    1.0000 0.97892  0.39078  0.87983  Biso   1.000  C
  H1533    1.0000 0.87189  0.41799  0.89021  Biso   1.000  H
  C1340    1.0000 0.92498  0.43648  0.86881  Biso   1.000  C
  O201     1.0000 0.98053  0.33559  0.65596  Biso   1.000  O
  C1341    1.0000 0.01724  0.34773  0.71226  Biso   1.000  C
  H1534    1.0000 0.06660  0.29489  0.79270  Biso   1.000  H
  C1342    1.0000 0.05817  0.36131  0.76787  Biso   1.000  C
  H1535    1.0000 0.95070  0.32130  0.92860  Biso   1.000  H
  C1343    1.0000 0.96424  0.42579  0.86471  Biso   1.000  C
  C1344    1.0000 0.02033  0.37819  0.87534  Biso   1.000  C
  O202     1.0000 0.91107  0.47194  0.85528  Biso   1.000  O
  H1536    1.0000 0.97210  0.35890  0.65912  Biso   1.000  H
  H1537    1.0000 0.01870  0.37530  0.70652  Biso   1.000  H
  N185     1.0000 0.07758  0.34949  0.79650  Biso   1.000  N
  H1538    1.0000 0.05859  0.38879  0.76159  Biso   1.000  H
  H1539    1.0000 0.98169  0.44279  0.85121  Biso   1.000  H
  N186     1.0000 0.04632  0.39817  0.85696  Biso   1.000  N
  H1540    1.0000 0.02840  0.35390  0.88661  Biso   1.000  H
  H1541    1.0000 0.92920  0.48319  0.84312  Biso   1.000  H
  C1345    1.0000 0.10191  0.37831  0.81686  Biso   1.000  C
  C1346    1.0000 0.08670  0.38227  0.85665  Biso   1.000  C
  H1542    1.0000 0.10039  0.40481  0.80411  Biso   1.000  H
  C1347    1.0000 0.14523  0.36378  0.81695  Biso   1.000  C
  H1543    1.0000 0.08670  0.35550  0.86870  Biso   1.000  H
  C1348    1.0000 0.11337  0.41019  0.87880  Biso   1.000  C
  C1349    1.0000 0.17226  0.39060  0.84008  Biso   1.000  C
  H1544    1.0000 0.14621  0.33639  0.82710  Biso   1.000  H
  H1545    1.0000 0.15520  0.36289  0.79092  Biso   1.000  H
  H1546    1.0000 0.11280  0.43699  0.86731  Biso   1.000  H
  H1547    1.0000 0.10310  0.41252  0.90461  Biso   1.000  H
  C1350    1.0000 0.15606  0.39501  0.87981  Biso   1.000  C
  H1548    1.0000 0.17410  0.41710  0.82822  Biso   1.000  H
  H1549    1.0000 0.19941  0.37899  0.84100  Biso   1.000  H
  H1550    1.0000 0.15690  0.36890  0.89270  Biso   1.000  H
  H1551    1.0000 0.17291  0.41392  0.89401  Biso   1.000  H
  O203     1.0000 0.22510  0.73670  0.78679  Biso   1.000  O
  C1351    1.0000 0.19045  0.75290  0.79837  Biso   1.000  C
  H1552    1.0000 0.23770  0.72792  0.80531  Biso   1.000  H
  H1553    1.0000 0.22671  0.73890  0.76352  Biso   1.000  H
  C1352    1.0000 0.16601  0.77314  0.77286  Biso   1.000  C
  C1353    1.0000 0.17818  0.74977  0.83547  Biso   1.000  C
  C1354    1.0000 0.13082  0.79106  0.78483  Biso   1.000  C
  H1554    1.0000 0.17351  0.77460  0.74731  Biso   1.000  H
  C1355    1.0000 0.14281  0.76704  0.84766  Biso   1.000  C
  H1555    1.0000 0.19429  0.73560  0.85271  Biso   1.000  H
  C1356    1.0000 0.10756  0.81330  0.75741  Biso   1.000  C
  C1357    1.0000 0.11918  0.78826  0.82194  Biso   1.000  C
  C1358    1.0000 0.12879  0.76314  0.88617  Biso   1.000  C
  N187     1.0000 0.07553  0.83182  0.76661  Biso   1.000  N
  H1556    1.0000 0.11629  0.81411  0.73221  Biso   1.000  H
  O204     1.0000 0.08524  0.80592  0.83388  Biso   1.000  O
  N188     1.0000 0.14829  0.74649  0.91223  Biso   1.000  N
  H1557    1.0000 0.10340  0.77379  0.89211  Biso   1.000  H
  C1359    1.0000 0.05508  0.85537  0.73791  Biso   1.000  C
  H1558    1.0000 0.07511  0.81890  0.81630  Biso   1.000  H
  C1360    1.0000 0.13016  0.74605  0.94944  Biso   1.000  C
  C1361    1.0000 0.01239  0.84138  0.73433  Biso   1.000  C
  H1559    1.0000 0.06901  0.85221  0.71341  Biso   1.000  H
  C1362    1.0000 0.05651  0.89904  0.75001  Biso   1.000  C
  C1363    1.0000 0.12858  0.70386  0.96487  Biso   1.000  C
  H1560    1.0000 0.10241  0.75680  0.94771  Biso   1.000  H
  C1364    1.0000 0.15449  0.77251  0.97592  Biso   1.000  C
  N189     1.0000 0.01131  0.80017  0.72061  Biso   1.000  N
  H1561    1.0000 0.99911  0.84281  0.75919  Biso   1.000  H
  C1365    1.0000 0.98982  0.86772  0.70646  Biso   1.000  C
  C1366    1.0000 0.03296  0.92593  0.72354  Biso   1.000  C
  H1562    1.0000 0.04540  0.90152  0.77551  Biso   1.000  H
  H1563    1.0000 0.08461  0.90801  0.75071  Biso   1.000  H
  N190     1.0000 0.10173  0.68010  0.94144  Biso   1.000  N
  H1564    1.0000 0.15591  0.69201  0.96420  Biso   1.000  H
  C1367    1.0000 0.11301  0.70318  0.00466  Biso   1.000  C
  H1565    1.0000 0.18229  0.76290  0.97670  Biso   1.000  H
  H1566    1.0000 0.15469  0.80011  0.96621  Biso   1.000  H
  C1368    1.0000 0.13752  0.77243  0.01509  Biso   1.000  C
  C1369    1.0000 0.99360  0.77451  0.74050  Biso   1.000  C
  H1567    1.0000 0.00220  0.86540  0.68149  Biso   1.000  H
  H1568    1.0000 0.96189  0.85850  0.70451  Biso   1.000  H
  C1370    1.0000 0.99050  0.91104  0.71891  Biso   1.000  C
  H1569    1.0000 0.03251  0.95341  0.73361  Biso   1.000  H
  H1570    1.0000 0.04629  0.92661  0.69890  Biso   1.000  H
  C1371    1.0000 0.11444  0.64911  0.92509  Biso   1.000  C
  C1372    1.0000 0.13606  0.73039  0.03047  Biso   1.000  C
  H1571    1.0000 0.08470  0.71130  0.00460  Biso   1.000  H
  H1572    1.0000 0.11441  0.67561  0.01431  Biso   1.000  H
  H1573    1.0000 0.11030  0.78380  0.01482  Biso   1.000  H
  H1574    1.0000 0.15419  0.78931  0.03150  Biso   1.000  H
  C1373    1.0000 0.98895  0.73235  0.72976  Biso   1.000  C
  H1575    1.0000 0.98270  0.78291  0.76371  Biso   1.000  H
  H1576    1.0000 0.97660  0.92760  0.70021  Biso   1.000  H
  H1577    1.0000 0.97621  0.91360  0.74290  Biso   1.000  H
  C1374    1.0000 0.08705  0.62389  0.90372  Biso   1.000  C
  H1578    1.0000 0.14180  0.64220  0.92671  Biso   1.000  H
  H1579    1.0000 0.16351  0.72012  0.03340  Biso   1.000  H
  H1580    1.0000 0.12331  0.73060  0.05530  Biso   1.000  H
  C1375    1.0000 0.00589  0.71744  0.69748  Biso   1.000  C
  C1376    1.0000 0.96725  0.70690  0.75364  Biso   1.000  C
  C1377    1.0000 0.04698  0.63429  0.89995  Biso   1.000  C
  C1378    1.0000 0.10072  0.58888  0.88792  Biso   1.000  C
  C1379    1.0000 0.00298  0.67778  0.68810  Biso   1.000  C
  H1581    1.0000 0.01989  0.73500  0.68141  Biso   1.000  H
  C1380    1.0000 0.96475  0.66632  0.74441  Biso   1.000  C
  O205     1.0000 0.94972  0.72172  0.78433  Biso   1.000  O
  C1381    1.0000 0.02108  0.60922  0.87983  Biso   1.000  C
  O206     1.0000 0.03197  0.66799  0.91507  Biso   1.000  O
  C1382    1.0000 0.07502  0.56352  0.86881  Biso   1.000  C
  H1582    1.0000 0.12811  0.58201  0.89021  Biso   1.000  H
  O207     1.0000 0.01947  0.66441  0.65596  Biso   1.000  O
  C1383    1.0000 0.98279  0.65227  0.71226  Biso   1.000  C
  C1384    1.0000 0.94183  0.63869  0.76787  Biso   1.000  C
  H1583    1.0000 0.93340  0.70511  0.79270  Biso   1.000  H
  C1385    1.0000 0.97967  0.62181  0.87534  Biso   1.000  C
  C1386    1.0000 0.03576  0.57421  0.86471  Biso   1.000  C
  H1584    1.0000 0.04930  0.67870  0.92860  Biso   1.000  H
  O208     1.0000 0.08893  0.52806  0.85528  Biso   1.000  O
  H1585    1.0000 0.02790  0.64110  0.65912  Biso   1.000  H
  H1586    1.0000 0.98130  0.62470  0.70652  Biso   1.000  H
  N191     1.0000 0.92242  0.65051  0.79650  Biso   1.000  N
  H1587    1.0000 0.94141  0.61121  0.76159  Biso   1.000  H
  N192     1.0000 0.95368  0.60183  0.85696  Biso   1.000  N
  H1588    1.0000 0.97160  0.64610  0.88661  Biso   1.000  H
  H1589    1.0000 0.01831  0.55721  0.85121  Biso   1.000  H
  H1590    1.0000 0.07080  0.51681  0.84312  Biso   1.000  H
  C1387    1.0000 0.89809  0.62169  0.81686  Biso   1.000  C
  C1388    1.0000 0.91330  0.61773  0.85665  Biso   1.000  C
  H1591    1.0000 0.89961  0.59519  0.80411  Biso   1.000  H
  C1389    1.0000 0.85480  0.63622  0.81695  Biso   1.000  C
  H1592    1.0000 0.91330  0.64450  0.86870  Biso   1.000  H
  C1390    1.0000 0.88663  0.58981  0.87880  Biso   1.000  C
  C1391    1.0000 0.82774  0.60940  0.84008  Biso   1.000  C
  H1593    1.0000 0.85379  0.66361  0.82710  Biso   1.000  H
  H1594    1.0000 0.84480  0.63711  0.79092  Biso   1.000  H
  H1595    1.0000 0.88720  0.56301  0.86731  Biso   1.000  H
  H1596    1.0000 0.89690  0.58751  0.90461  Biso   1.000  H
  C1392    1.0000 0.84394  0.60499  0.87981  Biso   1.000  C
  H1597    1.0000 0.82590  0.58290  0.82822  Biso   1.000  H
  H1598    1.0000 0.80059  0.62101  0.84100  Biso   1.000  H
  H1599    1.0000 0.84310  0.63110  0.89270  Biso   1.000  H
  H1600    1.0000 0.82709  0.58611  0.89401  Biso   1.000  H
  Ne1      1.0000 0.12748  0.37252  0.25000  Biso   1.000  Ne
  He1      1.0000 0.21399  0.39359  0.33020  Biso   1.000  He
  He2      1.0000 0.03725  0.29283  0.35679  Biso   1.000  He
  He3      1.0000 0.05946  0.45035  0.24237  Biso   1.000  He
  He4      1.0000 0.11568  0.32224  0.19572  Biso   1.000  He
  He5      1.0000 0.20704  0.46261  0.14331  Biso   1.000  He
  Ar1      1.0000 0.11718  0.38116  0.25283  Biso   1.000  Ar
  Ne2      1.0000 0.37252  0.37252  0.50000  Biso   1.000  Ne
  He6      1.0000 0.38812  0.33595  0.57163  Biso   1.000  He
  He7      1.0000 0.29372  0.46190  0.60608  Biso   1.000  He
  He8      1.0000 0.45224  0.46092  0.50675  Biso   1.000  He
  He9      1.0000 0.29249  0.38828  0.44120  Biso   1.000  He
  He10     1.0000 0.48198  0.27289  0.37700  Biso   1.000  He
  Ar2      1.0000 0.38121  0.38286  0.50283  Biso   1.000  Ar
  Ne3      1.0000 0.12748  0.12748  0.00000  Biso   1.000  Ne
  He11     1.0000 0.10824  0.21120  0.07209  Biso   1.000  He
  He12     1.0000 0.22237  0.02260  0.11915  Biso   1.000  He
  He13     1.0000 0.05830  0.04859  0.00756  Biso   1.000  He
  He14     1.0000 0.21239  0.10747  0.92451  Biso   1.000  He
  He15     1.0000 0.01943  0.22565  0.87818  Biso   1.000  He
  Ar3      1.0000 0.11830  0.11828  0.00002  Biso   1.000  Ar
  Ne4      1.0000 0.54163  0.21270  0.32736  Biso   1.000  Ne
  He16     1.0000 0.52059  0.23333  0.34716  Biso   1.000  He
  He17     1.0000 0.55175  0.20179  0.31903  Biso   1.000  He
  Ar4      1.0000 0.54166  0.21218  0.32789  Biso   1.000  Ar
  Ne5      1.0000 0.28730  0.54163  0.07735  Biso   1.000  Ne
  He18     1.0000 0.26598  0.51991  0.09780  Biso   1.000  He
  He19     1.0000 0.29467  0.54820  0.07226  Biso   1.000  He
  Ar5      1.0000 0.28786  0.54168  0.07787  Biso   1.000  Ar
  Ne6      1.0000 0.37252  0.12748  0.75000  Biso   1.000  Ne
  He20     1.0000 0.34034  0.11263  0.81912  Biso   1.000  He
  He21     1.0000 0.48010  0.22517  0.87143  Biso   1.000  He
  He22     1.0000 0.45746  0.05157  0.75703  Biso   1.000  He
  He23     1.0000 0.38457  0.18033  0.69507  Biso   1.000  He
  He24     1.0000 0.27882  0.02376  0.63183  Biso   1.000  He
  Ar6      1.0000 0.38116  0.11719  0.74718  Biso   1.000  Ar
  Ne7      1.0000 0.71270  0.04163  0.17265  Biso   1.000  Ne
  He25     1.0000 0.70386  0.04966  0.17907  Biso   1.000  He
  He26     1.0000 0.73473  0.01917  0.15155  Biso   1.000  He
  Ar7      1.0000 0.71220  0.04164  0.17210  Biso   1.000  Ar
  Ne8      1.0000 0.71270  0.45837  0.07735  Biso   1.000  Ne
  He27     1.0000 0.73434  0.48041  0.09809  Biso   1.000  He
  He28     1.0000 0.70296  0.44943  0.07009  Biso   1.000  He
  Ar8      1.0000 0.71209  0.45829  0.07784  Biso   1.000  Ar
  Ne9      1.0000 0.62748  0.62748  0.50000  Biso   1.000  Ne
  He29     1.0000 0.60824  0.71117  0.57210  Biso   1.000  He
  He30     1.0000 0.72236  0.52262  0.61915  Biso   1.000  He
  He31     1.0000 0.55058  0.56051  0.49227  Biso   1.000  He
  He32     1.0000 0.65854  0.61282  0.43153  Biso   1.000  He
  He33     1.0000 0.51944  0.72566  0.37818  Biso   1.000  He
  Ar9      1.0000 0.61879  0.61714  0.50283  Biso   1.000  Ar
  Ne10     1.0000 0.45837  0.78730  0.32736  Biso   1.000  Ne
  He34     1.0000 0.47760  0.76848  0.34550  Biso   1.000  He
  He35     1.0000 0.45008  0.79640  0.32068  Biso   1.000  He
  Ar10     1.0000 0.45713  0.78938  0.32711  Biso   1.000  Ar
  Ne11     1.0000 0.87252  0.62748  0.25000  Biso   1.000  Ne
  He36     1.0000 0.78799  0.60770  0.32453  Biso   1.000  He
  He37     1.0000 0.98011  0.72519  0.37143  Biso   1.000  He
  He38     1.0000 0.95073  0.54047  0.24316  Biso   1.000  He
  He39     1.0000 0.88787  0.66264  0.17918  Biso   1.000  He
  He40     1.0000 0.77881  0.52376  0.13181  Biso   1.000  He
  Ar11     1.0000 0.88286  0.61879  0.25283  Biso   1.000  Ar
  Ne12     1.0000 0.21270  0.54163  0.67265  Biso   1.000  Ne
  He41     1.0000 0.20386  0.54967  0.67907  Biso   1.000  He
  He42     1.0000 0.23473  0.51918  0.65156  Biso   1.000  He
  Ar12     1.0000 0.21216  0.54166  0.67212  Biso   1.000  Ar
  Ne13     1.0000 0.78730  0.04163  0.57736  Biso   1.000  Ne
  He43     1.0000 0.76599  0.01989  0.59779  Biso   1.000  He
  He44     1.0000 0.79467  0.04819  0.57227  Biso   1.000  He
  Ar13     1.0000 0.78782  0.04164  0.57790  Biso   1.000  Ar
  Ne14     1.0000 0.04163  0.78730  0.42265  Biso   1.000  Ne
  He45     1.0000 0.05136  0.79783  0.43064  Biso   1.000  He
  He46     1.0000 0.02068  0.76677  0.40293  Biso   1.000  He
  Ar14     1.0000 0.04161  0.78785  0.42210  Biso   1.000  Ar
  Ne15     1.0000 0.28730  0.95837  0.17265  Biso   1.000  Ne
  He47     1.0000 0.29652  0.94996  0.17941  Biso   1.000  He
  He48     1.0000 0.26605  0.98005  0.15227  Biso   1.000  He
  Ar15     1.0000 0.28778  0.95837  0.17208  Biso   1.000  Ar
  Ne16     1.0000 0.78730  0.45837  0.67265  Biso   1.000  Ne
  He49     1.0000 0.79652  0.44995  0.67943  Biso   1.000  He
  He50     1.0000 0.76603  0.48005  0.65226  Biso   1.000  He
  Ar16     1.0000 0.78788  0.45831  0.67215  Biso   1.000  Ar
  Ne17     1.0000 0.95837  0.21270  0.42265  Biso   1.000  Ne
  He51     1.0000 0.95295  0.20645  0.42671  Biso   1.000  He
  He52     1.0000 0.97870  0.23261  0.40349  Biso   1.000  He
  Ar17     1.0000 0.95834  0.21222  0.42205  Biso   1.000  Ar
  Ne18     1.0000 0.21270  0.95837  0.57736  Biso   1.000  Ne
  He53     1.0000 0.23434  0.98044  0.59809  Biso   1.000  He
  He54     1.0000 0.20297  0.94944  0.57011  Biso   1.000  He
  Ar18     1.0000 0.21055  0.95708  0.57707  Biso   1.000  Ar
  Ne19     1.0000 0.54163  0.28730  0.92265  Biso   1.000  Ne
  He55     1.0000 0.55137  0.29783  0.93063  Biso   1.000  He
  He56     1.0000 0.52069  0.26677  0.90292  Biso   1.000  He
  Ar19     1.0000 0.54169  0.28790  0.92214  Biso   1.000  Ar
  Ne20     1.0000 0.04163  0.71270  0.82736  Biso   1.000  Ne
  He57     1.0000 0.02057  0.73333  0.84717  Biso   1.000  He
  He58     1.0000 0.05175  0.70179  0.81903  Biso   1.000  He
  Ar20     1.0000 0.04163  0.71222  0.82791  Biso   1.000  Ar
  Ne21     1.0000 0.62748  0.87252  0.75000  Biso   1.000  Ne
  He59     1.0000 0.70796  0.88873  0.81005  Biso   1.000  He
  He60     1.0000 0.53728  0.79283  0.85679  Biso   1.000  He
  He61     1.0000 0.55109  0.93897  0.75774  Biso   1.000  He
  He62     1.0000 0.60818  0.78874  0.67763  Biso   1.000  He
  He63     1.0000 0.70705  0.96263  0.64331  Biso   1.000  He
  Ar21     1.0000 0.61829  0.88170  0.74999  Biso   1.000  Ar
  Ne22     1.0000 0.45837  0.71270  0.92265  Biso   1.000  Ne
  He64     1.0000 0.45294  0.70646  0.92671  Biso   1.000  He
  He65     1.0000 0.47869  0.73262  0.90348  Biso   1.000  He
  Ar22     1.0000 0.45834  0.71217  0.92210  Biso   1.000  Ar
  Ne23     1.0000 0.87252  0.87252  0.00000  Biso   1.000  Ne
  He66     1.0000 0.88833  0.83404  0.07313  Biso   1.000  He
  He67     1.0000 0.79372  0.96189  0.10607  Biso   1.000  He
  He68     1.0000 0.95227  0.96091  0.00673  Biso   1.000  He
  He69     1.0000 0.78659  0.89318  0.92158  Biso   1.000  He
  He70     1.0000 0.96341  0.79214  0.89265  Biso   1.000  He
  Ar23     1.0000 0.88281  0.88118  0.99718  Biso   1.000  Ar
  Ne24     1.0000 0.95837  0.28730  0.82736  Biso   1.000  Ne
  He71     1.0000 0.97811  0.26798  0.84596  Biso   1.000  He
  He72     1.0000 0.95007  0.29640  0.82069  Biso   1.000  He
  Ar24     1.0000 0.95837  0.28779  0.82791  Biso   1.000  Ar
