data_image0
_cell_length_a       17.594
_cell_length_b       17.594
_cell_length_c       32.234
_cell_angle_alpha    90
_cell_angle_beta     90
_cell_angle_gamma    120

_symmetry_space_group_name_H-M    "P 1"
_symmetry_int_tables_number       1

loop_
  _symmetry_equiv_pos_as_xyz
  'x, y, z'

loop_
  _atom_site_label
  _atom_site_occupancy
  _atom_site_fract_x
  _atom_site_fract_y
  _atom_site_fract_z
  _atom_site_thermal_displace_type
  _atom_site_B_iso_or_equiv
  _atom_site_type_symbol
  C1       1.0000 0.68419  0.56652  0.22002  Biso   1.000  C
  C2       1.0000 0.61453  0.51631  0.18921  Biso   1.000  C
  H1       1.0000 0.68160  0.54007  0.24601  Biso   1.000  H
  N1       1.0000 0.74756  0.64357  0.21307  Biso   1.000  N
  C3       1.0000 0.54256  0.43638  0.20239  Biso   1.000  C
  C4       1.0000 0.61648  0.54762  0.14959  Biso   1.000  C
  C5       1.0000 0.80987  0.68590  0.24620  Biso   1.000  C
  C6       1.0000 0.47251  0.38971  0.17441  Biso   1.000  C
  H2       1.0000 0.54117  0.41439  0.22951  Biso   1.000  H
  C7       1.0000 0.54708  0.50089  0.12201  Biso   1.000  C
  H3       1.0000 0.66568  0.60157  0.14109  Biso   1.000  H
  C8       1.0000 0.90002  0.70159  0.23239  Biso   1.000  C
  C9       1.0000 0.81601  0.77162  0.25799  Biso   1.000  C
  H4       1.0000 0.79040  0.64639  0.27102  Biso   1.000  H
  C10      1.0000 0.39400  0.30761  0.18651  Biso   1.000  C
  C11      1.0000 0.47531  0.42010  0.13529  Biso   1.000  C
  C12      1.0000 0.54730  0.53646  0.08082  Biso   1.000  C
  N2       1.0000 0.89509  0.61830  0.22361  Biso   1.000  N
  H5       1.0000 0.91798  0.73808  0.20661  Biso   1.000  H
  C13      1.0000 0.96911  0.74917  0.26599  Biso   1.000  C
  C14      1.0000 0.88479  0.81880  0.29211  Biso   1.000  C
  H6       1.0000 0.75800  0.76039  0.26792  Biso   1.000  H
  H7       1.0000 0.83193  0.80981  0.23320  Biso   1.000  H
  N3       1.0000 0.38174  0.27683  0.22361  Biso   1.000  N
  H8       1.0000 0.35053  0.27591  0.16610  Biso   1.000  H
  H9       1.0000 0.42831  0.38669  0.11671  Biso   1.000  H
  N4       1.0000 0.48209  0.50142  0.05711  Biso   1.000  N
  H10      1.0000 0.59858  0.58798  0.07169  Biso   1.000  H
  C15      1.0000 0.91359  0.60597  0.18651  Biso   1.000  C
  H11      1.0000 0.95507  0.71019  0.29041  Biso   1.000  H
  C16      1.0000 0.97337  0.83318  0.27930  Biso   1.000  C
  H12      1.0000 0.02720  0.76236  0.25529  Biso   1.000  H
  H13      1.0000 0.88937  0.87617  0.29810  Biso   1.000  H
  H14      1.0000 0.86567  0.78330  0.31780  Biso   1.000  H
  C17      1.0000 0.29842  0.19840  0.23239  Biso   1.000  C
  C18      1.0000 0.48960  0.54349  0.01691  Biso   1.000  C
  C19      1.0000 0.91720  0.52747  0.17441  Biso   1.000  C
  H15      1.0000 0.92540  0.64948  0.16610  Biso   1.000  H
  H16      1.0000 0.99628  0.87571  0.25600  Biso   1.000  H
  H17      1.0000 0.01487  0.85877  0.30282  Biso   1.000  H
  C20      1.0000 0.25081  0.21993  0.26599  Biso   1.000  C
  H18      1.0000 0.26188  0.17989  0.20661  Biso   1.000  H
  C21      1.0000 0.31406  0.12398  0.24620  Biso   1.000  C
  C22      1.0000 0.41517  0.56468  0.01250  Biso   1.000  C
  H19      1.0000 0.54766  0.59868  0.01470  Biso   1.000  H
  C23      1.0000 0.48106  0.48048  0.98269  Biso   1.000  C
  C24      1.0000 0.94481  0.52471  0.13529  Biso   1.000  C
  C25      1.0000 0.89380  0.45738  0.20239  Biso   1.000  C
  H20      1.0000 0.28976  0.24487  0.29041  Biso   1.000  H
  H21      1.0000 0.23762  0.26482  0.25529  Biso   1.000  H
  C26      1.0000 0.16677  0.14019  0.27930  Biso   1.000  C
  N5       1.0000 0.35643  0.10402  0.21307  Biso   1.000  N
  C27      1.0000 0.22842  0.04443  0.25799  Biso   1.000  C
  H22      1.0000 0.35357  0.14399  0.27102  Biso   1.000  H
  H23      1.0000 0.42299  0.60977  0.03310  Biso   1.000  H
  H24      1.0000 0.35791  0.51133  0.01781  Biso   1.000  H
  C28      1.0000 0.41679  0.59861  0.96839  Biso   1.000  C
  N6       1.0000 0.55429  0.46381  0.98579  Biso   1.000  N
  H25      1.0000 0.42462  0.42410  0.98619  Biso   1.000  H
  C29      1.0000 0.48301  0.51848  0.94000  Biso   1.000  C
  C30      1.0000 0.95381  0.45292  0.12201  Biso   1.000  C
  H26      1.0000 0.95841  0.57171  0.11671  Biso   1.000  H
  C31      1.0000 0.90180  0.38551  0.18921  Biso   1.000  C
  H27      1.0000 0.87321  0.45882  0.22951  Biso   1.000  H
  H28      1.0000 0.12431  0.12063  0.25600  Biso   1.000  H
  H29      1.0000 0.14118  0.15607  0.30282  Biso   1.000  H
  C32      1.0000 0.18119  0.06602  0.29211  Biso   1.000  C
  C33      1.0000 0.43351  0.11768  0.22002  Biso   1.000  C
  H30      1.0000 0.19021  0.02212  0.23320  Biso   1.000  H
  H31      1.0000 0.23961  0.99757  0.26792  Biso   1.000  H
  C34      1.0000 0.40968  0.53791  0.93609  Biso   1.000  C
  H32      1.0000 0.36771  0.61049  0.96550  Biso   1.000  H
  H33      1.0000 0.47222  0.65479  0.96451  Biso   1.000  H
  C35      1.0000 0.53638  0.38479  0.99029  Biso   1.000  C
  H34      1.0000 0.53989  0.57302  0.93581  Biso   1.000  H
  H35      1.0000 0.47700  0.47589  0.91829  Biso   1.000  H
  C36      1.0000 0.93108  0.38348  0.14959  Biso   1.000  C
  C37      1.0000 0.98918  0.45272  0.08082  Biso   1.000  C
  C38      1.0000 0.88230  0.31581  0.22002  Biso   1.000  C
  H36      1.0000 0.12379  0.01319  0.29810  Biso   1.000  H
  H37      1.0000 0.21673  0.08243  0.31780  Biso   1.000  H
  C39      1.0000 0.48367  0.09818  0.18921  Biso   1.000  C
  H38      1.0000 0.45992  0.14150  0.24601  Biso   1.000  H
  H39      1.0000 0.41210  0.56376  0.90861  Biso   1.000  H
  H40      1.0000 0.35268  0.48278  0.93861  Biso   1.000  H
  C40      1.0000 0.60329  0.35959  0.99240  Biso   1.000  C
  H41      1.0000 0.47653  0.34023  0.99240  Biso   1.000  H
  H42      1.0000 0.93589  0.33432  0.14109  Biso   1.000  H
  H43      1.0000 0.98938  0.40140  0.07169  Biso   1.000  H
  N7       1.0000 0.01926  0.51789  0.05711  Biso   1.000  N
  N8       1.0000 0.89602  0.25241  0.21307  Biso   1.000  N
  H44      1.0000 0.85846  0.31837  0.24601  Biso   1.000  H
  C41      1.0000 0.56361  0.10619  0.20239  Biso   1.000  C
  C42      1.0000 0.45238  0.06891  0.14959  Biso   1.000  C
  C43      1.0000 0.57832  0.27112  0.99221  Biso   1.000  C
  C44      1.0000 0.69276  0.42168  0.99221  Biso   1.000  C
  C45      1.0000 0.05389  0.51041  0.01691  Biso   1.000  C
  C46      1.0000 0.87598  0.19007  0.24620  Biso   1.000  C
  C47      1.0000 0.61030  0.08283  0.17441  Biso   1.000  C
  H45      1.0000 0.58557  0.12680  0.22951  Biso   1.000  H
  C48      1.0000 0.49912  0.04620  0.12201  Biso   1.000  C
  H46      1.0000 0.39838  0.06412  0.14109  Biso   1.000  H
  C49      1.0000 0.64037  0.24369  0.99240  Biso   1.000  C
  H47      1.0000 0.51760  0.22833  0.99190  Biso   1.000  H
  H48      1.0000 0.71067  0.48238  0.99190  Biso   1.000  H
  C50      1.0000 0.75625  0.39667  0.99240  Biso   1.000  C
  C51      1.0000 0.99940  0.51887  0.98269  Biso   1.000  C
  C52      1.0000 0.14949  0.58477  0.01250  Biso   1.000  C
  H49      1.0000 0.05099  0.45232  0.01470  Biso   1.000  H
  C53      1.0000 0.80163  0.10002  0.23239  Biso   1.000  C
  C54      1.0000 0.95560  0.18403  0.25799  Biso   1.000  C
  H50      1.0000 0.85598  0.20962  0.27102  Biso   1.000  H
  C55      1.0000 0.57989  0.05520  0.13529  Biso   1.000  C
  C56      1.0000 0.69238  0.08637  0.18651  Biso   1.000  C
  C57      1.0000 0.46353  0.01083  0.08082  Biso   1.000  C
  C58      1.0000 0.61519  0.15161  0.99029  Biso   1.000  C
  C59      1.0000 0.72892  0.30722  0.99221  Biso   1.000  C
  C60      1.0000 0.84838  0.46361  0.99029  Biso   1.000  C
  N9       1.0000 0.90950  0.44570  0.98579  Biso   1.000  N
  H51      1.0000 0.99947  0.57538  0.98619  Biso   1.000  H
  C61      1.0000 0.03545  0.51697  0.94000  Biso   1.000  C
  C62      1.0000 0.18179  0.58319  0.96839  Biso   1.000  C
  H52      1.0000 0.18683  0.57702  0.03310  Biso   1.000  H
  H53      1.0000 0.15336  0.64206  0.01781  Biso   1.000  H
  N10      1.0000 0.72318  0.10488  0.22361  Biso   1.000  N
  H54      1.0000 0.82006  0.08197  0.20661  Biso   1.000  H
  C63      1.0000 0.78009  0.03091  0.26599  Biso   1.000  C
  C64      1.0000 0.93397  0.11518  0.29211  Biso   1.000  C
  H55      1.0000 0.97787  0.16808  0.23320  Biso   1.000  H
  H56      1.0000 0.00237  0.24198  0.26792  Biso   1.000  H
  H57      1.0000 0.61328  0.04161  0.11671  Biso   1.000  H
  H58      1.0000 0.72408  0.07462  0.16610  Biso   1.000  H
  H59      1.0000 0.41199  0.01063  0.07169  Biso   1.000  H
  N11      1.0000 0.49859  0.98070  0.05711  Biso   1.000  N
  N12      1.0000 0.53621  0.09050  0.98579  Biso   1.000  N
  H60      1.0000 0.65978  0.13631  0.99240  Biso   1.000  H
  H61      1.0000 0.77168  0.28930  0.99190  Biso   1.000  H
  H62      1.0000 0.86370  0.52347  0.99240  Biso   1.000  H
  H63      1.0000 0.99891  0.52301  0.91829  Biso   1.000  H
  H64      1.0000 0.03309  0.46007  0.93581  Biso   1.000  H
  C65      1.0000 0.12821  0.59028  0.93609  Biso   1.000  C
  H65      1.0000 0.24276  0.63228  0.96550  Biso   1.000  H
  H66      1.0000 0.18257  0.52780  0.96451  Biso   1.000  H
  H67      1.0000 0.75508  0.04489  0.29041  Biso   1.000  H
  C66      1.0000 0.85977  0.02658  0.27930  Biso   1.000  C
  H68      1.0000 0.73519  0.97283  0.25529  Biso   1.000  H
  H69      1.0000 0.98680  0.11059  0.29810  Biso   1.000  H
  H70      1.0000 0.91760  0.13428  0.31780  Biso   1.000  H
  C67      1.0000 0.45652  0.94612  0.01691  Biso   1.000  C
  C68      1.0000 0.51951  0.00059  0.98269  Biso   1.000  C
  H71      1.0000 0.15169  0.58792  0.90861  Biso   1.000  H
  H72      1.0000 0.13012  0.64731  0.93861  Biso   1.000  H
  H73      1.0000 0.87935  0.00368  0.25600  Biso   1.000  H
  H74      1.0000 0.84386  0.98510  0.30282  Biso   1.000  H
  C69      1.0000 0.43531  0.85049  0.01250  Biso   1.000  C
  H75      1.0000 0.40130  0.94901  0.01470  Biso   1.000  H
  C70      1.0000 0.48151  0.96449  0.94000  Biso   1.000  C
  H76      1.0000 0.57591  0.00053  0.98619  Biso   1.000  H
  C71      1.0000 0.40137  0.81820  0.96839  Biso   1.000  C
  H77      1.0000 0.39018  0.81322  0.03310  Biso   1.000  H
  H78      1.0000 0.48873  0.84662  0.01781  Biso   1.000  H
  C72      1.0000 0.46211  0.87182  0.93609  Biso   1.000  C
  H79      1.0000 0.42702  0.96692  0.93581  Biso   1.000  H
  H80      1.0000 0.52409  0.00112  0.91829  Biso   1.000  H
  H81      1.0000 0.38953  0.75723  0.96550  Biso   1.000  H
  H82      1.0000 0.34522  0.81742  0.96451  Biso   1.000  H
  H83      1.0000 0.43621  0.84833  0.90861  Biso   1.000  H
  H84      1.0000 0.51720  0.86992  0.93861  Biso   1.000  H
  C73      1.0000 0.51696  0.48146  0.44000  Biso   1.000  C
  C74      1.0000 0.51885  0.51946  0.48272  Biso   1.000  C
  H85      1.0000 0.46011  0.42699  0.43581  Biso   1.000  H
  H86      1.0000 0.52300  0.52412  0.41832  Biso   1.000  H
  C75      1.0000 0.59032  0.46210  0.43609  Biso   1.000  C
  N13      1.0000 0.44572  0.53620  0.48579  Biso   1.000  N
  H87      1.0000 0.57538  0.57591  0.48619  Biso   1.000  H
  C76      1.0000 0.51040  0.45652  0.51691  Biso   1.000  C
  H88      1.0000 0.58787  0.43618  0.40861  Biso   1.000  H
  H89      1.0000 0.64730  0.51717  0.43861  Biso   1.000  H
  C77      1.0000 0.58321  0.40140  0.46842  Biso   1.000  C
  C78      1.0000 0.46363  0.61522  0.49032  Biso   1.000  C
  N14      1.0000 0.51791  0.49859  0.55711  Biso   1.000  N
  C79      1.0000 0.58483  0.43533  0.51250  Biso   1.000  C
  H90      1.0000 0.45225  0.40126  0.51470  Biso   1.000  H
  H91      1.0000 0.63229  0.38952  0.46550  Biso   1.000  H
  H92      1.0000 0.52779  0.34522  0.46451  Biso   1.000  H
  C80      1.0000 0.39671  0.64042  0.49240  Biso   1.000  C
  H93      1.0000 0.52348  0.65978  0.49240  Biso   1.000  H
  C81      1.0000 0.45267  0.46348  0.58082  Biso   1.000  C
  H94      1.0000 0.57698  0.39017  0.53310  Biso   1.000  H
  H95      1.0000 0.64209  0.48868  0.51781  Biso   1.000  H
  C82      1.0000 0.42168  0.72889  0.49221  Biso   1.000  C
  C83      1.0000 0.30721  0.57827  0.49221  Biso   1.000  C
  H96      1.0000 0.40142  0.41203  0.57169  Biso   1.000  H
  C84      1.0000 0.45292  0.49912  0.62201  Biso   1.000  C
  H97      1.0000 0.48241  0.77168  0.49190  Biso   1.000  H
  C85      1.0000 0.35960  0.75626  0.49240  Biso   1.000  C
  H98      1.0000 0.28934  0.51763  0.49190  Biso   1.000  H
  C86      1.0000 0.24366  0.60327  0.49240  Biso   1.000  C
  C87      1.0000 0.52469  0.57991  0.63532  Biso   1.000  C
  C88      1.0000 0.38352  0.45239  0.64959  Biso   1.000  C
  C89      1.0000 0.27109  0.69279  0.49221  Biso   1.000  C
  C90      1.0000 0.38481  0.84840  0.49032  Biso   1.000  C
  C91      1.0000 0.15162  0.53640  0.49032  Biso   1.000  C
  H99      1.0000 0.57169  0.61332  0.61671  Biso   1.000  H
  C92      1.0000 0.52750  0.61030  0.67441  Biso   1.000  C
  C93      1.0000 0.38548  0.48370  0.68921  Biso   1.000  C
  H100     1.0000 0.33429  0.39838  0.64109  Biso   1.000  H
  H101     1.0000 0.22832  0.71071  0.49190  Biso   1.000  H
  N15      1.0000 0.46379  0.90951  0.48579  Biso   1.000  N
  H102     1.0000 0.34023  0.86370  0.49240  Biso   1.000  H
  N16      1.0000 0.09050  0.55431  0.48579  Biso   1.000  N
  H103     1.0000 0.13627  0.47648  0.49240  Biso   1.000  H
  C94      1.0000 0.45736  0.56357  0.70239  Biso   1.000  C
  C95      1.0000 0.60600  0.69240  0.68651  Biso   1.000  C
  C96      1.0000 0.31581  0.43349  0.72002  Biso   1.000  C
  C97      1.0000 0.48050  0.99942  0.48272  Biso   1.000  C
  C98      1.0000 0.00057  0.48107  0.48272  Biso   1.000  C
  H104     1.0000 0.45883  0.58562  0.72951  Biso   1.000  H
  N17      1.0000 0.61827  0.72318  0.72361  Biso   1.000  N
  H105     1.0000 0.64948  0.72410  0.66610  Biso   1.000  H
  H106     1.0000 0.31838  0.45987  0.74601  Biso   1.000  H
  N18      1.0000 0.25236  0.35637  0.71307  Biso   1.000  N
  H107     1.0000 0.42409  0.99948  0.48619  Biso   1.000  H
  C99      1.0000 0.51850  0.03552  0.44000  Biso   1.000  C
  C100     1.0000 0.54349  0.05389  0.51691  Biso   1.000  C
  H108     1.0000 0.00050  0.42456  0.48619  Biso   1.000  H
  C101     1.0000 0.96452  0.48297  0.44000  Biso   1.000  C
  C102     1.0000 0.94612  0.48960  0.51691  Biso   1.000  C
  C103     1.0000 0.70159  0.80161  0.73239  Biso   1.000  C
  C104     1.0000 0.19008  0.31411  0.74620  Biso   1.000  C
  H109     1.0000 0.47592  0.99889  0.41832  Biso   1.000  H
  H110     1.0000 0.57298  0.03309  0.43581  Biso   1.000  H
  C105     1.0000 0.53789  0.12819  0.43609  Biso   1.000  C
  N19      1.0000 0.50141  0.01931  0.55711  Biso   1.000  N
  C106     1.0000 0.56470  0.14952  0.51250  Biso   1.000  C
  H111     1.0000 0.59871  0.05100  0.51470  Biso   1.000  H
  H112     1.0000 0.00109  0.47700  0.41832  Biso   1.000  H
  H113     1.0000 0.96688  0.53988  0.43581  Biso   1.000  H
  C107     1.0000 0.87176  0.40966  0.43609  Biso   1.000  C
  N20      1.0000 0.98069  0.48212  0.55711  Biso   1.000  N
  C108     1.0000 0.85048  0.41518  0.51250  Biso   1.000  C
  H114     1.0000 0.94902  0.54769  0.51470  Biso   1.000  H
  H115     1.0000 0.73812  0.82012  0.70661  Biso   1.000  H
  C109     1.0000 0.74920  0.78008  0.76602  Biso   1.000  C
  C110     1.0000 0.68591  0.87597  0.74620  Biso   1.000  C
  C111     1.0000 0.09999  0.29842  0.73239  Biso   1.000  C
  C112     1.0000 0.18399  0.22839  0.75802  Biso   1.000  C
  H116     1.0000 0.20960  0.35362  0.77102  Biso   1.000  H
  H117     1.0000 0.56379  0.15168  0.40861  Biso   1.000  H
  H118     1.0000 0.48280  0.13009  0.43861  Biso   1.000  H
  C113     1.0000 0.59858  0.18181  0.46842  Biso   1.000  C
  C114     1.0000 0.53648  0.98918  0.58082  Biso   1.000  C
  H119     1.0000 0.60982  0.18679  0.53310  Biso   1.000  H
  H120     1.0000 0.51127  0.15339  0.51781  Biso   1.000  H
  H121     1.0000 0.84831  0.41209  0.40861  Biso   1.000  H
  H122     1.0000 0.86988  0.35270  0.43861  Biso   1.000  H
  C115     1.0000 0.81822  0.41682  0.46842  Biso   1.000  C
  C116     1.0000 0.01077  0.54729  0.58082  Biso   1.000  C
  H123     1.0000 0.81318  0.42299  0.53310  Biso   1.000  H
  H124     1.0000 0.84661  0.35788  0.51781  Biso   1.000  H
  H125     1.0000 0.71021  0.75508  0.79041  Biso   1.000  H
  H126     1.0000 0.76239  0.73519  0.75532  Biso   1.000  H
  C117     1.0000 0.83320  0.85976  0.77930  Biso   1.000  C
  N21      1.0000 0.64357  0.89599  0.71307  Biso   1.000  N
  C118     1.0000 0.77158  0.95558  0.75802  Biso   1.000  C
  H127     1.0000 0.64638  0.85602  0.77102  Biso   1.000  H
  N22      1.0000 0.10491  0.38171  0.72361  Biso   1.000  N
  H128     1.0000 0.08200  0.26187  0.70661  Biso   1.000  H
  C119     1.0000 0.03087  0.25077  0.76602  Biso   1.000  C
  C120     1.0000 0.11521  0.18121  0.79211  Biso   1.000  C
  H129     1.0000 0.24201  0.23962  0.76792  Biso   1.000  H
  H130     1.0000 0.16808  0.19020  0.73320  Biso   1.000  H
  H131     1.0000 0.61048  0.24278  0.46550  Biso   1.000  H
  H132     1.0000 0.65478  0.18259  0.46451  Biso   1.000  H
  H133     1.0000 0.58802  0.98938  0.57169  Biso   1.000  H
  C121     1.0000 0.50089  0.95381  0.62201  Biso   1.000  C
  H134     1.0000 0.75724  0.36773  0.46550  Biso   1.000  H
  H135     1.0000 0.81738  0.47221  0.46451  Biso   1.000  H
  H136     1.0000 0.01063  0.59861  0.57169  Biso   1.000  H
  C122     1.0000 0.04620  0.54709  0.62201  Biso   1.000  C
  H137     1.0000 0.87569  0.87938  0.75600  Biso   1.000  H
  H138     1.0000 0.85879  0.84388  0.80282  Biso   1.000  H
  C123     1.0000 0.81876  0.93399  0.79211  Biso   1.000  C
  C124     1.0000 0.56646  0.88227  0.72002  Biso   1.000  C
  H139     1.0000 0.80979  0.97789  0.73320  Biso   1.000  H
  H140     1.0000 0.76037  0.00237  0.76792  Biso   1.000  H
  C125     1.0000 0.08638  0.39398  0.68651  Biso   1.000  C
  H141     1.0000 0.04493  0.28982  0.79041  Biso   1.000  H
  C126     1.0000 0.02660  0.16677  0.77930  Biso   1.000  C
  H142     1.0000 0.97278  0.23758  0.75532  Biso   1.000  H
  H143     1.0000 0.11060  0.12378  0.79810  Biso   1.000  H
  H144     1.0000 0.13433  0.21671  0.81780  Biso   1.000  H
  C127     1.0000 0.42012  0.94481  0.63532  Biso   1.000  C
  C128     1.0000 0.54762  0.93110  0.64959  Biso   1.000  C
  C129     1.0000 0.05520  0.47530  0.63532  Biso   1.000  C
  C130     1.0000 0.06889  0.61647  0.64959  Biso   1.000  C
  H145     1.0000 0.87621  0.98682  0.79810  Biso   1.000  H
  H146     1.0000 0.78327  0.91758  0.81780  Biso   1.000  H
  C131     1.0000 0.51630  0.90176  0.68921  Biso   1.000  C
  H147     1.0000 0.54009  0.85851  0.74601  Biso   1.000  H
  C132     1.0000 0.08278  0.47247  0.67441  Biso   1.000  C
  H148     1.0000 0.07457  0.35047  0.66610  Biso   1.000  H
  H149     1.0000 0.00372  0.12430  0.75600  Biso   1.000  H
  H150     1.0000 0.98510  0.14117  0.80282  Biso   1.000  H
  H151     1.0000 0.38673  0.95840  0.61671  Biso   1.000  H
  C133     1.0000 0.38971  0.91718  0.67441  Biso   1.000  C
  H152     1.0000 0.60157  0.93589  0.64109  Biso   1.000  H
  H153     1.0000 0.04159  0.42830  0.61671  Biso   1.000  H
  C134     1.0000 0.09820  0.61450  0.68921  Biso   1.000  C
  H154     1.0000 0.06412  0.66569  0.64109  Biso   1.000  H
  C135     1.0000 0.43639  0.89382  0.70239  Biso   1.000  C
  C136     1.0000 0.10617  0.54257  0.70239  Biso   1.000  C
  C137     1.0000 0.30759  0.91357  0.68651  Biso   1.000  C
  C138     1.0000 0.11770  0.68420  0.72002  Biso   1.000  C
  H155     1.0000 0.41438  0.87321  0.72951  Biso   1.000  H
  H156     1.0000 0.12679  0.54119  0.72951  Biso   1.000  H
  N23      1.0000 0.27679  0.89507  0.72361  Biso   1.000  N
  H157     1.0000 0.27587  0.92539  0.66610  Biso   1.000  H
  N24      1.0000 0.10399  0.74760  0.71307  Biso   1.000  N
  H158     1.0000 0.14151  0.68157  0.74601  Biso   1.000  H
  C139     1.0000 0.19837  0.89999  0.73239  Biso   1.000  C
  C140     1.0000 0.12399  0.80988  0.74620  Biso   1.000  C
  H159     1.0000 0.17991  0.91797  0.70661  Biso   1.000  H
  C141     1.0000 0.21991  0.96910  0.76602  Biso   1.000  C
  C142     1.0000 0.04440  0.81598  0.75802  Biso   1.000  C
  H160     1.0000 0.14397  0.79039  0.77102  Biso   1.000  H
  H161     1.0000 0.24492  0.95512  0.79041  Biso   1.000  H
  C143     1.0000 0.14020  0.97336  0.77930  Biso   1.000  C
  H162     1.0000 0.26481  0.02718  0.75532  Biso   1.000  H
  C144     1.0000 0.06600  0.88476  0.79211  Biso   1.000  C
  H163     1.0000 0.02210  0.83186  0.73320  Biso   1.000  H
  H164     1.0000 0.99760  0.75797  0.76792  Biso   1.000  H
  H165     1.0000 0.12056  0.99627  0.75600  Biso   1.000  H
  H166     1.0000 0.15608  0.01491  0.80282  Biso   1.000  H
  H167     1.0000 0.01320  0.88942  0.79810  Biso   1.000  H
  H168     1.0000 0.08237  0.86566  0.81780  Biso   1.000  H
  C145     1.0000 0.19478  0.36399  0.33359  Biso   1.000  C
  C146     1.0000 0.14698  0.33340  0.37510  Biso   1.000  C
  H169     1.0000 0.15267  0.33649  0.31091  Biso   1.000  H
  H170     1.0000 0.24010  0.34732  0.33179  Biso   1.000  H
  H171     1.0000 0.22229  0.42798  0.33151  Biso   1.000  H
  C147     1.0000 0.14704  0.33340  0.37510  Biso   1.000  C
  H172     1.0000 0.15273  0.33649  0.31091  Biso   1.000  H
  H173     1.0000 0.24007  0.34725  0.33179  Biso   1.000  H
  N25      1.0000 0.12652  0.24132  0.37982  Biso   1.000  N
  C148     1.0000 0.21350  0.38381  0.40982  Biso   1.000  C
  C149     1.0000 0.07122  0.35093  0.37780  Biso   1.000  C
  N26      1.0000 0.12648  0.24126  0.37982  Biso   1.000  N
  C150     1.0000 0.07119  0.35086  0.37780  Biso   1.000  C
  C151     1.0000 0.04903  0.18173  0.38680  Biso   1.000  C
  C152     1.0000 0.04900  0.18166  0.38680  Biso   1.000  C
  C153     1.0000 0.04898  0.18173  0.38680  Biso   1.000  C
  N27      1.0000 0.17187  0.35578  0.45011  Biso   1.000  N
  H174     1.0000 0.26341  0.37291  0.40789  Biso   1.000  H
  H175     1.0000 0.23659  0.44760  0.40640  Biso   1.000  H
  N28      1.0000 0.17192  0.35578  0.45011  Biso   1.000  N
  H176     1.0000 0.26338  0.37285  0.40789  Biso   1.000  H
  H177     1.0000 0.04748  0.33892  0.40600  Biso   1.000  H
  H178     1.0000 0.02534  0.31293  0.35819  Biso   1.000  H
  H179     1.0000 0.09200  0.41249  0.37091  Biso   1.000  H
  H180     1.0000 0.04751  0.33885  0.40600  Biso   1.000  H
  H181     1.0000 0.02531  0.31286  0.35819  Biso   1.000  H
  H182     1.0000 0.02528  0.31293  0.35819  Biso   1.000  H
  H183     1.0000 0.04745  0.33885  0.40600  Biso   1.000  H
  H184     1.0000 0.02525  0.31286  0.35819  Biso   1.000  H
  H185     1.0000 0.00479  0.19702  0.39040  Biso   1.000  H
  C154     1.0000 0.02520  0.08893  0.38962  Biso   1.000  C
  H186     1.0000 0.00481  0.19696  0.39040  Biso   1.000  H
  C155     1.0000 0.02516  0.08886  0.38962  Biso   1.000  C
  H187     1.0000 0.00475  0.19696  0.39040  Biso   1.000  H
  C156     1.0000 0.20996  0.33058  0.47590  Biso   1.000  C
  C157     1.0000 0.21002  0.33058  0.47590  Biso   1.000  C
  C158     1.0000 0.08806  0.06268  0.38950  Biso   1.000  C
  C159     1.0000 0.08812  0.06268  0.38950  Biso   1.000  C
  C160     1.0000 0.93728  0.02540  0.38950  Biso   1.000  C
  C161     1.0000 0.93733  0.02540  0.38950  Biso   1.000  C
  C162     1.0000 0.17369  0.29987  0.51812  Biso   1.000  C
  H188     1.0000 0.26258  0.33156  0.46802  Biso   1.000  H
  H189     1.0000 0.14871  0.10599  0.38931  Biso   1.000  H
  C163     1.0000 0.06367  0.97480  0.38962  Biso   1.000  C
  C164     1.0000 0.06373  0.97480  0.38962  Biso   1.000  C
  C165     1.0000 0.91107  0.93627  0.38962  Biso   1.000  C
  H190     1.0000 0.89399  0.04273  0.38931  Biso   1.000  H
  H191     1.0000 0.89401  0.04266  0.38931  Biso   1.000  H
  H192     1.0000 0.89396  0.04266  0.38931  Biso   1.000  H
  C166     1.0000 0.21912  0.27762  0.54619  Biso   1.000  C
  C167     1.0000 0.09358  0.29402  0.53031  Biso   1.000  C
  C168     1.0000 0.21909  0.27755  0.54619  Biso   1.000  C
  C169     1.0000 0.09361  0.29396  0.53031  Biso   1.000  C
  C170     1.0000 0.09355  0.29396  0.53031  Biso   1.000  C
  C171     1.0000 0.97460  0.91192  0.38950  Biso   1.000  C
  C172     1.0000 0.97457  0.91186  0.38950  Biso   1.000  C
  C173     1.0000 0.13270  0.95097  0.38680  Biso   1.000  C
  C174     1.0000 0.81832  0.86730  0.38680  Biso   1.000  C
  C175     1.0000 0.81827  0.86730  0.38680  Biso   1.000  C
  C176     1.0000 0.18814  0.24953  0.58550  Biso   1.000  C
  H193     1.0000 0.27292  0.28188  0.53800  Biso   1.000  H
  C177     1.0000 0.18810  0.24946  0.58550  Biso   1.000  C
  C178     1.0000 0.18808  0.24953  0.58550  Biso   1.000  C
  H194     1.0000 0.27286  0.28188  0.53800  Biso   1.000  H
  C179     1.0000 0.18805  0.24946  0.58550  Biso   1.000  C
  H195     1.0000 0.06200  0.30951  0.51142  Biso   1.000  H
  C180     1.0000 0.06173  0.26521  0.57002  Biso   1.000  C
  H196     1.0000 0.06196  0.30945  0.51142  Biso   1.000  H
  C181     1.0000 0.06170  0.26515  0.57002  Biso   1.000  C
  C182     1.0000 0.06167  0.26521  0.57002  Biso   1.000  C
  C183     1.0000 0.06164  0.26515  0.57002  Biso   1.000  C
  H197     1.0000 0.95730  0.85128  0.38931  Biso   1.000  H
  N29      1.0000 0.11484  0.87353  0.37982  Biso   1.000  N
  H198     1.0000 0.19222  0.99521  0.39040  Biso   1.000  H
  N30      1.0000 0.11480  0.87346  0.37982  Biso   1.000  N
  N31      1.0000 0.11478  0.87353  0.37982  Biso   1.000  N
  N32      1.0000 0.11475  0.87346  0.37982  Biso   1.000  N
  N33      1.0000 0.75874  0.88521  0.37982  Biso   1.000  N
  H199     1.0000 0.80303  0.80783  0.39040  Biso   1.000  H
  H200     1.0000 0.80300  0.80777  0.39040  Biso   1.000  H
  N34      1.0000 0.75868  0.88521  0.37982  Biso   1.000  N
  C184     1.0000 0.23938  0.22708  0.61612  Biso   1.000  C
  C185     1.0000 0.11001  0.24388  0.59772  Biso   1.000  C
  C186     1.0000 0.97782  0.26029  0.58091  Biso   1.000  C
  C187     1.0000 0.97776  0.26029  0.58091  Biso   1.000  C
  C188     1.0000 0.18641  0.85299  0.37510  Biso   1.000  C
  C189     1.0000 0.18636  0.85299  0.37510  Biso   1.000  C
  C190     1.0000 0.66661  0.81361  0.37510  Biso   1.000  C
  N35      1.0000 0.30849  0.22957  0.60632  Biso   1.000  N
  H201     1.0000 0.21788  0.21067  0.64351  Biso   1.000  H
  H202     1.0000 0.08870  0.22537  0.62512  Biso   1.000  H
  N36      1.0000 0.94240  0.23207  0.61451  Biso   1.000  N
  H203     1.0000 0.95060  0.27952  0.56130  Biso   1.000  H
  H204     1.0000 0.95057  0.27945  0.56130  Biso   1.000  H
  C191     1.0000 0.17028  0.78650  0.40982  Biso   1.000  C
  C192     1.0000 0.27967  0.92879  0.37780  Biso   1.000  C
  C193     1.0000 0.16923  0.80521  0.33359  Biso   1.000  C
  C194     1.0000 0.16917  0.80521  0.33359  Biso   1.000  C
  C195     1.0000 0.61622  0.82969  0.40982  Biso   1.000  C
  C196     1.0000 0.64910  0.72028  0.37780  Biso   1.000  C
  C197     1.0000 0.63599  0.83080  0.33359  Biso   1.000  C
  C198     1.0000 0.61616  0.82969  0.40982  Biso   1.000  C
  C199     1.0000 0.35347  0.20779  0.63870  Biso   1.000  C
  C200     1.0000 0.35352  0.20779  0.63870  Biso   1.000  C
  C201     1.0000 0.86182  0.23358  0.62291  Biso   1.000  C
  C202     1.0000 0.86176  0.23358  0.62291  Biso   1.000  C
  N37      1.0000 0.18392  0.82811  0.45011  Biso   1.000  N
  H205     1.0000 0.10953  0.73663  0.40789  Biso   1.000  H
  H206     1.0000 0.21102  0.76340  0.40640  Biso   1.000  H
  N38      1.0000 0.18389  0.82805  0.45011  Biso   1.000  N
  H207     1.0000 0.10950  0.73656  0.40789  Biso   1.000  H
  N39      1.0000 0.18386  0.82811  0.45011  Biso   1.000  N
  H208     1.0000 0.10947  0.73663  0.40789  Biso   1.000  H
  H209     1.0000 0.21096  0.76340  0.40640  Biso   1.000  H
  H210     1.0000 0.29141  0.95248  0.40600  Biso   1.000  H
  H211     1.0000 0.28764  0.97473  0.35819  Biso   1.000  H
  H212     1.0000 0.32048  0.90799  0.37091  Biso   1.000  H
  H213     1.0000 0.28761  0.97467  0.35819  Biso   1.000  H
  H214     1.0000 0.29135  0.95248  0.40600  Biso   1.000  H
  H215     1.0000 0.28758  0.97473  0.35819  Biso   1.000  H
  H216     1.0000 0.28755  0.97467  0.35819  Biso   1.000  H
  H217     1.0000 0.18378  0.84728  0.31091  Biso   1.000  H
  H218     1.0000 0.10720  0.75992  0.33179  Biso   1.000  H
  H219     1.0000 0.20572  0.77771  0.33151  Biso   1.000  H
  H220     1.0000 0.10717  0.75986  0.33179  Biso   1.000  H
  H221     1.0000 0.20567  0.77771  0.33151  Biso   1.000  H
  N40      1.0000 0.64421  0.81610  0.45011  Biso   1.000  N
  H222     1.0000 0.62714  0.89053  0.40789  Biso   1.000  H
  H223     1.0000 0.55239  0.78900  0.40640  Biso   1.000  H
  H224     1.0000 0.62711  0.89046  0.40789  Biso   1.000  H
  H225     1.0000 0.62709  0.89053  0.40789  Biso   1.000  H
  H226     1.0000 0.62705  0.89046  0.40789  Biso   1.000  H
  H227     1.0000 0.66111  0.70860  0.40600  Biso   1.000  H
  H228     1.0000 0.68711  0.71241  0.35819  Biso   1.000  H
  H229     1.0000 0.58752  0.67953  0.37091  Biso   1.000  H
  H230     1.0000 0.58749  0.67946  0.37091  Biso   1.000  H
  H231     1.0000 0.66351  0.81617  0.31091  Biso   1.000  H
  H232     1.0000 0.65273  0.89283  0.33179  Biso   1.000  H
  H233     1.0000 0.57199  0.79431  0.33151  Biso   1.000  H
  H234     1.0000 0.65270  0.89276  0.33179  Biso   1.000  H
  H235     1.0000 0.57196  0.79425  0.33151  Biso   1.000  H
  H236     1.0000 0.66346  0.81617  0.31091  Biso   1.000  H
  C203     1.0000 0.37183  0.13822  0.62291  Biso   1.000  C
  C204     1.0000 0.32538  0.17878  0.67882  Biso   1.000  C
  C205     1.0000 0.45708  0.28792  0.63920  Biso   1.000  C
  C206     1.0000 0.37179  0.13815  0.62291  Biso   1.000  C
  C207     1.0000 0.45710  0.28785  0.63920  Biso   1.000  C
  C208     1.0000 0.37177  0.13822  0.62291  Biso   1.000  C
  C209     1.0000 0.45705  0.28785  0.63920  Biso   1.000  C
  H237     1.0000 0.31617  0.18639  0.66380  Biso   1.000  H
  H238     1.0000 0.40929  0.26088  0.64631  Biso   1.000  H
  H239     1.0000 0.84123  0.24821  0.59710  Biso   1.000  H
  H240     1.0000 0.87321  0.27932  0.64382  Biso   1.000  H
  C210     1.0000 0.79219  0.14570  0.63870  Biso   1.000  C
  H241     1.0000 0.84119  0.24815  0.59710  Biso   1.000  H
  H242     1.0000 0.87317  0.27926  0.64382  Biso   1.000  H
  C211     1.0000 0.86200  0.26600  0.66880  Biso   1.000  C
  C212     1.0000 0.80682  0.24191  0.59899  Biso   1.000  C
  C213     1.0000 0.12058  0.78998  0.47590  Biso   1.000  C
  C214     1.0000 0.66937  0.87937  0.47590  Biso   1.000  C
  N41      1.0000 0.28970  0.05762  0.61451  Biso   1.000  N
  H243     1.0000 0.40702  0.15883  0.59710  Biso   1.000  H
  H244     1.0000 0.40607  0.12680  0.64382  Biso   1.000  H
  N42      1.0000 0.28966  0.05756  0.61451  Biso   1.000  N
  H245     1.0000 0.40699  0.15876  0.59710  Biso   1.000  H
  C215     1.0000 0.40401  0.13802  0.66880  Biso   1.000  C
  C216     1.0000 0.43513  0.19322  0.59899  Biso   1.000  C
  H246     1.0000 0.27402  0.11971  0.67801  Biso   1.000  H
  H247     1.0000 0.30979  0.21888  0.69250  Biso   1.000  H
  H248     1.0000 0.37270  0.17760  0.69430  Biso   1.000  H
  H249     1.0000 0.46101  0.33990  0.65242  Biso   1.000  H
  H250     1.0000 0.47901  0.30223  0.61060  Biso   1.000  H
  H251     1.0000 0.49256  0.26908  0.65481  Biso   1.000  H
  H252     1.0000 0.47898  0.30216  0.61060  Biso   1.000  H
  H253     1.0000 0.49262  0.26908  0.65481  Biso   1.000  H
  H254     1.0000 0.46096  0.33990  0.65242  Biso   1.000  H
  N43      1.0000 0.77037  0.07889  0.60632  Biso   1.000  N
  C217     1.0000 0.82123  0.14662  0.67882  Biso   1.000  C
  C218     1.0000 0.71208  0.16920  0.63920  Biso   1.000  C
  C219     1.0000 0.82120  0.14655  0.67882  Biso   1.000  C
  C220     1.0000 0.82118  0.14662  0.67882  Biso   1.000  C
  H255     1.0000 0.81357  0.12982  0.66380  Biso   1.000  H
  H256     1.0000 0.73908  0.14839  0.64631  Biso   1.000  H
  H257     1.0000 0.90880  0.32789  0.67150  Biso   1.000  H
  H258     1.0000 0.87360  0.23043  0.68840  Biso   1.000  H
  H259     1.0000 0.80561  0.26121  0.67500  Biso   1.000  H
  H260     1.0000 0.77572  0.18961  0.58150  Biso   1.000  H
  H261     1.0000 0.83889  0.29389  0.58140  Biso   1.000  H
  H262     1.0000 0.76431  0.24841  0.61612  Biso   1.000  H
  C221     1.0000 0.12617  0.82628  0.51812  Biso   1.000  C
  H263     1.0000 0.06900  0.73741  0.46802  Biso   1.000  H
  C222     1.0000 0.70011  0.87379  0.51812  Biso   1.000  C
  H264     1.0000 0.66842  0.93102  0.46802  Biso   1.000  H
  H265     1.0000 0.66839  0.93096  0.46802  Biso   1.000  H
  C223     1.0000 0.28249  0.02218  0.58091  Biso   1.000  C
  H266     1.0000 0.41909  0.09123  0.67150  Biso   1.000  H
  H267     1.0000 0.35682  0.12640  0.68840  Biso   1.000  H
  H268     1.0000 0.45562  0.19440  0.67500  Biso   1.000  H
  H269     1.0000 0.41391  0.22432  0.58150  Biso   1.000  H
  H270     1.0000 0.45501  0.16112  0.58140  Biso   1.000  H
  H271     1.0000 0.48410  0.23568  0.61612  Biso   1.000  H
  C224     1.0000 0.77288  0.01227  0.61612  Biso   1.000  C
  H272     1.0000 0.88032  0.15430  0.67801  Biso   1.000  H
  H273     1.0000 0.78110  0.09090  0.69250  Biso   1.000  H
  H274     1.0000 0.82241  0.19512  0.69430  Biso   1.000  H
  H275     1.0000 0.82238  0.19505  0.69430  Biso   1.000  H
  H276     1.0000 0.88026  0.15430  0.67801  Biso   1.000  H
  H277     1.0000 0.66012  0.12109  0.65242  Biso   1.000  H
  H278     1.0000 0.69782  0.17681  0.61060  Biso   1.000  H
  H279     1.0000 0.73087  0.22347  0.65481  Biso   1.000  H
  H280     1.0000 0.73092  0.22347  0.65481  Biso   1.000  H
  H281     1.0000 0.66007  0.12109  0.65242  Biso   1.000  H
  C225     1.0000 0.05853  0.78093  0.54619  Biso   1.000  C
  C226     1.0000 0.20039  0.90641  0.53031  Biso   1.000  C
  C227     1.0000 0.05850  0.78086  0.54619  Biso   1.000  C
  C228     1.0000 0.05847  0.78093  0.54619  Biso   1.000  C
  C229     1.0000 0.72244  0.94152  0.54619  Biso   1.000  C
  C230     1.0000 0.70600  0.79963  0.53031  Biso   1.000  C
  C231     1.0000 0.72241  0.94146  0.54619  Biso   1.000  C
  C232     1.0000 0.70597  0.79956  0.53031  Biso   1.000  C
  C233     1.0000 0.72238  0.94152  0.54619  Biso   1.000  C
  C234     1.0000 0.72235  0.94146  0.54619  Biso   1.000  C
  H282     1.0000 0.32890  0.04942  0.56130  Biso   1.000  H
  H283     1.0000 0.32887  0.04935  0.56130  Biso   1.000  H
  C235     1.0000 0.20349  0.93831  0.57002  Biso   1.000  C
  C236     1.0000 0.75046  0.93857  0.58550  Biso   1.000  C
  C237     1.0000 0.75052  0.93857  0.58550  Biso   1.000  C
  H284     1.0000 0.78933  0.00722  0.64351  Biso   1.000  H
  H285     1.0000 0.78930  0.00715  0.64351  Biso   1.000  H
  H286     1.0000 0.78928  0.00722  0.64351  Biso   1.000  H
  C238     1.0000 0.06140  0.81190  0.58550  Biso   1.000  C
  H287     1.0000 0.00900  0.72711  0.53800  Biso   1.000  H
  H288     1.0000 0.24749  0.93798  0.51142  Biso   1.000  H
  H289     1.0000 0.71808  0.99101  0.53800  Biso   1.000  H
  H290     1.0000 0.71814  0.99101  0.53800  Biso   1.000  H
  H291     1.0000 0.69051  0.75251  0.51142  Biso   1.000  H
  C239     1.0000 0.73478  0.79648  0.57002  Biso   1.000  C
  C240     1.0000 0.13387  0.89000  0.59772  Biso   1.000  C
  C241     1.0000 0.13393  0.89000  0.59772  Biso   1.000  C
  C242     1.0000 0.75612  0.86611  0.59772  Biso   1.000  C
  C243     1.0000 0.75609  0.86605  0.59772  Biso   1.000  C
  C244     1.0000 0.98771  0.76058  0.61612  Biso   1.000  C
  C245     1.0000 0.98766  0.76058  0.61612  Biso   1.000  C
  C246     1.0000 0.73969  0.71753  0.58091  Biso   1.000  C
  C247     1.0000 0.73971  0.71746  0.58091  Biso   1.000  C
  C248     1.0000 0.73966  0.71746  0.58091  Biso   1.000  C
  H292     1.0000 0.13669  0.91133  0.62512  Biso   1.000  H
  H293     1.0000 0.13666  0.91127  0.62512  Biso   1.000  H
  H294     1.0000 0.77460  0.86329  0.62512  Biso   1.000  H
  N44      1.0000 0.92110  0.69147  0.60632  Biso   1.000  N
  H295     1.0000 0.99279  0.78211  0.64351  Biso   1.000  H
  N45      1.0000 0.92105  0.69147  0.60632  Biso   1.000  N
  N46      1.0000 0.76791  0.71031  0.61451  Biso   1.000  N
  H296     1.0000 0.72052  0.67113  0.56130  Biso   1.000  H
  H297     1.0000 0.72049  0.67106  0.56130  Biso   1.000  H
  C249     1.0000 0.85429  0.64651  0.63870  Biso   1.000  C
  C250     1.0000 0.76642  0.62820  0.62291  Biso   1.000  C
  C251     1.0000 0.85339  0.67460  0.67882  Biso   1.000  C
  C252     1.0000 0.83078  0.54288  0.63920  Biso   1.000  C
  H298     1.0000 0.87020  0.68379  0.66380  Biso   1.000  H
  H299     1.0000 0.85160  0.59066  0.64631  Biso   1.000  H
  H300     1.0000 0.75184  0.59303  0.59710  Biso   1.000  H
  H301     1.0000 0.72066  0.59388  0.64382  Biso   1.000  H
  H302     1.0000 0.75181  0.59296  0.59710  Biso   1.000  H
  H303     1.0000 0.72072  0.59388  0.64382  Biso   1.000  H
  H304     1.0000 0.75178  0.59303  0.59710  Biso   1.000  H
  H305     1.0000 0.75175  0.59296  0.59710  Biso   1.000  H
  C253     1.0000 0.73399  0.59598  0.66880  Biso   1.000  C
  C254     1.0000 0.75805  0.56487  0.59899  Biso   1.000  C
  H306     1.0000 0.84572  0.72599  0.67801  Biso   1.000  H
  H307     1.0000 0.90911  0.69022  0.69250  Biso   1.000  H
  H308     1.0000 0.80489  0.62729  0.69430  Biso   1.000  H
  H309     1.0000 0.90908  0.69016  0.69250  Biso   1.000  H
  H310     1.0000 0.84566  0.72599  0.67801  Biso   1.000  H
  H311     1.0000 0.87892  0.53901  0.65242  Biso   1.000  H
  H312     1.0000 0.82321  0.52103  0.61060  Biso   1.000  H
  H313     1.0000 0.77648  0.50738  0.65481  Biso   1.000  H
  H314     1.0000 0.82317  0.52096  0.61060  Biso   1.000  H
  H315     1.0000 0.67211  0.58088  0.67150  Biso   1.000  H
  H316     1.0000 0.76958  0.64317  0.68840  Biso   1.000  H
  H317     1.0000 0.73878  0.54439  0.67500  Biso   1.000  H
  H318     1.0000 0.81037  0.58607  0.58150  Biso   1.000  H
  H319     1.0000 0.70611  0.54498  0.58140  Biso   1.000  H
  H320     1.0000 0.75159  0.51591  0.61612  Biso   1.000  H
  C255     1.0000 0.19478  0.36399  0.33359  Biso   1.000  C
  H321     1.0000 0.22229  0.42798  0.33151  Biso   1.000  H
  C256     1.0000 0.14698  0.33340  0.37510  Biso   1.000  C
  H322     1.0000 0.15267  0.33649  0.31091  Biso   1.000  H
  H323     1.0000 0.24010  0.34732  0.33179  Biso   1.000  H
  H324     1.0000 0.24007  0.34725  0.33179  Biso   1.000  H
  C257     1.0000 0.14704  0.33340  0.37510  Biso   1.000  C
  H325     1.0000 0.15273  0.33649  0.31091  Biso   1.000  H
  C258     1.0000 0.21350  0.38381  0.40982  Biso   1.000  C
  N47      1.0000 0.12652  0.24132  0.37982  Biso   1.000  N
  C259     1.0000 0.07122  0.35093  0.37780  Biso   1.000  C
  N48      1.0000 0.12648  0.24126  0.37982  Biso   1.000  N
  C260     1.0000 0.07119  0.35086  0.37780  Biso   1.000  C
  H326     1.0000 0.23659  0.44760  0.40640  Biso   1.000  H
  N49      1.0000 0.17187  0.35578  0.45011  Biso   1.000  N
  H327     1.0000 0.26341  0.37291  0.40789  Biso   1.000  H
  H328     1.0000 0.26338  0.37285  0.40789  Biso   1.000  H
  N50      1.0000 0.17192  0.35578  0.45011  Biso   1.000  N
  C261     1.0000 0.04900  0.18166  0.38680  Biso   1.000  C
  C262     1.0000 0.04903  0.18173  0.38680  Biso   1.000  C
  C263     1.0000 0.04898  0.18173  0.38680  Biso   1.000  C
  H329     1.0000 0.09200  0.41249  0.37091  Biso   1.000  H
  H330     1.0000 0.04748  0.33892  0.40600  Biso   1.000  H
  H331     1.0000 0.02534  0.31293  0.35819  Biso   1.000  H
  H332     1.0000 0.04751  0.33885  0.40600  Biso   1.000  H
  H333     1.0000 0.02531  0.31286  0.35819  Biso   1.000  H
  H334     1.0000 0.02528  0.31293  0.35819  Biso   1.000  H
  H335     1.0000 0.04745  0.33885  0.40600  Biso   1.000  H
  H336     1.0000 0.02525  0.31286  0.35819  Biso   1.000  H
  C264     1.0000 0.20996  0.33058  0.47590  Biso   1.000  C
  C265     1.0000 0.21002  0.33058  0.47590  Biso   1.000  C
  H337     1.0000 0.00479  0.19702  0.39040  Biso   1.000  H
  C266     1.0000 0.02520  0.08893  0.38962  Biso   1.000  C
  C267     1.0000 0.02516  0.08886  0.38962  Biso   1.000  C
  H338     1.0000 0.00481  0.19696  0.39040  Biso   1.000  H
  H339     1.0000 0.00475  0.19696  0.39040  Biso   1.000  H
  C268     1.0000 0.17369  0.29987  0.51812  Biso   1.000  C
  H340     1.0000 0.26258  0.33156  0.46802  Biso   1.000  H
  C269     1.0000 0.08806  0.06268  0.38950  Biso   1.000  C
  C270     1.0000 0.93728  0.02540  0.38950  Biso   1.000  C
  C271     1.0000 0.93733  0.02540  0.38950  Biso   1.000  C
  C272     1.0000 0.08812  0.06268  0.38950  Biso   1.000  C
  C273     1.0000 0.21912  0.27762  0.54619  Biso   1.000  C
  C274     1.0000 0.09358  0.29402  0.53031  Biso   1.000  C
  C275     1.0000 0.21909  0.27755  0.54619  Biso   1.000  C
  C276     1.0000 0.09361  0.29396  0.53031  Biso   1.000  C
  C277     1.0000 0.09355  0.29396  0.53031  Biso   1.000  C
  H341     1.0000 0.14871  0.10599  0.38931  Biso   1.000  H
  C278     1.0000 0.06367  0.97480  0.38962  Biso   1.000  C
  C279     1.0000 0.06373  0.97480  0.38962  Biso   1.000  C
  C280     1.0000 0.91107  0.93627  0.38962  Biso   1.000  C
  H342     1.0000 0.89399  0.04273  0.38931  Biso   1.000  H
  H343     1.0000 0.89401  0.04266  0.38931  Biso   1.000  H
  H344     1.0000 0.89396  0.04266  0.38931  Biso   1.000  H
  H345     1.0000 0.27292  0.28188  0.53800  Biso   1.000  H
  H346     1.0000 0.27286  0.28188  0.53800  Biso   1.000  H
  C281     1.0000 0.18814  0.24953  0.58550  Biso   1.000  C
  C282     1.0000 0.18810  0.24946  0.58550  Biso   1.000  C
  C283     1.0000 0.18808  0.24953  0.58550  Biso   1.000  C
  C284     1.0000 0.18805  0.24946  0.58550  Biso   1.000  C
  H347     1.0000 0.06200  0.30951  0.51142  Biso   1.000  H
  H348     1.0000 0.06196  0.30945  0.51142  Biso   1.000  H
  C285     1.0000 0.06173  0.26521  0.57002  Biso   1.000  C
  C286     1.0000 0.06170  0.26515  0.57002  Biso   1.000  C
  C287     1.0000 0.06167  0.26521  0.57002  Biso   1.000  C
  C288     1.0000 0.06164  0.26515  0.57002  Biso   1.000  C
  C289     1.0000 0.97460  0.91192  0.38950  Biso   1.000  C
  C290     1.0000 0.97457  0.91186  0.38950  Biso   1.000  C
  C291     1.0000 0.13270  0.95097  0.38680  Biso   1.000  C
  C292     1.0000 0.81832  0.86730  0.38680  Biso   1.000  C
  C293     1.0000 0.81827  0.86730  0.38680  Biso   1.000  C
  C294     1.0000 0.23938  0.22708  0.61612  Biso   1.000  C
  C295     1.0000 0.11001  0.24388  0.59772  Biso   1.000  C
  C296     1.0000 0.97782  0.26029  0.58091  Biso   1.000  C
  C297     1.0000 0.97776  0.26029  0.58091  Biso   1.000  C
  H349     1.0000 0.95730  0.85128  0.38931  Biso   1.000  H
  N51      1.0000 0.11484  0.87353  0.37982  Biso   1.000  N
  H350     1.0000 0.19222  0.99521  0.39040  Biso   1.000  H
  N52      1.0000 0.11480  0.87346  0.37982  Biso   1.000  N
  N53      1.0000 0.11478  0.87353  0.37982  Biso   1.000  N
  N54      1.0000 0.11475  0.87346  0.37982  Biso   1.000  N
  N55      1.0000 0.75874  0.88521  0.37982  Biso   1.000  N
  H351     1.0000 0.80303  0.80783  0.39040  Biso   1.000  H
  H352     1.0000 0.80300  0.80777  0.39040  Biso   1.000  H
  N56      1.0000 0.75868  0.88521  0.37982  Biso   1.000  N
  N57      1.0000 0.30849  0.22957  0.60632  Biso   1.000  N
  H353     1.0000 0.21788  0.21067  0.64351  Biso   1.000  H
  H354     1.0000 0.08870  0.22537  0.62512  Biso   1.000  H
  N58      1.0000 0.94240  0.23207  0.61451  Biso   1.000  N
  H355     1.0000 0.95060  0.27952  0.56130  Biso   1.000  H
  H356     1.0000 0.95057  0.27945  0.56130  Biso   1.000  H
  C298     1.0000 0.18641  0.85299  0.37510  Biso   1.000  C
  C299     1.0000 0.18636  0.85299  0.37510  Biso   1.000  C
  C300     1.0000 0.66661  0.81361  0.37510  Biso   1.000  C
  C301     1.0000 0.35347  0.20779  0.63870  Biso   1.000  C
  C302     1.0000 0.35352  0.20779  0.63870  Biso   1.000  C
  C303     1.0000 0.86182  0.23358  0.62291  Biso   1.000  C
  C304     1.0000 0.86176  0.23358  0.62291  Biso   1.000  C
  C305     1.0000 0.17028  0.78650  0.40982  Biso   1.000  C
  C306     1.0000 0.27967  0.92879  0.37780  Biso   1.000  C
  C307     1.0000 0.16923  0.80521  0.33359  Biso   1.000  C
  C308     1.0000 0.16917  0.80521  0.33359  Biso   1.000  C
  C309     1.0000 0.61622  0.82969  0.40982  Biso   1.000  C
  C310     1.0000 0.64910  0.72028  0.37780  Biso   1.000  C
  C311     1.0000 0.63599  0.83080  0.33359  Biso   1.000  C
  C312     1.0000 0.61616  0.82969  0.40982  Biso   1.000  C
  C313     1.0000 0.32538  0.17878  0.67882  Biso   1.000  C
  C314     1.0000 0.45708  0.28792  0.63920  Biso   1.000  C
  C315     1.0000 0.37179  0.13815  0.62291  Biso   1.000  C
  C316     1.0000 0.37183  0.13822  0.62291  Biso   1.000  C
  C317     1.0000 0.45710  0.28785  0.63920  Biso   1.000  C
  C318     1.0000 0.37177  0.13822  0.62291  Biso   1.000  C
  C319     1.0000 0.45705  0.28785  0.63920  Biso   1.000  C
  H357     1.0000 0.31617  0.18639  0.66380  Biso   1.000  H
  H358     1.0000 0.40929  0.26088  0.64631  Biso   1.000  H
  H359     1.0000 0.84123  0.24821  0.59710  Biso   1.000  H
  H360     1.0000 0.87321  0.27932  0.64382  Biso   1.000  H
  C320     1.0000 0.79219  0.14570  0.63870  Biso   1.000  C
  H361     1.0000 0.84119  0.24815  0.59710  Biso   1.000  H
  H362     1.0000 0.87317  0.27926  0.64382  Biso   1.000  H
  C321     1.0000 0.86200  0.26600  0.66880  Biso   1.000  C
  C322     1.0000 0.80682  0.24191  0.59899  Biso   1.000  C
  N59      1.0000 0.18392  0.82811  0.45011  Biso   1.000  N
  H363     1.0000 0.10953  0.73663  0.40789  Biso   1.000  H
  H364     1.0000 0.21102  0.76340  0.40640  Biso   1.000  H
  N60      1.0000 0.18389  0.82805  0.45011  Biso   1.000  N
  H365     1.0000 0.10950  0.73656  0.40789  Biso   1.000  H
  N61      1.0000 0.18386  0.82811  0.45011  Biso   1.000  N
  H366     1.0000 0.10947  0.73663  0.40789  Biso   1.000  H
  H367     1.0000 0.21096  0.76340  0.40640  Biso   1.000  H
  H368     1.0000 0.29141  0.95248  0.40600  Biso   1.000  H
  H369     1.0000 0.28764  0.97473  0.35819  Biso   1.000  H
  H370     1.0000 0.32048  0.90799  0.37091  Biso   1.000  H
  H371     1.0000 0.28761  0.97467  0.35819  Biso   1.000  H
  H372     1.0000 0.29135  0.95248  0.40600  Biso   1.000  H
  H373     1.0000 0.28758  0.97473  0.35819  Biso   1.000  H
  H374     1.0000 0.28755  0.97467  0.35819  Biso   1.000  H
  H375     1.0000 0.18378  0.84728  0.31091  Biso   1.000  H
  H376     1.0000 0.10720  0.75992  0.33179  Biso   1.000  H
  H377     1.0000 0.20572  0.77771  0.33151  Biso   1.000  H
  H378     1.0000 0.10717  0.75986  0.33179  Biso   1.000  H
  H379     1.0000 0.20567  0.77771  0.33151  Biso   1.000  H
  N62      1.0000 0.64421  0.81610  0.45011  Biso   1.000  N
  H380     1.0000 0.62714  0.89053  0.40789  Biso   1.000  H
  H381     1.0000 0.55239  0.78900  0.40640  Biso   1.000  H
  H382     1.0000 0.62711  0.89046  0.40789  Biso   1.000  H
  H383     1.0000 0.62709  0.89053  0.40789  Biso   1.000  H
  H384     1.0000 0.62705  0.89046  0.40789  Biso   1.000  H
  H385     1.0000 0.66111  0.70860  0.40600  Biso   1.000  H
  H386     1.0000 0.68711  0.71241  0.35819  Biso   1.000  H
  H387     1.0000 0.58752  0.67953  0.37091  Biso   1.000  H
  H388     1.0000 0.58749  0.67946  0.37091  Biso   1.000  H
  H389     1.0000 0.66351  0.81617  0.31091  Biso   1.000  H
  H390     1.0000 0.65273  0.89283  0.33179  Biso   1.000  H
  H391     1.0000 0.57199  0.79431  0.33151  Biso   1.000  H
  H392     1.0000 0.65270  0.89276  0.33179  Biso   1.000  H
  H393     1.0000 0.57196  0.79425  0.33151  Biso   1.000  H
  H394     1.0000 0.66346  0.81617  0.31091  Biso   1.000  H
  H395     1.0000 0.27402  0.11971  0.67801  Biso   1.000  H
  H396     1.0000 0.30979  0.21888  0.69250  Biso   1.000  H
  H397     1.0000 0.37270  0.17760  0.69430  Biso   1.000  H
  H398     1.0000 0.46101  0.33990  0.65242  Biso   1.000  H
  H399     1.0000 0.47901  0.30223  0.61060  Biso   1.000  H
  H400     1.0000 0.49256  0.26908  0.65481  Biso   1.000  H
  H401     1.0000 0.47898  0.30216  0.61060  Biso   1.000  H
  H402     1.0000 0.49262  0.26908  0.65481  Biso   1.000  H
  H403     1.0000 0.46096  0.33990  0.65242  Biso   1.000  H
  H404     1.0000 0.40607  0.12680  0.64382  Biso   1.000  H
  N63      1.0000 0.28970  0.05762  0.61451  Biso   1.000  N
  H405     1.0000 0.40702  0.15883  0.59710  Biso   1.000  H
  N64      1.0000 0.28966  0.05756  0.61451  Biso   1.000  N
  H406     1.0000 0.40699  0.15876  0.59710  Biso   1.000  H
  C323     1.0000 0.40401  0.13802  0.66880  Biso   1.000  C
  C324     1.0000 0.43513  0.19322  0.59899  Biso   1.000  C
  N65      1.0000 0.77037  0.07889  0.60632  Biso   1.000  N
  C325     1.0000 0.82123  0.14662  0.67882  Biso   1.000  C
  C326     1.0000 0.71208  0.16920  0.63920  Biso   1.000  C
  C327     1.0000 0.82120  0.14655  0.67882  Biso   1.000  C
  C328     1.0000 0.82118  0.14662  0.67882  Biso   1.000  C
  H407     1.0000 0.81357  0.12982  0.66380  Biso   1.000  H
  H408     1.0000 0.73908  0.14839  0.64631  Biso   1.000  H
  H409     1.0000 0.90880  0.32789  0.67150  Biso   1.000  H
  H410     1.0000 0.87360  0.23043  0.68840  Biso   1.000  H
  H411     1.0000 0.80561  0.26121  0.67500  Biso   1.000  H
  H412     1.0000 0.77572  0.18961  0.58150  Biso   1.000  H
  H413     1.0000 0.83889  0.29389  0.58140  Biso   1.000  H
  H414     1.0000 0.76431  0.24841  0.61612  Biso   1.000  H
  C329     1.0000 0.12058  0.78998  0.47590  Biso   1.000  C
  C330     1.0000 0.66937  0.87937  0.47590  Biso   1.000  C
  C331     1.0000 0.28249  0.02218  0.58091  Biso   1.000  C
  H415     1.0000 0.41909  0.09123  0.67150  Biso   1.000  H
  H416     1.0000 0.35682  0.12640  0.68840  Biso   1.000  H
  H417     1.0000 0.45562  0.19440  0.67500  Biso   1.000  H
  H418     1.0000 0.41391  0.22432  0.58150  Biso   1.000  H
  H419     1.0000 0.45501  0.16112  0.58140  Biso   1.000  H
  H420     1.0000 0.48410  0.23568  0.61612  Biso   1.000  H
  C332     1.0000 0.77288  0.01227  0.61612  Biso   1.000  C
  H421     1.0000 0.88032  0.15430  0.67801  Biso   1.000  H
  H422     1.0000 0.78110  0.09090  0.69250  Biso   1.000  H
  H423     1.0000 0.82241  0.19512  0.69430  Biso   1.000  H
  H424     1.0000 0.82238  0.19505  0.69430  Biso   1.000  H
  H425     1.0000 0.88026  0.15430  0.67801  Biso   1.000  H
  H426     1.0000 0.66012  0.12109  0.65242  Biso   1.000  H
  H427     1.0000 0.69782  0.17681  0.61060  Biso   1.000  H
  H428     1.0000 0.73087  0.22347  0.65481  Biso   1.000  H
  H429     1.0000 0.73092  0.22347  0.65481  Biso   1.000  H
  H430     1.0000 0.66007  0.12109  0.65242  Biso   1.000  H
  C333     1.0000 0.12617  0.82628  0.51812  Biso   1.000  C
  H431     1.0000 0.06900  0.73741  0.46802  Biso   1.000  H
  C334     1.0000 0.70011  0.87379  0.51812  Biso   1.000  C
  H432     1.0000 0.66842  0.93102  0.46802  Biso   1.000  H
  H433     1.0000 0.66839  0.93096  0.46802  Biso   1.000  H
  H434     1.0000 0.32890  0.04942  0.56130  Biso   1.000  H
  H435     1.0000 0.32887  0.04935  0.56130  Biso   1.000  H
  C335     1.0000 0.20349  0.93831  0.57002  Biso   1.000  C
  C336     1.0000 0.75046  0.93857  0.58550  Biso   1.000  C
  C337     1.0000 0.75052  0.93857  0.58550  Biso   1.000  C
  H436     1.0000 0.78933  0.00722  0.64351  Biso   1.000  H
  H437     1.0000 0.78930  0.00715  0.64351  Biso   1.000  H
  H438     1.0000 0.78928  0.00722  0.64351  Biso   1.000  H
  C338     1.0000 0.05853  0.78093  0.54619  Biso   1.000  C
  C339     1.0000 0.20039  0.90641  0.53031  Biso   1.000  C
  C340     1.0000 0.05850  0.78086  0.54619  Biso   1.000  C
  C341     1.0000 0.05847  0.78093  0.54619  Biso   1.000  C
  C342     1.0000 0.72244  0.94152  0.54619  Biso   1.000  C
  C343     1.0000 0.70600  0.79963  0.53031  Biso   1.000  C
  C344     1.0000 0.72241  0.94146  0.54619  Biso   1.000  C
  C345     1.0000 0.70597  0.79956  0.53031  Biso   1.000  C
  C346     1.0000 0.72238  0.94152  0.54619  Biso   1.000  C
  C347     1.0000 0.72235  0.94146  0.54619  Biso   1.000  C
  C348     1.0000 0.13387  0.89000  0.59772  Biso   1.000  C
  C349     1.0000 0.13393  0.89000  0.59772  Biso   1.000  C
  C350     1.0000 0.75612  0.86611  0.59772  Biso   1.000  C
  C351     1.0000 0.75609  0.86605  0.59772  Biso   1.000  C
  C352     1.0000 0.06140  0.81190  0.58550  Biso   1.000  C
  H439     1.0000 0.00900  0.72711  0.53800  Biso   1.000  H
  H440     1.0000 0.24749  0.93798  0.51142  Biso   1.000  H
  H441     1.0000 0.71808  0.99101  0.53800  Biso   1.000  H
  H442     1.0000 0.71814  0.99101  0.53800  Biso   1.000  H
  H443     1.0000 0.69051  0.75251  0.51142  Biso   1.000  H
  C353     1.0000 0.73478  0.79648  0.57002  Biso   1.000  C
  H444     1.0000 0.13669  0.91133  0.62512  Biso   1.000  H
  H445     1.0000 0.13666  0.91127  0.62512  Biso   1.000  H
  H446     1.0000 0.77460  0.86329  0.62512  Biso   1.000  H
  C354     1.0000 0.98771  0.76058  0.61612  Biso   1.000  C
  C355     1.0000 0.98766  0.76058  0.61612  Biso   1.000  C
  C356     1.0000 0.73969  0.71753  0.58091  Biso   1.000  C
  C357     1.0000 0.73971  0.71746  0.58091  Biso   1.000  C
  C358     1.0000 0.73966  0.71746  0.58091  Biso   1.000  C
  N66      1.0000 0.92110  0.69147  0.60632  Biso   1.000  N
  H447     1.0000 0.99279  0.78211  0.64351  Biso   1.000  H
  N67      1.0000 0.92105  0.69147  0.60632  Biso   1.000  N
  N68      1.0000 0.76791  0.71031  0.61451  Biso   1.000  N
  H448     1.0000 0.72052  0.67113  0.56130  Biso   1.000  H
  H449     1.0000 0.72049  0.67106  0.56130  Biso   1.000  H
  C359     1.0000 0.85429  0.64651  0.63870  Biso   1.000  C
  C360     1.0000 0.76642  0.62820  0.62291  Biso   1.000  C
  C361     1.0000 0.85339  0.67460  0.67882  Biso   1.000  C
  C362     1.0000 0.83078  0.54288  0.63920  Biso   1.000  C
  H450     1.0000 0.87020  0.68379  0.66380  Biso   1.000  H
  H451     1.0000 0.85160  0.59066  0.64631  Biso   1.000  H
  H452     1.0000 0.75184  0.59303  0.59710  Biso   1.000  H
  H453     1.0000 0.72066  0.59388  0.64382  Biso   1.000  H
  H454     1.0000 0.75181  0.59296  0.59710  Biso   1.000  H
  H455     1.0000 0.72072  0.59388  0.64382  Biso   1.000  H
  H456     1.0000 0.75178  0.59303  0.59710  Biso   1.000  H
  H457     1.0000 0.75175  0.59296  0.59710  Biso   1.000  H
  C363     1.0000 0.73399  0.59598  0.66880  Biso   1.000  C
  C364     1.0000 0.75805  0.56487  0.59899  Biso   1.000  C
  H458     1.0000 0.84572  0.72599  0.67801  Biso   1.000  H
  H459     1.0000 0.90911  0.69022  0.69250  Biso   1.000  H
  H460     1.0000 0.80489  0.62729  0.69430  Biso   1.000  H
  H461     1.0000 0.90908  0.69016  0.69250  Biso   1.000  H
  H462     1.0000 0.84566  0.72599  0.67801  Biso   1.000  H
  H463     1.0000 0.87892  0.53901  0.65242  Biso   1.000  H
  H464     1.0000 0.82321  0.52103  0.61060  Biso   1.000  H
  H465     1.0000 0.77648  0.50738  0.65481  Biso   1.000  H
  H466     1.0000 0.82317  0.52096  0.61060  Biso   1.000  H
  H467     1.0000 0.67211  0.58088  0.67150  Biso   1.000  H
  H468     1.0000 0.76958  0.64317  0.68840  Biso   1.000  H
  H469     1.0000 0.73878  0.54439  0.67500  Biso   1.000  H
  H470     1.0000 0.81037  0.58607  0.58150  Biso   1.000  H
  H471     1.0000 0.70611  0.54498  0.58140  Biso   1.000  H
  H472     1.0000 0.75159  0.51591  0.61612  Biso   1.000  H
  C365     1.0000 0.19478  0.36399  0.33359  Biso   1.000  C
  H473     1.0000 0.22229  0.42798  0.33151  Biso   1.000  H
  C366     1.0000 0.14698  0.33340  0.37510  Biso   1.000  C
  H474     1.0000 0.15267  0.33649  0.31091  Biso   1.000  H
  H475     1.0000 0.24010  0.34732  0.33179  Biso   1.000  H
  C367     1.0000 0.14704  0.33340  0.37510  Biso   1.000  C
  H476     1.0000 0.15273  0.33649  0.31091  Biso   1.000  H
  H477     1.0000 0.24007  0.34725  0.33179  Biso   1.000  H
  C368     1.0000 0.21350  0.38381  0.40982  Biso   1.000  C
  N69      1.0000 0.12652  0.24132  0.37982  Biso   1.000  N
  C369     1.0000 0.07122  0.35093  0.37780  Biso   1.000  C
  N70      1.0000 0.12648  0.24126  0.37982  Biso   1.000  N
  C370     1.0000 0.07119  0.35086  0.37780  Biso   1.000  C
  H478     1.0000 0.23659  0.44760  0.40640  Biso   1.000  H
  N71      1.0000 0.17187  0.35578  0.45011  Biso   1.000  N
  H479     1.0000 0.26341  0.37291  0.40789  Biso   1.000  H
  N72      1.0000 0.17192  0.35578  0.45011  Biso   1.000  N
  H480     1.0000 0.26338  0.37285  0.40789  Biso   1.000  H
  C371     1.0000 0.04903  0.18173  0.38680  Biso   1.000  C
  C372     1.0000 0.04900  0.18166  0.38680  Biso   1.000  C
  C373     1.0000 0.04898  0.18173  0.38680  Biso   1.000  C
  H481     1.0000 0.09200  0.41249  0.37091  Biso   1.000  H
  H482     1.0000 0.04748  0.33892  0.40600  Biso   1.000  H
  H483     1.0000 0.02534  0.31293  0.35819  Biso   1.000  H
  H484     1.0000 0.04751  0.33885  0.40600  Biso   1.000  H
  H485     1.0000 0.02531  0.31286  0.35819  Biso   1.000  H
  H486     1.0000 0.02528  0.31293  0.35819  Biso   1.000  H
  H487     1.0000 0.04745  0.33885  0.40600  Biso   1.000  H
  H488     1.0000 0.02525  0.31286  0.35819  Biso   1.000  H
  C374     1.0000 0.20996  0.33058  0.47590  Biso   1.000  C
  C375     1.0000 0.21002  0.33058  0.47590  Biso   1.000  C
  H489     1.0000 0.00479  0.19702  0.39040  Biso   1.000  H
  C376     1.0000 0.02520  0.08893  0.38962  Biso   1.000  C
  H490     1.0000 0.00481  0.19696  0.39040  Biso   1.000  H
  C377     1.0000 0.02516  0.08886  0.38962  Biso   1.000  C
  H491     1.0000 0.00475  0.19696  0.39040  Biso   1.000  H
  C378     1.0000 0.17369  0.29987  0.51812  Biso   1.000  C
  H492     1.0000 0.26258  0.33156  0.46802  Biso   1.000  H
  C379     1.0000 0.08806  0.06268  0.38950  Biso   1.000  C
  C380     1.0000 0.93728  0.02540  0.38950  Biso   1.000  C
  C381     1.0000 0.93733  0.02540  0.38950  Biso   1.000  C
  C382     1.0000 0.08812  0.06268  0.38950  Biso   1.000  C
  C383     1.0000 0.21912  0.27762  0.54619  Biso   1.000  C
  C384     1.0000 0.09358  0.29402  0.53031  Biso   1.000  C
  C385     1.0000 0.21909  0.27755  0.54619  Biso   1.000  C
  C386     1.0000 0.09361  0.29396  0.53031  Biso   1.000  C
  C387     1.0000 0.09355  0.29396  0.53031  Biso   1.000  C
  H493     1.0000 0.14871  0.10599  0.38931  Biso   1.000  H
  C388     1.0000 0.06367  0.97480  0.38962  Biso   1.000  C
  C389     1.0000 0.06373  0.97480  0.38962  Biso   1.000  C
  C390     1.0000 0.91107  0.93627  0.38962  Biso   1.000  C
  H494     1.0000 0.89399  0.04273  0.38931  Biso   1.000  H
  H495     1.0000 0.89401  0.04266  0.38931  Biso   1.000  H
  H496     1.0000 0.89396  0.04266  0.38931  Biso   1.000  H
  C391     1.0000 0.18814  0.24953  0.58550  Biso   1.000  C
  H497     1.0000 0.27292  0.28188  0.53800  Biso   1.000  H
  C392     1.0000 0.18810  0.24946  0.58550  Biso   1.000  C
  C393     1.0000 0.18808  0.24953  0.58550  Biso   1.000  C
  H498     1.0000 0.27286  0.28188  0.53800  Biso   1.000  H
  C394     1.0000 0.18805  0.24946  0.58550  Biso   1.000  C
  H499     1.0000 0.06200  0.30951  0.51142  Biso   1.000  H
  C395     1.0000 0.06173  0.26521  0.57002  Biso   1.000  C
  H500     1.0000 0.06196  0.30945  0.51142  Biso   1.000  H
  C396     1.0000 0.06170  0.26515  0.57002  Biso   1.000  C
  C397     1.0000 0.06167  0.26521  0.57002  Biso   1.000  C
  C398     1.0000 0.06164  0.26515  0.57002  Biso   1.000  C
  C399     1.0000 0.97460  0.91192  0.38950  Biso   1.000  C
  C400     1.0000 0.97457  0.91186  0.38950  Biso   1.000  C
  C401     1.0000 0.13270  0.95097  0.38680  Biso   1.000  C
  C402     1.0000 0.81832  0.86730  0.38680  Biso   1.000  C
  C403     1.0000 0.81827  0.86730  0.38680  Biso   1.000  C
  C404     1.0000 0.23938  0.22708  0.61612  Biso   1.000  C
  C405     1.0000 0.11001  0.24388  0.59772  Biso   1.000  C
  C406     1.0000 0.97782  0.26029  0.58091  Biso   1.000  C
  C407     1.0000 0.97776  0.26029  0.58091  Biso   1.000  C
  H501     1.0000 0.95730  0.85128  0.38931  Biso   1.000  H
  N73      1.0000 0.11484  0.87353  0.37982  Biso   1.000  N
  H502     1.0000 0.19222  0.99521  0.39040  Biso   1.000  H
  N74      1.0000 0.11480  0.87346  0.37982  Biso   1.000  N
  N75      1.0000 0.11478  0.87353  0.37982  Biso   1.000  N
  N76      1.0000 0.11475  0.87346  0.37982  Biso   1.000  N
  N77      1.0000 0.75874  0.88521  0.37982  Biso   1.000  N
  H503     1.0000 0.80303  0.80783  0.39040  Biso   1.000  H
  H504     1.0000 0.80300  0.80777  0.39040  Biso   1.000  H
  N78      1.0000 0.75868  0.88521  0.37982  Biso   1.000  N
  N79      1.0000 0.30849  0.22957  0.60632  Biso   1.000  N
  H505     1.0000 0.21788  0.21067  0.64351  Biso   1.000  H
  H506     1.0000 0.08870  0.22537  0.62512  Biso   1.000  H
  N80      1.0000 0.94240  0.23207  0.61451  Biso   1.000  N
  H507     1.0000 0.95060  0.27952  0.56130  Biso   1.000  H
  H508     1.0000 0.95057  0.27945  0.56130  Biso   1.000  H
  C408     1.0000 0.18641  0.85299  0.37510  Biso   1.000  C
  C409     1.0000 0.18636  0.85299  0.37510  Biso   1.000  C
  C410     1.0000 0.66661  0.81361  0.37510  Biso   1.000  C
  C411     1.0000 0.35347  0.20779  0.63870  Biso   1.000  C
  C412     1.0000 0.35352  0.20779  0.63870  Biso   1.000  C
  C413     1.0000 0.86182  0.23358  0.62291  Biso   1.000  C
  C414     1.0000 0.86176  0.23358  0.62291  Biso   1.000  C
  C415     1.0000 0.17028  0.78650  0.40982  Biso   1.000  C
  C416     1.0000 0.27967  0.92879  0.37780  Biso   1.000  C
  C417     1.0000 0.16923  0.80521  0.33359  Biso   1.000  C
  C418     1.0000 0.16917  0.80521  0.33359  Biso   1.000  C
  C419     1.0000 0.61622  0.82969  0.40982  Biso   1.000  C
  C420     1.0000 0.64910  0.72028  0.37780  Biso   1.000  C
  C421     1.0000 0.63599  0.83080  0.33359  Biso   1.000  C
  C422     1.0000 0.61616  0.82969  0.40982  Biso   1.000  C
  C423     1.0000 0.32538  0.17878  0.67882  Biso   1.000  C
  C424     1.0000 0.37183  0.13822  0.62291  Biso   1.000  C
  C425     1.0000 0.45708  0.28792  0.63920  Biso   1.000  C
  C426     1.0000 0.37179  0.13815  0.62291  Biso   1.000  C
  C427     1.0000 0.45710  0.28785  0.63920  Biso   1.000  C
  C428     1.0000 0.37177  0.13822  0.62291  Biso   1.000  C
  C429     1.0000 0.45705  0.28785  0.63920  Biso   1.000  C
  H509     1.0000 0.31617  0.18639  0.66380  Biso   1.000  H
  H510     1.0000 0.40929  0.26088  0.64631  Biso   1.000  H
  H511     1.0000 0.84123  0.24821  0.59710  Biso   1.000  H
  H512     1.0000 0.87321  0.27932  0.64382  Biso   1.000  H
  C430     1.0000 0.79219  0.14570  0.63870  Biso   1.000  C
  H513     1.0000 0.84119  0.24815  0.59710  Biso   1.000  H
  H514     1.0000 0.87317  0.27926  0.64382  Biso   1.000  H
  C431     1.0000 0.86200  0.26600  0.66880  Biso   1.000  C
  C432     1.0000 0.80682  0.24191  0.59899  Biso   1.000  C
  N81      1.0000 0.18392  0.82811  0.45011  Biso   1.000  N
  H515     1.0000 0.10953  0.73663  0.40789  Biso   1.000  H
  H516     1.0000 0.21102  0.76340  0.40640  Biso   1.000  H
  N82      1.0000 0.18389  0.82805  0.45011  Biso   1.000  N
  H517     1.0000 0.10950  0.73656  0.40789  Biso   1.000  H
  N83      1.0000 0.18386  0.82811  0.45011  Biso   1.000  N
  H518     1.0000 0.10947  0.73663  0.40789  Biso   1.000  H
  H519     1.0000 0.21096  0.76340  0.40640  Biso   1.000  H
  H520     1.0000 0.29141  0.95248  0.40600  Biso   1.000  H
  H521     1.0000 0.28764  0.97473  0.35819  Biso   1.000  H
  H522     1.0000 0.32048  0.90799  0.37091  Biso   1.000  H
  H523     1.0000 0.28761  0.97467  0.35819  Biso   1.000  H
  H524     1.0000 0.29135  0.95248  0.40600  Biso   1.000  H
  H525     1.0000 0.28758  0.97473  0.35819  Biso   1.000  H
  H526     1.0000 0.28755  0.97467  0.35819  Biso   1.000  H
  H527     1.0000 0.18378  0.84728  0.31091  Biso   1.000  H
  H528     1.0000 0.10720  0.75992  0.33179  Biso   1.000  H
  H529     1.0000 0.20572  0.77771  0.33151  Biso   1.000  H
  H530     1.0000 0.10717  0.75986  0.33179  Biso   1.000  H
  H531     1.0000 0.20567  0.77771  0.33151  Biso   1.000  H
  N84      1.0000 0.64421  0.81610  0.45011  Biso   1.000  N
  H532     1.0000 0.62714  0.89053  0.40789  Biso   1.000  H
  H533     1.0000 0.55239  0.78900  0.40640  Biso   1.000  H
  H534     1.0000 0.62711  0.89046  0.40789  Biso   1.000  H
  H535     1.0000 0.62709  0.89053  0.40789  Biso   1.000  H
  H536     1.0000 0.62705  0.89046  0.40789  Biso   1.000  H
  H537     1.0000 0.66111  0.70860  0.40600  Biso   1.000  H
  H538     1.0000 0.68711  0.71241  0.35819  Biso   1.000  H
  H539     1.0000 0.58752  0.67953  0.37091  Biso   1.000  H
  H540     1.0000 0.58749  0.67946  0.37091  Biso   1.000  H
  H541     1.0000 0.66351  0.81617  0.31091  Biso   1.000  H
  H542     1.0000 0.65273  0.89283  0.33179  Biso   1.000  H
  H543     1.0000 0.57199  0.79431  0.33151  Biso   1.000  H
  H544     1.0000 0.65270  0.89276  0.33179  Biso   1.000  H
  H545     1.0000 0.57196  0.79425  0.33151  Biso   1.000  H
  H546     1.0000 0.66346  0.81617  0.31091  Biso   1.000  H
  H547     1.0000 0.27402  0.11971  0.67801  Biso   1.000  H
  H548     1.0000 0.30979  0.21888  0.69250  Biso   1.000  H
  H549     1.0000 0.37270  0.17760  0.69430  Biso   1.000  H
  H550     1.0000 0.40607  0.12680  0.64382  Biso   1.000  H
  N85      1.0000 0.28970  0.05762  0.61451  Biso   1.000  N
  H551     1.0000 0.40702  0.15883  0.59710  Biso   1.000  H
  N86      1.0000 0.28966  0.05756  0.61451  Biso   1.000  N
  H552     1.0000 0.40699  0.15876  0.59710  Biso   1.000  H
  C433     1.0000 0.40401  0.13802  0.66880  Biso   1.000  C
  C434     1.0000 0.43513  0.19322  0.59899  Biso   1.000  C
  H553     1.0000 0.46101  0.33990  0.65242  Biso   1.000  H
  H554     1.0000 0.49256  0.26908  0.65481  Biso   1.000  H
  H555     1.0000 0.47901  0.30223  0.61060  Biso   1.000  H
  H556     1.0000 0.47898  0.30216  0.61060  Biso   1.000  H
  H557     1.0000 0.49262  0.26908  0.65481  Biso   1.000  H
  H558     1.0000 0.46096  0.33990  0.65242  Biso   1.000  H
  N87      1.0000 0.77037  0.07889  0.60632  Biso   1.000  N
  C435     1.0000 0.82123  0.14662  0.67882  Biso   1.000  C
  C436     1.0000 0.71208  0.16920  0.63920  Biso   1.000  C
  C437     1.0000 0.82120  0.14655  0.67882  Biso   1.000  C
  C438     1.0000 0.82118  0.14662  0.67882  Biso   1.000  C
  H559     1.0000 0.81357  0.12982  0.66380  Biso   1.000  H
  H560     1.0000 0.73908  0.14839  0.64631  Biso   1.000  H
  H561     1.0000 0.90880  0.32789  0.67150  Biso   1.000  H
  H562     1.0000 0.87360  0.23043  0.68840  Biso   1.000  H
  H563     1.0000 0.80561  0.26121  0.67500  Biso   1.000  H
  H564     1.0000 0.77572  0.18961  0.58150  Biso   1.000  H
  H565     1.0000 0.83889  0.29389  0.58140  Biso   1.000  H
  H566     1.0000 0.76431  0.24841  0.61612  Biso   1.000  H
  C439     1.0000 0.12058  0.78998  0.47590  Biso   1.000  C
  C440     1.0000 0.66937  0.87937  0.47590  Biso   1.000  C
  C441     1.0000 0.28249  0.02218  0.58091  Biso   1.000  C
  H567     1.0000 0.41909  0.09123  0.67150  Biso   1.000  H
  H568     1.0000 0.35682  0.12640  0.68840  Biso   1.000  H
  H569     1.0000 0.45562  0.19440  0.67500  Biso   1.000  H
  H570     1.0000 0.41391  0.22432  0.58150  Biso   1.000  H
  H571     1.0000 0.45501  0.16112  0.58140  Biso   1.000  H
  H572     1.0000 0.48410  0.23568  0.61612  Biso   1.000  H
  C442     1.0000 0.77288  0.01227  0.61612  Biso   1.000  C
  H573     1.0000 0.88032  0.15430  0.67801  Biso   1.000  H
  H574     1.0000 0.78110  0.09090  0.69250  Biso   1.000  H
  H575     1.0000 0.82241  0.19512  0.69430  Biso   1.000  H
  H576     1.0000 0.82238  0.19505  0.69430  Biso   1.000  H
  H577     1.0000 0.88026  0.15430  0.67801  Biso   1.000  H
  H578     1.0000 0.66012  0.12109  0.65242  Biso   1.000  H
  H579     1.0000 0.69782  0.17681  0.61060  Biso   1.000  H
  H580     1.0000 0.73087  0.22347  0.65481  Biso   1.000  H
  H581     1.0000 0.73092  0.22347  0.65481  Biso   1.000  H
  H582     1.0000 0.66007  0.12109  0.65242  Biso   1.000  H
  C443     1.0000 0.12617  0.82628  0.51812  Biso   1.000  C
  H583     1.0000 0.06900  0.73741  0.46802  Biso   1.000  H
  C444     1.0000 0.70011  0.87379  0.51812  Biso   1.000  C
  H584     1.0000 0.66842  0.93102  0.46802  Biso   1.000  H
  H585     1.0000 0.66839  0.93096  0.46802  Biso   1.000  H
  C445     1.0000 0.20349  0.93831  0.57002  Biso   1.000  C
  H586     1.0000 0.32890  0.04942  0.56130  Biso   1.000  H
  H587     1.0000 0.32887  0.04935  0.56130  Biso   1.000  H
  C446     1.0000 0.75046  0.93857  0.58550  Biso   1.000  C
  C447     1.0000 0.75052  0.93857  0.58550  Biso   1.000  C
  H588     1.0000 0.78933  0.00722  0.64351  Biso   1.000  H
  H589     1.0000 0.78930  0.00715  0.64351  Biso   1.000  H
  H590     1.0000 0.78928  0.00722  0.64351  Biso   1.000  H
  C448     1.0000 0.05853  0.78093  0.54619  Biso   1.000  C
  C449     1.0000 0.20039  0.90641  0.53031  Biso   1.000  C
  C450     1.0000 0.05850  0.78086  0.54619  Biso   1.000  C
  C451     1.0000 0.05847  0.78093  0.54619  Biso   1.000  C
  C452     1.0000 0.72244  0.94152  0.54619  Biso   1.000  C
  C453     1.0000 0.70600  0.79963  0.53031  Biso   1.000  C
  C454     1.0000 0.72241  0.94146  0.54619  Biso   1.000  C
  C455     1.0000 0.70597  0.79956  0.53031  Biso   1.000  C
  C456     1.0000 0.72238  0.94152  0.54619  Biso   1.000  C
  C457     1.0000 0.72235  0.94146  0.54619  Biso   1.000  C
  C458     1.0000 0.13387  0.89000  0.59772  Biso   1.000  C
  C459     1.0000 0.13393  0.89000  0.59772  Biso   1.000  C
  C460     1.0000 0.75612  0.86611  0.59772  Biso   1.000  C
  C461     1.0000 0.75609  0.86605  0.59772  Biso   1.000  C
  C462     1.0000 0.06140  0.81190  0.58550  Biso   1.000  C
  H591     1.0000 0.00900  0.72711  0.53800  Biso   1.000  H
  H592     1.0000 0.24749  0.93798  0.51142  Biso   1.000  H
  H593     1.0000 0.71808  0.99101  0.53800  Biso   1.000  H
  H594     1.0000 0.71814  0.99101  0.53800  Biso   1.000  H
  H595     1.0000 0.69051  0.75251  0.51142  Biso   1.000  H
  C463     1.0000 0.73478  0.79648  0.57002  Biso   1.000  C
  H596     1.0000 0.13669  0.91133  0.62512  Biso   1.000  H
  H597     1.0000 0.13666  0.91127  0.62512  Biso   1.000  H
  H598     1.0000 0.77460  0.86329  0.62512  Biso   1.000  H
  C464     1.0000 0.98771  0.76058  0.61612  Biso   1.000  C
  C465     1.0000 0.98766  0.76058  0.61612  Biso   1.000  C
  C466     1.0000 0.73969  0.71753  0.58091  Biso   1.000  C
  C467     1.0000 0.73971  0.71746  0.58091  Biso   1.000  C
  C468     1.0000 0.73966  0.71746  0.58091  Biso   1.000  C
  N88      1.0000 0.92110  0.69147  0.60632  Biso   1.000  N
  H599     1.0000 0.99279  0.78211  0.64351  Biso   1.000  H
  N89      1.0000 0.92105  0.69147  0.60632  Biso   1.000  N
  N90      1.0000 0.76791  0.71031  0.61451  Biso   1.000  N
  H600     1.0000 0.72052  0.67113  0.56130  Biso   1.000  H
  H601     1.0000 0.72049  0.67106  0.56130  Biso   1.000  H
  C469     1.0000 0.85429  0.64651  0.63870  Biso   1.000  C
  C470     1.0000 0.76642  0.62820  0.62291  Biso   1.000  C
  C471     1.0000 0.85339  0.67460  0.67882  Biso   1.000  C
  C472     1.0000 0.83078  0.54288  0.63920  Biso   1.000  C
  H602     1.0000 0.87020  0.68379  0.66380  Biso   1.000  H
  H603     1.0000 0.85160  0.59066  0.64631  Biso   1.000  H
  H604     1.0000 0.75184  0.59303  0.59710  Biso   1.000  H
  H605     1.0000 0.72066  0.59388  0.64382  Biso   1.000  H
  H606     1.0000 0.75181  0.59296  0.59710  Biso   1.000  H
  H607     1.0000 0.72072  0.59388  0.64382  Biso   1.000  H
  H608     1.0000 0.75178  0.59303  0.59710  Biso   1.000  H
  H609     1.0000 0.75175  0.59296  0.59710  Biso   1.000  H
  C473     1.0000 0.73399  0.59598  0.66880  Biso   1.000  C
  C474     1.0000 0.75805  0.56487  0.59899  Biso   1.000  C
  H610     1.0000 0.84572  0.72599  0.67801  Biso   1.000  H
  H611     1.0000 0.90911  0.69022  0.69250  Biso   1.000  H
  H612     1.0000 0.80489  0.62729  0.69430  Biso   1.000  H
  H613     1.0000 0.90908  0.69016  0.69250  Biso   1.000  H
  H614     1.0000 0.84566  0.72599  0.67801  Biso   1.000  H
  H615     1.0000 0.87892  0.53901  0.65242  Biso   1.000  H
  H616     1.0000 0.82321  0.52103  0.61060  Biso   1.000  H
  H617     1.0000 0.77648  0.50738  0.65481  Biso   1.000  H
  H618     1.0000 0.82317  0.52096  0.61060  Biso   1.000  H
  H619     1.0000 0.67211  0.58088  0.67150  Biso   1.000  H
  H620     1.0000 0.76958  0.64317  0.68840  Biso   1.000  H
  H621     1.0000 0.73878  0.54439  0.67500  Biso   1.000  H
  H622     1.0000 0.81037  0.58607  0.58150  Biso   1.000  H
  H623     1.0000 0.70611  0.54498  0.58140  Biso   1.000  H
  H624     1.0000 0.75159  0.51591  0.61612  Biso   1.000  H
  C475     1.0000 0.19478  0.36399  0.33359  Biso   1.000  C
  H625     1.0000 0.22229  0.42798  0.33151  Biso   1.000  H
  C476     1.0000 0.14698  0.33340  0.37510  Biso   1.000  C
  H626     1.0000 0.15267  0.33649  0.31091  Biso   1.000  H
  H627     1.0000 0.24010  0.34732  0.33179  Biso   1.000  H
  C477     1.0000 0.14704  0.33340  0.37510  Biso   1.000  C
  H628     1.0000 0.15273  0.33649  0.31091  Biso   1.000  H
  H629     1.0000 0.24007  0.34725  0.33179  Biso   1.000  H
  C478     1.0000 0.21350  0.38381  0.40982  Biso   1.000  C
  N91      1.0000 0.12652  0.24132  0.37982  Biso   1.000  N
  C479     1.0000 0.07122  0.35093  0.37780  Biso   1.000  C
  N92      1.0000 0.12648  0.24126  0.37982  Biso   1.000  N
  C480     1.0000 0.07119  0.35086  0.37780  Biso   1.000  C
  H630     1.0000 0.23659  0.44760  0.40640  Biso   1.000  H
  N93      1.0000 0.17187  0.35578  0.45011  Biso   1.000  N
  H631     1.0000 0.26341  0.37291  0.40789  Biso   1.000  H
  N94      1.0000 0.17192  0.35578  0.45011  Biso   1.000  N
  H632     1.0000 0.26338  0.37285  0.40789  Biso   1.000  H
  C481     1.0000 0.04903  0.18173  0.38680  Biso   1.000  C
  C482     1.0000 0.04900  0.18166  0.38680  Biso   1.000  C
  C483     1.0000 0.04898  0.18173  0.38680  Biso   1.000  C
  H633     1.0000 0.09200  0.41249  0.37091  Biso   1.000  H
  H634     1.0000 0.04748  0.33892  0.40600  Biso   1.000  H
  H635     1.0000 0.02534  0.31293  0.35819  Biso   1.000  H
  H636     1.0000 0.04751  0.33885  0.40600  Biso   1.000  H
  H637     1.0000 0.02531  0.31286  0.35819  Biso   1.000  H
  H638     1.0000 0.02528  0.31293  0.35819  Biso   1.000  H
  H639     1.0000 0.04745  0.33885  0.40600  Biso   1.000  H
  H640     1.0000 0.02525  0.31286  0.35819  Biso   1.000  H
  C484     1.0000 0.20996  0.33058  0.47590  Biso   1.000  C
  C485     1.0000 0.21002  0.33058  0.47590  Biso   1.000  C
  H641     1.0000 0.00479  0.19702  0.39040  Biso   1.000  H
  C486     1.0000 0.02520  0.08893  0.38962  Biso   1.000  C
  H642     1.0000 0.00481  0.19696  0.39040  Biso   1.000  H
  C487     1.0000 0.02516  0.08886  0.38962  Biso   1.000  C
  H643     1.0000 0.00475  0.19696  0.39040  Biso   1.000  H
  C488     1.0000 0.17369  0.29987  0.51812  Biso   1.000  C
  H644     1.0000 0.26258  0.33156  0.46802  Biso   1.000  H
  C489     1.0000 0.93728  0.02540  0.38950  Biso   1.000  C
  C490     1.0000 0.93733  0.02540  0.38950  Biso   1.000  C
  C491     1.0000 0.08806  0.06268  0.38950  Biso   1.000  C
  C492     1.0000 0.08812  0.06268  0.38950  Biso   1.000  C
  C493     1.0000 0.21912  0.27762  0.54619  Biso   1.000  C
  C494     1.0000 0.09358  0.29402  0.53031  Biso   1.000  C
  C495     1.0000 0.21909  0.27755  0.54619  Biso   1.000  C
  C496     1.0000 0.09361  0.29396  0.53031  Biso   1.000  C
  C497     1.0000 0.09355  0.29396  0.53031  Biso   1.000  C
  C498     1.0000 0.91107  0.93627  0.38962  Biso   1.000  C
  H645     1.0000 0.89399  0.04273  0.38931  Biso   1.000  H
  H646     1.0000 0.89401  0.04266  0.38931  Biso   1.000  H
  H647     1.0000 0.89396  0.04266  0.38931  Biso   1.000  H
  H648     1.0000 0.14871  0.10599  0.38931  Biso   1.000  H
  C499     1.0000 0.06367  0.97480  0.38962  Biso   1.000  C
  C500     1.0000 0.06373  0.97480  0.38962  Biso   1.000  C
  C501     1.0000 0.18814  0.24953  0.58550  Biso   1.000  C
  H649     1.0000 0.27292  0.28188  0.53800  Biso   1.000  H
  C502     1.0000 0.18810  0.24946  0.58550  Biso   1.000  C
  C503     1.0000 0.18808  0.24953  0.58550  Biso   1.000  C
  H650     1.0000 0.27286  0.28188  0.53800  Biso   1.000  H
  C504     1.0000 0.18805  0.24946  0.58550  Biso   1.000  C
  H651     1.0000 0.06200  0.30951  0.51142  Biso   1.000  H
  C505     1.0000 0.06173  0.26521  0.57002  Biso   1.000  C
  H652     1.0000 0.06196  0.30945  0.51142  Biso   1.000  H
  C506     1.0000 0.06170  0.26515  0.57002  Biso   1.000  C
  C507     1.0000 0.06167  0.26521  0.57002  Biso   1.000  C
  C508     1.0000 0.06164  0.26515  0.57002  Biso   1.000  C
  C509     1.0000 0.81832  0.86730  0.38680  Biso   1.000  C
  C510     1.0000 0.97460  0.91192  0.38950  Biso   1.000  C
  C511     1.0000 0.97457  0.91186  0.38950  Biso   1.000  C
  C512     1.0000 0.81827  0.86730  0.38680  Biso   1.000  C
  C513     1.0000 0.13270  0.95097  0.38680  Biso   1.000  C
  C514     1.0000 0.23938  0.22708  0.61612  Biso   1.000  C
  C515     1.0000 0.11001  0.24388  0.59772  Biso   1.000  C
  C516     1.0000 0.97782  0.26029  0.58091  Biso   1.000  C
  C517     1.0000 0.97776  0.26029  0.58091  Biso   1.000  C
  N95      1.0000 0.75874  0.88521  0.37982  Biso   1.000  N
  H653     1.0000 0.80303  0.80783  0.39040  Biso   1.000  H
  H654     1.0000 0.80300  0.80777  0.39040  Biso   1.000  H
  N96      1.0000 0.75868  0.88521  0.37982  Biso   1.000  N
  H655     1.0000 0.95730  0.85128  0.38931  Biso   1.000  H
  N97      1.0000 0.11484  0.87353  0.37982  Biso   1.000  N
  H656     1.0000 0.19222  0.99521  0.39040  Biso   1.000  H
  N98      1.0000 0.11480  0.87346  0.37982  Biso   1.000  N
  N99      1.0000 0.11478  0.87353  0.37982  Biso   1.000  N
  N100     1.0000 0.11475  0.87346  0.37982  Biso   1.000  N
  N101     1.0000 0.30849  0.22957  0.60632  Biso   1.000  N
  H657     1.0000 0.21788  0.21067  0.64351  Biso   1.000  H
  H658     1.0000 0.08870  0.22537  0.62512  Biso   1.000  H
  N102     1.0000 0.94240  0.23207  0.61451  Biso   1.000  N
  H659     1.0000 0.95060  0.27952  0.56130  Biso   1.000  H
  H660     1.0000 0.95057  0.27945  0.56130  Biso   1.000  H
  C518     1.0000 0.66661  0.81361  0.37510  Biso   1.000  C
  C519     1.0000 0.18641  0.85299  0.37510  Biso   1.000  C
  C520     1.0000 0.18636  0.85299  0.37510  Biso   1.000  C
  C521     1.0000 0.35347  0.20779  0.63870  Biso   1.000  C
  C522     1.0000 0.35352  0.20779  0.63870  Biso   1.000  C
  C523     1.0000 0.86182  0.23358  0.62291  Biso   1.000  C
  C524     1.0000 0.86176  0.23358  0.62291  Biso   1.000  C
  C525     1.0000 0.61622  0.82969  0.40982  Biso   1.000  C
  C526     1.0000 0.64910  0.72028  0.37780  Biso   1.000  C
  C527     1.0000 0.63599  0.83080  0.33359  Biso   1.000  C
  C528     1.0000 0.61616  0.82969  0.40982  Biso   1.000  C
  C529     1.0000 0.17028  0.78650  0.40982  Biso   1.000  C
  C530     1.0000 0.27967  0.92879  0.37780  Biso   1.000  C
  C531     1.0000 0.16923  0.80521  0.33359  Biso   1.000  C
  C532     1.0000 0.16917  0.80521  0.33359  Biso   1.000  C
  C533     1.0000 0.32538  0.17878  0.67882  Biso   1.000  C
  C534     1.0000 0.37183  0.13822  0.62291  Biso   1.000  C
  C535     1.0000 0.45708  0.28792  0.63920  Biso   1.000  C
  C536     1.0000 0.37179  0.13815  0.62291  Biso   1.000  C
  C537     1.0000 0.45710  0.28785  0.63920  Biso   1.000  C
  C538     1.0000 0.37177  0.13822  0.62291  Biso   1.000  C
  C539     1.0000 0.45705  0.28785  0.63920  Biso   1.000  C
  H661     1.0000 0.31617  0.18639  0.66380  Biso   1.000  H
  H662     1.0000 0.40929  0.26088  0.64631  Biso   1.000  H
  H663     1.0000 0.84123  0.24821  0.59710  Biso   1.000  H
  H664     1.0000 0.87321  0.27932  0.64382  Biso   1.000  H
  C540     1.0000 0.79219  0.14570  0.63870  Biso   1.000  C
  H665     1.0000 0.84119  0.24815  0.59710  Biso   1.000  H
  H666     1.0000 0.87317  0.27926  0.64382  Biso   1.000  H
  C541     1.0000 0.86200  0.26600  0.66880  Biso   1.000  C
  C542     1.0000 0.80682  0.24191  0.59899  Biso   1.000  C
  N103     1.0000 0.64421  0.81610  0.45011  Biso   1.000  N
  H667     1.0000 0.62714  0.89053  0.40789  Biso   1.000  H
  H668     1.0000 0.55239  0.78900  0.40640  Biso   1.000  H
  H669     1.0000 0.62711  0.89046  0.40789  Biso   1.000  H
  H670     1.0000 0.62709  0.89053  0.40789  Biso   1.000  H
  H671     1.0000 0.62705  0.89046  0.40789  Biso   1.000  H
  H672     1.0000 0.66111  0.70860  0.40600  Biso   1.000  H
  H673     1.0000 0.68711  0.71241  0.35819  Biso   1.000  H
  H674     1.0000 0.58752  0.67953  0.37091  Biso   1.000  H
  H675     1.0000 0.58749  0.67946  0.37091  Biso   1.000  H
  H676     1.0000 0.66351  0.81617  0.31091  Biso   1.000  H
  H677     1.0000 0.65273  0.89283  0.33179  Biso   1.000  H
  H678     1.0000 0.57199  0.79431  0.33151  Biso   1.000  H
  H679     1.0000 0.65270  0.89276  0.33179  Biso   1.000  H
  H680     1.0000 0.57196  0.79425  0.33151  Biso   1.000  H
  H681     1.0000 0.66346  0.81617  0.31091  Biso   1.000  H
  N104     1.0000 0.18392  0.82811  0.45011  Biso   1.000  N
  H682     1.0000 0.10953  0.73663  0.40789  Biso   1.000  H
  H683     1.0000 0.21102  0.76340  0.40640  Biso   1.000  H
  N105     1.0000 0.18389  0.82805  0.45011  Biso   1.000  N
  H684     1.0000 0.10950  0.73656  0.40789  Biso   1.000  H
  N106     1.0000 0.18386  0.82811  0.45011  Biso   1.000  N
  H685     1.0000 0.10947  0.73663  0.40789  Biso   1.000  H
  H686     1.0000 0.21096  0.76340  0.40640  Biso   1.000  H
  H687     1.0000 0.29141  0.95248  0.40600  Biso   1.000  H
  H688     1.0000 0.28764  0.97473  0.35819  Biso   1.000  H
  H689     1.0000 0.32048  0.90799  0.37091  Biso   1.000  H
  H690     1.0000 0.28761  0.97467  0.35819  Biso   1.000  H
  H691     1.0000 0.29135  0.95248  0.40600  Biso   1.000  H
  H692     1.0000 0.28758  0.97473  0.35819  Biso   1.000  H
  H693     1.0000 0.28755  0.97467  0.35819  Biso   1.000  H
  H694     1.0000 0.18378  0.84728  0.31091  Biso   1.000  H
  H695     1.0000 0.10720  0.75992  0.33179  Biso   1.000  H
  H696     1.0000 0.20572  0.77771  0.33151  Biso   1.000  H
  H697     1.0000 0.10717  0.75986  0.33179  Biso   1.000  H
  H698     1.0000 0.20567  0.77771  0.33151  Biso   1.000  H
  H699     1.0000 0.27402  0.11971  0.67801  Biso   1.000  H
  H700     1.0000 0.30979  0.21888  0.69250  Biso   1.000  H
  H701     1.0000 0.37270  0.17760  0.69430  Biso   1.000  H
  H702     1.0000 0.40607  0.12680  0.64382  Biso   1.000  H
  N107     1.0000 0.28970  0.05762  0.61451  Biso   1.000  N
  H703     1.0000 0.40702  0.15883  0.59710  Biso   1.000  H
  N108     1.0000 0.28966  0.05756  0.61451  Biso   1.000  N
  H704     1.0000 0.40699  0.15876  0.59710  Biso   1.000  H
  C543     1.0000 0.40401  0.13802  0.66880  Biso   1.000  C
  C544     1.0000 0.43513  0.19322  0.59899  Biso   1.000  C
  H705     1.0000 0.46101  0.33990  0.65242  Biso   1.000  H
  H706     1.0000 0.47901  0.30223  0.61060  Biso   1.000  H
  H707     1.0000 0.49256  0.26908  0.65481  Biso   1.000  H
  H708     1.0000 0.47898  0.30216  0.61060  Biso   1.000  H
  H709     1.0000 0.49262  0.26908  0.65481  Biso   1.000  H
  H710     1.0000 0.46096  0.33990  0.65242  Biso   1.000  H
  N109     1.0000 0.77037  0.07889  0.60632  Biso   1.000  N
  C545     1.0000 0.82123  0.14662  0.67882  Biso   1.000  C
  C546     1.0000 0.71208  0.16920  0.63920  Biso   1.000  C
  C547     1.0000 0.82120  0.14655  0.67882  Biso   1.000  C
  C548     1.0000 0.82118  0.14662  0.67882  Biso   1.000  C
  H711     1.0000 0.81357  0.12982  0.66380  Biso   1.000  H
  H712     1.0000 0.73908  0.14839  0.64631  Biso   1.000  H
  H713     1.0000 0.90880  0.32789  0.67150  Biso   1.000  H
  H714     1.0000 0.87360  0.23043  0.68840  Biso   1.000  H
  H715     1.0000 0.80561  0.26121  0.67500  Biso   1.000  H
  H716     1.0000 0.77572  0.18961  0.58150  Biso   1.000  H
  H717     1.0000 0.83889  0.29389  0.58140  Biso   1.000  H
  H718     1.0000 0.76431  0.24841  0.61612  Biso   1.000  H
  C549     1.0000 0.66937  0.87937  0.47590  Biso   1.000  C
  C550     1.0000 0.12058  0.78998  0.47590  Biso   1.000  C
  C551     1.0000 0.28249  0.02218  0.58091  Biso   1.000  C
  H719     1.0000 0.41909  0.09123  0.67150  Biso   1.000  H
  H720     1.0000 0.35682  0.12640  0.68840  Biso   1.000  H
  H721     1.0000 0.45562  0.19440  0.67500  Biso   1.000  H
  H722     1.0000 0.41391  0.22432  0.58150  Biso   1.000  H
  H723     1.0000 0.45501  0.16112  0.58140  Biso   1.000  H
  H724     1.0000 0.48410  0.23568  0.61612  Biso   1.000  H
  C552     1.0000 0.77288  0.01227  0.61612  Biso   1.000  C
  H725     1.0000 0.88032  0.15430  0.67801  Biso   1.000  H
  H726     1.0000 0.78110  0.09090  0.69250  Biso   1.000  H
  H727     1.0000 0.82241  0.19512  0.69430  Biso   1.000  H
  H728     1.0000 0.82238  0.19505  0.69430  Biso   1.000  H
  H729     1.0000 0.88026  0.15430  0.67801  Biso   1.000  H
  H730     1.0000 0.66012  0.12109  0.65242  Biso   1.000  H
  H731     1.0000 0.69782  0.17681  0.61060  Biso   1.000  H
  H732     1.0000 0.73087  0.22347  0.65481  Biso   1.000  H
  H733     1.0000 0.73092  0.22347  0.65481  Biso   1.000  H
  H734     1.0000 0.66007  0.12109  0.65242  Biso   1.000  H
  C553     1.0000 0.70011  0.87379  0.51812  Biso   1.000  C
  H735     1.0000 0.66842  0.93102  0.46802  Biso   1.000  H
  H736     1.0000 0.66839  0.93096  0.46802  Biso   1.000  H
  C554     1.0000 0.12617  0.82628  0.51812  Biso   1.000  C
  H737     1.0000 0.06900  0.73741  0.46802  Biso   1.000  H
  C555     1.0000 0.20349  0.93831  0.57002  Biso   1.000  C
  H738     1.0000 0.32890  0.04942  0.56130  Biso   1.000  H
  H739     1.0000 0.32887  0.04935  0.56130  Biso   1.000  H
  C556     1.0000 0.75046  0.93857  0.58550  Biso   1.000  C
  C557     1.0000 0.75052  0.93857  0.58550  Biso   1.000  C
  H740     1.0000 0.78933  0.00722  0.64351  Biso   1.000  H
  H741     1.0000 0.78930  0.00715  0.64351  Biso   1.000  H
  H742     1.0000 0.78928  0.00722  0.64351  Biso   1.000  H
  C558     1.0000 0.72244  0.94152  0.54619  Biso   1.000  C
  C559     1.0000 0.70600  0.79963  0.53031  Biso   1.000  C
  C560     1.0000 0.72241  0.94146  0.54619  Biso   1.000  C
  C561     1.0000 0.70597  0.79956  0.53031  Biso   1.000  C
  C562     1.0000 0.72238  0.94152  0.54619  Biso   1.000  C
  C563     1.0000 0.72235  0.94146  0.54619  Biso   1.000  C
  C564     1.0000 0.05853  0.78093  0.54619  Biso   1.000  C
  C565     1.0000 0.20039  0.90641  0.53031  Biso   1.000  C
  C566     1.0000 0.05850  0.78086  0.54619  Biso   1.000  C
  C567     1.0000 0.05847  0.78093  0.54619  Biso   1.000  C
  C568     1.0000 0.13387  0.89000  0.59772  Biso   1.000  C
  C569     1.0000 0.13393  0.89000  0.59772  Biso   1.000  C
  C570     1.0000 0.75612  0.86611  0.59772  Biso   1.000  C
  C571     1.0000 0.75609  0.86605  0.59772  Biso   1.000  C
  H743     1.0000 0.71808  0.99101  0.53800  Biso   1.000  H
  H744     1.0000 0.71814  0.99101  0.53800  Biso   1.000  H
  H745     1.0000 0.69051  0.75251  0.51142  Biso   1.000  H
  C572     1.0000 0.73478  0.79648  0.57002  Biso   1.000  C
  C573     1.0000 0.06140  0.81190  0.58550  Biso   1.000  C
  H746     1.0000 0.00900  0.72711  0.53800  Biso   1.000  H
  H747     1.0000 0.24749  0.93798  0.51142  Biso   1.000  H
  H748     1.0000 0.13669  0.91133  0.62512  Biso   1.000  H
  H749     1.0000 0.13666  0.91127  0.62512  Biso   1.000  H
  H750     1.0000 0.77460  0.86329  0.62512  Biso   1.000  H
  C574     1.0000 0.73969  0.71753  0.58091  Biso   1.000  C
  C575     1.0000 0.73971  0.71746  0.58091  Biso   1.000  C
  C576     1.0000 0.73966  0.71746  0.58091  Biso   1.000  C
  C577     1.0000 0.98771  0.76058  0.61612  Biso   1.000  C
  C578     1.0000 0.98766  0.76058  0.61612  Biso   1.000  C
  N110     1.0000 0.76791  0.71031  0.61451  Biso   1.000  N
  H751     1.0000 0.72052  0.67113  0.56130  Biso   1.000  H
  H752     1.0000 0.72049  0.67106  0.56130  Biso   1.000  H
  N111     1.0000 0.92110  0.69147  0.60632  Biso   1.000  N
  H753     1.0000 0.99279  0.78211  0.64351  Biso   1.000  H
  N112     1.0000 0.92105  0.69147  0.60632  Biso   1.000  N
  C579     1.0000 0.76642  0.62820  0.62291  Biso   1.000  C
  C580     1.0000 0.85429  0.64651  0.63870  Biso   1.000  C
  H754     1.0000 0.75184  0.59303  0.59710  Biso   1.000  H
  H755     1.0000 0.72066  0.59388  0.64382  Biso   1.000  H
  H756     1.0000 0.75181  0.59296  0.59710  Biso   1.000  H
  H757     1.0000 0.72072  0.59388  0.64382  Biso   1.000  H
  H758     1.0000 0.75178  0.59303  0.59710  Biso   1.000  H
  H759     1.0000 0.75175  0.59296  0.59710  Biso   1.000  H
  C581     1.0000 0.73399  0.59598  0.66880  Biso   1.000  C
  C582     1.0000 0.75805  0.56487  0.59899  Biso   1.000  C
  C583     1.0000 0.85339  0.67460  0.67882  Biso   1.000  C
  C584     1.0000 0.83078  0.54288  0.63920  Biso   1.000  C
  H760     1.0000 0.87020  0.68379  0.66380  Biso   1.000  H
  H761     1.0000 0.85160  0.59066  0.64631  Biso   1.000  H
  H762     1.0000 0.67211  0.58088  0.67150  Biso   1.000  H
  H763     1.0000 0.76958  0.64317  0.68840  Biso   1.000  H
  H764     1.0000 0.73878  0.54439  0.67500  Biso   1.000  H
  H765     1.0000 0.81037  0.58607  0.58150  Biso   1.000  H
  H766     1.0000 0.70611  0.54498  0.58140  Biso   1.000  H
  H767     1.0000 0.75159  0.51591  0.61612  Biso   1.000  H
  H768     1.0000 0.84572  0.72599  0.67801  Biso   1.000  H
  H769     1.0000 0.90911  0.69022  0.69250  Biso   1.000  H
  H770     1.0000 0.80489  0.62729  0.69430  Biso   1.000  H
  H771     1.0000 0.90908  0.69016  0.69250  Biso   1.000  H
  H772     1.0000 0.84566  0.72599  0.67801  Biso   1.000  H
  H773     1.0000 0.87892  0.53901  0.65242  Biso   1.000  H
  H774     1.0000 0.82321  0.52103  0.61060  Biso   1.000  H
  H775     1.0000 0.77648  0.50738  0.65481  Biso   1.000  H
  H776     1.0000 0.82317  0.52096  0.61060  Biso   1.000  H
  C585     1.0000 0.67459  0.82117  0.17882  Biso   1.000  C
  C586     1.0000 0.64654  0.79222  0.13870  Biso   1.000  C
  C587     1.0000 0.64651  0.79216  0.13870  Biso   1.000  C
  C588     1.0000 0.64648  0.79222  0.13870  Biso   1.000  C
  C589     1.0000 0.64645  0.79216  0.13870  Biso   1.000  C
  H777     1.0000 0.68378  0.81362  0.16380  Biso   1.000  H
  H778     1.0000 0.72599  0.88030  0.17801  Biso   1.000  H
  H779     1.0000 0.69021  0.78113  0.19250  Biso   1.000  H
  H780     1.0000 0.62730  0.82241  0.19430  Biso   1.000  H
  H781     1.0000 0.69018  0.78107  0.19250  Biso   1.000  H
  C590     1.0000 0.54287  0.71209  0.13920  Biso   1.000  C
  H782     1.0000 0.59069  0.73906  0.14631  Biso   1.000  H
  N113     1.0000 0.69151  0.77043  0.10632  Biso   1.000  N
  C591     1.0000 0.62818  0.86179  0.12291  Biso   1.000  C
  C592     1.0000 0.67463  0.82123  0.17882  Biso   1.000  C
  C593     1.0000 0.54293  0.71209  0.13920  Biso   1.000  C
  N114     1.0000 0.69148  0.77037  0.10632  Biso   1.000  N
  H783     1.0000 0.53899  0.66011  0.15242  Biso   1.000  H
  H784     1.0000 0.52100  0.69778  0.11060  Biso   1.000  H
  H785     1.0000 0.50744  0.73093  0.15481  Biso   1.000  H
  H786     1.0000 0.50741  0.73086  0.15481  Biso   1.000  H
  H787     1.0000 0.50739  0.73093  0.15481  Biso   1.000  H
  H788     1.0000 0.50735  0.73086  0.15481  Biso   1.000  H
  C594     1.0000 0.76063  0.77293  0.11609  Biso   1.000  C
  C595     1.0000 0.76059  0.77286  0.11609  Biso   1.000  C
  N115     1.0000 0.71031  0.94239  0.11451  Biso   1.000  N
  H789     1.0000 0.59298  0.84118  0.09710  Biso   1.000  H
  H790     1.0000 0.59393  0.87321  0.14379  Biso   1.000  H
  H791     1.0000 0.59388  0.87321  0.14379  Biso   1.000  H
  C596     1.0000 0.59599  0.86199  0.16880  Biso   1.000  C
  C597     1.0000 0.56487  0.80679  0.09899  Biso   1.000  C
  H792     1.0000 0.78213  0.78934  0.14351  Biso   1.000  H
  C598     1.0000 0.81187  0.75048  0.08550  Biso   1.000  C
  H793     1.0000 0.78210  0.78927  0.14351  Biso   1.000  H
  C599     1.0000 0.81192  0.75048  0.08550  Biso   1.000  C
  C600     1.0000 0.71751  0.97783  0.08091  Biso   1.000  C
  C601     1.0000 0.71748  0.97776  0.08091  Biso   1.000  C
  H794     1.0000 0.58091  0.90878  0.17150  Biso   1.000  H
  H795     1.0000 0.64318  0.87361  0.18840  Biso   1.000  H
  H796     1.0000 0.54439  0.80561  0.17500  Biso   1.000  H
  H797     1.0000 0.58609  0.77569  0.08150  Biso   1.000  H
  H798     1.0000 0.54500  0.83889  0.08140  Biso   1.000  H
  H799     1.0000 0.51587  0.76427  0.11609  Biso   1.000  H
  C602     1.0000 0.78089  0.72239  0.04619  Biso   1.000  C
  C603     1.0000 0.89000  0.75613  0.09769  Biso   1.000  C
  C604     1.0000 0.88997  0.75606  0.09769  Biso   1.000  C
  H800     1.0000 0.67110  0.95059  0.06130  Biso   1.000  H
  C605     1.0000 0.79651  0.06170  0.06999  Biso   1.000  C
  H801     1.0000 0.72709  0.71813  0.03800  Biso   1.000  H
  C606     1.0000 0.82631  0.70014  0.01809  Biso   1.000  C
  H802     1.0000 0.72711  0.71806  0.03800  Biso   1.000  H
  C607     1.0000 0.82628  0.70008  0.01809  Biso   1.000  C
  H803     1.0000 0.72705  0.71806  0.03800  Biso   1.000  H
  C608     1.0000 0.93828  0.73480  0.06999  Biso   1.000  C
  H804     1.0000 0.91130  0.77464  0.12512  Biso   1.000  H
  C609     1.0000 0.93833  0.73480  0.06999  Biso   1.000  C
  H805     1.0000 0.91127  0.77457  0.12512  Biso   1.000  H
  C610     1.0000 0.79961  0.09360  0.03031  Biso   1.000  C
  C611     1.0000 0.86613  0.11001  0.09769  Biso   1.000  C
  C612     1.0000 0.86608  0.11001  0.09769  Biso   1.000  C
  C613     1.0000 0.90642  0.70599  0.03031  Biso   1.000  C
  C614     1.0000 0.90636  0.70599  0.03031  Biso   1.000  C
  C615     1.0000 0.79004  0.66943  0.97590  Biso   1.000  C
  C616     1.0000 0.79001  0.66936  0.97590  Biso   1.000  C
  C617     1.0000 0.78998  0.66943  0.97590  Biso   1.000  C
  C618     1.0000 0.78995  0.66936  0.97590  Biso   1.000  C
  C619     1.0000 0.02218  0.73972  0.08091  Biso   1.000  C
  C620     1.0000 0.02224  0.73972  0.08091  Biso   1.000  C
  C621     1.0000 0.87384  0.17373  0.01809  Biso   1.000  C
  H806     1.0000 0.75251  0.06203  0.01139  Biso   1.000  H
  C622     1.0000 0.87381  0.17367  0.01809  Biso   1.000  C
  H807     1.0000 0.75248  0.06196  0.01139  Biso   1.000  H
  C623     1.0000 0.87378  0.17373  0.01809  Biso   1.000  C
  C624     1.0000 0.93860  0.18811  0.08550  Biso   1.000  C
  H808     1.0000 0.86331  0.08868  0.12512  Biso   1.000  H
  H809     1.0000 0.86325  0.08868  0.12512  Biso   1.000  H
  H810     1.0000 0.93801  0.69050  0.01139  Biso   1.000  H
  N116     1.0000 0.82814  0.64423  0.95011  Biso   1.000  N
  H811     1.0000 0.73743  0.66845  0.96798  Biso   1.000  H
  N117     1.0000 0.82811  0.64416  0.95011  Biso   1.000  N
  H812     1.0000 0.73740  0.66838  0.96798  Biso   1.000  H
  N118     1.0000 0.82808  0.64423  0.95011  Biso   1.000  N
  N119     1.0000 0.82805  0.64416  0.95011  Biso   1.000  N
  N120     1.0000 0.05761  0.76794  0.11451  Biso   1.000  N
  H813     1.0000 0.04940  0.72049  0.06130  Biso   1.000  H
  N121     1.0000 0.05758  0.76788  0.11451  Biso   1.000  N
  C625     1.0000 0.87943  0.21003  0.97590  Biso   1.000  C
  C626     1.0000 0.87939  0.20996  0.97590  Biso   1.000  C
  C627     1.0000 0.94147  0.21908  0.04619  Biso   1.000  C
  C628     1.0000 0.01229  0.23943  0.11609  Biso   1.000  C
  C629     1.0000 0.01232  0.23936  0.11609  Biso   1.000  C
  C630     1.0000 0.01226  0.23936  0.11609  Biso   1.000  C
  C631     1.0000 0.78650  0.61620  0.90978  Biso   1.000  C
  C632     1.0000 0.13819  0.76643  0.12291  Biso   1.000  C
  C633     1.0000 0.13821  0.76637  0.12291  Biso   1.000  C
  C634     1.0000 0.13816  0.76637  0.12291  Biso   1.000  C
  N122     1.0000 0.81608  0.17190  0.95011  Biso   1.000  N
  H814     1.0000 0.93100  0.26260  0.96798  Biso   1.000  H
  H815     1.0000 0.99100  0.27290  0.03800  Biso   1.000  H
  N123     1.0000 0.07890  0.30854  0.10632  Biso   1.000  N
  H816     1.0000 0.00721  0.21790  0.14351  Biso   1.000  H
  N124     1.0000 0.07887  0.30847  0.10632  Biso   1.000  N
  H817     1.0000 0.73659  0.62710  0.90789  Biso   1.000  H
  H818     1.0000 0.76342  0.55241  0.90640  Biso   1.000  H
  C635     1.0000 0.85303  0.66661  0.87510  Biso   1.000  C
  C636     1.0000 0.85297  0.66661  0.87510  Biso   1.000  C
  H819     1.0000 0.15878  0.75180  0.09710  Biso   1.000  H
  H820     1.0000 0.12680  0.72069  0.14379  Biso   1.000  H
  C637     1.0000 0.20782  0.85431  0.13870  Biso   1.000  C
  C638     1.0000 0.20776  0.85431  0.13870  Biso   1.000  C
  C639     1.0000 0.13801  0.73401  0.16880  Biso   1.000  C
  C640     1.0000 0.19319  0.75810  0.09899  Biso   1.000  C
  C641     1.0000 0.82973  0.21351  0.90978  Biso   1.000  C
  C642     1.0000 0.82967  0.21351  0.90978  Biso   1.000  C
  C643     1.0000 0.14571  0.35349  0.13870  Biso   1.000  C
  N125     1.0000 0.87349  0.75869  0.87979  Biso   1.000  N
  C644     1.0000 0.92878  0.64908  0.87780  Biso   1.000  C
  C645     1.0000 0.80522  0.63602  0.83359  Biso   1.000  C
  N126     1.0000 0.22963  0.92112  0.10632  Biso   1.000  N
  C646     1.0000 0.17877  0.85339  0.17882  Biso   1.000  C
  C647     1.0000 0.28792  0.83081  0.13920  Biso   1.000  C
  N127     1.0000 0.22957  0.92112  0.10632  Biso   1.000  N
  C648     1.0000 0.28786  0.83081  0.13920  Biso   1.000  C
  H821     1.0000 0.18638  0.87019  0.16380  Biso   1.000  H
  H822     1.0000 0.26092  0.85162  0.14631  Biso   1.000  H
  H823     1.0000 0.09120  0.67212  0.17150  Biso   1.000  H
  H824     1.0000 0.12641  0.76958  0.18840  Biso   1.000  H
  H825     1.0000 0.19440  0.73880  0.17500  Biso   1.000  H
  H826     1.0000 0.22429  0.81040  0.08150  Biso   1.000  H
  H827     1.0000 0.16112  0.70612  0.08140  Biso   1.000  H
  H828     1.0000 0.23569  0.75160  0.11609  Biso   1.000  H
  H829     1.0000 0.89047  0.26338  0.90789  Biso   1.000  H
  H830     1.0000 0.78899  0.23661  0.90640  Biso   1.000  H
  C649     1.0000 0.81359  0.14702  0.87510  Biso   1.000  C
  C650     1.0000 0.81356  0.14696  0.87510  Biso   1.000  C
  C651     1.0000 0.23359  0.37181  0.12291  Biso   1.000  C
  C652     1.0000 0.14662  0.32541  0.17882  Biso   1.000  C
  C653     1.0000 0.16922  0.45713  0.13920  Biso   1.000  C
  C654     1.0000 0.16919  0.45706  0.13920  Biso   1.000  C
  H831     1.0000 0.12980  0.31622  0.16380  Biso   1.000  H
  H832     1.0000 0.14837  0.40928  0.14631  Biso   1.000  H
  C655     1.0000 0.95097  0.81828  0.88680  Biso   1.000  C
  H833     1.0000 0.95252  0.66109  0.90600  Biso   1.000  H
  H834     1.0000 0.97467  0.68708  0.85819  Biso   1.000  H
  H835     1.0000 0.90800  0.58752  0.87091  Biso   1.000  H
  H836     1.0000 0.97472  0.68708  0.85819  Biso   1.000  H
  H837     1.0000 0.95246  0.66109  0.90600  Biso   1.000  H
  H838     1.0000 0.84733  0.66352  0.81088  Biso   1.000  H
  H839     1.0000 0.75990  0.65269  0.83179  Biso   1.000  H
  H840     1.0000 0.77772  0.57203  0.83151  Biso   1.000  H
  H841     1.0000 0.77769  0.57197  0.83151  Biso   1.000  H
  H842     1.0000 0.84728  0.66352  0.81088  Biso   1.000  H
  C656     1.0000 0.22713  0.98774  0.11609  Biso   1.000  C
  C657     1.0000 0.22710  0.98767  0.11609  Biso   1.000  C
  H843     1.0000 0.11968  0.84571  0.17801  Biso   1.000  H
  H844     1.0000 0.21891  0.90911  0.19250  Biso   1.000  H
  H845     1.0000 0.17760  0.80489  0.19430  Biso   1.000  H
  H846     1.0000 0.33988  0.87892  0.15242  Biso   1.000  H
  H847     1.0000 0.30219  0.82320  0.11060  Biso   1.000  H
  H848     1.0000 0.26914  0.77654  0.15481  Biso   1.000  H
  H849     1.0000 0.33994  0.87892  0.15242  Biso   1.000  H
  H850     1.0000 0.26910  0.77647  0.15481  Biso   1.000  H
  H851     1.0000 0.26908  0.77654  0.15481  Biso   1.000  H
  H852     1.0000 0.26905  0.77647  0.15481  Biso   1.000  H
  N128     1.0000 0.88517  0.12648  0.87979  Biso   1.000  N
  C658     1.0000 0.72033  0.07122  0.87780  Biso   1.000  C
  C659     1.0000 0.83078  0.19480  0.83359  Biso   1.000  C
  N129     1.0000 0.88522  0.12648  0.87979  Biso   1.000  N
  C660     1.0000 0.83083  0.19480  0.83359  Biso   1.000  C
  C661     1.0000 0.72027  0.07122  0.87780  Biso   1.000  C
  N130     1.0000 0.23210  0.28970  0.11451  Biso   1.000  N
  H853     1.0000 0.24817  0.40698  0.09710  Biso   1.000  H
  H854     1.0000 0.27934  0.40613  0.14379  Biso   1.000  H
  H855     1.0000 0.24822  0.40698  0.09710  Biso   1.000  H
  H856     1.0000 0.27931  0.40606  0.14379  Biso   1.000  H
  H857     1.0000 0.27928  0.40613  0.14379  Biso   1.000  H
  H858     1.0000 0.27925  0.40606  0.14379  Biso   1.000  H
  C662     1.0000 0.26601  0.40403  0.16880  Biso   1.000  C
  C663     1.0000 0.24186  0.43507  0.09899  Biso   1.000  C
  H859     1.0000 0.15429  0.27402  0.17801  Biso   1.000  H
  H860     1.0000 0.09089  0.30979  0.19250  Biso   1.000  H
  H861     1.0000 0.19512  0.37272  0.19430  Biso   1.000  H
  H862     1.0000 0.19508  0.37266  0.19430  Biso   1.000  H
  H863     1.0000 0.12109  0.46100  0.15242  Biso   1.000  H
  H864     1.0000 0.17680  0.47898  0.11060  Biso   1.000  H
  H865     1.0000 0.22352  0.49263  0.15481  Biso   1.000  H
  H866     1.0000 0.22349  0.49257  0.15481  Biso   1.000  H
  H867     1.0000 0.99522  0.80299  0.89040  Biso   1.000  H
  C664     1.0000 0.97481  0.91108  0.88959  Biso   1.000  C
  H868     1.0000 0.99516  0.80299  0.89040  Biso   1.000  H
  C665     1.0000 0.97475  0.91108  0.88959  Biso   1.000  C
  H869     1.0000 0.21067  0.99279  0.14351  Biso   1.000  H
  C666     1.0000 0.24954  0.06144  0.08550  Biso   1.000  C
  C667     1.0000 0.24951  0.06137  0.08550  Biso   1.000  C
  C668     1.0000 0.24949  0.06144  0.08550  Biso   1.000  C
  C669     1.0000 0.24945  0.06137  0.08550  Biso   1.000  C
  C670     1.0000 0.86731  0.04904  0.88680  Biso   1.000  C
  C671     1.0000 0.86727  0.04897  0.88680  Biso   1.000  C
  H870     1.0000 0.70860  0.04753  0.90600  Biso   1.000  H
  H871     1.0000 0.71237  0.02528  0.85819  Biso   1.000  H
  H872     1.0000 0.67952  0.09202  0.87091  Biso   1.000  H
  H873     1.0000 0.70857  0.04746  0.90600  Biso   1.000  H
  H874     1.0000 0.71242  0.02528  0.85819  Biso   1.000  H
  H875     1.0000 0.67949  0.09196  0.87091  Biso   1.000  H
  H876     1.0000 0.81622  0.15273  0.81088  Biso   1.000  H
  H877     1.0000 0.89281  0.24009  0.83179  Biso   1.000  H
  H878     1.0000 0.79428  0.22230  0.83151  Biso   1.000  H
  H879     1.0000 0.81619  0.15267  0.81088  Biso   1.000  H
  H880     1.0000 0.79434  0.22230  0.83151  Biso   1.000  H
  C672     1.0000 0.26032  0.28248  0.08091  Biso   1.000  C
  C673     1.0000 0.26026  0.28248  0.08091  Biso   1.000  C
  H881     1.0000 0.32790  0.41913  0.17150  Biso   1.000  H
  H882     1.0000 0.23039  0.35678  0.18840  Biso   1.000  H
  H883     1.0000 0.26123  0.45562  0.17500  Biso   1.000  H
  H884     1.0000 0.18960  0.41387  0.08150  Biso   1.000  H
  H885     1.0000 0.29390  0.45503  0.08140  Biso   1.000  H
  H886     1.0000 0.24842  0.48410  0.11609  Biso   1.000  H
  C674     1.0000 0.91194  0.93733  0.88950  Biso   1.000  C
  C675     1.0000 0.91191  0.93727  0.88950  Biso   1.000  C
  C676     1.0000 0.91189  0.93733  0.88950  Biso   1.000  C
  C677     1.0000 0.91185  0.93727  0.88950  Biso   1.000  C
  C678     1.0000 0.06273  0.97461  0.88950  Biso   1.000  C
  C679     1.0000 0.06267  0.97461  0.88950  Biso   1.000  C
  C680     1.0000 0.27757  0.05849  0.04619  Biso   1.000  C
  C681     1.0000 0.24388  0.13390  0.09769  Biso   1.000  C
  C682     1.0000 0.27762  0.05849  0.04619  Biso   1.000  C
  H887     1.0000 0.80779  0.00480  0.89040  Biso   1.000  H
  C683     1.0000 0.93633  0.02521  0.88959  Biso   1.000  C
  C684     1.0000 0.93627  0.02521  0.88959  Biso   1.000  C
  C685     1.0000 0.26523  0.20353  0.06999  Biso   1.000  C
  H888     1.0000 0.27948  0.32888  0.06130  Biso   1.000  H
  C686     1.0000 0.26520  0.20346  0.06999  Biso   1.000  C
  H889     1.0000 0.85129  0.89402  0.88931  Biso   1.000  H
  H890     1.0000 0.10602  0.95728  0.88931  Biso   1.000  H
  H891     1.0000 0.10596  0.95728  0.88931  Biso   1.000  H
  C687     1.0000 0.08893  0.06374  0.88959  Biso   1.000  C
  C688     1.0000 0.08890  0.06367  0.88959  Biso   1.000  C
  H892     1.0000 0.28192  0.00900  0.03800  Biso   1.000  H
  C689     1.0000 0.29989  0.12622  0.01809  Biso   1.000  C
  H893     1.0000 0.28187  0.00900  0.03800  Biso   1.000  H
  H894     1.0000 0.22540  0.13672  0.12512  Biso   1.000  H
  C690     1.0000 0.02540  0.08809  0.88950  Biso   1.000  C
  C691     1.0000 0.29401  0.20038  0.03031  Biso   1.000  C
  C692     1.0000 0.29395  0.20038  0.03031  Biso   1.000  C
  C693     1.0000 0.18168  0.13271  0.88680  Biso   1.000  C
  C694     1.0000 0.18174  0.13271  0.88680  Biso   1.000  C
  C695     1.0000 0.33064  0.12064  0.97590  Biso   1.000  C
  C696     1.0000 0.33061  0.12057  0.97590  Biso   1.000  C
  C697     1.0000 0.33058  0.12064  0.97590  Biso   1.000  C
  H895     1.0000 0.04271  0.14873  0.88931  Biso   1.000  H
  H896     1.0000 0.04267  0.14866  0.88931  Biso   1.000  H
  H897     1.0000 0.30950  0.24750  0.01139  Biso   1.000  H
  N131     1.0000 0.24127  0.11480  0.87979  Biso   1.000  N
  H898     1.0000 0.19697  0.19218  0.89040  Biso   1.000  H
  N132     1.0000 0.24132  0.11480  0.87979  Biso   1.000  N
  N133     1.0000 0.35579  0.18391  0.95011  Biso   1.000  N
  H899     1.0000 0.33158  0.06899  0.96798  Biso   1.000  H
  C698     1.0000 0.33340  0.18640  0.87510  Biso   1.000  C
  C699     1.0000 0.38378  0.17032  0.90978  Biso   1.000  C
  C700     1.0000 0.38375  0.17025  0.90978  Biso   1.000  C
  C701     1.0000 0.35090  0.27973  0.87780  Biso   1.000  C
  C702     1.0000 0.36402  0.16920  0.83359  Biso   1.000  C
  C703     1.0000 0.35087  0.27966  0.87780  Biso   1.000  C
  H900     1.0000 0.37286  0.10948  0.90789  Biso   1.000  H
  H901     1.0000 0.44761  0.21101  0.90640  Biso   1.000  H
  H902     1.0000 0.37292  0.10948  0.90789  Biso   1.000  H
  H903     1.0000 0.33890  0.29141  0.90600  Biso   1.000  H
  H904     1.0000 0.31289  0.28760  0.85819  Biso   1.000  H
  H905     1.0000 0.41249  0.32048  0.87091  Biso   1.000  H
  H906     1.0000 0.33649  0.18384  0.81088  Biso   1.000  H
  H907     1.0000 0.34727  0.10718  0.83179  Biso   1.000  H
  H908     1.0000 0.42802  0.20570  0.83151  Biso   1.000  H
  H909     1.0000 0.33652  0.18377  0.81088  Biso   1.000  H
  H910     1.0000 0.42796  0.20570  0.83151  Biso   1.000  H
  H911     1.0000 0.33646  0.18377  0.81088  Biso   1.000  H
  C704     1.0000 0.67459  0.82117  0.17882  Biso   1.000  C
  C705     1.0000 0.64654  0.79222  0.13870  Biso   1.000  C
  C706     1.0000 0.64651  0.79216  0.13870  Biso   1.000  C
  C707     1.0000 0.64648  0.79222  0.13870  Biso   1.000  C
  C708     1.0000 0.64645  0.79216  0.13870  Biso   1.000  C
  H912     1.0000 0.68378  0.81362  0.16380  Biso   1.000  H
  H913     1.0000 0.72599  0.88030  0.17801  Biso   1.000  H
  H914     1.0000 0.62730  0.82241  0.19430  Biso   1.000  H
  H915     1.0000 0.69021  0.78113  0.19250  Biso   1.000  H
  H916     1.0000 0.69018  0.78107  0.19250  Biso   1.000  H
  C709     1.0000 0.54287  0.71209  0.13920  Biso   1.000  C
  H917     1.0000 0.59069  0.73906  0.14631  Biso   1.000  H
  C710     1.0000 0.62818  0.86179  0.12291  Biso   1.000  C
  C711     1.0000 0.54293  0.71209  0.13920  Biso   1.000  C
  N134     1.0000 0.69151  0.77043  0.10632  Biso   1.000  N
  C712     1.0000 0.67463  0.82123  0.17882  Biso   1.000  C
  N135     1.0000 0.69148  0.77037  0.10632  Biso   1.000  N
  H918     1.0000 0.53899  0.66011  0.15242  Biso   1.000  H
  H919     1.0000 0.52100  0.69778  0.11060  Biso   1.000  H
  H920     1.0000 0.50744  0.73093  0.15481  Biso   1.000  H
  H921     1.0000 0.50741  0.73086  0.15481  Biso   1.000  H
  H922     1.0000 0.50739  0.73093  0.15481  Biso   1.000  H
  H923     1.0000 0.50735  0.73086  0.15481  Biso   1.000  H
  N136     1.0000 0.71031  0.94239  0.11451  Biso   1.000  N
  H924     1.0000 0.59298  0.84118  0.09710  Biso   1.000  H
  H925     1.0000 0.59393  0.87321  0.14379  Biso   1.000  H
  H926     1.0000 0.59388  0.87321  0.14379  Biso   1.000  H
  C713     1.0000 0.59599  0.86199  0.16880  Biso   1.000  C
  C714     1.0000 0.56487  0.80679  0.09899  Biso   1.000  C
  C715     1.0000 0.76063  0.77293  0.11609  Biso   1.000  C
  C716     1.0000 0.76059  0.77286  0.11609  Biso   1.000  C
  C717     1.0000 0.71751  0.97783  0.08091  Biso   1.000  C
  C718     1.0000 0.71748  0.97776  0.08091  Biso   1.000  C
  H927     1.0000 0.58091  0.90878  0.17150  Biso   1.000  H
  H928     1.0000 0.64318  0.87361  0.18840  Biso   1.000  H
  H929     1.0000 0.54439  0.80561  0.17500  Biso   1.000  H
  H930     1.0000 0.58609  0.77569  0.08150  Biso   1.000  H
  H931     1.0000 0.54500  0.83889  0.08140  Biso   1.000  H
  H932     1.0000 0.51587  0.76427  0.11609  Biso   1.000  H
  H933     1.0000 0.78213  0.78934  0.14351  Biso   1.000  H
  C719     1.0000 0.81187  0.75048  0.08550  Biso   1.000  C
  H934     1.0000 0.78210  0.78927  0.14351  Biso   1.000  H
  C720     1.0000 0.81192  0.75048  0.08550  Biso   1.000  C
  H935     1.0000 0.67110  0.95059  0.06130  Biso   1.000  H
  C721     1.0000 0.79651  0.06170  0.06999  Biso   1.000  C
  C722     1.0000 0.78089  0.72239  0.04619  Biso   1.000  C
  C723     1.0000 0.89000  0.75613  0.09769  Biso   1.000  C
  C724     1.0000 0.88997  0.75606  0.09769  Biso   1.000  C
  C725     1.0000 0.79961  0.09360  0.03031  Biso   1.000  C
  C726     1.0000 0.86613  0.11001  0.09769  Biso   1.000  C
  C727     1.0000 0.86608  0.11001  0.09769  Biso   1.000  C
  H936     1.0000 0.72709  0.71813  0.03800  Biso   1.000  H
  C728     1.0000 0.82631  0.70014  0.01809  Biso   1.000  C
  C729     1.0000 0.82628  0.70008  0.01809  Biso   1.000  C
  H937     1.0000 0.72711  0.71806  0.03800  Biso   1.000  H
  H938     1.0000 0.72705  0.71806  0.03800  Biso   1.000  H
  C730     1.0000 0.93828  0.73480  0.06999  Biso   1.000  C
  H939     1.0000 0.91130  0.77464  0.12512  Biso   1.000  H
  H940     1.0000 0.91127  0.77457  0.12512  Biso   1.000  H
  C731     1.0000 0.93833  0.73480  0.06999  Biso   1.000  C
  C732     1.0000 0.87384  0.17373  0.01809  Biso   1.000  C
  H941     1.0000 0.75251  0.06203  0.01139  Biso   1.000  H
  C733     1.0000 0.87381  0.17367  0.01809  Biso   1.000  C
  H942     1.0000 0.75248  0.06196  0.01139  Biso   1.000  H
  C734     1.0000 0.87378  0.17373  0.01809  Biso   1.000  C
  C735     1.0000 0.93860  0.18811  0.08550  Biso   1.000  C
  H943     1.0000 0.86331  0.08868  0.12512  Biso   1.000  H
  H944     1.0000 0.86325  0.08868  0.12512  Biso   1.000  H
  C736     1.0000 0.90642  0.70599  0.03031  Biso   1.000  C
  C737     1.0000 0.90636  0.70599  0.03031  Biso   1.000  C
  C738     1.0000 0.79004  0.66943  0.97590  Biso   1.000  C
  C739     1.0000 0.79001  0.66936  0.97590  Biso   1.000  C
  C740     1.0000 0.78998  0.66943  0.97590  Biso   1.000  C
  C741     1.0000 0.78995  0.66936  0.97590  Biso   1.000  C
  C742     1.0000 0.02218  0.73972  0.08091  Biso   1.000  C
  C743     1.0000 0.02224  0.73972  0.08091  Biso   1.000  C
  C744     1.0000 0.87943  0.21003  0.97590  Biso   1.000  C
  C745     1.0000 0.87939  0.20996  0.97590  Biso   1.000  C
  C746     1.0000 0.94147  0.21908  0.04619  Biso   1.000  C
  C747     1.0000 0.01229  0.23943  0.11609  Biso   1.000  C
  C748     1.0000 0.01232  0.23936  0.11609  Biso   1.000  C
  C749     1.0000 0.01226  0.23936  0.11609  Biso   1.000  C
  H945     1.0000 0.93801  0.69050  0.01139  Biso   1.000  H
  N137     1.0000 0.82814  0.64423  0.95011  Biso   1.000  N
  H946     1.0000 0.73743  0.66845  0.96798  Biso   1.000  H
  N138     1.0000 0.82811  0.64416  0.95011  Biso   1.000  N
  H947     1.0000 0.73740  0.66838  0.96798  Biso   1.000  H
  N139     1.0000 0.82808  0.64423  0.95011  Biso   1.000  N
  N140     1.0000 0.82805  0.64416  0.95011  Biso   1.000  N
  N141     1.0000 0.05761  0.76794  0.11451  Biso   1.000  N
  H948     1.0000 0.04940  0.72049  0.06130  Biso   1.000  H
  N142     1.0000 0.05758  0.76788  0.11451  Biso   1.000  N
  N143     1.0000 0.81608  0.17190  0.95011  Biso   1.000  N
  H949     1.0000 0.93100  0.26260  0.96798  Biso   1.000  H
  H950     1.0000 0.99100  0.27290  0.03800  Biso   1.000  H
  N144     1.0000 0.07890  0.30854  0.10632  Biso   1.000  N
  H951     1.0000 0.00721  0.21790  0.14351  Biso   1.000  H
  N145     1.0000 0.07887  0.30847  0.10632  Biso   1.000  N
  C750     1.0000 0.78650  0.61620  0.90978  Biso   1.000  C
  C751     1.0000 0.13819  0.76643  0.12291  Biso   1.000  C
  C752     1.0000 0.13821  0.76637  0.12291  Biso   1.000  C
  C753     1.0000 0.13816  0.76637  0.12291  Biso   1.000  C
  C754     1.0000 0.82973  0.21351  0.90978  Biso   1.000  C
  C755     1.0000 0.82967  0.21351  0.90978  Biso   1.000  C
  C756     1.0000 0.14571  0.35349  0.13870  Biso   1.000  C
  H952     1.0000 0.73659  0.62710  0.90789  Biso   1.000  H
  H953     1.0000 0.76342  0.55241  0.90640  Biso   1.000  H
  C757     1.0000 0.85303  0.66661  0.87510  Biso   1.000  C
  C758     1.0000 0.85297  0.66661  0.87510  Biso   1.000  C
  H954     1.0000 0.15878  0.75180  0.09710  Biso   1.000  H
  H955     1.0000 0.12680  0.72069  0.14379  Biso   1.000  H
  C759     1.0000 0.20782  0.85431  0.13870  Biso   1.000  C
  C760     1.0000 0.20776  0.85431  0.13870  Biso   1.000  C
  C761     1.0000 0.13801  0.73401  0.16880  Biso   1.000  C
  C762     1.0000 0.19319  0.75810  0.09899  Biso   1.000  C
  H956     1.0000 0.89047  0.26338  0.90789  Biso   1.000  H
  H957     1.0000 0.78899  0.23661  0.90640  Biso   1.000  H
  C763     1.0000 0.81359  0.14702  0.87510  Biso   1.000  C
  C764     1.0000 0.81356  0.14696  0.87510  Biso   1.000  C
  C765     1.0000 0.23359  0.37181  0.12291  Biso   1.000  C
  C766     1.0000 0.14662  0.32541  0.17882  Biso   1.000  C
  C767     1.0000 0.16922  0.45713  0.13920  Biso   1.000  C
  C768     1.0000 0.16919  0.45706  0.13920  Biso   1.000  C
  H958     1.0000 0.12980  0.31622  0.16380  Biso   1.000  H
  H959     1.0000 0.14837  0.40928  0.14631  Biso   1.000  H
  N146     1.0000 0.87349  0.75869  0.87979  Biso   1.000  N
  C769     1.0000 0.92878  0.64908  0.87780  Biso   1.000  C
  C770     1.0000 0.80522  0.63602  0.83359  Biso   1.000  C
  N147     1.0000 0.22963  0.92112  0.10632  Biso   1.000  N
  C771     1.0000 0.17877  0.85339  0.17882  Biso   1.000  C
  C772     1.0000 0.28792  0.83081  0.13920  Biso   1.000  C
  N148     1.0000 0.22957  0.92112  0.10632  Biso   1.000  N
  C773     1.0000 0.28786  0.83081  0.13920  Biso   1.000  C
  H960     1.0000 0.18638  0.87019  0.16380  Biso   1.000  H
  H961     1.0000 0.26092  0.85162  0.14631  Biso   1.000  H
  H962     1.0000 0.09120  0.67212  0.17150  Biso   1.000  H
  H963     1.0000 0.12641  0.76958  0.18840  Biso   1.000  H
  H964     1.0000 0.19440  0.73880  0.17500  Biso   1.000  H
  H965     1.0000 0.22429  0.81040  0.08150  Biso   1.000  H
  H966     1.0000 0.16112  0.70612  0.08140  Biso   1.000  H
  H967     1.0000 0.23569  0.75160  0.11609  Biso   1.000  H
  N149     1.0000 0.88517  0.12648  0.87979  Biso   1.000  N
  C774     1.0000 0.72033  0.07122  0.87780  Biso   1.000  C
  C775     1.0000 0.83078  0.19480  0.83359  Biso   1.000  C
  N150     1.0000 0.88522  0.12648  0.87979  Biso   1.000  N
  C776     1.0000 0.83083  0.19480  0.83359  Biso   1.000  C
  C777     1.0000 0.72027  0.07122  0.87780  Biso   1.000  C
  N151     1.0000 0.23210  0.28970  0.11451  Biso   1.000  N
  H968     1.0000 0.24817  0.40698  0.09710  Biso   1.000  H
  H969     1.0000 0.27934  0.40613  0.14379  Biso   1.000  H
  H970     1.0000 0.24822  0.40698  0.09710  Biso   1.000  H
  H971     1.0000 0.27931  0.40606  0.14379  Biso   1.000  H
  H972     1.0000 0.27928  0.40613  0.14379  Biso   1.000  H
  H973     1.0000 0.27925  0.40606  0.14379  Biso   1.000  H
  C778     1.0000 0.26601  0.40403  0.16880  Biso   1.000  C
  C779     1.0000 0.24186  0.43507  0.09899  Biso   1.000  C
  H974     1.0000 0.15429  0.27402  0.17801  Biso   1.000  H
  H975     1.0000 0.09089  0.30979  0.19250  Biso   1.000  H
  H976     1.0000 0.19512  0.37272  0.19430  Biso   1.000  H
  H977     1.0000 0.19508  0.37266  0.19430  Biso   1.000  H
  H978     1.0000 0.12109  0.46100  0.15242  Biso   1.000  H
  H979     1.0000 0.17680  0.47898  0.11060  Biso   1.000  H
  H980     1.0000 0.22352  0.49263  0.15481  Biso   1.000  H
  H981     1.0000 0.22349  0.49257  0.15481  Biso   1.000  H
  C780     1.0000 0.95097  0.81828  0.88680  Biso   1.000  C
  H982     1.0000 0.95252  0.66109  0.90600  Biso   1.000  H
  H983     1.0000 0.97467  0.68708  0.85819  Biso   1.000  H
  H984     1.0000 0.90800  0.58752  0.87091  Biso   1.000  H
  H985     1.0000 0.97472  0.68708  0.85819  Biso   1.000  H
  H986     1.0000 0.95246  0.66109  0.90600  Biso   1.000  H
  H987     1.0000 0.84733  0.66352  0.81088  Biso   1.000  H
  H988     1.0000 0.75990  0.65269  0.83179  Biso   1.000  H
  H989     1.0000 0.77772  0.57203  0.83151  Biso   1.000  H
  H990     1.0000 0.77769  0.57197  0.83151  Biso   1.000  H
  H991     1.0000 0.84728  0.66352  0.81088  Biso   1.000  H
  C781     1.0000 0.22713  0.98774  0.11609  Biso   1.000  C
  C782     1.0000 0.22710  0.98767  0.11609  Biso   1.000  C
  H992     1.0000 0.11968  0.84571  0.17801  Biso   1.000  H
  H993     1.0000 0.21891  0.90911  0.19250  Biso   1.000  H
  H994     1.0000 0.17760  0.80489  0.19430  Biso   1.000  H
  H995     1.0000 0.33988  0.87892  0.15242  Biso   1.000  H
  H996     1.0000 0.30219  0.82320  0.11060  Biso   1.000  H
  H997     1.0000 0.26914  0.77654  0.15481  Biso   1.000  H
  H998     1.0000 0.33994  0.87892  0.15242  Biso   1.000  H
  H999     1.0000 0.26910  0.77647  0.15481  Biso   1.000  H
  H1000    1.0000 0.26908  0.77654  0.15481  Biso   1.000  H
  H1001    1.0000 0.26905  0.77647  0.15481  Biso   1.000  H
  C783     1.0000 0.86731  0.04904  0.88680  Biso   1.000  C
  C784     1.0000 0.86727  0.04897  0.88680  Biso   1.000  C
  H1002    1.0000 0.70860  0.04753  0.90600  Biso   1.000  H
  H1003    1.0000 0.71237  0.02528  0.85819  Biso   1.000  H
  H1004    1.0000 0.67952  0.09202  0.87091  Biso   1.000  H
  H1005    1.0000 0.70857  0.04746  0.90600  Biso   1.000  H
  H1006    1.0000 0.71242  0.02528  0.85819  Biso   1.000  H
  H1007    1.0000 0.67949  0.09196  0.87091  Biso   1.000  H
  H1008    1.0000 0.81622  0.15273  0.81088  Biso   1.000  H
  H1009    1.0000 0.89281  0.24009  0.83179  Biso   1.000  H
  H1010    1.0000 0.79428  0.22230  0.83151  Biso   1.000  H
  H1011    1.0000 0.81619  0.15267  0.81088  Biso   1.000  H
  H1012    1.0000 0.79434  0.22230  0.83151  Biso   1.000  H
  C785     1.0000 0.26032  0.28248  0.08091  Biso   1.000  C
  C786     1.0000 0.26026  0.28248  0.08091  Biso   1.000  C
  H1013    1.0000 0.32790  0.41913  0.17150  Biso   1.000  H
  H1014    1.0000 0.23039  0.35678  0.18840  Biso   1.000  H
  H1015    1.0000 0.26123  0.45562  0.17500  Biso   1.000  H
  H1016    1.0000 0.18960  0.41387  0.08150  Biso   1.000  H
  H1017    1.0000 0.29390  0.45503  0.08140  Biso   1.000  H
  H1018    1.0000 0.24842  0.48410  0.11609  Biso   1.000  H
  H1019    1.0000 0.99522  0.80299  0.89040  Biso   1.000  H
  C787     1.0000 0.97481  0.91108  0.88959  Biso   1.000  C
  H1020    1.0000 0.99516  0.80299  0.89040  Biso   1.000  H
  C788     1.0000 0.97475  0.91108  0.88959  Biso   1.000  C
  H1021    1.0000 0.21067  0.99279  0.14351  Biso   1.000  H
  C789     1.0000 0.24954  0.06144  0.08550  Biso   1.000  C
  C790     1.0000 0.24951  0.06137  0.08550  Biso   1.000  C
  C791     1.0000 0.24949  0.06144  0.08550  Biso   1.000  C
  C792     1.0000 0.24945  0.06137  0.08550  Biso   1.000  C
  H1022    1.0000 0.80779  0.00480  0.89040  Biso   1.000  H
  C793     1.0000 0.93633  0.02521  0.88959  Biso   1.000  C
  C794     1.0000 0.93627  0.02521  0.88959  Biso   1.000  C
  C795     1.0000 0.26523  0.20353  0.06999  Biso   1.000  C
  H1023    1.0000 0.27948  0.32888  0.06130  Biso   1.000  H
  C796     1.0000 0.26520  0.20346  0.06999  Biso   1.000  C
  C797     1.0000 0.91194  0.93733  0.88950  Biso   1.000  C
  C798     1.0000 0.91191  0.93727  0.88950  Biso   1.000  C
  C799     1.0000 0.91189  0.93733  0.88950  Biso   1.000  C
  C800     1.0000 0.91185  0.93727  0.88950  Biso   1.000  C
  C801     1.0000 0.06273  0.97461  0.88950  Biso   1.000  C
  C802     1.0000 0.06267  0.97461  0.88950  Biso   1.000  C
  C803     1.0000 0.27757  0.05849  0.04619  Biso   1.000  C
  C804     1.0000 0.24388  0.13390  0.09769  Biso   1.000  C
  C805     1.0000 0.27762  0.05849  0.04619  Biso   1.000  C
  C806     1.0000 0.02540  0.08809  0.88950  Biso   1.000  C
  C807     1.0000 0.29401  0.20038  0.03031  Biso   1.000  C
  C808     1.0000 0.29395  0.20038  0.03031  Biso   1.000  C
  H1024    1.0000 0.85129  0.89402  0.88931  Biso   1.000  H
  H1025    1.0000 0.10602  0.95728  0.88931  Biso   1.000  H
  H1026    1.0000 0.10596  0.95728  0.88931  Biso   1.000  H
  C809     1.0000 0.08893  0.06374  0.88959  Biso   1.000  C
  C810     1.0000 0.08890  0.06367  0.88959  Biso   1.000  C
  H1027    1.0000 0.28192  0.00900  0.03800  Biso   1.000  H
  C811     1.0000 0.29989  0.12622  0.01809  Biso   1.000  C
  H1028    1.0000 0.28187  0.00900  0.03800  Biso   1.000  H
  H1029    1.0000 0.22540  0.13672  0.12512  Biso   1.000  H
  H1030    1.0000 0.04271  0.14873  0.88931  Biso   1.000  H
  H1031    1.0000 0.04267  0.14866  0.88931  Biso   1.000  H
  H1032    1.0000 0.30950  0.24750  0.01139  Biso   1.000  H
  C812     1.0000 0.18168  0.13271  0.88680  Biso   1.000  C
  C813     1.0000 0.18174  0.13271  0.88680  Biso   1.000  C
  C814     1.0000 0.33064  0.12064  0.97590  Biso   1.000  C
  C815     1.0000 0.33061  0.12057  0.97590  Biso   1.000  C
  C816     1.0000 0.33058  0.12064  0.97590  Biso   1.000  C
  N152     1.0000 0.24127  0.11480  0.87979  Biso   1.000  N
  H1033    1.0000 0.19697  0.19218  0.89040  Biso   1.000  H
  N153     1.0000 0.24132  0.11480  0.87979  Biso   1.000  N
  N154     1.0000 0.35579  0.18391  0.95011  Biso   1.000  N
  H1034    1.0000 0.33158  0.06899  0.96798  Biso   1.000  H
  C817     1.0000 0.33340  0.18640  0.87510  Biso   1.000  C
  C818     1.0000 0.38378  0.17032  0.90978  Biso   1.000  C
  C819     1.0000 0.38375  0.17025  0.90978  Biso   1.000  C
  C820     1.0000 0.35090  0.27973  0.87780  Biso   1.000  C
  C821     1.0000 0.36402  0.16920  0.83359  Biso   1.000  C
  C822     1.0000 0.35087  0.27966  0.87780  Biso   1.000  C
  H1035    1.0000 0.37286  0.10948  0.90789  Biso   1.000  H
  H1036    1.0000 0.44761  0.21101  0.90640  Biso   1.000  H
  H1037    1.0000 0.37292  0.10948  0.90789  Biso   1.000  H
  H1038    1.0000 0.33890  0.29141  0.90600  Biso   1.000  H
  H1039    1.0000 0.31289  0.28760  0.85819  Biso   1.000  H
  H1040    1.0000 0.41249  0.32048  0.87091  Biso   1.000  H
  H1041    1.0000 0.33649  0.18384  0.81088  Biso   1.000  H
  H1042    1.0000 0.34727  0.10718  0.83179  Biso   1.000  H
  H1043    1.0000 0.42802  0.20570  0.83151  Biso   1.000  H
  H1044    1.0000 0.33652  0.18377  0.81088  Biso   1.000  H
  H1045    1.0000 0.42796  0.20570  0.83151  Biso   1.000  H
  H1046    1.0000 0.33646  0.18377  0.81088  Biso   1.000  H
  C823     1.0000 0.67459  0.82117  0.17882  Biso   1.000  C
  C824     1.0000 0.64654  0.79222  0.13870  Biso   1.000  C
  C825     1.0000 0.64651  0.79216  0.13870  Biso   1.000  C
  C826     1.0000 0.64648  0.79222  0.13870  Biso   1.000  C
  C827     1.0000 0.64645  0.79216  0.13870  Biso   1.000  C
  H1047    1.0000 0.68378  0.81362  0.16380  Biso   1.000  H
  H1048    1.0000 0.72599  0.88030  0.17801  Biso   1.000  H
  H1049    1.0000 0.62730  0.82241  0.19430  Biso   1.000  H
  H1050    1.0000 0.69021  0.78113  0.19250  Biso   1.000  H
  H1051    1.0000 0.69018  0.78107  0.19250  Biso   1.000  H
  C828     1.0000 0.62818  0.86179  0.12291  Biso   1.000  C
  N155     1.0000 0.69151  0.77043  0.10632  Biso   1.000  N
  C829     1.0000 0.67463  0.82123  0.17882  Biso   1.000  C
  C830     1.0000 0.54293  0.71209  0.13920  Biso   1.000  C
  N156     1.0000 0.69148  0.77037  0.10632  Biso   1.000  N
  C831     1.0000 0.54287  0.71209  0.13920  Biso   1.000  C
  H1052    1.0000 0.59069  0.73906  0.14631  Biso   1.000  H
  N157     1.0000 0.71031  0.94239  0.11451  Biso   1.000  N
  H1053    1.0000 0.59298  0.84118  0.09710  Biso   1.000  H
  H1054    1.0000 0.59393  0.87321  0.14379  Biso   1.000  H
  H1055    1.0000 0.59388  0.87321  0.14379  Biso   1.000  H
  C832     1.0000 0.59599  0.86199  0.16880  Biso   1.000  C
  C833     1.0000 0.56487  0.80679  0.09899  Biso   1.000  C
  C834     1.0000 0.76063  0.77293  0.11609  Biso   1.000  C
  C835     1.0000 0.76059  0.77286  0.11609  Biso   1.000  C
  H1056    1.0000 0.53899  0.66011  0.15242  Biso   1.000  H
  H1057    1.0000 0.52100  0.69778  0.11060  Biso   1.000  H
  H1058    1.0000 0.50744  0.73093  0.15481  Biso   1.000  H
  H1059    1.0000 0.50741  0.73086  0.15481  Biso   1.000  H
  H1060    1.0000 0.50739  0.73093  0.15481  Biso   1.000  H
  H1061    1.0000 0.50735  0.73086  0.15481  Biso   1.000  H
  C836     1.0000 0.71751  0.97783  0.08091  Biso   1.000  C
  C837     1.0000 0.71748  0.97776  0.08091  Biso   1.000  C
  H1062    1.0000 0.58091  0.90878  0.17150  Biso   1.000  H
  H1063    1.0000 0.64318  0.87361  0.18840  Biso   1.000  H
  H1064    1.0000 0.54439  0.80561  0.17500  Biso   1.000  H
  H1065    1.0000 0.58609  0.77569  0.08150  Biso   1.000  H
  H1066    1.0000 0.54500  0.83889  0.08140  Biso   1.000  H
  H1067    1.0000 0.51587  0.76427  0.11609  Biso   1.000  H
  C838     1.0000 0.81187  0.75048  0.08550  Biso   1.000  C
  H1068    1.0000 0.78213  0.78934  0.14351  Biso   1.000  H
  H1069    1.0000 0.78210  0.78927  0.14351  Biso   1.000  H
  C839     1.0000 0.81192  0.75048  0.08550  Biso   1.000  C
  H1070    1.0000 0.67110  0.95059  0.06130  Biso   1.000  H
  C840     1.0000 0.79651  0.06170  0.06999  Biso   1.000  C
  C841     1.0000 0.78089  0.72239  0.04619  Biso   1.000  C
  C842     1.0000 0.89000  0.75613  0.09769  Biso   1.000  C
  C843     1.0000 0.88997  0.75606  0.09769  Biso   1.000  C
  C844     1.0000 0.79961  0.09360  0.03031  Biso   1.000  C
  C845     1.0000 0.86613  0.11001  0.09769  Biso   1.000  C
  C846     1.0000 0.86608  0.11001  0.09769  Biso   1.000  C
  H1071    1.0000 0.72709  0.71813  0.03800  Biso   1.000  H
  C847     1.0000 0.82631  0.70014  0.01809  Biso   1.000  C
  H1072    1.0000 0.72711  0.71806  0.03800  Biso   1.000  H
  C848     1.0000 0.82628  0.70008  0.01809  Biso   1.000  C
  H1073    1.0000 0.72705  0.71806  0.03800  Biso   1.000  H
  C849     1.0000 0.93828  0.73480  0.06999  Biso   1.000  C
  H1074    1.0000 0.91130  0.77464  0.12512  Biso   1.000  H
  C850     1.0000 0.93833  0.73480  0.06999  Biso   1.000  C
  H1075    1.0000 0.91127  0.77457  0.12512  Biso   1.000  H
  C851     1.0000 0.87384  0.17373  0.01809  Biso   1.000  C
  H1076    1.0000 0.75251  0.06203  0.01139  Biso   1.000  H
  C852     1.0000 0.87381  0.17367  0.01809  Biso   1.000  C
  H1077    1.0000 0.75248  0.06196  0.01139  Biso   1.000  H
  C853     1.0000 0.87378  0.17373  0.01809  Biso   1.000  C
  C854     1.0000 0.93860  0.18811  0.08550  Biso   1.000  C
  H1078    1.0000 0.86331  0.08868  0.12512  Biso   1.000  H
  H1079    1.0000 0.86325  0.08868  0.12512  Biso   1.000  H
  C855     1.0000 0.79004  0.66943  0.97590  Biso   1.000  C
  C856     1.0000 0.79001  0.66936  0.97590  Biso   1.000  C
  C857     1.0000 0.78998  0.66943  0.97590  Biso   1.000  C
  C858     1.0000 0.78995  0.66936  0.97590  Biso   1.000  C
  C859     1.0000 0.90642  0.70599  0.03031  Biso   1.000  C
  C860     1.0000 0.90636  0.70599  0.03031  Biso   1.000  C
  C861     1.0000 0.02218  0.73972  0.08091  Biso   1.000  C
  C862     1.0000 0.02224  0.73972  0.08091  Biso   1.000  C
  C863     1.0000 0.87943  0.21003  0.97590  Biso   1.000  C
  C864     1.0000 0.87939  0.20996  0.97590  Biso   1.000  C
  C865     1.0000 0.94147  0.21908  0.04619  Biso   1.000  C
  C866     1.0000 0.01229  0.23943  0.11609  Biso   1.000  C
  C867     1.0000 0.01232  0.23936  0.11609  Biso   1.000  C
  C868     1.0000 0.01226  0.23936  0.11609  Biso   1.000  C
  N158     1.0000 0.82814  0.64423  0.95011  Biso   1.000  N
  H1080    1.0000 0.73743  0.66845  0.96798  Biso   1.000  H
  N159     1.0000 0.82811  0.64416  0.95011  Biso   1.000  N
  H1081    1.0000 0.73740  0.66838  0.96798  Biso   1.000  H
  N160     1.0000 0.82808  0.64423  0.95011  Biso   1.000  N
  N161     1.0000 0.82805  0.64416  0.95011  Biso   1.000  N
  H1082    1.0000 0.93801  0.69050  0.01139  Biso   1.000  H
  N162     1.0000 0.05761  0.76794  0.11451  Biso   1.000  N
  H1083    1.0000 0.04940  0.72049  0.06130  Biso   1.000  H
  N163     1.0000 0.05758  0.76788  0.11451  Biso   1.000  N
  N164     1.0000 0.81608  0.17190  0.95011  Biso   1.000  N
  H1084    1.0000 0.93100  0.26260  0.96798  Biso   1.000  H
  H1085    1.0000 0.99100  0.27290  0.03800  Biso   1.000  H
  N165     1.0000 0.07890  0.30854  0.10632  Biso   1.000  N
  H1086    1.0000 0.00721  0.21790  0.14351  Biso   1.000  H
  N166     1.0000 0.07887  0.30847  0.10632  Biso   1.000  N
  C869     1.0000 0.78650  0.61620  0.90978  Biso   1.000  C
  C870     1.0000 0.13819  0.76643  0.12291  Biso   1.000  C
  C871     1.0000 0.13821  0.76637  0.12291  Biso   1.000  C
  C872     1.0000 0.13816  0.76637  0.12291  Biso   1.000  C
  C873     1.0000 0.82973  0.21351  0.90978  Biso   1.000  C
  C874     1.0000 0.82967  0.21351  0.90978  Biso   1.000  C
  C875     1.0000 0.14571  0.35349  0.13870  Biso   1.000  C
  H1087    1.0000 0.73659  0.62710  0.90789  Biso   1.000  H
  H1088    1.0000 0.76342  0.55241  0.90640  Biso   1.000  H
  C876     1.0000 0.85303  0.66661  0.87510  Biso   1.000  C
  C877     1.0000 0.85297  0.66661  0.87510  Biso   1.000  C
  H1089    1.0000 0.15878  0.75180  0.09710  Biso   1.000  H
  H1090    1.0000 0.12680  0.72069  0.14379  Biso   1.000  H
  C878     1.0000 0.20782  0.85431  0.13870  Biso   1.000  C
  C879     1.0000 0.20776  0.85431  0.13870  Biso   1.000  C
  C880     1.0000 0.13801  0.73401  0.16880  Biso   1.000  C
  C881     1.0000 0.19319  0.75810  0.09899  Biso   1.000  C
  H1091    1.0000 0.89047  0.26338  0.90789  Biso   1.000  H
  H1092    1.0000 0.78899  0.23661  0.90640  Biso   1.000  H
  C882     1.0000 0.81359  0.14702  0.87510  Biso   1.000  C
  C883     1.0000 0.81356  0.14696  0.87510  Biso   1.000  C
  C884     1.0000 0.23359  0.37181  0.12291  Biso   1.000  C
  C885     1.0000 0.14662  0.32541  0.17882  Biso   1.000  C
  C886     1.0000 0.16922  0.45713  0.13920  Biso   1.000  C
  C887     1.0000 0.16919  0.45706  0.13920  Biso   1.000  C
  H1093    1.0000 0.12980  0.31622  0.16380  Biso   1.000  H
  H1094    1.0000 0.14837  0.40928  0.14631  Biso   1.000  H
  N167     1.0000 0.87349  0.75869  0.87979  Biso   1.000  N
  C888     1.0000 0.92878  0.64908  0.87780  Biso   1.000  C
  C889     1.0000 0.80522  0.63602  0.83359  Biso   1.000  C
  N168     1.0000 0.22963  0.92112  0.10632  Biso   1.000  N
  C890     1.0000 0.17877  0.85339  0.17882  Biso   1.000  C
  C891     1.0000 0.28792  0.83081  0.13920  Biso   1.000  C
  N169     1.0000 0.22957  0.92112  0.10632  Biso   1.000  N
  C892     1.0000 0.28786  0.83081  0.13920  Biso   1.000  C
  H1095    1.0000 0.18638  0.87019  0.16380  Biso   1.000  H
  H1096    1.0000 0.26092  0.85162  0.14631  Biso   1.000  H
  H1097    1.0000 0.09120  0.67212  0.17150  Biso   1.000  H
  H1098    1.0000 0.12641  0.76958  0.18840  Biso   1.000  H
  H1099    1.0000 0.19440  0.73880  0.17500  Biso   1.000  H
  H1100    1.0000 0.22429  0.81040  0.08150  Biso   1.000  H
  H1101    1.0000 0.16112  0.70612  0.08140  Biso   1.000  H
  H1102    1.0000 0.23569  0.75160  0.11609  Biso   1.000  H
  N170     1.0000 0.88517  0.12648  0.87979  Biso   1.000  N
  C893     1.0000 0.72033  0.07122  0.87780  Biso   1.000  C
  C894     1.0000 0.83078  0.19480  0.83359  Biso   1.000  C
  N171     1.0000 0.88522  0.12648  0.87979  Biso   1.000  N
  C895     1.0000 0.83083  0.19480  0.83359  Biso   1.000  C
  C896     1.0000 0.72027  0.07122  0.87780  Biso   1.000  C
  N172     1.0000 0.23210  0.28970  0.11451  Biso   1.000  N
  H1103    1.0000 0.24817  0.40698  0.09710  Biso   1.000  H
  H1104    1.0000 0.27934  0.40613  0.14379  Biso   1.000  H
  H1105    1.0000 0.24822  0.40698  0.09710  Biso   1.000  H
  H1106    1.0000 0.27931  0.40606  0.14379  Biso   1.000  H
  H1107    1.0000 0.27928  0.40613  0.14379  Biso   1.000  H
  H1108    1.0000 0.27925  0.40606  0.14379  Biso   1.000  H
  C897     1.0000 0.26601  0.40403  0.16880  Biso   1.000  C
  C898     1.0000 0.24186  0.43507  0.09899  Biso   1.000  C
  H1109    1.0000 0.15429  0.27402  0.17801  Biso   1.000  H
  H1110    1.0000 0.09089  0.30979  0.19250  Biso   1.000  H
  H1111    1.0000 0.19512  0.37272  0.19430  Biso   1.000  H
  H1112    1.0000 0.19508  0.37266  0.19430  Biso   1.000  H
  H1113    1.0000 0.12109  0.46100  0.15242  Biso   1.000  H
  H1114    1.0000 0.17680  0.47898  0.11060  Biso   1.000  H
  H1115    1.0000 0.22352  0.49263  0.15481  Biso   1.000  H
  H1116    1.0000 0.22349  0.49257  0.15481  Biso   1.000  H
  C899     1.0000 0.95097  0.81828  0.88680  Biso   1.000  C
  H1117    1.0000 0.95252  0.66109  0.90600  Biso   1.000  H
  H1118    1.0000 0.97467  0.68708  0.85819  Biso   1.000  H
  H1119    1.0000 0.90800  0.58752  0.87091  Biso   1.000  H
  H1120    1.0000 0.97472  0.68708  0.85819  Biso   1.000  H
  H1121    1.0000 0.95246  0.66109  0.90600  Biso   1.000  H
  H1122    1.0000 0.84733  0.66352  0.81088  Biso   1.000  H
  H1123    1.0000 0.75990  0.65269  0.83179  Biso   1.000  H
  H1124    1.0000 0.77772  0.57203  0.83151  Biso   1.000  H
  H1125    1.0000 0.77769  0.57197  0.83151  Biso   1.000  H
  H1126    1.0000 0.84728  0.66352  0.81088  Biso   1.000  H
  C900     1.0000 0.22713  0.98774  0.11609  Biso   1.000  C
  C901     1.0000 0.22710  0.98767  0.11609  Biso   1.000  C
  H1127    1.0000 0.11968  0.84571  0.17801  Biso   1.000  H
  H1128    1.0000 0.21891  0.90911  0.19250  Biso   1.000  H
  H1129    1.0000 0.17760  0.80489  0.19430  Biso   1.000  H
  H1130    1.0000 0.33988  0.87892  0.15242  Biso   1.000  H
  H1131    1.0000 0.30219  0.82320  0.11060  Biso   1.000  H
  H1132    1.0000 0.26914  0.77654  0.15481  Biso   1.000  H
  H1133    1.0000 0.33994  0.87892  0.15242  Biso   1.000  H
  H1134    1.0000 0.26910  0.77647  0.15481  Biso   1.000  H
  H1135    1.0000 0.26908  0.77654  0.15481  Biso   1.000  H
  H1136    1.0000 0.26905  0.77647  0.15481  Biso   1.000  H
  C902     1.0000 0.86731  0.04904  0.88680  Biso   1.000  C
  C903     1.0000 0.86727  0.04897  0.88680  Biso   1.000  C
  H1137    1.0000 0.70860  0.04753  0.90600  Biso   1.000  H
  H1138    1.0000 0.71237  0.02528  0.85819  Biso   1.000  H
  H1139    1.0000 0.67952  0.09202  0.87091  Biso   1.000  H
  H1140    1.0000 0.70857  0.04746  0.90600  Biso   1.000  H
  H1141    1.0000 0.71242  0.02528  0.85819  Biso   1.000  H
  H1142    1.0000 0.67949  0.09196  0.87091  Biso   1.000  H
  H1143    1.0000 0.81622  0.15273  0.81088  Biso   1.000  H
  H1144    1.0000 0.89281  0.24009  0.83179  Biso   1.000  H
  H1145    1.0000 0.79428  0.22230  0.83151  Biso   1.000  H
  H1146    1.0000 0.81619  0.15267  0.81088  Biso   1.000  H
  H1147    1.0000 0.79434  0.22230  0.83151  Biso   1.000  H
  C904     1.0000 0.26032  0.28248  0.08091  Biso   1.000  C
  C905     1.0000 0.26026  0.28248  0.08091  Biso   1.000  C
  H1148    1.0000 0.32790  0.41913  0.17150  Biso   1.000  H
  H1149    1.0000 0.23039  0.35678  0.18840  Biso   1.000  H
  H1150    1.0000 0.26123  0.45562  0.17500  Biso   1.000  H
  H1151    1.0000 0.18960  0.41387  0.08150  Biso   1.000  H
  H1152    1.0000 0.29390  0.45503  0.08140  Biso   1.000  H
  H1153    1.0000 0.24842  0.48410  0.11609  Biso   1.000  H
  H1154    1.0000 0.99522  0.80299  0.89040  Biso   1.000  H
  C906     1.0000 0.97481  0.91108  0.88959  Biso   1.000  C
  H1155    1.0000 0.99516  0.80299  0.89040  Biso   1.000  H
  C907     1.0000 0.97475  0.91108  0.88959  Biso   1.000  C
  H1156    1.0000 0.21067  0.99279  0.14351  Biso   1.000  H
  C908     1.0000 0.24954  0.06144  0.08550  Biso   1.000  C
  C909     1.0000 0.24951  0.06137  0.08550  Biso   1.000  C
  C910     1.0000 0.24949  0.06144  0.08550  Biso   1.000  C
  C911     1.0000 0.24945  0.06137  0.08550  Biso   1.000  C
  H1157    1.0000 0.80779  0.00480  0.89040  Biso   1.000  H
  C912     1.0000 0.93633  0.02521  0.88959  Biso   1.000  C
  C913     1.0000 0.93627  0.02521  0.88959  Biso   1.000  C
  C914     1.0000 0.26523  0.20353  0.06999  Biso   1.000  C
  H1158    1.0000 0.27948  0.32888  0.06130  Biso   1.000  H
  C915     1.0000 0.26520  0.20346  0.06999  Biso   1.000  C
  C916     1.0000 0.91194  0.93733  0.88950  Biso   1.000  C
  C917     1.0000 0.91191  0.93727  0.88950  Biso   1.000  C
  C918     1.0000 0.91189  0.93733  0.88950  Biso   1.000  C
  C919     1.0000 0.91185  0.93727  0.88950  Biso   1.000  C
  C920     1.0000 0.06273  0.97461  0.88950  Biso   1.000  C
  C921     1.0000 0.06267  0.97461  0.88950  Biso   1.000  C
  C922     1.0000 0.24388  0.13390  0.09769  Biso   1.000  C
  C923     1.0000 0.27757  0.05849  0.04619  Biso   1.000  C
  C924     1.0000 0.27762  0.05849  0.04619  Biso   1.000  C
  C925     1.0000 0.02540  0.08809  0.88950  Biso   1.000  C
  C926     1.0000 0.29401  0.20038  0.03031  Biso   1.000  C
  C927     1.0000 0.29395  0.20038  0.03031  Biso   1.000  C
  H1159    1.0000 0.85129  0.89402  0.88931  Biso   1.000  H
  C928     1.0000 0.08893  0.06374  0.88959  Biso   1.000  C
  C929     1.0000 0.08890  0.06367  0.88959  Biso   1.000  C
  H1160    1.0000 0.10602  0.95728  0.88931  Biso   1.000  H
  H1161    1.0000 0.10596  0.95728  0.88931  Biso   1.000  H
  H1162    1.0000 0.22540  0.13672  0.12512  Biso   1.000  H
  C930     1.0000 0.29989  0.12622  0.01809  Biso   1.000  C
  H1163    1.0000 0.28192  0.00900  0.03800  Biso   1.000  H
  H1164    1.0000 0.28187  0.00900  0.03800  Biso   1.000  H
  H1165    1.0000 0.04271  0.14873  0.88931  Biso   1.000  H
  H1166    1.0000 0.04267  0.14866  0.88931  Biso   1.000  H
  H1167    1.0000 0.30950  0.24750  0.01139  Biso   1.000  H
  C931     1.0000 0.18168  0.13271  0.88680  Biso   1.000  C
  C932     1.0000 0.18174  0.13271  0.88680  Biso   1.000  C
  C933     1.0000 0.33064  0.12064  0.97590  Biso   1.000  C
  C934     1.0000 0.33061  0.12057  0.97590  Biso   1.000  C
  C935     1.0000 0.33058  0.12064  0.97590  Biso   1.000  C
  N173     1.0000 0.24127  0.11480  0.87979  Biso   1.000  N
  H1168    1.0000 0.19697  0.19218  0.89040  Biso   1.000  H
  N174     1.0000 0.24132  0.11480  0.87979  Biso   1.000  N
  N175     1.0000 0.35579  0.18391  0.95011  Biso   1.000  N
  H1169    1.0000 0.33158  0.06899  0.96798  Biso   1.000  H
  C936     1.0000 0.33340  0.18640  0.87510  Biso   1.000  C
  C937     1.0000 0.38378  0.17032  0.90978  Biso   1.000  C
  C938     1.0000 0.38375  0.17025  0.90978  Biso   1.000  C
  C939     1.0000 0.35090  0.27973  0.87780  Biso   1.000  C
  C940     1.0000 0.36402  0.16920  0.83359  Biso   1.000  C
  C941     1.0000 0.35087  0.27966  0.87780  Biso   1.000  C
  H1170    1.0000 0.37286  0.10948  0.90789  Biso   1.000  H
  H1171    1.0000 0.44761  0.21101  0.90640  Biso   1.000  H
  H1172    1.0000 0.37292  0.10948  0.90789  Biso   1.000  H
  H1173    1.0000 0.33890  0.29141  0.90600  Biso   1.000  H
  H1174    1.0000 0.31289  0.28760  0.85819  Biso   1.000  H
  H1175    1.0000 0.41249  0.32048  0.87091  Biso   1.000  H
  H1176    1.0000 0.33649  0.18384  0.81088  Biso   1.000  H
  H1177    1.0000 0.34727  0.10718  0.83179  Biso   1.000  H
  H1178    1.0000 0.42802  0.20570  0.83151  Biso   1.000  H
  H1179    1.0000 0.33652  0.18377  0.81088  Biso   1.000  H
  H1180    1.0000 0.42796  0.20570  0.83151  Biso   1.000  H
  H1181    1.0000 0.33646  0.18377  0.81088  Biso   1.000  H
  C942     1.0000 0.67459  0.82117  0.17882  Biso   1.000  C
  C943     1.0000 0.64654  0.79222  0.13870  Biso   1.000  C
  C944     1.0000 0.64651  0.79216  0.13870  Biso   1.000  C
  C945     1.0000 0.64648  0.79222  0.13870  Biso   1.000  C
  C946     1.0000 0.64645  0.79216  0.13870  Biso   1.000  C
  H1182    1.0000 0.68378  0.81362  0.16380  Biso   1.000  H
  H1183    1.0000 0.72599  0.88030  0.17801  Biso   1.000  H
  H1184    1.0000 0.62730  0.82241  0.19430  Biso   1.000  H
  H1185    1.0000 0.69021  0.78113  0.19250  Biso   1.000  H
  H1186    1.0000 0.69018  0.78107  0.19250  Biso   1.000  H
  C947     1.0000 0.62818  0.86179  0.12291  Biso   1.000  C
  N176     1.0000 0.69151  0.77043  0.10632  Biso   1.000  N
  C948     1.0000 0.67463  0.82123  0.17882  Biso   1.000  C
  C949     1.0000 0.54293  0.71209  0.13920  Biso   1.000  C
  N177     1.0000 0.69148  0.77037  0.10632  Biso   1.000  N
  C950     1.0000 0.54287  0.71209  0.13920  Biso   1.000  C
  H1187    1.0000 0.59069  0.73906  0.14631  Biso   1.000  H
  N178     1.0000 0.71031  0.94239  0.11451  Biso   1.000  N
  H1188    1.0000 0.59298  0.84118  0.09710  Biso   1.000  H
  H1189    1.0000 0.59393  0.87321  0.14379  Biso   1.000  H
  H1190    1.0000 0.59388  0.87321  0.14379  Biso   1.000  H
  C951     1.0000 0.59599  0.86199  0.16880  Biso   1.000  C
  C952     1.0000 0.56487  0.80679  0.09899  Biso   1.000  C
  C953     1.0000 0.76063  0.77293  0.11609  Biso   1.000  C
  C954     1.0000 0.76059  0.77286  0.11609  Biso   1.000  C
  H1191    1.0000 0.53899  0.66011  0.15242  Biso   1.000  H
  H1192    1.0000 0.52100  0.69778  0.11060  Biso   1.000  H
  H1193    1.0000 0.50744  0.73093  0.15481  Biso   1.000  H
  H1194    1.0000 0.50741  0.73086  0.15481  Biso   1.000  H
  H1195    1.0000 0.50739  0.73093  0.15481  Biso   1.000  H
  H1196    1.0000 0.50735  0.73086  0.15481  Biso   1.000  H
  C955     1.0000 0.71751  0.97783  0.08091  Biso   1.000  C
  C956     1.0000 0.71748  0.97776  0.08091  Biso   1.000  C
  H1197    1.0000 0.58091  0.90878  0.17150  Biso   1.000  H
  H1198    1.0000 0.64318  0.87361  0.18840  Biso   1.000  H
  H1199    1.0000 0.54439  0.80561  0.17500  Biso   1.000  H
  H1200    1.0000 0.58609  0.77569  0.08150  Biso   1.000  H
  H1201    1.0000 0.54500  0.83889  0.08140  Biso   1.000  H
  H1202    1.0000 0.51587  0.76427  0.11609  Biso   1.000  H
  H1203    1.0000 0.78213  0.78934  0.14351  Biso   1.000  H
  C957     1.0000 0.81187  0.75048  0.08550  Biso   1.000  C
  H1204    1.0000 0.78210  0.78927  0.14351  Biso   1.000  H
  C958     1.0000 0.81192  0.75048  0.08550  Biso   1.000  C
  H1205    1.0000 0.67110  0.95059  0.06130  Biso   1.000  H
  C959     1.0000 0.79651  0.06170  0.06999  Biso   1.000  C
  C960     1.0000 0.78089  0.72239  0.04619  Biso   1.000  C
  C961     1.0000 0.89000  0.75613  0.09769  Biso   1.000  C
  C962     1.0000 0.88997  0.75606  0.09769  Biso   1.000  C
  C963     1.0000 0.79961  0.09360  0.03031  Biso   1.000  C
  C964     1.0000 0.86613  0.11001  0.09769  Biso   1.000  C
  C965     1.0000 0.86608  0.11001  0.09769  Biso   1.000  C
  H1206    1.0000 0.72709  0.71813  0.03800  Biso   1.000  H
  C966     1.0000 0.82631  0.70014  0.01809  Biso   1.000  C
  H1207    1.0000 0.72711  0.71806  0.03800  Biso   1.000  H
  C967     1.0000 0.82628  0.70008  0.01809  Biso   1.000  C
  H1208    1.0000 0.72705  0.71806  0.03800  Biso   1.000  H
  C968     1.0000 0.93828  0.73480  0.06999  Biso   1.000  C
  H1209    1.0000 0.91130  0.77464  0.12512  Biso   1.000  H
  C969     1.0000 0.93833  0.73480  0.06999  Biso   1.000  C
  H1210    1.0000 0.91127  0.77457  0.12512  Biso   1.000  H
  C970     1.0000 0.87384  0.17373  0.01809  Biso   1.000  C
  H1211    1.0000 0.75251  0.06203  0.01139  Biso   1.000  H
  C971     1.0000 0.87381  0.17367  0.01809  Biso   1.000  C
  H1212    1.0000 0.75248  0.06196  0.01139  Biso   1.000  H
  C972     1.0000 0.87378  0.17373  0.01809  Biso   1.000  C
  C973     1.0000 0.93860  0.18811  0.08550  Biso   1.000  C
  H1213    1.0000 0.86331  0.08868  0.12512  Biso   1.000  H
  H1214    1.0000 0.86325  0.08868  0.12512  Biso   1.000  H
  C974     1.0000 0.79004  0.66943  0.97590  Biso   1.000  C
  C975     1.0000 0.79001  0.66936  0.97590  Biso   1.000  C
  C976     1.0000 0.78998  0.66943  0.97590  Biso   1.000  C
  C977     1.0000 0.78995  0.66936  0.97590  Biso   1.000  C
  C978     1.0000 0.90642  0.70599  0.03031  Biso   1.000  C
  C979     1.0000 0.90636  0.70599  0.03031  Biso   1.000  C
  C980     1.0000 0.02218  0.73972  0.08091  Biso   1.000  C
  C981     1.0000 0.02224  0.73972  0.08091  Biso   1.000  C
  C982     1.0000 0.87943  0.21003  0.97590  Biso   1.000  C
  C983     1.0000 0.87939  0.20996  0.97590  Biso   1.000  C
  C984     1.0000 0.94147  0.21908  0.04619  Biso   1.000  C
  C985     1.0000 0.01229  0.23943  0.11609  Biso   1.000  C
  C986     1.0000 0.01232  0.23936  0.11609  Biso   1.000  C
  C987     1.0000 0.01226  0.23936  0.11609  Biso   1.000  C
  N179     1.0000 0.82814  0.64423  0.95011  Biso   1.000  N
  H1215    1.0000 0.73743  0.66845  0.96798  Biso   1.000  H
  N180     1.0000 0.82811  0.64416  0.95011  Biso   1.000  N
  H1216    1.0000 0.73740  0.66838  0.96798  Biso   1.000  H
  N181     1.0000 0.82808  0.64423  0.95011  Biso   1.000  N
  N182     1.0000 0.82805  0.64416  0.95011  Biso   1.000  N
  H1217    1.0000 0.93801  0.69050  0.01139  Biso   1.000  H
  N183     1.0000 0.05761  0.76794  0.11451  Biso   1.000  N
  H1218    1.0000 0.04940  0.72049  0.06130  Biso   1.000  H
  N184     1.0000 0.05758  0.76788  0.11451  Biso   1.000  N
  N185     1.0000 0.81608  0.17190  0.95011  Biso   1.000  N
  H1219    1.0000 0.93100  0.26260  0.96798  Biso   1.000  H
  H1220    1.0000 0.99100  0.27290  0.03800  Biso   1.000  H
  N186     1.0000 0.07890  0.30854  0.10632  Biso   1.000  N
  H1221    1.0000 0.00721  0.21790  0.14351  Biso   1.000  H
  N187     1.0000 0.07887  0.30847  0.10632  Biso   1.000  N
  C988     1.0000 0.78650  0.61620  0.90978  Biso   1.000  C
  C989     1.0000 0.13819  0.76643  0.12291  Biso   1.000  C
  C990     1.0000 0.13821  0.76637  0.12291  Biso   1.000  C
  C991     1.0000 0.13816  0.76637  0.12291  Biso   1.000  C
  C992     1.0000 0.82973  0.21351  0.90978  Biso   1.000  C
  C993     1.0000 0.82967  0.21351  0.90978  Biso   1.000  C
  C994     1.0000 0.14571  0.35349  0.13870  Biso   1.000  C
  H1222    1.0000 0.73659  0.62710  0.90789  Biso   1.000  H
  H1223    1.0000 0.76342  0.55241  0.90640  Biso   1.000  H
  C995     1.0000 0.85303  0.66661  0.87510  Biso   1.000  C
  C996     1.0000 0.85297  0.66661  0.87510  Biso   1.000  C
  H1224    1.0000 0.15878  0.75180  0.09710  Biso   1.000  H
  H1225    1.0000 0.12680  0.72069  0.14379  Biso   1.000  H
  C997     1.0000 0.20782  0.85431  0.13870  Biso   1.000  C
  C998     1.0000 0.20776  0.85431  0.13870  Biso   1.000  C
  C999     1.0000 0.13801  0.73401  0.16880  Biso   1.000  C
  C1000    1.0000 0.19319  0.75810  0.09899  Biso   1.000  C
  H1226    1.0000 0.89047  0.26338  0.90789  Biso   1.000  H
  H1227    1.0000 0.78899  0.23661  0.90640  Biso   1.000  H
  C1001    1.0000 0.81359  0.14702  0.87510  Biso   1.000  C
  C1002    1.0000 0.81356  0.14696  0.87510  Biso   1.000  C
  C1003    1.0000 0.23359  0.37181  0.12291  Biso   1.000  C
  C1004    1.0000 0.14662  0.32541  0.17882  Biso   1.000  C
  C1005    1.0000 0.16922  0.45713  0.13920  Biso   1.000  C
  C1006    1.0000 0.16919  0.45706  0.13920  Biso   1.000  C
  H1228    1.0000 0.12980  0.31622  0.16380  Biso   1.000  H
  H1229    1.0000 0.14837  0.40928  0.14631  Biso   1.000  H
  N188     1.0000 0.87349  0.75869  0.87979  Biso   1.000  N
  C1007    1.0000 0.92878  0.64908  0.87780  Biso   1.000  C
  C1008    1.0000 0.80522  0.63602  0.83359  Biso   1.000  C
  N189     1.0000 0.22963  0.92112  0.10632  Biso   1.000  N
  C1009    1.0000 0.17877  0.85339  0.17882  Biso   1.000  C
  C1010    1.0000 0.28792  0.83081  0.13920  Biso   1.000  C
  N190     1.0000 0.22957  0.92112  0.10632  Biso   1.000  N
  C1011    1.0000 0.28786  0.83081  0.13920  Biso   1.000  C
  H1230    1.0000 0.18638  0.87019  0.16380  Biso   1.000  H
  H1231    1.0000 0.26092  0.85162  0.14631  Biso   1.000  H
  H1232    1.0000 0.09120  0.67212  0.17150  Biso   1.000  H
  H1233    1.0000 0.12641  0.76958  0.18840  Biso   1.000  H
  H1234    1.0000 0.19440  0.73880  0.17500  Biso   1.000  H
  H1235    1.0000 0.22429  0.81040  0.08150  Biso   1.000  H
  H1236    1.0000 0.16112  0.70612  0.08140  Biso   1.000  H
  H1237    1.0000 0.23569  0.75160  0.11609  Biso   1.000  H
  N191     1.0000 0.88517  0.12648  0.87979  Biso   1.000  N
  C1012    1.0000 0.72033  0.07122  0.87780  Biso   1.000  C
  C1013    1.0000 0.83078  0.19480  0.83359  Biso   1.000  C
  N192     1.0000 0.88522  0.12648  0.87979  Biso   1.000  N
  C1014    1.0000 0.83083  0.19480  0.83359  Biso   1.000  C
  C1015    1.0000 0.72027  0.07122  0.87780  Biso   1.000  C
  N193     1.0000 0.23210  0.28970  0.11451  Biso   1.000  N
  H1238    1.0000 0.24817  0.40698  0.09710  Biso   1.000  H
  H1239    1.0000 0.27934  0.40613  0.14379  Biso   1.000  H
  H1240    1.0000 0.24822  0.40698  0.09710  Biso   1.000  H
  H1241    1.0000 0.27931  0.40606  0.14379  Biso   1.000  H
  H1242    1.0000 0.27928  0.40613  0.14379  Biso   1.000  H
  H1243    1.0000 0.27925  0.40606  0.14379  Biso   1.000  H
  C1016    1.0000 0.26601  0.40403  0.16880  Biso   1.000  C
  C1017    1.0000 0.24186  0.43507  0.09899  Biso   1.000  C
  H1244    1.0000 0.15429  0.27402  0.17801  Biso   1.000  H
  H1245    1.0000 0.09089  0.30979  0.19250  Biso   1.000  H
  H1246    1.0000 0.19512  0.37272  0.19430  Biso   1.000  H
  H1247    1.0000 0.19508  0.37266  0.19430  Biso   1.000  H
  H1248    1.0000 0.12109  0.46100  0.15242  Biso   1.000  H
  H1249    1.0000 0.17680  0.47898  0.11060  Biso   1.000  H
  H1250    1.0000 0.22352  0.49263  0.15481  Biso   1.000  H
  H1251    1.0000 0.22349  0.49257  0.15481  Biso   1.000  H
  C1018    1.0000 0.95097  0.81828  0.88680  Biso   1.000  C
  H1252    1.0000 0.95252  0.66109  0.90600  Biso   1.000  H
  H1253    1.0000 0.97467  0.68708  0.85819  Biso   1.000  H
  H1254    1.0000 0.90800  0.58752  0.87091  Biso   1.000  H
  H1255    1.0000 0.97472  0.68708  0.85819  Biso   1.000  H
  H1256    1.0000 0.95246  0.66109  0.90600  Biso   1.000  H
  H1257    1.0000 0.84733  0.66352  0.81088  Biso   1.000  H
  H1258    1.0000 0.75990  0.65269  0.83179  Biso   1.000  H
  H1259    1.0000 0.77772  0.57203  0.83151  Biso   1.000  H
  H1260    1.0000 0.77769  0.57197  0.83151  Biso   1.000  H
  H1261    1.0000 0.84728  0.66352  0.81088  Biso   1.000  H
  C1019    1.0000 0.22713  0.98774  0.11609  Biso   1.000  C
  C1020    1.0000 0.22710  0.98767  0.11609  Biso   1.000  C
  H1262    1.0000 0.11968  0.84571  0.17801  Biso   1.000  H
  H1263    1.0000 0.21891  0.90911  0.19250  Biso   1.000  H
  H1264    1.0000 0.17760  0.80489  0.19430  Biso   1.000  H
  H1265    1.0000 0.33988  0.87892  0.15242  Biso   1.000  H
  H1266    1.0000 0.30219  0.82320  0.11060  Biso   1.000  H
  H1267    1.0000 0.26914  0.77654  0.15481  Biso   1.000  H
  H1268    1.0000 0.33994  0.87892  0.15242  Biso   1.000  H
  H1269    1.0000 0.26910  0.77647  0.15481  Biso   1.000  H
  H1270    1.0000 0.26908  0.77654  0.15481  Biso   1.000  H
  H1271    1.0000 0.26905  0.77647  0.15481  Biso   1.000  H
  C1021    1.0000 0.86731  0.04904  0.88680  Biso   1.000  C
  C1022    1.0000 0.86727  0.04897  0.88680  Biso   1.000  C
  H1272    1.0000 0.70860  0.04753  0.90600  Biso   1.000  H
  H1273    1.0000 0.71237  0.02528  0.85819  Biso   1.000  H
  H1274    1.0000 0.67952  0.09202  0.87091  Biso   1.000  H
  H1275    1.0000 0.70857  0.04746  0.90600  Biso   1.000  H
  H1276    1.0000 0.71242  0.02528  0.85819  Biso   1.000  H
  H1277    1.0000 0.67949  0.09196  0.87091  Biso   1.000  H
  H1278    1.0000 0.81622  0.15273  0.81088  Biso   1.000  H
  H1279    1.0000 0.89281  0.24009  0.83179  Biso   1.000  H
  H1280    1.0000 0.79428  0.22230  0.83151  Biso   1.000  H
  H1281    1.0000 0.81619  0.15267  0.81088  Biso   1.000  H
  H1282    1.0000 0.79434  0.22230  0.83151  Biso   1.000  H
  C1023    1.0000 0.26032  0.28248  0.08091  Biso   1.000  C
  C1024    1.0000 0.26026  0.28248  0.08091  Biso   1.000  C
  H1283    1.0000 0.32790  0.41913  0.17150  Biso   1.000  H
  H1284    1.0000 0.23039  0.35678  0.18840  Biso   1.000  H
  H1285    1.0000 0.26123  0.45562  0.17500  Biso   1.000  H
  H1286    1.0000 0.18960  0.41387  0.08150  Biso   1.000  H
  H1287    1.0000 0.29390  0.45503  0.08140  Biso   1.000  H
  H1288    1.0000 0.24842  0.48410  0.11609  Biso   1.000  H
  H1289    1.0000 0.99522  0.80299  0.89040  Biso   1.000  H
  C1025    1.0000 0.97481  0.91108  0.88959  Biso   1.000  C
  H1290    1.0000 0.99516  0.80299  0.89040  Biso   1.000  H
  C1026    1.0000 0.97475  0.91108  0.88959  Biso   1.000  C
  H1291    1.0000 0.21067  0.99279  0.14351  Biso   1.000  H
  C1027    1.0000 0.24954  0.06144  0.08550  Biso   1.000  C
  C1028    1.0000 0.24951  0.06137  0.08550  Biso   1.000  C
  C1029    1.0000 0.24949  0.06144  0.08550  Biso   1.000  C
  C1030    1.0000 0.24945  0.06137  0.08550  Biso   1.000  C
  H1292    1.0000 0.80779  0.00480  0.89040  Biso   1.000  H
  C1031    1.0000 0.93633  0.02521  0.88959  Biso   1.000  C
  C1032    1.0000 0.93627  0.02521  0.88959  Biso   1.000  C
  C1033    1.0000 0.26523  0.20353  0.06999  Biso   1.000  C
  H1293    1.0000 0.27948  0.32888  0.06130  Biso   1.000  H
  C1034    1.0000 0.26520  0.20346  0.06999  Biso   1.000  C
  C1035    1.0000 0.91194  0.93733  0.88950  Biso   1.000  C
  C1036    1.0000 0.91191  0.93727  0.88950  Biso   1.000  C
  C1037    1.0000 0.91189  0.93733  0.88950  Biso   1.000  C
  C1038    1.0000 0.91185  0.93727  0.88950  Biso   1.000  C
  C1039    1.0000 0.06273  0.97461  0.88950  Biso   1.000  C
  C1040    1.0000 0.06267  0.97461  0.88950  Biso   1.000  C
  C1041    1.0000 0.24388  0.13390  0.09769  Biso   1.000  C
  C1042    1.0000 0.27757  0.05849  0.04619  Biso   1.000  C
  C1043    1.0000 0.27762  0.05849  0.04619  Biso   1.000  C
  C1044    1.0000 0.02540  0.08809  0.88950  Biso   1.000  C
  C1045    1.0000 0.29401  0.20038  0.03031  Biso   1.000  C
  C1046    1.0000 0.29395  0.20038  0.03031  Biso   1.000  C
  H1294    1.0000 0.85129  0.89402  0.88931  Biso   1.000  H
  C1047    1.0000 0.08893  0.06374  0.88959  Biso   1.000  C
  C1048    1.0000 0.08890  0.06367  0.88959  Biso   1.000  C
  H1295    1.0000 0.10602  0.95728  0.88931  Biso   1.000  H
  H1296    1.0000 0.10596  0.95728  0.88931  Biso   1.000  H
  H1297    1.0000 0.22540  0.13672  0.12512  Biso   1.000  H
  C1049    1.0000 0.29989  0.12622  0.01809  Biso   1.000  C
  H1298    1.0000 0.28192  0.00900  0.03800  Biso   1.000  H
  H1299    1.0000 0.28187  0.00900  0.03800  Biso   1.000  H
  H1300    1.0000 0.04271  0.14873  0.88931  Biso   1.000  H
  H1301    1.0000 0.04267  0.14866  0.88931  Biso   1.000  H
  H1302    1.0000 0.30950  0.24750  0.01139  Biso   1.000  H
  C1050    1.0000 0.18168  0.13271  0.88680  Biso   1.000  C
  C1051    1.0000 0.18174  0.13271  0.88680  Biso   1.000  C
  C1052    1.0000 0.33064  0.12064  0.97590  Biso   1.000  C
  C1053    1.0000 0.33061  0.12057  0.97590  Biso   1.000  C
  C1054    1.0000 0.33058  0.12064  0.97590  Biso   1.000  C
  N194     1.0000 0.24127  0.11480  0.87979  Biso   1.000  N
  H1303    1.0000 0.19697  0.19218  0.89040  Biso   1.000  H
  N195     1.0000 0.24132  0.11480  0.87979  Biso   1.000  N
  N196     1.0000 0.35579  0.18391  0.95011  Biso   1.000  N
  H1304    1.0000 0.33158  0.06899  0.96798  Biso   1.000  H
  C1055    1.0000 0.33340  0.18640  0.87510  Biso   1.000  C
  C1056    1.0000 0.38378  0.17032  0.90978  Biso   1.000  C
  C1057    1.0000 0.38375  0.17025  0.90978  Biso   1.000  C
  C1058    1.0000 0.35090  0.27973  0.87780  Biso   1.000  C
  C1059    1.0000 0.36402  0.16920  0.83359  Biso   1.000  C
  C1060    1.0000 0.35087  0.27966  0.87780  Biso   1.000  C
  H1305    1.0000 0.37286  0.10948  0.90789  Biso   1.000  H
  H1306    1.0000 0.44761  0.21101  0.90640  Biso   1.000  H
  H1307    1.0000 0.37292  0.10948  0.90789  Biso   1.000  H
  H1308    1.0000 0.33890  0.29141  0.90600  Biso   1.000  H
  H1309    1.0000 0.31289  0.28760  0.85819  Biso   1.000  H
  H1310    1.0000 0.41249  0.32048  0.87091  Biso   1.000  H
  H1311    1.0000 0.33649  0.18384  0.81088  Biso   1.000  H
  H1312    1.0000 0.34727  0.10718  0.83179  Biso   1.000  H
  H1313    1.0000 0.42802  0.20570  0.83151  Biso   1.000  H
  H1314    1.0000 0.33652  0.18377  0.81088  Biso   1.000  H
  H1315    1.0000 0.42796  0.20570  0.83151  Biso   1.000  H
  H1316    1.0000 0.33646  0.18377  0.81088  Biso   1.000  H
