data_image0
_cell_length_a       17.558
_cell_length_b       17.558
_cell_length_c       28.692
_cell_angle_alpha    90
_cell_angle_beta     90
_cell_angle_gamma    120

_symmetry_space_group_name_H-M    "P 1"
_symmetry_int_tables_number       1

loop_
  _symmetry_equiv_pos_as_xyz
  'x, y, z'

loop_
  _atom_site_label
  _atom_site_occupancy
  _atom_site_fract_x
  _atom_site_fract_y
  _atom_site_fract_z
  _atom_site_thermal_displace_type
  _atom_site_B_iso_or_equiv
  _atom_site_type_symbol
  C1       1.0000 0.20389  0.73104  0.47790  Biso   1.000  C
  C2       1.0000 0.29519  0.79668  0.49770  Biso   1.000  C
  H1       1.0000 0.18999  0.75735  0.45100  Biso   1.000  H
  H2       1.0000 0.20265  0.67685  0.46741  Biso   1.000  H
  C3       1.0000 0.13683  0.70993  0.51711  Biso   1.000  C
  H3       1.0000 0.20270  0.67685  0.46741  Biso   1.000  H
  C4       1.0000 0.13692  0.71000  0.51711  Biso   1.000  C
  C5       1.0000 0.13689  0.70993  0.51711  Biso   1.000  C
  H4       1.0000 0.18993  0.75735  0.45100  Biso   1.000  H
  C6       1.0000 0.13686  0.71000  0.51711  Biso   1.000  C
  C7       1.0000 0.29650  0.87869  0.51429  Biso   1.000  C
  H5       1.0000 0.30916  0.76925  0.52401  Biso   1.000  H
  H6       1.0000 0.34036  0.81207  0.47330  Biso   1.000  H
  C8       1.0000 0.20392  0.73111  0.47790  Biso   1.000  C
  H7       1.0000 0.30922  0.76925  0.52401  Biso   1.000  H
  H8       1.0000 0.34042  0.81207  0.47330  Biso   1.000  H
  C9       1.0000 0.29644  0.87869  0.51429  Biso   1.000  C
  C10      1.0000 0.20386  0.73111  0.47790  Biso   1.000  C
  H9       1.0000 0.07759  0.66607  0.50579  Biso   1.000  H
  H10      1.0000 0.15157  0.68336  0.54360  Biso   1.000  H
  C11      1.0000 0.13517  0.78977  0.53381  Biso   1.000  C
  H11      1.0000 0.15163  0.68336  0.54360  Biso   1.000  H
  C12      1.0000 0.13523  0.78977  0.53381  Biso   1.000  C
  H12      1.0000 0.07754  0.66607  0.50579  Biso   1.000  H
  C13      1.0000 0.22597  0.85836  0.55221  Biso   1.000  C
  H13      1.0000 0.28576  0.90756  0.48749  Biso   1.000  H
  H14      1.0000 0.35537  0.91999  0.52712  Biso   1.000  H
  C14      1.0000 0.22603  0.85836  0.55221  Biso   1.000  C
  H15      1.0000 0.28582  0.90756  0.48749  Biso   1.000  H
  H16      1.0000 0.35543  0.91999  0.52712  Biso   1.000  H
  N1       1.0000 0.07206  0.76537  0.57211  Biso   1.000  N
  H17      1.0000 0.11779  0.81549  0.50760  Biso   1.000  H
  N2       1.0000 0.07212  0.76537  0.57211  Biso   1.000  N
  N3       1.0000 0.22518  0.93833  0.56389  Biso   1.000  N
  H18      1.0000 0.24018  0.83495  0.58072  Biso   1.000  H
  N4       1.0000 0.22521  0.93840  0.56389  Biso   1.000  N
  N5       1.0000 0.22515  0.93840  0.56389  Biso   1.000  N
  H19      1.0000 0.24023  0.83495  0.58072  Biso   1.000  H
  C15      1.0000 0.01659  0.79135  0.56730  Biso   1.000  C
  C16      1.0000 0.01653  0.79135  0.56730  Biso   1.000  C
  C17      1.0000 0.24316  0.96655  0.60449  Biso   1.000  C
  C18      1.0000 0.24321  0.96655  0.60449  Biso   1.000  C
  H20      1.0000 0.02159  0.82686  0.54130  Biso   1.000  H
  H21      1.0000 0.02164  0.82686  0.54130  Biso   1.000  H
  C19      1.0000 0.94387  0.76767  0.60132  Biso   1.000  C
  H22      1.0000 0.25438  0.93386  0.62711  Biso   1.000  H
  H23      1.0000 0.25444  0.93386  0.62711  Biso   1.000  H
  C20      1.0000 0.24763  0.05033  0.61850  Biso   1.000  C
  C21      1.0000 0.24757  0.05033  0.61850  Biso   1.000  C
  C22      1.0000 0.94619  0.73644  0.64551  Biso   1.000  C
  C23      1.0000 0.87218  0.77557  0.58779  Biso   1.000  C
  C24      1.0000 0.94622  0.73650  0.64551  Biso   1.000  C
  C25      1.0000 0.94613  0.73644  0.64551  Biso   1.000  C
  C26      1.0000 0.94616  0.73650  0.64551  Biso   1.000  C
  C27      1.0000 0.22442  0.09663  0.58779  Biso   1.000  C
  C28      1.0000 0.27878  0.08381  0.66269  Biso   1.000  C
  C29      1.0000 0.27883  0.08381  0.66269  Biso   1.000  C
  C30      1.0000 0.22436  0.09663  0.58779  Biso   1.000  C
  C31      1.0000 0.87669  0.71329  0.67622  Biso   1.000  C
  H24      1.0000 0.99515  0.73104  0.65482  Biso   1.000  H
  H25      1.0000 0.99524  0.73111  0.65482  Biso   1.000  H
  H26      1.0000 0.99518  0.73111  0.65482  Biso   1.000  H
  H27      1.0000 0.87070  0.79687  0.55761  Biso   1.000  H
  C32      1.0000 0.80270  0.75235  0.61850  Biso   1.000  C
  H28      1.0000 0.87064  0.79687  0.55761  Biso   1.000  H
  C33      1.0000 0.80265  0.75235  0.61850  Biso   1.000  C
  C34      1.0000 0.23231  0.17621  0.60132  Biso   1.000  C
  H29      1.0000 0.20310  0.07381  0.55761  Biso   1.000  H
  C35      1.0000 0.23225  0.17621  0.60132  Biso   1.000  C
  C36      1.0000 0.28670  0.16345  0.67622  Biso   1.000  C
  H30      1.0000 0.29459  0.05211  0.68371  Biso   1.000  H
  C37      1.0000 0.28676  0.16345  0.67622  Biso   1.000  C
  C38      1.0000 0.87871  0.67619  0.72330  Biso   1.000  C
  C39      1.0000 0.80500  0.72118  0.66269  Biso   1.000  C
  C40      1.0000 0.87865  0.67619  0.72330  Biso   1.000  C
  C41      1.0000 0.80494  0.72118  0.66269  Biso   1.000  C
  C42      1.0000 0.72341  0.75676  0.60449  Biso   1.000  C
  C43      1.0000 0.72335  0.75676  0.60449  Biso   1.000  C
  C44      1.0000 0.20862  0.22520  0.56730  Biso   1.000  C
  C45      1.0000 0.26349  0.20975  0.64551  Biso   1.000  C
  C46      1.0000 0.26355  0.20975  0.64551  Biso   1.000  C
  C47      1.0000 0.20857  0.22520  0.56730  Biso   1.000  C
  C48      1.0000 0.32378  0.20251  0.72330  Biso   1.000  C
  C49      1.0000 0.32383  0.20251  0.72330  Biso   1.000  C
  N6       1.0000 0.81729  0.65088  0.75160  Biso   1.000  N
  H31      1.0000 0.92886  0.67205  0.73170  Biso   1.000  H
  N7       1.0000 0.81724  0.65088  0.75160  Biso   1.000  N
  H32      1.0000 0.75753  0.70539  0.68371  Biso   1.000  H
  H33      1.0000 0.75747  0.70539  0.68371  Biso   1.000  H
  N8       1.0000 0.71317  0.77478  0.56389  Biso   1.000  N
  H34      1.0000 0.67949  0.74558  0.62711  Biso   1.000  H
  N9       1.0000 0.71322  0.77478  0.56389  Biso   1.000  N
  N10      1.0000 0.23462  0.30668  0.57211  Biso   1.000  N
  H35      1.0000 0.17309  0.19469  0.54130  Biso   1.000  H
  N11      1.0000 0.23465  0.30675  0.57211  Biso   1.000  N
  H36      1.0000 0.17312  0.19475  0.54130  Biso   1.000  H
  N12      1.0000 0.23456  0.30668  0.57211  Biso   1.000  N
  N13      1.0000 0.23459  0.30675  0.57211  Biso   1.000  N
  H37      1.0000 0.26893  0.26413  0.65482  Biso   1.000  H
  H38      1.0000 0.26887  0.26413  0.65482  Biso   1.000  H
  N14      1.0000 0.34912  0.16641  0.75160  Biso   1.000  N
  H39      1.0000 0.32793  0.25683  0.73170  Biso   1.000  H
  N15      1.0000 0.34907  0.16641  0.75160  Biso   1.000  N
  H40      1.0000 0.32787  0.25683  0.73170  Biso   1.000  H
  C50      1.0000 0.82748  0.61339  0.79681  Biso   1.000  C
  C51      1.0000 0.63241  0.77399  0.55221  Biso   1.000  C
  C52      1.0000 0.63235  0.77399  0.55221  Biso   1.000  C
  C53      1.0000 0.21019  0.34542  0.53381  Biso   1.000  C
  C54      1.0000 0.21024  0.34542  0.53381  Biso   1.000  C
  C55      1.0000 0.38657  0.21409  0.79681  Biso   1.000  C
  C56      1.0000 0.38661  0.21415  0.79681  Biso   1.000  C
  C57      1.0000 0.38663  0.21409  0.79681  Biso   1.000  C
  C58      1.0000 0.81827  0.66626  0.83650  Biso   1.000  C
  C59      1.0000 0.75868  0.51599  0.80120  Biso   1.000  C
  H41      1.0000 0.88751  0.62010  0.79799  Biso   1.000  H
  C60      1.0000 0.81832  0.66626  0.83650  Biso   1.000  C
  C61      1.0000 0.75874  0.51599  0.80120  Biso   1.000  C
  H42      1.0000 0.88745  0.62010  0.79799  Biso   1.000  H
  H43      1.0000 0.59478  0.75978  0.58072  Biso   1.000  H
  C62      1.0000 0.58218  0.70349  0.51429  Biso   1.000  C
  C63      1.0000 0.65461  0.86474  0.53381  Biso   1.000  C
  H44      1.0000 0.59484  0.75978  0.58072  Biso   1.000  H
  C64      1.0000 0.58224  0.70349  0.51429  Biso   1.000  C
  C65      1.0000 0.65455  0.86474  0.53381  Biso   1.000  C
  C66      1.0000 0.14159  0.36758  0.55221  Biso   1.000  C
  C67      1.0000 0.29000  0.42690  0.51711  Biso   1.000  C
  H45      1.0000 0.18455  0.30234  0.50760  Biso   1.000  H
  C68      1.0000 0.14162  0.36765  0.55221  Biso   1.000  C
  H46      1.0000 0.18449  0.30234  0.50760  Biso   1.000  H
  C69      1.0000 0.33372  0.15200  0.83650  Biso   1.000  C
  C70      1.0000 0.48397  0.24269  0.80120  Biso   1.000  C
  H47      1.0000 0.37992  0.26742  0.79799  Biso   1.000  H
  C71      1.0000 0.48401  0.24276  0.80120  Biso   1.000  C
  C72      1.0000 0.33366  0.15200  0.83650  Biso   1.000  C
  C73      1.0000 0.48403  0.24269  0.80120  Biso   1.000  C
  H48      1.0000 0.37987  0.26742  0.79799  Biso   1.000  H
  N16      1.0000 0.89059  0.75623  0.83361  Biso   1.000  N
  H49      1.0000 0.76110  0.66528  0.83361  Biso   1.000  H
  C74      1.0000 0.82302  0.62838  0.88370  Biso   1.000  C
  N17      1.0000 0.89062  0.75630  0.83361  Biso   1.000  N
  N18      1.0000 0.89053  0.75623  0.83361  Biso   1.000  N
  H50      1.0000 0.76105  0.66528  0.83361  Biso   1.000  H
  C75      1.0000 0.82296  0.62838  0.88370  Biso   1.000  C
  N19      1.0000 0.89056  0.75630  0.83361  Biso   1.000  N
  C76      1.0000 0.76479  0.48094  0.84822  Biso   1.000  C
  H51      1.0000 0.69919  0.50830  0.79719  Biso   1.000  H
  H52      1.0000 0.76790  0.48225  0.77642  Biso   1.000  H
  C77      1.0000 0.76482  0.48100  0.84822  Biso   1.000  C
  C78      1.0000 0.76473  0.48094  0.84822  Biso   1.000  C
  H53      1.0000 0.76784  0.48225  0.77642  Biso   1.000  H
  C79      1.0000 0.76476  0.48100  0.84822  Biso   1.000  C
  H54      1.0000 0.62179  0.71414  0.48749  Biso   1.000  H
  H55      1.0000 0.56456  0.64456  0.52712  Biso   1.000  H
  C80      1.0000 0.50147  0.70474  0.49770  Biso   1.000  C
  H56      1.0000 0.62183  0.71421  0.48749  Biso   1.000  H
  H57      1.0000 0.56462  0.64456  0.52712  Biso   1.000  H
  C81      1.0000 0.50151  0.70480  0.49770  Biso   1.000  C
  H58      1.0000 0.62174  0.71414  0.48749  Biso   1.000  H
  H59      1.0000 0.62177  0.71421  0.48749  Biso   1.000  H
  N20      1.0000 0.69329  0.92788  0.57211  Biso   1.000  N
  C82      1.0000 0.57310  0.86303  0.51711  Biso   1.000  C
  H60      1.0000 0.69772  0.88217  0.50760  Biso   1.000  H
  N21      1.0000 0.69324  0.92788  0.57211  Biso   1.000  N
  C83      1.0000 0.57314  0.86310  0.51711  Biso   1.000  C
  C84      1.0000 0.57305  0.86303  0.51711  Biso   1.000  C
  H61      1.0000 0.69766  0.88217  0.50760  Biso   1.000  H
  C85      1.0000 0.57308  0.86310  0.51711  Biso   1.000  C
  N22      1.0000 0.06163  0.28682  0.56389  Biso   1.000  N
  H62      1.0000 0.16501  0.40520  0.58072  Biso   1.000  H
  C86      1.0000 0.12132  0.41783  0.51429  Biso   1.000  C
  N23      1.0000 0.06157  0.28682  0.56389  Biso   1.000  N
  H63      1.0000 0.16495  0.40520  0.58072  Biso   1.000  H
  C87      1.0000 0.12126  0.41783  0.51429  Biso   1.000  C
  C88      1.0000 0.26892  0.47281  0.47790  Biso   1.000  C
  H64      1.0000 0.33390  0.41151  0.50579  Biso   1.000  H
  H65      1.0000 0.31657  0.46820  0.54360  Biso   1.000  H
  H66      1.0000 0.31663  0.46820  0.54360  Biso   1.000  H
  C89      1.0000 0.26887  0.47281  0.47790  Biso   1.000  C
  H67      1.0000 0.33385  0.41151  0.50579  Biso   1.000  H
  N24      1.0000 0.24371  0.13431  0.83361  Biso   1.000  N
  H68      1.0000 0.33468  0.09584  0.83361  Biso   1.000  H
  C90      1.0000 0.37160  0.19462  0.88370  Biso   1.000  C
  H69      1.0000 0.33474  0.09584  0.83361  Biso   1.000  H
  N25      1.0000 0.24366  0.13431  0.83361  Biso   1.000  N
  C91      1.0000 0.51899  0.28380  0.84822  Biso   1.000  C
  H70      1.0000 0.49170  0.19094  0.79719  Biso   1.000  H
  H71      1.0000 0.51769  0.28564  0.77642  Biso   1.000  H
  H72      1.0000 0.51775  0.28564  0.77642  Biso   1.000  H
  C92      1.0000 0.51893  0.28380  0.84822  Biso   1.000  C
  C93      1.0000 0.86931  0.81779  0.83180  Biso   1.000  C
  C94      1.0000 0.86925  0.81779  0.83180  Biso   1.000  C
  H73      1.0000 0.81304  0.66094  0.90879  Biso   1.000  H
  H74      1.0000 0.88250  0.63628  0.88791  Biso   1.000  H
  C95      1.0000 0.75412  0.53000  0.88739  Biso   1.000  C
  H75      1.0000 0.81313  0.66100  0.90879  Biso   1.000  H
  H76      1.0000 0.88244  0.63628  0.88791  Biso   1.000  H
  C96      1.0000 0.75406  0.53000  0.88739  Biso   1.000  C
  H77      1.0000 0.81307  0.66100  0.90879  Biso   1.000  H
  H78      1.0000 0.71876  0.41826  0.85041  Biso   1.000  H
  H79      1.0000 0.82272  0.48449  0.85100  Biso   1.000  H
  H80      1.0000 0.71881  0.41826  0.85041  Biso   1.000  H
  H81      1.0000 0.82266  0.48449  0.85100  Biso   1.000  H
  H82      1.0000 0.46010  0.69079  0.52401  Biso   1.000  H
  H83      1.0000 0.47171  0.65956  0.47330  Biso   1.000  H
  C97      1.0000 0.52721  0.79608  0.47790  Biso   1.000  C
  H84      1.0000 0.46005  0.69079  0.52401  Biso   1.000  H
  H85      1.0000 0.47165  0.65956  0.47330  Biso   1.000  H
  C98      1.0000 0.52716  0.79608  0.47790  Biso   1.000  C
  C99      1.0000 0.77481  0.98338  0.56730  Biso   1.000  C
  C100     1.0000 0.77475  0.98338  0.56730  Biso   1.000  C
  H86      1.0000 0.58847  0.92235  0.50579  Biso   1.000  H
  H87      1.0000 0.53177  0.84837  0.54360  Biso   1.000  H
  H88      1.0000 0.58853  0.92235  0.50579  Biso   1.000  H
  H89      1.0000 0.53183  0.84837  0.54360  Biso   1.000  H
  C101     1.0000 0.03340  0.27663  0.60449  Biso   1.000  C
  H90      1.0000 0.09241  0.37824  0.48749  Biso   1.000  H
  H91      1.0000 0.07998  0.43539  0.52712  Biso   1.000  H
  C102     1.0000 0.20330  0.49852  0.49770  Biso   1.000  C
  H92      1.0000 0.08007  0.43545  0.52712  Biso   1.000  H
  H93      1.0000 0.09247  0.37824  0.48749  Biso   1.000  H
  H94      1.0000 0.08001  0.43545  0.52712  Biso   1.000  H
  H95      1.0000 0.24262  0.43262  0.45100  Biso   1.000  H
  H96      1.0000 0.32311  0.52581  0.46741  Biso   1.000  H
  H97      1.0000 0.24257  0.43262  0.45100  Biso   1.000  H
  H98      1.0000 0.32305  0.52581  0.46741  Biso   1.000  H
  C103     1.0000 0.18221  0.05152  0.83180  Biso   1.000  C
  C104     1.0000 0.18215  0.05152  0.83180  Biso   1.000  C
  H99      1.0000 0.33902  0.15214  0.90879  Biso   1.000  H
  H100     1.0000 0.36370  0.24625  0.88791  Biso   1.000  H
  C105     1.0000 0.47000  0.22408  0.88739  Biso   1.000  C
  H101     1.0000 0.36375  0.24625  0.88791  Biso   1.000  H
  C106     1.0000 0.47003  0.22415  0.88739  Biso   1.000  C
  H102     1.0000 0.33897  0.15214  0.90879  Biso   1.000  H
  C107     1.0000 0.46994  0.22408  0.88739  Biso   1.000  C
  C108     1.0000 0.46997  0.22415  0.88739  Biso   1.000  C
  H103     1.0000 0.58168  0.30050  0.85041  Biso   1.000  H
  H104     1.0000 0.51549  0.33818  0.85100  Biso   1.000  H
  H105     1.0000 0.51552  0.33825  0.85100  Biso   1.000  H
  H106     1.0000 0.51543  0.33818  0.85100  Biso   1.000  H
  C109     1.0000 0.93758  0.91104  0.83149  Biso   1.000  C
  H107     1.0000 0.80904  0.80194  0.83061  Biso   1.000  H
  H108     1.0000 0.80913  0.80200  0.83061  Biso   1.000  H
  C110     1.0000 0.93752  0.91104  0.83149  Biso   1.000  C
  H109     1.0000 0.80908  0.80200  0.83061  Biso   1.000  H
  H110     1.0000 0.76137  0.50646  0.91740  Biso   1.000  H
  H111     1.0000 0.69426  0.52224  0.88659  Biso   1.000  H
  H112     1.0000 0.69435  0.52231  0.88659  Biso   1.000  H
  H113     1.0000 0.69429  0.52231  0.88659  Biso   1.000  H
  H114     1.0000 0.56741  0.80996  0.45100  Biso   1.000  H
  H115     1.0000 0.47421  0.79727  0.46741  Biso   1.000  H
  H116     1.0000 0.47416  0.79727  0.46741  Biso   1.000  H
  H117     1.0000 0.56736  0.80996  0.45100  Biso   1.000  H
  H118     1.0000 0.80529  0.97838  0.54130  Biso   1.000  H
  C111     1.0000 0.82382  0.05612  0.60132  Biso   1.000  C
  C112     1.0000 0.82377  0.05612  0.60132  Biso   1.000  C
  C113     1.0000 0.94972  0.19732  0.61850  Biso   1.000  C
  C114     1.0000 0.94967  0.19732  0.61850  Biso   1.000  C
  H119     1.0000 0.06610  0.32049  0.62711  Biso   1.000  H
  H120     1.0000 0.06613  0.32056  0.62711  Biso   1.000  H
  H121     1.0000 0.06604  0.32049  0.62711  Biso   1.000  H
  H122     1.0000 0.23070  0.53989  0.52401  Biso   1.000  H
  H123     1.0000 0.18789  0.52831  0.47330  Biso   1.000  H
  H124     1.0000 0.23073  0.53995  0.52401  Biso   1.000  H
  H125     1.0000 0.23064  0.53989  0.52401  Biso   1.000  H
  H126     1.0000 0.18795  0.52831  0.47330  Biso   1.000  H
  C115     1.0000 0.08890  0.02652  0.83149  Biso   1.000  C
  H127     1.0000 0.19800  0.00712  0.83061  Biso   1.000  H
  H128     1.0000 0.49351  0.25493  0.91740  Biso   1.000  H
  H129     1.0000 0.47767  0.17200  0.88659  Biso   1.000  H
  H130     1.0000 0.47776  0.17206  0.88659  Biso   1.000  H
  H131     1.0000 0.47770  0.17206  0.88659  Biso   1.000  H
  C116     1.0000 0.02561  0.93708  0.83110  Biso   1.000  C
  C117     1.0000 0.02555  0.93708  0.83110  Biso   1.000  C
  C118     1.0000 0.91149  0.97437  0.83110  Biso   1.000  C
  C119     1.0000 0.91144  0.97437  0.83110  Biso   1.000  C
  C120     1.0000 0.79032  0.05382  0.64551  Biso   1.000  C
  C121     1.0000 0.90340  0.12780  0.58779  Biso   1.000  C
  C122     1.0000 0.79026  0.05382  0.64551  Biso   1.000  C
  C123     1.0000 0.90335  0.12780  0.58779  Biso   1.000  C
  C124     1.0000 0.91622  0.19501  0.66269  Biso   1.000  C
  C125     1.0000 0.91617  0.19501  0.66269  Biso   1.000  C
  C126     1.0000 0.06289  0.08854  0.83110  Biso   1.000  C
  C127     1.0000 0.06295  0.08854  0.83110  Biso   1.000  C
  H132     1.0000 0.04340  0.89407  0.83051  Biso   1.000  H
  H133     1.0000 0.04335  0.89407  0.83051  Biso   1.000  H
  H134     1.0000 0.85070  0.95655  0.83051  Biso   1.000  H
  H135     1.0000 0.85064  0.95655  0.83051  Biso   1.000  H
  C128     1.0000 0.97352  0.06243  0.83149  Biso   1.000  C
  C129     1.0000 0.97346  0.06243  0.83149  Biso   1.000  C
  C130     1.0000 0.83664  0.12333  0.67622  Biso   1.000  C
  H136     1.0000 0.73592  0.00482  0.65482  Biso   1.000  H
  C131     1.0000 0.83658  0.12333  0.67622  Biso   1.000  C
  H137     1.0000 0.73587  0.00482  0.65482  Biso   1.000  H
  H138     1.0000 0.92620  0.12932  0.55761  Biso   1.000  H
  H139     1.0000 0.92615  0.12932  0.55761  Biso   1.000  H
  H140     1.0000 0.94788  0.24250  0.68371  Biso   1.000  H
  H141     1.0000 0.94791  0.24256  0.68371  Biso   1.000  H
  H142     1.0000 0.10592  0.14931  0.83051  Biso   1.000  H
  H143     1.0000 0.10586  0.14931  0.83051  Biso   1.000  H
  C132     1.0000 0.94848  0.13070  0.83180  Biso   1.000  C
  C133     1.0000 0.94851  0.13076  0.83180  Biso   1.000  C
  C134     1.0000 0.79752  0.12129  0.72330  Biso   1.000  C
  C135     1.0000 0.79749  0.12136  0.72330  Biso   1.000  C
  C136     1.0000 0.79746  0.12129  0.72330  Biso   1.000  C
  N26      1.0000 0.86572  0.10939  0.83361  Biso   1.000  N
  H144     1.0000 0.99289  0.19094  0.83061  Biso   1.000  H
  N27      1.0000 0.86570  0.10945  0.83361  Biso   1.000  N
  N28      1.0000 0.86566  0.10939  0.83361  Biso   1.000  N
  N29      1.0000 0.83364  0.18272  0.75160  Biso   1.000  N
  H145     1.0000 0.74321  0.07111  0.73170  Biso   1.000  H
  N30      1.0000 0.83358  0.18272  0.75160  Biso   1.000  N
  H146     1.0000 0.74315  0.07111  0.73170  Biso   1.000  H
  C137     1.0000 0.84801  0.18173  0.83650  Biso   1.000  C
  C138     1.0000 0.84796  0.18173  0.83650  Biso   1.000  C
  C139     1.0000 0.78594  0.17252  0.79681  Biso   1.000  C
  C140     1.0000 0.78589  0.17252  0.79681  Biso   1.000  C
  H147     1.0000 0.90424  0.23895  0.83361  Biso   1.000  H
  C141     1.0000 0.80538  0.17699  0.88370  Biso   1.000  C
  H148     1.0000 0.90419  0.23895  0.83361  Biso   1.000  H
  C142     1.0000 0.80541  0.17706  0.88370  Biso   1.000  C
  C143     1.0000 0.75729  0.24131  0.80120  Biso   1.000  C
  H149     1.0000 0.73266  0.11255  0.79799  Biso   1.000  H
  H150     1.0000 0.73260  0.11255  0.79799  Biso   1.000  H
  H151     1.0000 0.84793  0.18693  0.90879  Biso   1.000  H
  H152     1.0000 0.75384  0.11754  0.88791  Biso   1.000  H
  C144     1.0000 0.77594  0.24592  0.88739  Biso   1.000  C
  H153     1.0000 0.84788  0.18693  0.90879  Biso   1.000  H
  H154     1.0000 0.75378  0.11754  0.88791  Biso   1.000  H
  C145     1.0000 0.77588  0.24592  0.88739  Biso   1.000  C
  C146     1.0000 0.71619  0.23520  0.84822  Biso   1.000  C
  H155     1.0000 0.80915  0.30083  0.79719  Biso   1.000  H
  H156     1.0000 0.71441  0.23211  0.77642  Biso   1.000  H
  C147     1.0000 0.71622  0.23526  0.84822  Biso   1.000  C
  H157     1.0000 0.80909  0.30083  0.79719  Biso   1.000  H
  H158     1.0000 0.71436  0.23211  0.77642  Biso   1.000  H
  H159     1.0000 0.74512  0.23862  0.91740  Biso   1.000  H
  H160     1.0000 0.82798  0.30570  0.88659  Biso   1.000  H
  H161     1.0000 0.74506  0.23862  0.91740  Biso   1.000  H
  H162     1.0000 0.69951  0.28123  0.85041  Biso   1.000  H
  H163     1.0000 0.66185  0.17732  0.85100  Biso   1.000  H
  H164     1.0000 0.66179  0.17732  0.85100  Biso   1.000  H
  C148     1.0000 0.20389  0.73104  0.47790  Biso   1.000  C
  C149     1.0000 0.29519  0.79668  0.49770  Biso   1.000  C
  H165     1.0000 0.18999  0.75735  0.45100  Biso   1.000  H
  H166     1.0000 0.20270  0.67685  0.46741  Biso   1.000  H
  H167     1.0000 0.20265  0.67685  0.46741  Biso   1.000  H
  C150     1.0000 0.13683  0.70993  0.51711  Biso   1.000  C
  C151     1.0000 0.13692  0.71000  0.51711  Biso   1.000  C
  C152     1.0000 0.13689  0.70993  0.51711  Biso   1.000  C
  H168     1.0000 0.18993  0.75735  0.45100  Biso   1.000  H
  C153     1.0000 0.13686  0.71000  0.51711  Biso   1.000  C
  C154     1.0000 0.29650  0.87869  0.51429  Biso   1.000  C
  H169     1.0000 0.30916  0.76925  0.52401  Biso   1.000  H
  H170     1.0000 0.34036  0.81207  0.47330  Biso   1.000  H
  C155     1.0000 0.20392  0.73111  0.47790  Biso   1.000  C
  H171     1.0000 0.30922  0.76925  0.52401  Biso   1.000  H
  H172     1.0000 0.34042  0.81207  0.47330  Biso   1.000  H
  C156     1.0000 0.29644  0.87869  0.51429  Biso   1.000  C
  C157     1.0000 0.20386  0.73111  0.47790  Biso   1.000  C
  H173     1.0000 0.07759  0.66607  0.50579  Biso   1.000  H
  H174     1.0000 0.15157  0.68336  0.54360  Biso   1.000  H
  C158     1.0000 0.13517  0.78977  0.53381  Biso   1.000  C
  H175     1.0000 0.15163  0.68336  0.54360  Biso   1.000  H
  C159     1.0000 0.13523  0.78977  0.53381  Biso   1.000  C
  H176     1.0000 0.07754  0.66607  0.50579  Biso   1.000  H
  C160     1.0000 0.22597  0.85836  0.55221  Biso   1.000  C
  H177     1.0000 0.28576  0.90756  0.48749  Biso   1.000  H
  H178     1.0000 0.35537  0.91999  0.52712  Biso   1.000  H
  C161     1.0000 0.22603  0.85836  0.55221  Biso   1.000  C
  H179     1.0000 0.28582  0.90756  0.48749  Biso   1.000  H
  H180     1.0000 0.35543  0.91999  0.52712  Biso   1.000  H
  H181     1.0000 0.11779  0.81549  0.50760  Biso   1.000  H
  N31      1.0000 0.07212  0.76537  0.57211  Biso   1.000  N
  N32      1.0000 0.07206  0.76537  0.57211  Biso   1.000  N
  H182     1.0000 0.24018  0.83495  0.58072  Biso   1.000  H
  N33      1.0000 0.22518  0.93833  0.56389  Biso   1.000  N
  N34      1.0000 0.22521  0.93840  0.56389  Biso   1.000  N
  N35      1.0000 0.22515  0.93840  0.56389  Biso   1.000  N
  H183     1.0000 0.24023  0.83495  0.58072  Biso   1.000  H
  C162     1.0000 0.01659  0.79135  0.56730  Biso   1.000  C
  C163     1.0000 0.01653  0.79135  0.56730  Biso   1.000  C
  C164     1.0000 0.24316  0.96655  0.60449  Biso   1.000  C
  C165     1.0000 0.24321  0.96655  0.60449  Biso   1.000  C
  H184     1.0000 0.02159  0.82686  0.54130  Biso   1.000  H
  C166     1.0000 0.94387  0.76767  0.60132  Biso   1.000  C
  H185     1.0000 0.02164  0.82686  0.54130  Biso   1.000  H
  H186     1.0000 0.25438  0.93386  0.62711  Biso   1.000  H
  H187     1.0000 0.25444  0.93386  0.62711  Biso   1.000  H
  C167     1.0000 0.24763  0.05033  0.61850  Biso   1.000  C
  C168     1.0000 0.24757  0.05033  0.61850  Biso   1.000  C
  C169     1.0000 0.94619  0.73644  0.64551  Biso   1.000  C
  C170     1.0000 0.87218  0.77557  0.58779  Biso   1.000  C
  C171     1.0000 0.94622  0.73650  0.64551  Biso   1.000  C
  C172     1.0000 0.94613  0.73644  0.64551  Biso   1.000  C
  C173     1.0000 0.94616  0.73650  0.64551  Biso   1.000  C
  C174     1.0000 0.22442  0.09663  0.58779  Biso   1.000  C
  C175     1.0000 0.27878  0.08381  0.66269  Biso   1.000  C
  C176     1.0000 0.27883  0.08381  0.66269  Biso   1.000  C
  C177     1.0000 0.22436  0.09663  0.58779  Biso   1.000  C
  C178     1.0000 0.87669  0.71329  0.67622  Biso   1.000  C
  H188     1.0000 0.99515  0.73104  0.65482  Biso   1.000  H
  H189     1.0000 0.99524  0.73111  0.65482  Biso   1.000  H
  H190     1.0000 0.99518  0.73111  0.65482  Biso   1.000  H
  H191     1.0000 0.87070  0.79687  0.55761  Biso   1.000  H
  C179     1.0000 0.80270  0.75235  0.61850  Biso   1.000  C
  H192     1.0000 0.87064  0.79687  0.55761  Biso   1.000  H
  C180     1.0000 0.80265  0.75235  0.61850  Biso   1.000  C
  C181     1.0000 0.23231  0.17621  0.60132  Biso   1.000  C
  H193     1.0000 0.20310  0.07381  0.55761  Biso   1.000  H
  C182     1.0000 0.23225  0.17621  0.60132  Biso   1.000  C
  C183     1.0000 0.28670  0.16345  0.67622  Biso   1.000  C
  H194     1.0000 0.29459  0.05211  0.68371  Biso   1.000  H
  C184     1.0000 0.28676  0.16345  0.67622  Biso   1.000  C
  C185     1.0000 0.87871  0.67619  0.72330  Biso   1.000  C
  C186     1.0000 0.80500  0.72118  0.66269  Biso   1.000  C
  C187     1.0000 0.87865  0.67619  0.72330  Biso   1.000  C
  C188     1.0000 0.80494  0.72118  0.66269  Biso   1.000  C
  C189     1.0000 0.72341  0.75676  0.60449  Biso   1.000  C
  C190     1.0000 0.72335  0.75676  0.60449  Biso   1.000  C
  C191     1.0000 0.20862  0.22520  0.56730  Biso   1.000  C
  C192     1.0000 0.26349  0.20975  0.64551  Biso   1.000  C
  C193     1.0000 0.26355  0.20975  0.64551  Biso   1.000  C
  C194     1.0000 0.20857  0.22520  0.56730  Biso   1.000  C
  C195     1.0000 0.32378  0.20251  0.72330  Biso   1.000  C
  C196     1.0000 0.32383  0.20251  0.72330  Biso   1.000  C
  N36      1.0000 0.81729  0.65088  0.75160  Biso   1.000  N
  H195     1.0000 0.92886  0.67205  0.73170  Biso   1.000  H
  N37      1.0000 0.81724  0.65088  0.75160  Biso   1.000  N
  H196     1.0000 0.75753  0.70539  0.68371  Biso   1.000  H
  H197     1.0000 0.75747  0.70539  0.68371  Biso   1.000  H
  N38      1.0000 0.71317  0.77478  0.56389  Biso   1.000  N
  H198     1.0000 0.67949  0.74558  0.62711  Biso   1.000  H
  N39      1.0000 0.71322  0.77478  0.56389  Biso   1.000  N
  N40      1.0000 0.23462  0.30668  0.57211  Biso   1.000  N
  H199     1.0000 0.17309  0.19469  0.54130  Biso   1.000  H
  N41      1.0000 0.23465  0.30675  0.57211  Biso   1.000  N
  H200     1.0000 0.17312  0.19475  0.54130  Biso   1.000  H
  N42      1.0000 0.23456  0.30668  0.57211  Biso   1.000  N
  N43      1.0000 0.23459  0.30675  0.57211  Biso   1.000  N
  H201     1.0000 0.26893  0.26413  0.65482  Biso   1.000  H
  H202     1.0000 0.26887  0.26413  0.65482  Biso   1.000  H
  N44      1.0000 0.34912  0.16641  0.75160  Biso   1.000  N
  H203     1.0000 0.32793  0.25683  0.73170  Biso   1.000  H
  N45      1.0000 0.34907  0.16641  0.75160  Biso   1.000  N
  H204     1.0000 0.32787  0.25683  0.73170  Biso   1.000  H
  C197     1.0000 0.82748  0.61339  0.79681  Biso   1.000  C
  C198     1.0000 0.63241  0.77399  0.55221  Biso   1.000  C
  C199     1.0000 0.63235  0.77399  0.55221  Biso   1.000  C
  C200     1.0000 0.21019  0.34542  0.53381  Biso   1.000  C
  C201     1.0000 0.21024  0.34542  0.53381  Biso   1.000  C
  C202     1.0000 0.38657  0.21409  0.79681  Biso   1.000  C
  C203     1.0000 0.38661  0.21415  0.79681  Biso   1.000  C
  C204     1.0000 0.38663  0.21409  0.79681  Biso   1.000  C
  C205     1.0000 0.81827  0.66626  0.83650  Biso   1.000  C
  C206     1.0000 0.75868  0.51599  0.80120  Biso   1.000  C
  H205     1.0000 0.88751  0.62010  0.79799  Biso   1.000  H
  C207     1.0000 0.81832  0.66626  0.83650  Biso   1.000  C
  C208     1.0000 0.75874  0.51599  0.80120  Biso   1.000  C
  H206     1.0000 0.88745  0.62010  0.79799  Biso   1.000  H
  H207     1.0000 0.59478  0.75978  0.58072  Biso   1.000  H
  C209     1.0000 0.58218  0.70349  0.51429  Biso   1.000  C
  C210     1.0000 0.65461  0.86474  0.53381  Biso   1.000  C
  H208     1.0000 0.59484  0.75978  0.58072  Biso   1.000  H
  C211     1.0000 0.58224  0.70349  0.51429  Biso   1.000  C
  C212     1.0000 0.65455  0.86474  0.53381  Biso   1.000  C
  C213     1.0000 0.14159  0.36758  0.55221  Biso   1.000  C
  C214     1.0000 0.29000  0.42690  0.51711  Biso   1.000  C
  H209     1.0000 0.18455  0.30234  0.50760  Biso   1.000  H
  C215     1.0000 0.14162  0.36765  0.55221  Biso   1.000  C
  H210     1.0000 0.18449  0.30234  0.50760  Biso   1.000  H
  C216     1.0000 0.33372  0.15200  0.83650  Biso   1.000  C
  C217     1.0000 0.48397  0.24269  0.80120  Biso   1.000  C
  H211     1.0000 0.37992  0.26742  0.79799  Biso   1.000  H
  C218     1.0000 0.48401  0.24276  0.80120  Biso   1.000  C
  C219     1.0000 0.33366  0.15200  0.83650  Biso   1.000  C
  C220     1.0000 0.48403  0.24269  0.80120  Biso   1.000  C
  H212     1.0000 0.37987  0.26742  0.79799  Biso   1.000  H
  N46      1.0000 0.89059  0.75623  0.83361  Biso   1.000  N
  H213     1.0000 0.76110  0.66528  0.83361  Biso   1.000  H
  C221     1.0000 0.82302  0.62838  0.88370  Biso   1.000  C
  N47      1.0000 0.89062  0.75630  0.83361  Biso   1.000  N
  N48      1.0000 0.89053  0.75623  0.83361  Biso   1.000  N
  H214     1.0000 0.76105  0.66528  0.83361  Biso   1.000  H
  C222     1.0000 0.82296  0.62838  0.88370  Biso   1.000  C
  N49      1.0000 0.89056  0.75630  0.83361  Biso   1.000  N
  C223     1.0000 0.76479  0.48094  0.84822  Biso   1.000  C
  H215     1.0000 0.69919  0.50830  0.79719  Biso   1.000  H
  H216     1.0000 0.76790  0.48225  0.77642  Biso   1.000  H
  C224     1.0000 0.76482  0.48100  0.84822  Biso   1.000  C
  C225     1.0000 0.76473  0.48094  0.84822  Biso   1.000  C
  H217     1.0000 0.76784  0.48225  0.77642  Biso   1.000  H
  C226     1.0000 0.76476  0.48100  0.84822  Biso   1.000  C
  H218     1.0000 0.62179  0.71414  0.48749  Biso   1.000  H
  H219     1.0000 0.56456  0.64456  0.52712  Biso   1.000  H
  C227     1.0000 0.50147  0.70474  0.49770  Biso   1.000  C
  H220     1.0000 0.62183  0.71421  0.48749  Biso   1.000  H
  H221     1.0000 0.56462  0.64456  0.52712  Biso   1.000  H
  C228     1.0000 0.50151  0.70480  0.49770  Biso   1.000  C
  H222     1.0000 0.62174  0.71414  0.48749  Biso   1.000  H
  H223     1.0000 0.62177  0.71421  0.48749  Biso   1.000  H
  N50      1.0000 0.69329  0.92788  0.57211  Biso   1.000  N
  C229     1.0000 0.57310  0.86303  0.51711  Biso   1.000  C
  H224     1.0000 0.69772  0.88217  0.50760  Biso   1.000  H
  N51      1.0000 0.69324  0.92788  0.57211  Biso   1.000  N
  C230     1.0000 0.57314  0.86310  0.51711  Biso   1.000  C
  C231     1.0000 0.57305  0.86303  0.51711  Biso   1.000  C
  H225     1.0000 0.69766  0.88217  0.50760  Biso   1.000  H
  C232     1.0000 0.57308  0.86310  0.51711  Biso   1.000  C
  N52      1.0000 0.06163  0.28682  0.56389  Biso   1.000  N
  H226     1.0000 0.16501  0.40520  0.58072  Biso   1.000  H
  C233     1.0000 0.12132  0.41783  0.51429  Biso   1.000  C
  N53      1.0000 0.06157  0.28682  0.56389  Biso   1.000  N
  H227     1.0000 0.16495  0.40520  0.58072  Biso   1.000  H
  C234     1.0000 0.12126  0.41783  0.51429  Biso   1.000  C
  C235     1.0000 0.26892  0.47281  0.47790  Biso   1.000  C
  H228     1.0000 0.33390  0.41151  0.50579  Biso   1.000  H
  H229     1.0000 0.31657  0.46820  0.54360  Biso   1.000  H
  H230     1.0000 0.31663  0.46820  0.54360  Biso   1.000  H
  C236     1.0000 0.26887  0.47281  0.47790  Biso   1.000  C
  H231     1.0000 0.33385  0.41151  0.50579  Biso   1.000  H
  N54      1.0000 0.24371  0.13431  0.83361  Biso   1.000  N
  H232     1.0000 0.33468  0.09584  0.83361  Biso   1.000  H
  C237     1.0000 0.37160  0.19462  0.88370  Biso   1.000  C
  H233     1.0000 0.33474  0.09584  0.83361  Biso   1.000  H
  N55      1.0000 0.24366  0.13431  0.83361  Biso   1.000  N
  C238     1.0000 0.51899  0.28380  0.84822  Biso   1.000  C
  H234     1.0000 0.49170  0.19094  0.79719  Biso   1.000  H
  H235     1.0000 0.51769  0.28564  0.77642  Biso   1.000  H
  H236     1.0000 0.51775  0.28564  0.77642  Biso   1.000  H
  C239     1.0000 0.51893  0.28380  0.84822  Biso   1.000  C
  C240     1.0000 0.86931  0.81779  0.83180  Biso   1.000  C
  C241     1.0000 0.86925  0.81779  0.83180  Biso   1.000  C
  H237     1.0000 0.81304  0.66094  0.90879  Biso   1.000  H
  H238     1.0000 0.88250  0.63628  0.88791  Biso   1.000  H
  C242     1.0000 0.75412  0.53000  0.88739  Biso   1.000  C
  H239     1.0000 0.81313  0.66100  0.90879  Biso   1.000  H
  H240     1.0000 0.88244  0.63628  0.88791  Biso   1.000  H
  C243     1.0000 0.75406  0.53000  0.88739  Biso   1.000  C
  H241     1.0000 0.81307  0.66100  0.90879  Biso   1.000  H
  H242     1.0000 0.71876  0.41826  0.85041  Biso   1.000  H
  H243     1.0000 0.82272  0.48449  0.85100  Biso   1.000  H
  H244     1.0000 0.71881  0.41826  0.85041  Biso   1.000  H
  H245     1.0000 0.82266  0.48449  0.85100  Biso   1.000  H
  H246     1.0000 0.46010  0.69079  0.52401  Biso   1.000  H
  H247     1.0000 0.47171  0.65956  0.47330  Biso   1.000  H
  C244     1.0000 0.52721  0.79608  0.47790  Biso   1.000  C
  H248     1.0000 0.46005  0.69079  0.52401  Biso   1.000  H
  H249     1.0000 0.47165  0.65956  0.47330  Biso   1.000  H
  C245     1.0000 0.52716  0.79608  0.47790  Biso   1.000  C
  C246     1.0000 0.77481  0.98338  0.56730  Biso   1.000  C
  C247     1.0000 0.77475  0.98338  0.56730  Biso   1.000  C
  H250     1.0000 0.58847  0.92235  0.50579  Biso   1.000  H
  H251     1.0000 0.53177  0.84837  0.54360  Biso   1.000  H
  H252     1.0000 0.58853  0.92235  0.50579  Biso   1.000  H
  H253     1.0000 0.53183  0.84837  0.54360  Biso   1.000  H
  C248     1.0000 0.03340  0.27663  0.60449  Biso   1.000  C
  H254     1.0000 0.09241  0.37824  0.48749  Biso   1.000  H
  H255     1.0000 0.07998  0.43539  0.52712  Biso   1.000  H
  C249     1.0000 0.20330  0.49852  0.49770  Biso   1.000  C
  H256     1.0000 0.08007  0.43545  0.52712  Biso   1.000  H
  H257     1.0000 0.09247  0.37824  0.48749  Biso   1.000  H
  H258     1.0000 0.08001  0.43545  0.52712  Biso   1.000  H
  H259     1.0000 0.24262  0.43262  0.45100  Biso   1.000  H
  H260     1.0000 0.32311  0.52581  0.46741  Biso   1.000  H
  H261     1.0000 0.24257  0.43262  0.45100  Biso   1.000  H
  H262     1.0000 0.32305  0.52581  0.46741  Biso   1.000  H
  C250     1.0000 0.18221  0.05152  0.83180  Biso   1.000  C
  C251     1.0000 0.18215  0.05152  0.83180  Biso   1.000  C
  H263     1.0000 0.33902  0.15214  0.90879  Biso   1.000  H
  H264     1.0000 0.36370  0.24625  0.88791  Biso   1.000  H
  C252     1.0000 0.47000  0.22408  0.88739  Biso   1.000  C
  H265     1.0000 0.36375  0.24625  0.88791  Biso   1.000  H
  C253     1.0000 0.47003  0.22415  0.88739  Biso   1.000  C
  H266     1.0000 0.33897  0.15214  0.90879  Biso   1.000  H
  C254     1.0000 0.46994  0.22408  0.88739  Biso   1.000  C
  C255     1.0000 0.46997  0.22415  0.88739  Biso   1.000  C
  H267     1.0000 0.58168  0.30050  0.85041  Biso   1.000  H
  H268     1.0000 0.51549  0.33818  0.85100  Biso   1.000  H
  H269     1.0000 0.51552  0.33825  0.85100  Biso   1.000  H
  H270     1.0000 0.51543  0.33818  0.85100  Biso   1.000  H
  C256     1.0000 0.93758  0.91104  0.83149  Biso   1.000  C
  H271     1.0000 0.80904  0.80194  0.83061  Biso   1.000  H
  H272     1.0000 0.80913  0.80200  0.83061  Biso   1.000  H
  C257     1.0000 0.93752  0.91104  0.83149  Biso   1.000  C
  H273     1.0000 0.80908  0.80200  0.83061  Biso   1.000  H
  H274     1.0000 0.76137  0.50646  0.91740  Biso   1.000  H
  H275     1.0000 0.69426  0.52224  0.88659  Biso   1.000  H
  H276     1.0000 0.69435  0.52231  0.88659  Biso   1.000  H
  H277     1.0000 0.69429  0.52231  0.88659  Biso   1.000  H
  H278     1.0000 0.56741  0.80996  0.45100  Biso   1.000  H
  H279     1.0000 0.47421  0.79727  0.46741  Biso   1.000  H
  H280     1.0000 0.47416  0.79727  0.46741  Biso   1.000  H
  H281     1.0000 0.56736  0.80996  0.45100  Biso   1.000  H
  H282     1.0000 0.80529  0.97838  0.54130  Biso   1.000  H
  C258     1.0000 0.82382  0.05612  0.60132  Biso   1.000  C
  C259     1.0000 0.82377  0.05612  0.60132  Biso   1.000  C
  C260     1.0000 0.94972  0.19732  0.61850  Biso   1.000  C
  C261     1.0000 0.94967  0.19732  0.61850  Biso   1.000  C
  H283     1.0000 0.06610  0.32049  0.62711  Biso   1.000  H
  H284     1.0000 0.06613  0.32056  0.62711  Biso   1.000  H
  H285     1.0000 0.06604  0.32049  0.62711  Biso   1.000  H
  H286     1.0000 0.23070  0.53989  0.52401  Biso   1.000  H
  H287     1.0000 0.18789  0.52831  0.47330  Biso   1.000  H
  H288     1.0000 0.23073  0.53995  0.52401  Biso   1.000  H
  H289     1.0000 0.23064  0.53989  0.52401  Biso   1.000  H
  H290     1.0000 0.18795  0.52831  0.47330  Biso   1.000  H
  C262     1.0000 0.08890  0.02652  0.83149  Biso   1.000  C
  H291     1.0000 0.19800  0.00712  0.83061  Biso   1.000  H
  H292     1.0000 0.49351  0.25493  0.91740  Biso   1.000  H
  H293     1.0000 0.47767  0.17200  0.88659  Biso   1.000  H
  H294     1.0000 0.47776  0.17206  0.88659  Biso   1.000  H
  H295     1.0000 0.47770  0.17206  0.88659  Biso   1.000  H
  C263     1.0000 0.02561  0.93708  0.83110  Biso   1.000  C
  C264     1.0000 0.91149  0.97437  0.83110  Biso   1.000  C
  C265     1.0000 0.91144  0.97437  0.83110  Biso   1.000  C
  C266     1.0000 0.02555  0.93708  0.83110  Biso   1.000  C
  C267     1.0000 0.79032  0.05382  0.64551  Biso   1.000  C
  C268     1.0000 0.90340  0.12780  0.58779  Biso   1.000  C
  C269     1.0000 0.79026  0.05382  0.64551  Biso   1.000  C
  C270     1.0000 0.90335  0.12780  0.58779  Biso   1.000  C
  C271     1.0000 0.91622  0.19501  0.66269  Biso   1.000  C
  C272     1.0000 0.91617  0.19501  0.66269  Biso   1.000  C
  C273     1.0000 0.06289  0.08854  0.83110  Biso   1.000  C
  C274     1.0000 0.06295  0.08854  0.83110  Biso   1.000  C
  H296     1.0000 0.04340  0.89407  0.83051  Biso   1.000  H
  H297     1.0000 0.04335  0.89407  0.83051  Biso   1.000  H
  H298     1.0000 0.85070  0.95655  0.83051  Biso   1.000  H
  H299     1.0000 0.85064  0.95655  0.83051  Biso   1.000  H
  C275     1.0000 0.97352  0.06243  0.83149  Biso   1.000  C
  C276     1.0000 0.97346  0.06243  0.83149  Biso   1.000  C
  C277     1.0000 0.83664  0.12333  0.67622  Biso   1.000  C
  H300     1.0000 0.73592  0.00482  0.65482  Biso   1.000  H
  C278     1.0000 0.83658  0.12333  0.67622  Biso   1.000  C
  H301     1.0000 0.73587  0.00482  0.65482  Biso   1.000  H
  H302     1.0000 0.92620  0.12932  0.55761  Biso   1.000  H
  H303     1.0000 0.92615  0.12932  0.55761  Biso   1.000  H
  H304     1.0000 0.94788  0.24250  0.68371  Biso   1.000  H
  H305     1.0000 0.94791  0.24256  0.68371  Biso   1.000  H
  H306     1.0000 0.10592  0.14931  0.83051  Biso   1.000  H
  H307     1.0000 0.10586  0.14931  0.83051  Biso   1.000  H
  C279     1.0000 0.94848  0.13070  0.83180  Biso   1.000  C
  C280     1.0000 0.94851  0.13076  0.83180  Biso   1.000  C
  C281     1.0000 0.79752  0.12129  0.72330  Biso   1.000  C
  C282     1.0000 0.79749  0.12136  0.72330  Biso   1.000  C
  C283     1.0000 0.79746  0.12129  0.72330  Biso   1.000  C
  N56      1.0000 0.86572  0.10939  0.83361  Biso   1.000  N
  H308     1.0000 0.99289  0.19094  0.83061  Biso   1.000  H
  N57      1.0000 0.86570  0.10945  0.83361  Biso   1.000  N
  N58      1.0000 0.86566  0.10939  0.83361  Biso   1.000  N
  N59      1.0000 0.83364  0.18272  0.75160  Biso   1.000  N
  H309     1.0000 0.74321  0.07111  0.73170  Biso   1.000  H
  N60      1.0000 0.83358  0.18272  0.75160  Biso   1.000  N
  H310     1.0000 0.74315  0.07111  0.73170  Biso   1.000  H
  C284     1.0000 0.84801  0.18173  0.83650  Biso   1.000  C
  C285     1.0000 0.84796  0.18173  0.83650  Biso   1.000  C
  C286     1.0000 0.78594  0.17252  0.79681  Biso   1.000  C
  C287     1.0000 0.78589  0.17252  0.79681  Biso   1.000  C
  H311     1.0000 0.90424  0.23895  0.83361  Biso   1.000  H
  C288     1.0000 0.80538  0.17699  0.88370  Biso   1.000  C
  H312     1.0000 0.90419  0.23895  0.83361  Biso   1.000  H
  C289     1.0000 0.80541  0.17706  0.88370  Biso   1.000  C
  C290     1.0000 0.75729  0.24131  0.80120  Biso   1.000  C
  H313     1.0000 0.73266  0.11255  0.79799  Biso   1.000  H
  H314     1.0000 0.73260  0.11255  0.79799  Biso   1.000  H
  H315     1.0000 0.84793  0.18693  0.90879  Biso   1.000  H
  H316     1.0000 0.75384  0.11754  0.88791  Biso   1.000  H
  C291     1.0000 0.77594  0.24592  0.88739  Biso   1.000  C
  H317     1.0000 0.84788  0.18693  0.90879  Biso   1.000  H
  H318     1.0000 0.75378  0.11754  0.88791  Biso   1.000  H
  C292     1.0000 0.77588  0.24592  0.88739  Biso   1.000  C
  C293     1.0000 0.71619  0.23520  0.84822  Biso   1.000  C
  H319     1.0000 0.80915  0.30083  0.79719  Biso   1.000  H
  H320     1.0000 0.71441  0.23211  0.77642  Biso   1.000  H
  C294     1.0000 0.71622  0.23526  0.84822  Biso   1.000  C
  H321     1.0000 0.80909  0.30083  0.79719  Biso   1.000  H
  H322     1.0000 0.71436  0.23211  0.77642  Biso   1.000  H
  H323     1.0000 0.74512  0.23862  0.91740  Biso   1.000  H
  H324     1.0000 0.82798  0.30570  0.88659  Biso   1.000  H
  H325     1.0000 0.74506  0.23862  0.91740  Biso   1.000  H
  H326     1.0000 0.69951  0.28123  0.85041  Biso   1.000  H
  H327     1.0000 0.66185  0.17732  0.85100  Biso   1.000  H
  H328     1.0000 0.66179  0.17732  0.85100  Biso   1.000  H
  C295     1.0000 0.20389  0.73104  0.47790  Biso   1.000  C
  C296     1.0000 0.29519  0.79668  0.49770  Biso   1.000  C
  H329     1.0000 0.18999  0.75735  0.45100  Biso   1.000  H
  H330     1.0000 0.20265  0.67685  0.46741  Biso   1.000  H
  C297     1.0000 0.13683  0.70993  0.51711  Biso   1.000  C
  H331     1.0000 0.20270  0.67685  0.46741  Biso   1.000  H
  C298     1.0000 0.13692  0.71000  0.51711  Biso   1.000  C
  C299     1.0000 0.13689  0.70993  0.51711  Biso   1.000  C
  H332     1.0000 0.18993  0.75735  0.45100  Biso   1.000  H
  C300     1.0000 0.13686  0.71000  0.51711  Biso   1.000  C
  C301     1.0000 0.29650  0.87869  0.51429  Biso   1.000  C
  H333     1.0000 0.30916  0.76925  0.52401  Biso   1.000  H
  H334     1.0000 0.34036  0.81207  0.47330  Biso   1.000  H
  C302     1.0000 0.20392  0.73111  0.47790  Biso   1.000  C
  H335     1.0000 0.30922  0.76925  0.52401  Biso   1.000  H
  H336     1.0000 0.34042  0.81207  0.47330  Biso   1.000  H
  C303     1.0000 0.29644  0.87869  0.51429  Biso   1.000  C
  C304     1.0000 0.20386  0.73111  0.47790  Biso   1.000  C
  C305     1.0000 0.13517  0.78977  0.53381  Biso   1.000  C
  C306     1.0000 0.13523  0.78977  0.53381  Biso   1.000  C
  H337     1.0000 0.07759  0.66607  0.50579  Biso   1.000  H
  H338     1.0000 0.15157  0.68336  0.54360  Biso   1.000  H
  H339     1.0000 0.15163  0.68336  0.54360  Biso   1.000  H
  H340     1.0000 0.07754  0.66607  0.50579  Biso   1.000  H
  H341     1.0000 0.28576  0.90756  0.48749  Biso   1.000  H
  H342     1.0000 0.35537  0.91999  0.52712  Biso   1.000  H
  C307     1.0000 0.22597  0.85836  0.55221  Biso   1.000  C
  C308     1.0000 0.22603  0.85836  0.55221  Biso   1.000  C
  H343     1.0000 0.28582  0.90756  0.48749  Biso   1.000  H
  H344     1.0000 0.35543  0.91999  0.52712  Biso   1.000  H
  H345     1.0000 0.11779  0.81549  0.50760  Biso   1.000  H
  N61      1.0000 0.07206  0.76537  0.57211  Biso   1.000  N
  N62      1.0000 0.07212  0.76537  0.57211  Biso   1.000  N
  H346     1.0000 0.24018  0.83495  0.58072  Biso   1.000  H
  N63      1.0000 0.22518  0.93833  0.56389  Biso   1.000  N
  N64      1.0000 0.22521  0.93840  0.56389  Biso   1.000  N
  N65      1.0000 0.22515  0.93840  0.56389  Biso   1.000  N
  H347     1.0000 0.24023  0.83495  0.58072  Biso   1.000  H
  C309     1.0000 0.01659  0.79135  0.56730  Biso   1.000  C
  C310     1.0000 0.01653  0.79135  0.56730  Biso   1.000  C
  C311     1.0000 0.24316  0.96655  0.60449  Biso   1.000  C
  C312     1.0000 0.24321  0.96655  0.60449  Biso   1.000  C
  H348     1.0000 0.02159  0.82686  0.54130  Biso   1.000  H
  C313     1.0000 0.94387  0.76767  0.60132  Biso   1.000  C
  H349     1.0000 0.02164  0.82686  0.54130  Biso   1.000  H
  H350     1.0000 0.25438  0.93386  0.62711  Biso   1.000  H
  H351     1.0000 0.25444  0.93386  0.62711  Biso   1.000  H
  C314     1.0000 0.24763  0.05033  0.61850  Biso   1.000  C
  C315     1.0000 0.24757  0.05033  0.61850  Biso   1.000  C
  C316     1.0000 0.94619  0.73644  0.64551  Biso   1.000  C
  C317     1.0000 0.87218  0.77557  0.58779  Biso   1.000  C
  C318     1.0000 0.94622  0.73650  0.64551  Biso   1.000  C
  C319     1.0000 0.94613  0.73644  0.64551  Biso   1.000  C
  C320     1.0000 0.94616  0.73650  0.64551  Biso   1.000  C
  C321     1.0000 0.22442  0.09663  0.58779  Biso   1.000  C
  C322     1.0000 0.27878  0.08381  0.66269  Biso   1.000  C
  C323     1.0000 0.27883  0.08381  0.66269  Biso   1.000  C
  C324     1.0000 0.22436  0.09663  0.58779  Biso   1.000  C
  C325     1.0000 0.87669  0.71329  0.67622  Biso   1.000  C
  H352     1.0000 0.99515  0.73104  0.65482  Biso   1.000  H
  H353     1.0000 0.99524  0.73111  0.65482  Biso   1.000  H
  H354     1.0000 0.99518  0.73111  0.65482  Biso   1.000  H
  H355     1.0000 0.87070  0.79687  0.55761  Biso   1.000  H
  C326     1.0000 0.80270  0.75235  0.61850  Biso   1.000  C
  H356     1.0000 0.87064  0.79687  0.55761  Biso   1.000  H
  C327     1.0000 0.80265  0.75235  0.61850  Biso   1.000  C
  C328     1.0000 0.23231  0.17621  0.60132  Biso   1.000  C
  H357     1.0000 0.20310  0.07381  0.55761  Biso   1.000  H
  C329     1.0000 0.23225  0.17621  0.60132  Biso   1.000  C
  C330     1.0000 0.28670  0.16345  0.67622  Biso   1.000  C
  H358     1.0000 0.29459  0.05211  0.68371  Biso   1.000  H
  C331     1.0000 0.28676  0.16345  0.67622  Biso   1.000  C
  C332     1.0000 0.87871  0.67619  0.72330  Biso   1.000  C
  C333     1.0000 0.80500  0.72118  0.66269  Biso   1.000  C
  C334     1.0000 0.87865  0.67619  0.72330  Biso   1.000  C
  C335     1.0000 0.80494  0.72118  0.66269  Biso   1.000  C
  C336     1.0000 0.72341  0.75676  0.60449  Biso   1.000  C
  C337     1.0000 0.72335  0.75676  0.60449  Biso   1.000  C
  C338     1.0000 0.20862  0.22520  0.56730  Biso   1.000  C
  C339     1.0000 0.26349  0.20975  0.64551  Biso   1.000  C
  C340     1.0000 0.26355  0.20975  0.64551  Biso   1.000  C
  C341     1.0000 0.20857  0.22520  0.56730  Biso   1.000  C
  C342     1.0000 0.32378  0.20251  0.72330  Biso   1.000  C
  C343     1.0000 0.32383  0.20251  0.72330  Biso   1.000  C
  N66      1.0000 0.81729  0.65088  0.75160  Biso   1.000  N
  H359     1.0000 0.92886  0.67205  0.73170  Biso   1.000  H
  N67      1.0000 0.81724  0.65088  0.75160  Biso   1.000  N
  H360     1.0000 0.75753  0.70539  0.68371  Biso   1.000  H
  H361     1.0000 0.75747  0.70539  0.68371  Biso   1.000  H
  N68      1.0000 0.71317  0.77478  0.56389  Biso   1.000  N
  H362     1.0000 0.67949  0.74558  0.62711  Biso   1.000  H
  N69      1.0000 0.71322  0.77478  0.56389  Biso   1.000  N
  N70      1.0000 0.23462  0.30668  0.57211  Biso   1.000  N
  H363     1.0000 0.17309  0.19469  0.54130  Biso   1.000  H
  N71      1.0000 0.23465  0.30675  0.57211  Biso   1.000  N
  H364     1.0000 0.17312  0.19475  0.54130  Biso   1.000  H
  N72      1.0000 0.23456  0.30668  0.57211  Biso   1.000  N
  N73      1.0000 0.23459  0.30675  0.57211  Biso   1.000  N
  H365     1.0000 0.26893  0.26413  0.65482  Biso   1.000  H
  H366     1.0000 0.26887  0.26413  0.65482  Biso   1.000  H
  N74      1.0000 0.34912  0.16641  0.75160  Biso   1.000  N
  H367     1.0000 0.32793  0.25683  0.73170  Biso   1.000  H
  N75      1.0000 0.34907  0.16641  0.75160  Biso   1.000  N
  H368     1.0000 0.32787  0.25683  0.73170  Biso   1.000  H
  C344     1.0000 0.82748  0.61339  0.79681  Biso   1.000  C
  C345     1.0000 0.63241  0.77399  0.55221  Biso   1.000  C
  C346     1.0000 0.63235  0.77399  0.55221  Biso   1.000  C
  C347     1.0000 0.21019  0.34542  0.53381  Biso   1.000  C
  C348     1.0000 0.21024  0.34542  0.53381  Biso   1.000  C
  C349     1.0000 0.38657  0.21409  0.79681  Biso   1.000  C
  C350     1.0000 0.38661  0.21415  0.79681  Biso   1.000  C
  C351     1.0000 0.38663  0.21409  0.79681  Biso   1.000  C
  C352     1.0000 0.81827  0.66626  0.83650  Biso   1.000  C
  C353     1.0000 0.75868  0.51599  0.80120  Biso   1.000  C
  H369     1.0000 0.88751  0.62010  0.79799  Biso   1.000  H
  C354     1.0000 0.81832  0.66626  0.83650  Biso   1.000  C
  C355     1.0000 0.75874  0.51599  0.80120  Biso   1.000  C
  H370     1.0000 0.88745  0.62010  0.79799  Biso   1.000  H
  H371     1.0000 0.59478  0.75978  0.58072  Biso   1.000  H
  C356     1.0000 0.58218  0.70349  0.51429  Biso   1.000  C
  C357     1.0000 0.65461  0.86474  0.53381  Biso   1.000  C
  H372     1.0000 0.59484  0.75978  0.58072  Biso   1.000  H
  C358     1.0000 0.58224  0.70349  0.51429  Biso   1.000  C
  C359     1.0000 0.65455  0.86474  0.53381  Biso   1.000  C
  C360     1.0000 0.14159  0.36758  0.55221  Biso   1.000  C
  C361     1.0000 0.29000  0.42690  0.51711  Biso   1.000  C
  H373     1.0000 0.18455  0.30234  0.50760  Biso   1.000  H
  C362     1.0000 0.14162  0.36765  0.55221  Biso   1.000  C
  H374     1.0000 0.18449  0.30234  0.50760  Biso   1.000  H
  C363     1.0000 0.33372  0.15200  0.83650  Biso   1.000  C
  C364     1.0000 0.48397  0.24269  0.80120  Biso   1.000  C
  H375     1.0000 0.37992  0.26742  0.79799  Biso   1.000  H
  C365     1.0000 0.48401  0.24276  0.80120  Biso   1.000  C
  C366     1.0000 0.33366  0.15200  0.83650  Biso   1.000  C
  C367     1.0000 0.48403  0.24269  0.80120  Biso   1.000  C
  H376     1.0000 0.37987  0.26742  0.79799  Biso   1.000  H
  N76      1.0000 0.89059  0.75623  0.83361  Biso   1.000  N
  H377     1.0000 0.76110  0.66528  0.83361  Biso   1.000  H
  C368     1.0000 0.82302  0.62838  0.88370  Biso   1.000  C
  N77      1.0000 0.89062  0.75630  0.83361  Biso   1.000  N
  N78      1.0000 0.89053  0.75623  0.83361  Biso   1.000  N
  H378     1.0000 0.76105  0.66528  0.83361  Biso   1.000  H
  C369     1.0000 0.82296  0.62838  0.88370  Biso   1.000  C
  N79      1.0000 0.89056  0.75630  0.83361  Biso   1.000  N
  C370     1.0000 0.76479  0.48094  0.84822  Biso   1.000  C
  H379     1.0000 0.69919  0.50830  0.79719  Biso   1.000  H
  H380     1.0000 0.76790  0.48225  0.77642  Biso   1.000  H
  C371     1.0000 0.76482  0.48100  0.84822  Biso   1.000  C
  C372     1.0000 0.76473  0.48094  0.84822  Biso   1.000  C
  H381     1.0000 0.76784  0.48225  0.77642  Biso   1.000  H
  C373     1.0000 0.76476  0.48100  0.84822  Biso   1.000  C
  H382     1.0000 0.62179  0.71414  0.48749  Biso   1.000  H
  H383     1.0000 0.56456  0.64456  0.52712  Biso   1.000  H
  C374     1.0000 0.50147  0.70474  0.49770  Biso   1.000  C
  H384     1.0000 0.62183  0.71421  0.48749  Biso   1.000  H
  H385     1.0000 0.56462  0.64456  0.52712  Biso   1.000  H
  C375     1.0000 0.50151  0.70480  0.49770  Biso   1.000  C
  H386     1.0000 0.62174  0.71414  0.48749  Biso   1.000  H
  H387     1.0000 0.62177  0.71421  0.48749  Biso   1.000  H
  N80      1.0000 0.69329  0.92788  0.57211  Biso   1.000  N
  C376     1.0000 0.57310  0.86303  0.51711  Biso   1.000  C
  H388     1.0000 0.69772  0.88217  0.50760  Biso   1.000  H
  N81      1.0000 0.69324  0.92788  0.57211  Biso   1.000  N
  C377     1.0000 0.57314  0.86310  0.51711  Biso   1.000  C
  C378     1.0000 0.57305  0.86303  0.51711  Biso   1.000  C
  H389     1.0000 0.69766  0.88217  0.50760  Biso   1.000  H
  C379     1.0000 0.57308  0.86310  0.51711  Biso   1.000  C
  N82      1.0000 0.06163  0.28682  0.56389  Biso   1.000  N
  H390     1.0000 0.16501  0.40520  0.58072  Biso   1.000  H
  C380     1.0000 0.12132  0.41783  0.51429  Biso   1.000  C
  N83      1.0000 0.06157  0.28682  0.56389  Biso   1.000  N
  H391     1.0000 0.16495  0.40520  0.58072  Biso   1.000  H
  C381     1.0000 0.12126  0.41783  0.51429  Biso   1.000  C
  C382     1.0000 0.26892  0.47281  0.47790  Biso   1.000  C
  H392     1.0000 0.33390  0.41151  0.50579  Biso   1.000  H
  H393     1.0000 0.31657  0.46820  0.54360  Biso   1.000  H
  H394     1.0000 0.31663  0.46820  0.54360  Biso   1.000  H
  C383     1.0000 0.26887  0.47281  0.47790  Biso   1.000  C
  H395     1.0000 0.33385  0.41151  0.50579  Biso   1.000  H
  N84      1.0000 0.24371  0.13431  0.83361  Biso   1.000  N
  H396     1.0000 0.33468  0.09584  0.83361  Biso   1.000  H
  C384     1.0000 0.37160  0.19462  0.88370  Biso   1.000  C
  H397     1.0000 0.33474  0.09584  0.83361  Biso   1.000  H
  N85      1.0000 0.24366  0.13431  0.83361  Biso   1.000  N
  C385     1.0000 0.51899  0.28380  0.84822  Biso   1.000  C
  H398     1.0000 0.49170  0.19094  0.79719  Biso   1.000  H
  H399     1.0000 0.51769  0.28564  0.77642  Biso   1.000  H
  H400     1.0000 0.51775  0.28564  0.77642  Biso   1.000  H
  C386     1.0000 0.51893  0.28380  0.84822  Biso   1.000  C
  C387     1.0000 0.86931  0.81779  0.83180  Biso   1.000  C
  C388     1.0000 0.86925  0.81779  0.83180  Biso   1.000  C
  H401     1.0000 0.81304  0.66094  0.90879  Biso   1.000  H
  H402     1.0000 0.88250  0.63628  0.88791  Biso   1.000  H
  C389     1.0000 0.75412  0.53000  0.88739  Biso   1.000  C
  H403     1.0000 0.81313  0.66100  0.90879  Biso   1.000  H
  H404     1.0000 0.88244  0.63628  0.88791  Biso   1.000  H
  C390     1.0000 0.75406  0.53000  0.88739  Biso   1.000  C
  H405     1.0000 0.81307  0.66100  0.90879  Biso   1.000  H
  H406     1.0000 0.71876  0.41826  0.85041  Biso   1.000  H
  H407     1.0000 0.82272  0.48449  0.85100  Biso   1.000  H
  H408     1.0000 0.71881  0.41826  0.85041  Biso   1.000  H
  H409     1.0000 0.82266  0.48449  0.85100  Biso   1.000  H
  H410     1.0000 0.46010  0.69079  0.52401  Biso   1.000  H
  H411     1.0000 0.47171  0.65956  0.47330  Biso   1.000  H
  C391     1.0000 0.52721  0.79608  0.47790  Biso   1.000  C
  H412     1.0000 0.46005  0.69079  0.52401  Biso   1.000  H
  H413     1.0000 0.47165  0.65956  0.47330  Biso   1.000  H
  C392     1.0000 0.52716  0.79608  0.47790  Biso   1.000  C
  C393     1.0000 0.77481  0.98338  0.56730  Biso   1.000  C
  C394     1.0000 0.77475  0.98338  0.56730  Biso   1.000  C
  H414     1.0000 0.58847  0.92235  0.50579  Biso   1.000  H
  H415     1.0000 0.53177  0.84837  0.54360  Biso   1.000  H
  H416     1.0000 0.58853  0.92235  0.50579  Biso   1.000  H
  H417     1.0000 0.53183  0.84837  0.54360  Biso   1.000  H
  C395     1.0000 0.03340  0.27663  0.60449  Biso   1.000  C
  H418     1.0000 0.09241  0.37824  0.48749  Biso   1.000  H
  H419     1.0000 0.07998  0.43539  0.52712  Biso   1.000  H
  C396     1.0000 0.20330  0.49852  0.49770  Biso   1.000  C
  H420     1.0000 0.08007  0.43545  0.52712  Biso   1.000  H
  H421     1.0000 0.09247  0.37824  0.48749  Biso   1.000  H
  H422     1.0000 0.08001  0.43545  0.52712  Biso   1.000  H
  H423     1.0000 0.24262  0.43262  0.45100  Biso   1.000  H
  H424     1.0000 0.32311  0.52581  0.46741  Biso   1.000  H
  H425     1.0000 0.24257  0.43262  0.45100  Biso   1.000  H
  H426     1.0000 0.32305  0.52581  0.46741  Biso   1.000  H
  C397     1.0000 0.18221  0.05152  0.83180  Biso   1.000  C
  C398     1.0000 0.18215  0.05152  0.83180  Biso   1.000  C
  H427     1.0000 0.33902  0.15214  0.90879  Biso   1.000  H
  H428     1.0000 0.36370  0.24625  0.88791  Biso   1.000  H
  C399     1.0000 0.47000  0.22408  0.88739  Biso   1.000  C
  H429     1.0000 0.36375  0.24625  0.88791  Biso   1.000  H
  C400     1.0000 0.47003  0.22415  0.88739  Biso   1.000  C
  H430     1.0000 0.33897  0.15214  0.90879  Biso   1.000  H
  C401     1.0000 0.46994  0.22408  0.88739  Biso   1.000  C
  C402     1.0000 0.46997  0.22415  0.88739  Biso   1.000  C
  H431     1.0000 0.58168  0.30050  0.85041  Biso   1.000  H
  H432     1.0000 0.51549  0.33818  0.85100  Biso   1.000  H
  H433     1.0000 0.51552  0.33825  0.85100  Biso   1.000  H
  H434     1.0000 0.51543  0.33818  0.85100  Biso   1.000  H
  C403     1.0000 0.93758  0.91104  0.83149  Biso   1.000  C
  H435     1.0000 0.80904  0.80194  0.83061  Biso   1.000  H
  H436     1.0000 0.80913  0.80200  0.83061  Biso   1.000  H
  C404     1.0000 0.93752  0.91104  0.83149  Biso   1.000  C
  H437     1.0000 0.80908  0.80200  0.83061  Biso   1.000  H
  H438     1.0000 0.76137  0.50646  0.91740  Biso   1.000  H
  H439     1.0000 0.69426  0.52224  0.88659  Biso   1.000  H
  H440     1.0000 0.69435  0.52231  0.88659  Biso   1.000  H
  H441     1.0000 0.69429  0.52231  0.88659  Biso   1.000  H
  H442     1.0000 0.56741  0.80996  0.45100  Biso   1.000  H
  H443     1.0000 0.47421  0.79727  0.46741  Biso   1.000  H
  H444     1.0000 0.47416  0.79727  0.46741  Biso   1.000  H
  H445     1.0000 0.56736  0.80996  0.45100  Biso   1.000  H
  H446     1.0000 0.80529  0.97838  0.54130  Biso   1.000  H
  C405     1.0000 0.82382  0.05612  0.60132  Biso   1.000  C
  C406     1.0000 0.82377  0.05612  0.60132  Biso   1.000  C
  C407     1.0000 0.94972  0.19732  0.61850  Biso   1.000  C
  C408     1.0000 0.94967  0.19732  0.61850  Biso   1.000  C
  H447     1.0000 0.06610  0.32049  0.62711  Biso   1.000  H
  H448     1.0000 0.06613  0.32056  0.62711  Biso   1.000  H
  H449     1.0000 0.06604  0.32049  0.62711  Biso   1.000  H
  H450     1.0000 0.23070  0.53989  0.52401  Biso   1.000  H
  H451     1.0000 0.18789  0.52831  0.47330  Biso   1.000  H
  H452     1.0000 0.23073  0.53995  0.52401  Biso   1.000  H
  H453     1.0000 0.23064  0.53989  0.52401  Biso   1.000  H
  H454     1.0000 0.18795  0.52831  0.47330  Biso   1.000  H
  C409     1.0000 0.08890  0.02652  0.83149  Biso   1.000  C
  H455     1.0000 0.19800  0.00712  0.83061  Biso   1.000  H
  H456     1.0000 0.49351  0.25493  0.91740  Biso   1.000  H
  H457     1.0000 0.47767  0.17200  0.88659  Biso   1.000  H
  H458     1.0000 0.47776  0.17206  0.88659  Biso   1.000  H
  H459     1.0000 0.47770  0.17206  0.88659  Biso   1.000  H
  C410     1.0000 0.02561  0.93708  0.83110  Biso   1.000  C
  C411     1.0000 0.02555  0.93708  0.83110  Biso   1.000  C
  C412     1.0000 0.91149  0.97437  0.83110  Biso   1.000  C
  C413     1.0000 0.91144  0.97437  0.83110  Biso   1.000  C
  C414     1.0000 0.90340  0.12780  0.58779  Biso   1.000  C
  C415     1.0000 0.90335  0.12780  0.58779  Biso   1.000  C
  C416     1.0000 0.79032  0.05382  0.64551  Biso   1.000  C
  C417     1.0000 0.79026  0.05382  0.64551  Biso   1.000  C
  C418     1.0000 0.91622  0.19501  0.66269  Biso   1.000  C
  C419     1.0000 0.91617  0.19501  0.66269  Biso   1.000  C
  C420     1.0000 0.06289  0.08854  0.83110  Biso   1.000  C
  C421     1.0000 0.06295  0.08854  0.83110  Biso   1.000  C
  H460     1.0000 0.04340  0.89407  0.83051  Biso   1.000  H
  H461     1.0000 0.04335  0.89407  0.83051  Biso   1.000  H
  C422     1.0000 0.97352  0.06243  0.83149  Biso   1.000  C
  C423     1.0000 0.97346  0.06243  0.83149  Biso   1.000  C
  H462     1.0000 0.85070  0.95655  0.83051  Biso   1.000  H
  H463     1.0000 0.85064  0.95655  0.83051  Biso   1.000  H
  H464     1.0000 0.92620  0.12932  0.55761  Biso   1.000  H
  H465     1.0000 0.92615  0.12932  0.55761  Biso   1.000  H
  C424     1.0000 0.83664  0.12333  0.67622  Biso   1.000  C
  C425     1.0000 0.83658  0.12333  0.67622  Biso   1.000  C
  H466     1.0000 0.73592  0.00482  0.65482  Biso   1.000  H
  H467     1.0000 0.73587  0.00482  0.65482  Biso   1.000  H
  H468     1.0000 0.94788  0.24250  0.68371  Biso   1.000  H
  H469     1.0000 0.94791  0.24256  0.68371  Biso   1.000  H
  H470     1.0000 0.10592  0.14931  0.83051  Biso   1.000  H
  H471     1.0000 0.10586  0.14931  0.83051  Biso   1.000  H
  C426     1.0000 0.94848  0.13070  0.83180  Biso   1.000  C
  C427     1.0000 0.94851  0.13076  0.83180  Biso   1.000  C
  C428     1.0000 0.79752  0.12129  0.72330  Biso   1.000  C
  C429     1.0000 0.79749  0.12136  0.72330  Biso   1.000  C
  C430     1.0000 0.79746  0.12129  0.72330  Biso   1.000  C
  N86      1.0000 0.86572  0.10939  0.83361  Biso   1.000  N
  H472     1.0000 0.99289  0.19094  0.83061  Biso   1.000  H
  N87      1.0000 0.86570  0.10945  0.83361  Biso   1.000  N
  N88      1.0000 0.86566  0.10939  0.83361  Biso   1.000  N
  N89      1.0000 0.83364  0.18272  0.75160  Biso   1.000  N
  H473     1.0000 0.74321  0.07111  0.73170  Biso   1.000  H
  N90      1.0000 0.83358  0.18272  0.75160  Biso   1.000  N
  H474     1.0000 0.74315  0.07111  0.73170  Biso   1.000  H
  C431     1.0000 0.84801  0.18173  0.83650  Biso   1.000  C
  C432     1.0000 0.84796  0.18173  0.83650  Biso   1.000  C
  C433     1.0000 0.78594  0.17252  0.79681  Biso   1.000  C
  C434     1.0000 0.78589  0.17252  0.79681  Biso   1.000  C
  H475     1.0000 0.90424  0.23895  0.83361  Biso   1.000  H
  C435     1.0000 0.80538  0.17699  0.88370  Biso   1.000  C
  H476     1.0000 0.90419  0.23895  0.83361  Biso   1.000  H
  C436     1.0000 0.80541  0.17706  0.88370  Biso   1.000  C
  C437     1.0000 0.75729  0.24131  0.80120  Biso   1.000  C
  H477     1.0000 0.73266  0.11255  0.79799  Biso   1.000  H
  H478     1.0000 0.73260  0.11255  0.79799  Biso   1.000  H
  H479     1.0000 0.84793  0.18693  0.90879  Biso   1.000  H
  H480     1.0000 0.75384  0.11754  0.88791  Biso   1.000  H
  C438     1.0000 0.77594  0.24592  0.88739  Biso   1.000  C
  H481     1.0000 0.84788  0.18693  0.90879  Biso   1.000  H
  H482     1.0000 0.75378  0.11754  0.88791  Biso   1.000  H
  C439     1.0000 0.77588  0.24592  0.88739  Biso   1.000  C
  C440     1.0000 0.71619  0.23520  0.84822  Biso   1.000  C
  H483     1.0000 0.80915  0.30083  0.79719  Biso   1.000  H
  H484     1.0000 0.71441  0.23211  0.77642  Biso   1.000  H
  C441     1.0000 0.71622  0.23526  0.84822  Biso   1.000  C
  H485     1.0000 0.80909  0.30083  0.79719  Biso   1.000  H
  H486     1.0000 0.71436  0.23211  0.77642  Biso   1.000  H
  H487     1.0000 0.74512  0.23862  0.91740  Biso   1.000  H
  H488     1.0000 0.82798  0.30570  0.88659  Biso   1.000  H
  H489     1.0000 0.74506  0.23862  0.91740  Biso   1.000  H
  H490     1.0000 0.69951  0.28123  0.85041  Biso   1.000  H
  H491     1.0000 0.66185  0.17732  0.85100  Biso   1.000  H
  H492     1.0000 0.66179  0.17732  0.85100  Biso   1.000  H
  C442     1.0000 0.20389  0.73104  0.47790  Biso   1.000  C
  C443     1.0000 0.29519  0.79668  0.49770  Biso   1.000  C
  H493     1.0000 0.18999  0.75735  0.45100  Biso   1.000  H
  H494     1.0000 0.20265  0.67685  0.46741  Biso   1.000  H
  C444     1.0000 0.13683  0.70993  0.51711  Biso   1.000  C
  H495     1.0000 0.20270  0.67685  0.46741  Biso   1.000  H
  C445     1.0000 0.13692  0.71000  0.51711  Biso   1.000  C
  C446     1.0000 0.13689  0.70993  0.51711  Biso   1.000  C
  H496     1.0000 0.18993  0.75735  0.45100  Biso   1.000  H
  C447     1.0000 0.13686  0.71000  0.51711  Biso   1.000  C
  C448     1.0000 0.29650  0.87869  0.51429  Biso   1.000  C
  H497     1.0000 0.30916  0.76925  0.52401  Biso   1.000  H
  H498     1.0000 0.34036  0.81207  0.47330  Biso   1.000  H
  C449     1.0000 0.20392  0.73111  0.47790  Biso   1.000  C
  H499     1.0000 0.30922  0.76925  0.52401  Biso   1.000  H
  H500     1.0000 0.34042  0.81207  0.47330  Biso   1.000  H
  C450     1.0000 0.29644  0.87869  0.51429  Biso   1.000  C
  C451     1.0000 0.20386  0.73111  0.47790  Biso   1.000  C
  C452     1.0000 0.13517  0.78977  0.53381  Biso   1.000  C
  C453     1.0000 0.13523  0.78977  0.53381  Biso   1.000  C
  H501     1.0000 0.07759  0.66607  0.50579  Biso   1.000  H
  H502     1.0000 0.15157  0.68336  0.54360  Biso   1.000  H
  H503     1.0000 0.15163  0.68336  0.54360  Biso   1.000  H
  H504     1.0000 0.07754  0.66607  0.50579  Biso   1.000  H
  C454     1.0000 0.22597  0.85836  0.55221  Biso   1.000  C
  H505     1.0000 0.28576  0.90756  0.48749  Biso   1.000  H
  H506     1.0000 0.35537  0.91999  0.52712  Biso   1.000  H
  C455     1.0000 0.22603  0.85836  0.55221  Biso   1.000  C
  H507     1.0000 0.28582  0.90756  0.48749  Biso   1.000  H
  H508     1.0000 0.35543  0.91999  0.52712  Biso   1.000  H
  H509     1.0000 0.11779  0.81549  0.50760  Biso   1.000  H
  N91      1.0000 0.07206  0.76537  0.57211  Biso   1.000  N
  N92      1.0000 0.07212  0.76537  0.57211  Biso   1.000  N
  N93      1.0000 0.22518  0.93833  0.56389  Biso   1.000  N
  H510     1.0000 0.24018  0.83495  0.58072  Biso   1.000  H
  N94      1.0000 0.22521  0.93840  0.56389  Biso   1.000  N
  N95      1.0000 0.22515  0.93840  0.56389  Biso   1.000  N
  H511     1.0000 0.24023  0.83495  0.58072  Biso   1.000  H
  C456     1.0000 0.01659  0.79135  0.56730  Biso   1.000  C
  C457     1.0000 0.01653  0.79135  0.56730  Biso   1.000  C
  C458     1.0000 0.24316  0.96655  0.60449  Biso   1.000  C
  C459     1.0000 0.24321  0.96655  0.60449  Biso   1.000  C
  C460     1.0000 0.94387  0.76767  0.60132  Biso   1.000  C
  H512     1.0000 0.02159  0.82686  0.54130  Biso   1.000  H
  H513     1.0000 0.02164  0.82686  0.54130  Biso   1.000  H
  H514     1.0000 0.25438  0.93386  0.62711  Biso   1.000  H
  H515     1.0000 0.25444  0.93386  0.62711  Biso   1.000  H
  C461     1.0000 0.24763  0.05033  0.61850  Biso   1.000  C
  C462     1.0000 0.24757  0.05033  0.61850  Biso   1.000  C
  C463     1.0000 0.94619  0.73644  0.64551  Biso   1.000  C
  C464     1.0000 0.87218  0.77557  0.58779  Biso   1.000  C
  C465     1.0000 0.94622  0.73650  0.64551  Biso   1.000  C
  C466     1.0000 0.94613  0.73644  0.64551  Biso   1.000  C
  C467     1.0000 0.94616  0.73650  0.64551  Biso   1.000  C
  C468     1.0000 0.22442  0.09663  0.58779  Biso   1.000  C
  C469     1.0000 0.27878  0.08381  0.66269  Biso   1.000  C
  C470     1.0000 0.27883  0.08381  0.66269  Biso   1.000  C
  C471     1.0000 0.22436  0.09663  0.58779  Biso   1.000  C
  C472     1.0000 0.87669  0.71329  0.67622  Biso   1.000  C
  H516     1.0000 0.99515  0.73104  0.65482  Biso   1.000  H
  H517     1.0000 0.99524  0.73111  0.65482  Biso   1.000  H
  H518     1.0000 0.99518  0.73111  0.65482  Biso   1.000  H
  H519     1.0000 0.87070  0.79687  0.55761  Biso   1.000  H
  C473     1.0000 0.80270  0.75235  0.61850  Biso   1.000  C
  H520     1.0000 0.87064  0.79687  0.55761  Biso   1.000  H
  C474     1.0000 0.80265  0.75235  0.61850  Biso   1.000  C
  C475     1.0000 0.23231  0.17621  0.60132  Biso   1.000  C
  H521     1.0000 0.20310  0.07381  0.55761  Biso   1.000  H
  C476     1.0000 0.23225  0.17621  0.60132  Biso   1.000  C
  C477     1.0000 0.28670  0.16345  0.67622  Biso   1.000  C
  H522     1.0000 0.29459  0.05211  0.68371  Biso   1.000  H
  C478     1.0000 0.28676  0.16345  0.67622  Biso   1.000  C
  C479     1.0000 0.87871  0.67619  0.72330  Biso   1.000  C
  C480     1.0000 0.80500  0.72118  0.66269  Biso   1.000  C
  C481     1.0000 0.87865  0.67619  0.72330  Biso   1.000  C
  C482     1.0000 0.80494  0.72118  0.66269  Biso   1.000  C
  C483     1.0000 0.72341  0.75676  0.60449  Biso   1.000  C
  C484     1.0000 0.72335  0.75676  0.60449  Biso   1.000  C
  C485     1.0000 0.20862  0.22520  0.56730  Biso   1.000  C
  C486     1.0000 0.26349  0.20975  0.64551  Biso   1.000  C
  C487     1.0000 0.26355  0.20975  0.64551  Biso   1.000  C
  C488     1.0000 0.20857  0.22520  0.56730  Biso   1.000  C
  C489     1.0000 0.32378  0.20251  0.72330  Biso   1.000  C
  C490     1.0000 0.32383  0.20251  0.72330  Biso   1.000  C
  N96      1.0000 0.81729  0.65088  0.75160  Biso   1.000  N
  H523     1.0000 0.92886  0.67205  0.73170  Biso   1.000  H
  N97      1.0000 0.81724  0.65088  0.75160  Biso   1.000  N
  H524     1.0000 0.75753  0.70539  0.68371  Biso   1.000  H
  H525     1.0000 0.75747  0.70539  0.68371  Biso   1.000  H
  N98      1.0000 0.71317  0.77478  0.56389  Biso   1.000  N
  H526     1.0000 0.67949  0.74558  0.62711  Biso   1.000  H
  N99      1.0000 0.71322  0.77478  0.56389  Biso   1.000  N
  N100     1.0000 0.23462  0.30668  0.57211  Biso   1.000  N
  H527     1.0000 0.17309  0.19469  0.54130  Biso   1.000  H
  N101     1.0000 0.23465  0.30675  0.57211  Biso   1.000  N
  H528     1.0000 0.17312  0.19475  0.54130  Biso   1.000  H
  N102     1.0000 0.23456  0.30668  0.57211  Biso   1.000  N
  N103     1.0000 0.23459  0.30675  0.57211  Biso   1.000  N
  H529     1.0000 0.26893  0.26413  0.65482  Biso   1.000  H
  H530     1.0000 0.26887  0.26413  0.65482  Biso   1.000  H
  N104     1.0000 0.34912  0.16641  0.75160  Biso   1.000  N
  H531     1.0000 0.32793  0.25683  0.73170  Biso   1.000  H
  N105     1.0000 0.34907  0.16641  0.75160  Biso   1.000  N
  H532     1.0000 0.32787  0.25683  0.73170  Biso   1.000  H
  C491     1.0000 0.82748  0.61339  0.79681  Biso   1.000  C
  C492     1.0000 0.63241  0.77399  0.55221  Biso   1.000  C
  C493     1.0000 0.63235  0.77399  0.55221  Biso   1.000  C
  C494     1.0000 0.21019  0.34542  0.53381  Biso   1.000  C
  C495     1.0000 0.21024  0.34542  0.53381  Biso   1.000  C
  C496     1.0000 0.38657  0.21409  0.79681  Biso   1.000  C
  C497     1.0000 0.38661  0.21415  0.79681  Biso   1.000  C
  C498     1.0000 0.38663  0.21409  0.79681  Biso   1.000  C
  C499     1.0000 0.81827  0.66626  0.83650  Biso   1.000  C
  C500     1.0000 0.75868  0.51599  0.80120  Biso   1.000  C
  H533     1.0000 0.88751  0.62010  0.79799  Biso   1.000  H
  C501     1.0000 0.81832  0.66626  0.83650  Biso   1.000  C
  C502     1.0000 0.75874  0.51599  0.80120  Biso   1.000  C
  H534     1.0000 0.88745  0.62010  0.79799  Biso   1.000  H
  H535     1.0000 0.59478  0.75978  0.58072  Biso   1.000  H
  C503     1.0000 0.58218  0.70349  0.51429  Biso   1.000  C
  C504     1.0000 0.65461  0.86474  0.53381  Biso   1.000  C
  H536     1.0000 0.59484  0.75978  0.58072  Biso   1.000  H
  C505     1.0000 0.58224  0.70349  0.51429  Biso   1.000  C
  C506     1.0000 0.65455  0.86474  0.53381  Biso   1.000  C
  C507     1.0000 0.14159  0.36758  0.55221  Biso   1.000  C
  C508     1.0000 0.29000  0.42690  0.51711  Biso   1.000  C
  H537     1.0000 0.18455  0.30234  0.50760  Biso   1.000  H
  C509     1.0000 0.14162  0.36765  0.55221  Biso   1.000  C
  H538     1.0000 0.18449  0.30234  0.50760  Biso   1.000  H
  C510     1.0000 0.33372  0.15200  0.83650  Biso   1.000  C
  C511     1.0000 0.48397  0.24269  0.80120  Biso   1.000  C
  H539     1.0000 0.37992  0.26742  0.79799  Biso   1.000  H
  C512     1.0000 0.48401  0.24276  0.80120  Biso   1.000  C
  C513     1.0000 0.33366  0.15200  0.83650  Biso   1.000  C
  C514     1.0000 0.48403  0.24269  0.80120  Biso   1.000  C
  H540     1.0000 0.37987  0.26742  0.79799  Biso   1.000  H
  N106     1.0000 0.89059  0.75623  0.83361  Biso   1.000  N
  H541     1.0000 0.76110  0.66528  0.83361  Biso   1.000  H
  C515     1.0000 0.82302  0.62838  0.88370  Biso   1.000  C
  N107     1.0000 0.89062  0.75630  0.83361  Biso   1.000  N
  N108     1.0000 0.89053  0.75623  0.83361  Biso   1.000  N
  H542     1.0000 0.76105  0.66528  0.83361  Biso   1.000  H
  C516     1.0000 0.82296  0.62838  0.88370  Biso   1.000  C
  N109     1.0000 0.89056  0.75630  0.83361  Biso   1.000  N
  C517     1.0000 0.76479  0.48094  0.84822  Biso   1.000  C
  H543     1.0000 0.69919  0.50830  0.79719  Biso   1.000  H
  H544     1.0000 0.76790  0.48225  0.77642  Biso   1.000  H
  C518     1.0000 0.76482  0.48100  0.84822  Biso   1.000  C
  C519     1.0000 0.76473  0.48094  0.84822  Biso   1.000  C
  H545     1.0000 0.76784  0.48225  0.77642  Biso   1.000  H
  C520     1.0000 0.76476  0.48100  0.84822  Biso   1.000  C
  H546     1.0000 0.62179  0.71414  0.48749  Biso   1.000  H
  H547     1.0000 0.56456  0.64456  0.52712  Biso   1.000  H
  C521     1.0000 0.50147  0.70474  0.49770  Biso   1.000  C
  H548     1.0000 0.62183  0.71421  0.48749  Biso   1.000  H
  H549     1.0000 0.56462  0.64456  0.52712  Biso   1.000  H
  C522     1.0000 0.50151  0.70480  0.49770  Biso   1.000  C
  H550     1.0000 0.62174  0.71414  0.48749  Biso   1.000  H
  H551     1.0000 0.62177  0.71421  0.48749  Biso   1.000  H
  N110     1.0000 0.69329  0.92788  0.57211  Biso   1.000  N
  C523     1.0000 0.57310  0.86303  0.51711  Biso   1.000  C
  H552     1.0000 0.69772  0.88217  0.50760  Biso   1.000  H
  N111     1.0000 0.69324  0.92788  0.57211  Biso   1.000  N
  C524     1.0000 0.57314  0.86310  0.51711  Biso   1.000  C
  C525     1.0000 0.57305  0.86303  0.51711  Biso   1.000  C
  H553     1.0000 0.69766  0.88217  0.50760  Biso   1.000  H
  C526     1.0000 0.57308  0.86310  0.51711  Biso   1.000  C
  N112     1.0000 0.06163  0.28682  0.56389  Biso   1.000  N
  H554     1.0000 0.16501  0.40520  0.58072  Biso   1.000  H
  C527     1.0000 0.12132  0.41783  0.51429  Biso   1.000  C
  N113     1.0000 0.06157  0.28682  0.56389  Biso   1.000  N
  H555     1.0000 0.16495  0.40520  0.58072  Biso   1.000  H
  C528     1.0000 0.12126  0.41783  0.51429  Biso   1.000  C
  C529     1.0000 0.26892  0.47281  0.47790  Biso   1.000  C
  H556     1.0000 0.33390  0.41151  0.50579  Biso   1.000  H
  H557     1.0000 0.31657  0.46820  0.54360  Biso   1.000  H
  H558     1.0000 0.31663  0.46820  0.54360  Biso   1.000  H
  C530     1.0000 0.26887  0.47281  0.47790  Biso   1.000  C
  H559     1.0000 0.33385  0.41151  0.50579  Biso   1.000  H
  N114     1.0000 0.24371  0.13431  0.83361  Biso   1.000  N
  H560     1.0000 0.33468  0.09584  0.83361  Biso   1.000  H
  C531     1.0000 0.37160  0.19462  0.88370  Biso   1.000  C
  H561     1.0000 0.33474  0.09584  0.83361  Biso   1.000  H
  N115     1.0000 0.24366  0.13431  0.83361  Biso   1.000  N
  C532     1.0000 0.51899  0.28380  0.84822  Biso   1.000  C
  H562     1.0000 0.49170  0.19094  0.79719  Biso   1.000  H
  H563     1.0000 0.51769  0.28564  0.77642  Biso   1.000  H
  H564     1.0000 0.51775  0.28564  0.77642  Biso   1.000  H
  C533     1.0000 0.51893  0.28380  0.84822  Biso   1.000  C
  C534     1.0000 0.86931  0.81779  0.83180  Biso   1.000  C
  C535     1.0000 0.86925  0.81779  0.83180  Biso   1.000  C
  H565     1.0000 0.81304  0.66094  0.90879  Biso   1.000  H
  H566     1.0000 0.88250  0.63628  0.88791  Biso   1.000  H
  C536     1.0000 0.75412  0.53000  0.88739  Biso   1.000  C
  H567     1.0000 0.81313  0.66100  0.90879  Biso   1.000  H
  H568     1.0000 0.88244  0.63628  0.88791  Biso   1.000  H
  C537     1.0000 0.75406  0.53000  0.88739  Biso   1.000  C
  H569     1.0000 0.81307  0.66100  0.90879  Biso   1.000  H
  H570     1.0000 0.71876  0.41826  0.85041  Biso   1.000  H
  H571     1.0000 0.82272  0.48449  0.85100  Biso   1.000  H
  H572     1.0000 0.71881  0.41826  0.85041  Biso   1.000  H
  H573     1.0000 0.82266  0.48449  0.85100  Biso   1.000  H
  H574     1.0000 0.46010  0.69079  0.52401  Biso   1.000  H
  H575     1.0000 0.47171  0.65956  0.47330  Biso   1.000  H
  C538     1.0000 0.52721  0.79608  0.47790  Biso   1.000  C
  H576     1.0000 0.46005  0.69079  0.52401  Biso   1.000  H
  H577     1.0000 0.47165  0.65956  0.47330  Biso   1.000  H
  C539     1.0000 0.52716  0.79608  0.47790  Biso   1.000  C
  C540     1.0000 0.77481  0.98338  0.56730  Biso   1.000  C
  C541     1.0000 0.77475  0.98338  0.56730  Biso   1.000  C
  H578     1.0000 0.58847  0.92235  0.50579  Biso   1.000  H
  H579     1.0000 0.53177  0.84837  0.54360  Biso   1.000  H
  H580     1.0000 0.58853  0.92235  0.50579  Biso   1.000  H
  H581     1.0000 0.53183  0.84837  0.54360  Biso   1.000  H
  C542     1.0000 0.03340  0.27663  0.60449  Biso   1.000  C
  H582     1.0000 0.09241  0.37824  0.48749  Biso   1.000  H
  H583     1.0000 0.07998  0.43539  0.52712  Biso   1.000  H
  C543     1.0000 0.20330  0.49852  0.49770  Biso   1.000  C
  H584     1.0000 0.08007  0.43545  0.52712  Biso   1.000  H
  H585     1.0000 0.09247  0.37824  0.48749  Biso   1.000  H
  H586     1.0000 0.08001  0.43545  0.52712  Biso   1.000  H
  H587     1.0000 0.24262  0.43262  0.45100  Biso   1.000  H
  H588     1.0000 0.32311  0.52581  0.46741  Biso   1.000  H
  H589     1.0000 0.24257  0.43262  0.45100  Biso   1.000  H
  H590     1.0000 0.32305  0.52581  0.46741  Biso   1.000  H
  C544     1.0000 0.18221  0.05152  0.83180  Biso   1.000  C
  C545     1.0000 0.18215  0.05152  0.83180  Biso   1.000  C
  H591     1.0000 0.33902  0.15214  0.90879  Biso   1.000  H
  H592     1.0000 0.36370  0.24625  0.88791  Biso   1.000  H
  C546     1.0000 0.47000  0.22408  0.88739  Biso   1.000  C
  H593     1.0000 0.36375  0.24625  0.88791  Biso   1.000  H
  C547     1.0000 0.47003  0.22415  0.88739  Biso   1.000  C
  H594     1.0000 0.33897  0.15214  0.90879  Biso   1.000  H
  C548     1.0000 0.46994  0.22408  0.88739  Biso   1.000  C
  C549     1.0000 0.46997  0.22415  0.88739  Biso   1.000  C
  H595     1.0000 0.58168  0.30050  0.85041  Biso   1.000  H
  H596     1.0000 0.51549  0.33818  0.85100  Biso   1.000  H
  H597     1.0000 0.51552  0.33825  0.85100  Biso   1.000  H
  H598     1.0000 0.51543  0.33818  0.85100  Biso   1.000  H
  C550     1.0000 0.93758  0.91104  0.83149  Biso   1.000  C
  H599     1.0000 0.80904  0.80194  0.83061  Biso   1.000  H
  H600     1.0000 0.80913  0.80200  0.83061  Biso   1.000  H
  C551     1.0000 0.93752  0.91104  0.83149  Biso   1.000  C
  H601     1.0000 0.80908  0.80200  0.83061  Biso   1.000  H
  H602     1.0000 0.76137  0.50646  0.91740  Biso   1.000  H
  H603     1.0000 0.69426  0.52224  0.88659  Biso   1.000  H
  H604     1.0000 0.69435  0.52231  0.88659  Biso   1.000  H
  H605     1.0000 0.69429  0.52231  0.88659  Biso   1.000  H
  H606     1.0000 0.56741  0.80996  0.45100  Biso   1.000  H
  H607     1.0000 0.47421  0.79727  0.46741  Biso   1.000  H
  H608     1.0000 0.47416  0.79727  0.46741  Biso   1.000  H
  H609     1.0000 0.56736  0.80996  0.45100  Biso   1.000  H
  H610     1.0000 0.80529  0.97838  0.54130  Biso   1.000  H
  C552     1.0000 0.82382  0.05612  0.60132  Biso   1.000  C
  C553     1.0000 0.82377  0.05612  0.60132  Biso   1.000  C
  C554     1.0000 0.94972  0.19732  0.61850  Biso   1.000  C
  C555     1.0000 0.94967  0.19732  0.61850  Biso   1.000  C
  H611     1.0000 0.06610  0.32049  0.62711  Biso   1.000  H
  H612     1.0000 0.06613  0.32056  0.62711  Biso   1.000  H
  H613     1.0000 0.06604  0.32049  0.62711  Biso   1.000  H
  H614     1.0000 0.23070  0.53989  0.52401  Biso   1.000  H
  H615     1.0000 0.18789  0.52831  0.47330  Biso   1.000  H
  H616     1.0000 0.23073  0.53995  0.52401  Biso   1.000  H
  H617     1.0000 0.23064  0.53989  0.52401  Biso   1.000  H
  H618     1.0000 0.18795  0.52831  0.47330  Biso   1.000  H
  C556     1.0000 0.08890  0.02652  0.83149  Biso   1.000  C
  H619     1.0000 0.19800  0.00712  0.83061  Biso   1.000  H
  H620     1.0000 0.49351  0.25493  0.91740  Biso   1.000  H
  H621     1.0000 0.47767  0.17200  0.88659  Biso   1.000  H
  H622     1.0000 0.47776  0.17206  0.88659  Biso   1.000  H
  H623     1.0000 0.47770  0.17206  0.88659  Biso   1.000  H
  C557     1.0000 0.02561  0.93708  0.83110  Biso   1.000  C
  C558     1.0000 0.02555  0.93708  0.83110  Biso   1.000  C
  C559     1.0000 0.91149  0.97437  0.83110  Biso   1.000  C
  C560     1.0000 0.91144  0.97437  0.83110  Biso   1.000  C
  C561     1.0000 0.90340  0.12780  0.58779  Biso   1.000  C
  C562     1.0000 0.90335  0.12780  0.58779  Biso   1.000  C
  C563     1.0000 0.79032  0.05382  0.64551  Biso   1.000  C
  C564     1.0000 0.79026  0.05382  0.64551  Biso   1.000  C
  C565     1.0000 0.91622  0.19501  0.66269  Biso   1.000  C
  C566     1.0000 0.91617  0.19501  0.66269  Biso   1.000  C
  C567     1.0000 0.06289  0.08854  0.83110  Biso   1.000  C
  C568     1.0000 0.06295  0.08854  0.83110  Biso   1.000  C
  H624     1.0000 0.04340  0.89407  0.83051  Biso   1.000  H
  H625     1.0000 0.04335  0.89407  0.83051  Biso   1.000  H
  C569     1.0000 0.97352  0.06243  0.83149  Biso   1.000  C
  C570     1.0000 0.97346  0.06243  0.83149  Biso   1.000  C
  H626     1.0000 0.85070  0.95655  0.83051  Biso   1.000  H
  H627     1.0000 0.85064  0.95655  0.83051  Biso   1.000  H
  H628     1.0000 0.92620  0.12932  0.55761  Biso   1.000  H
  H629     1.0000 0.92615  0.12932  0.55761  Biso   1.000  H
  C571     1.0000 0.83664  0.12333  0.67622  Biso   1.000  C
  C572     1.0000 0.83658  0.12333  0.67622  Biso   1.000  C
  H630     1.0000 0.73592  0.00482  0.65482  Biso   1.000  H
  H631     1.0000 0.73587  0.00482  0.65482  Biso   1.000  H
  H632     1.0000 0.94788  0.24250  0.68371  Biso   1.000  H
  H633     1.0000 0.94791  0.24256  0.68371  Biso   1.000  H
  H634     1.0000 0.10592  0.14931  0.83051  Biso   1.000  H
  H635     1.0000 0.10586  0.14931  0.83051  Biso   1.000  H
  C573     1.0000 0.94848  0.13070  0.83180  Biso   1.000  C
  C574     1.0000 0.94851  0.13076  0.83180  Biso   1.000  C
  C575     1.0000 0.79752  0.12129  0.72330  Biso   1.000  C
  C576     1.0000 0.79749  0.12136  0.72330  Biso   1.000  C
  C577     1.0000 0.79746  0.12129  0.72330  Biso   1.000  C
  N116     1.0000 0.86572  0.10939  0.83361  Biso   1.000  N
  H636     1.0000 0.99289  0.19094  0.83061  Biso   1.000  H
  N117     1.0000 0.86570  0.10945  0.83361  Biso   1.000  N
  N118     1.0000 0.86566  0.10939  0.83361  Biso   1.000  N
  N119     1.0000 0.83364  0.18272  0.75160  Biso   1.000  N
  H637     1.0000 0.74321  0.07111  0.73170  Biso   1.000  H
  N120     1.0000 0.83358  0.18272  0.75160  Biso   1.000  N
  H638     1.0000 0.74315  0.07111  0.73170  Biso   1.000  H
  C578     1.0000 0.84801  0.18173  0.83650  Biso   1.000  C
  C579     1.0000 0.84796  0.18173  0.83650  Biso   1.000  C
  C580     1.0000 0.78594  0.17252  0.79681  Biso   1.000  C
  C581     1.0000 0.78589  0.17252  0.79681  Biso   1.000  C
  H639     1.0000 0.90424  0.23895  0.83361  Biso   1.000  H
  C582     1.0000 0.80538  0.17699  0.88370  Biso   1.000  C
  H640     1.0000 0.90419  0.23895  0.83361  Biso   1.000  H
  C583     1.0000 0.80541  0.17706  0.88370  Biso   1.000  C
  C584     1.0000 0.75729  0.24131  0.80120  Biso   1.000  C
  H641     1.0000 0.73266  0.11255  0.79799  Biso   1.000  H
  H642     1.0000 0.73260  0.11255  0.79799  Biso   1.000  H
  H643     1.0000 0.84793  0.18693  0.90879  Biso   1.000  H
  H644     1.0000 0.75384  0.11754  0.88791  Biso   1.000  H
  C585     1.0000 0.77594  0.24592  0.88739  Biso   1.000  C
  H645     1.0000 0.84788  0.18693  0.90879  Biso   1.000  H
  H646     1.0000 0.75378  0.11754  0.88791  Biso   1.000  H
  C586     1.0000 0.77588  0.24592  0.88739  Biso   1.000  C
  C587     1.0000 0.71619  0.23520  0.84822  Biso   1.000  C
  H647     1.0000 0.80915  0.30083  0.79719  Biso   1.000  H
  H648     1.0000 0.71441  0.23211  0.77642  Biso   1.000  H
  C588     1.0000 0.71622  0.23526  0.84822  Biso   1.000  C
  H649     1.0000 0.80909  0.30083  0.79719  Biso   1.000  H
  H650     1.0000 0.71436  0.23211  0.77642  Biso   1.000  H
  H651     1.0000 0.74512  0.23862  0.91740  Biso   1.000  H
  H652     1.0000 0.82798  0.30570  0.88659  Biso   1.000  H
  H653     1.0000 0.74506  0.23862  0.91740  Biso   1.000  H
  H654     1.0000 0.69951  0.28123  0.85041  Biso   1.000  H
  H655     1.0000 0.66185  0.17732  0.85100  Biso   1.000  H
  H656     1.0000 0.66179  0.17732  0.85100  Biso   1.000  H
  C589     1.0000 0.87870  0.29653  0.48571  Biso   1.000  C
  C590     1.0000 0.85840  0.22597  0.44779  Biso   1.000  C
  C591     1.0000 0.85838  0.22603  0.44779  Biso   1.000  C
  C592     1.0000 0.85834  0.22597  0.44779  Biso   1.000  C
  C593     1.0000 0.85843  0.22603  0.44779  Biso   1.000  C
  H657     1.0000 0.90763  0.28581  0.51251  Biso   1.000  H
  H658     1.0000 0.91998  0.35539  0.47288  Biso   1.000  H
  C594     1.0000 0.79672  0.29522  0.50230  Biso   1.000  C
  H659     1.0000 0.90757  0.28581  0.51251  Biso   1.000  H
  C595     1.0000 0.79666  0.29522  0.50230  Biso   1.000  C
  N121     1.0000 0.93837  0.22518  0.43611  Biso   1.000  N
  H660     1.0000 0.83497  0.24017  0.41932  Biso   1.000  H
  C596     1.0000 0.87867  0.29647  0.48571  Biso   1.000  C
  C597     1.0000 0.78984  0.13521  0.46619  Biso   1.000  C
  H661     1.0000 0.83501  0.24024  0.41932  Biso   1.000  H
  C598     1.0000 0.78978  0.13521  0.46619  Biso   1.000  C
  H662     1.0000 0.76929  0.30916  0.47599  Biso   1.000  H
  H663     1.0000 0.81213  0.34040  0.52670  Biso   1.000  H
  C599     1.0000 0.73111  0.20387  0.52210  Biso   1.000  C
  H664     1.0000 0.76926  0.30923  0.47599  Biso   1.000  H
  H665     1.0000 0.81207  0.34040  0.52670  Biso   1.000  H
  C600     1.0000 0.73108  0.20394  0.52210  Biso   1.000  C
  C601     1.0000 0.73105  0.20387  0.52210  Biso   1.000  C
  H666     1.0000 0.76932  0.30923  0.47599  Biso   1.000  H
  C602     1.0000 0.73114  0.20394  0.52210  Biso   1.000  C
  C603     1.0000 0.96663  0.24320  0.39551  Biso   1.000  C
  C604     1.0000 0.96657  0.24320  0.39551  Biso   1.000  C
  N122     1.0000 0.76539  0.07208  0.42789  Biso   1.000  N
  C605     1.0000 0.71005  0.13692  0.48289  Biso   1.000  C
  H667     1.0000 0.81553  0.11778  0.49240  Biso   1.000  H
  N123     1.0000 0.76537  0.07214  0.42789  Biso   1.000  N
  C606     1.0000 0.70999  0.13692  0.48289  Biso   1.000  C
  H668     1.0000 0.81547  0.11778  0.49240  Biso   1.000  H
  N124     1.0000 0.76543  0.07214  0.42789  Biso   1.000  N
  H669     1.0000 0.75743  0.18999  0.54900  Biso   1.000  H
  H670     1.0000 0.67692  0.20269  0.53259  Biso   1.000  H
  H671     1.0000 0.75737  0.18999  0.54900  Biso   1.000  H
  H672     1.0000 0.67686  0.20269  0.53259  Biso   1.000  H
  C607     1.0000 0.05033  0.24760  0.38150  Biso   1.000  C
  C608     1.0000 0.05027  0.24760  0.38150  Biso   1.000  C
  H673     1.0000 0.93383  0.25438  0.37289  Biso   1.000  H
  H674     1.0000 0.93389  0.25438  0.37289  Biso   1.000  H
  C609     1.0000 0.79141  0.01657  0.43270  Biso   1.000  C
  C610     1.0000 0.79138  0.01664  0.43270  Biso   1.000  C
  C611     1.0000 0.79135  0.01657  0.43270  Biso   1.000  C
  C612     1.0000 0.79144  0.01664  0.43270  Biso   1.000  C
  H675     1.0000 0.66609  0.07760  0.49421  Biso   1.000  H
  H676     1.0000 0.68338  0.15159  0.45640  Biso   1.000  H
  C613     1.0000 0.08380  0.27878  0.33731  Biso   1.000  C
  C614     1.0000 0.08374  0.27878  0.33731  Biso   1.000  C
  C615     1.0000 0.09659  0.22439  0.41221  Biso   1.000  C
  C616     1.0000 0.76768  0.94384  0.39872  Biso   1.000  C
  C617     1.0000 0.76762  0.94384  0.39872  Biso   1.000  C
  H677     1.0000 0.82688  0.02157  0.45870  Biso   1.000  H
  H678     1.0000 0.82686  0.02164  0.45870  Biso   1.000  H
  H679     1.0000 0.82691  0.02164  0.45870  Biso   1.000  H
  C618     1.0000 0.16338  0.28667  0.32378  Biso   1.000  C
  C619     1.0000 0.16342  0.28674  0.32378  Biso   1.000  C
  H680     1.0000 0.05211  0.29456  0.31629  Biso   1.000  H
  H681     1.0000 0.05214  0.29463  0.31629  Biso   1.000  H
  H682     1.0000 0.05205  0.29456  0.31629  Biso   1.000  H
  H683     1.0000 0.05209  0.29463  0.31629  Biso   1.000  H
  C620     1.0000 0.17617  0.23228  0.39872  Biso   1.000  C
  C621     1.0000 0.17623  0.23228  0.39872  Biso   1.000  C
  H684     1.0000 0.07380  0.20308  0.44239  Biso   1.000  H
  C622     1.0000 0.73648  0.94614  0.35449  Biso   1.000  C
  C623     1.0000 0.77558  0.87215  0.41221  Biso   1.000  C
  C624     1.0000 0.73642  0.94614  0.35449  Biso   1.000  C
  C625     1.0000 0.20249  0.32376  0.27670  Biso   1.000  C
  C626     1.0000 0.20252  0.32383  0.27670  Biso   1.000  C
  C627     1.0000 0.20243  0.32376  0.27670  Biso   1.000  C
  C628     1.0000 0.20973  0.26352  0.35449  Biso   1.000  C
  C629     1.0000 0.20967  0.26352  0.35449  Biso   1.000  C
  C630     1.0000 0.22522  0.20861  0.43270  Biso   1.000  C
  C631     1.0000 0.22516  0.20861  0.43270  Biso   1.000  C
  C632     1.0000 0.71329  0.87663  0.32378  Biso   1.000  C
  H685     1.0000 0.73108  0.99513  0.34522  Biso   1.000  H
  C633     1.0000 0.71323  0.87663  0.32378  Biso   1.000  C
  H686     1.0000 0.73102  0.99513  0.34522  Biso   1.000  H
  H687     1.0000 0.79686  0.87064  0.44239  Biso   1.000  H
  C634     1.0000 0.75238  0.80264  0.38150  Biso   1.000  C
  C635     1.0000 0.75233  0.80264  0.38150  Biso   1.000  C
  N125     1.0000 0.16640  0.34908  0.24840  Biso   1.000  N
  H688     1.0000 0.25679  0.32790  0.26830  Biso   1.000  H
  H689     1.0000 0.26408  0.26891  0.34522  Biso   1.000  H
  H690     1.0000 0.26414  0.26891  0.34522  Biso   1.000  H
  N126     1.0000 0.30666  0.23458  0.42789  Biso   1.000  N
  H691     1.0000 0.19470  0.17309  0.45870  Biso   1.000  H
  N127     1.0000 0.30672  0.23458  0.42789  Biso   1.000  N
  H692     1.0000 0.19465  0.17309  0.45870  Biso   1.000  H
  C636     1.0000 0.67620  0.87866  0.27670  Biso   1.000  C
  C637     1.0000 0.72119  0.80494  0.33731  Biso   1.000  C
  C638     1.0000 0.67615  0.87866  0.27670  Biso   1.000  C
  C639     1.0000 0.72113  0.80494  0.33731  Biso   1.000  C
  C640     1.0000 0.75675  0.72333  0.39551  Biso   1.000  C
  C641     1.0000 0.21407  0.38657  0.20319  Biso   1.000  C
  C642     1.0000 0.21410  0.38663  0.20319  Biso   1.000  C
  C643     1.0000 0.34538  0.21018  0.46619  Biso   1.000  C
  N128     1.0000 0.65090  0.81724  0.24840  Biso   1.000  N
  N129     1.0000 0.65085  0.81724  0.24840  Biso   1.000  N
  H693     1.0000 0.67208  0.92884  0.26830  Biso   1.000  H
  H694     1.0000 0.70536  0.75746  0.31629  Biso   1.000  H
  H695     1.0000 0.70542  0.75746  0.31629  Biso   1.000  H
  N130     1.0000 0.77478  0.71313  0.43611  Biso   1.000  N
  H696     1.0000 0.74559  0.67946  0.37289  Biso   1.000  H
  N131     1.0000 0.77472  0.71313  0.43611  Biso   1.000  N
  H697     1.0000 0.74553  0.67946  0.37289  Biso   1.000  H
  C644     1.0000 0.15198  0.33369  0.16350  Biso   1.000  C
  C645     1.0000 0.24267  0.48396  0.19880  Biso   1.000  C
  H698     1.0000 0.26739  0.37986  0.20201  Biso   1.000  H
  C646     1.0000 0.15204  0.33369  0.16350  Biso   1.000  C
  C647     1.0000 0.24276  0.48403  0.19880  Biso   1.000  C
  H699     1.0000 0.26742  0.37992  0.20201  Biso   1.000  H
  C648     1.0000 0.24270  0.48403  0.19880  Biso   1.000  C
  C649     1.0000 0.36758  0.14159  0.44779  Biso   1.000  C
  C650     1.0000 0.42688  0.29002  0.48289  Biso   1.000  C
  H700     1.0000 0.30228  0.18447  0.49240  Biso   1.000  H
  C651     1.0000 0.42693  0.29002  0.48289  Biso   1.000  C
  H701     1.0000 0.30231  0.18454  0.49240  Biso   1.000  H
  H702     1.0000 0.30223  0.18447  0.49240  Biso   1.000  H
  C652     1.0000 0.61340  0.82743  0.20319  Biso   1.000  C
  C653     1.0000 0.61334  0.82743  0.20319  Biso   1.000  C
  C654     1.0000 0.77398  0.63237  0.44779  Biso   1.000  C
  N132     1.0000 0.13434  0.24372  0.16639  Biso   1.000  N
  H703     1.0000 0.09580  0.33468  0.16639  Biso   1.000  H
  C655     1.0000 0.19461  0.37157  0.11630  Biso   1.000  C
  C656     1.0000 0.19465  0.37164  0.11630  Biso   1.000  C
  N133     1.0000 0.13428  0.24372  0.16639  Biso   1.000  N
  H704     1.0000 0.09575  0.33468  0.16639  Biso   1.000  H
  C657     1.0000 0.19459  0.37164  0.11630  Biso   1.000  C
  C658     1.0000 0.28383  0.51902  0.15178  Biso   1.000  C
  H705     1.0000 0.19087  0.49166  0.20281  Biso   1.000  H
  H706     1.0000 0.28562  0.51770  0.22362  Biso   1.000  H
  H707     1.0000 0.19090  0.49172  0.20281  Biso   1.000  H
  C659     1.0000 0.28377  0.51902  0.15178  Biso   1.000  C
  H708     1.0000 0.28556  0.51770  0.22362  Biso   1.000  H
  N134     1.0000 0.28682  0.06162  0.43611  Biso   1.000  N
  H709     1.0000 0.40520  0.16500  0.41932  Biso   1.000  H
  C660     1.0000 0.41779  0.12127  0.48571  Biso   1.000  C
  C661     1.0000 0.41783  0.12134  0.48571  Biso   1.000  C
  N135     1.0000 0.28676  0.06162  0.43611  Biso   1.000  N
  H710     1.0000 0.40515  0.16500  0.41932  Biso   1.000  H
  C662     1.0000 0.41774  0.12127  0.48571  Biso   1.000  C
  C663     1.0000 0.41777  0.12134  0.48571  Biso   1.000  C
  C664     1.0000 0.47282  0.26891  0.52210  Biso   1.000  C
  H711     1.0000 0.41151  0.33389  0.49421  Biso   1.000  H
  H712     1.0000 0.46818  0.31659  0.45640  Biso   1.000  H
  H713     1.0000 0.41145  0.33389  0.49421  Biso   1.000  H
  C665     1.0000 0.47276  0.26891  0.52210  Biso   1.000  C
  C666     1.0000 0.66626  0.81823  0.16350  Biso   1.000  C
  C667     1.0000 0.51595  0.75864  0.19880  Biso   1.000  C
  H714     1.0000 0.62009  0.88741  0.20201  Biso   1.000  H
  C668     1.0000 0.51601  0.75864  0.19880  Biso   1.000  C
  H715     1.0000 0.62012  0.88748  0.20201  Biso   1.000  H
  H716     1.0000 0.62004  0.88741  0.20201  Biso   1.000  H
  H717     1.0000 0.62007  0.88748  0.20201  Biso   1.000  H
  C669     1.0000 0.86474  0.65454  0.46619  Biso   1.000  C
  C670     1.0000 0.86480  0.65454  0.46619  Biso   1.000  C
  H718     1.0000 0.75979  0.59476  0.41932  Biso   1.000  H
  C671     1.0000 0.70347  0.58213  0.48571  Biso   1.000  C
  C672     1.0000 0.70341  0.58213  0.48571  Biso   1.000  C
  H719     1.0000 0.75973  0.59476  0.41932  Biso   1.000  H
  C673     1.0000 0.05150  0.18217  0.16820  Biso   1.000  C
  C674     1.0000 0.05153  0.18223  0.16820  Biso   1.000  C
  C675     1.0000 0.05144  0.18217  0.16820  Biso   1.000  C
  C676     1.0000 0.05148  0.18223  0.16820  Biso   1.000  C
  H720     1.0000 0.15208  0.33902  0.09121  Biso   1.000  H
  H721     1.0000 0.24620  0.36368  0.11209  Biso   1.000  H
  C677     1.0000 0.22410  0.46996  0.11261  Biso   1.000  C
  H722     1.0000 0.15214  0.33902  0.09121  Biso   1.000  H
  C678     1.0000 0.22413  0.47002  0.11261  Biso   1.000  C
  C679     1.0000 0.22408  0.47002  0.11261  Biso   1.000  C
  H723     1.0000 0.30047  0.58169  0.14959  Biso   1.000  H
  H724     1.0000 0.33821  0.51547  0.14900  Biso   1.000  H
  H725     1.0000 0.30053  0.58169  0.14959  Biso   1.000  H
  H726     1.0000 0.33824  0.51553  0.14900  Biso   1.000  H
  H727     1.0000 0.33815  0.51547  0.14900  Biso   1.000  H
  H728     1.0000 0.33818  0.51553  0.14900  Biso   1.000  H
  C680     1.0000 0.27659  0.03341  0.39551  Biso   1.000  C
  H729     1.0000 0.37819  0.09240  0.51251  Biso   1.000  H
  H730     1.0000 0.43536  0.07997  0.47288  Biso   1.000  H
  C681     1.0000 0.49850  0.20328  0.50230  Biso   1.000  C
  H731     1.0000 0.43539  0.08004  0.47288  Biso   1.000  H
  H732     1.0000 0.43542  0.07997  0.47288  Biso   1.000  H
  C682     1.0000 0.49844  0.20328  0.50230  Biso   1.000  C
  H733     1.0000 0.43261  0.24261  0.54900  Biso   1.000  H
  H734     1.0000 0.52577  0.32310  0.53259  Biso   1.000  H
  H735     1.0000 0.52583  0.32310  0.53259  Biso   1.000  H
  H736     1.0000 0.43256  0.24261  0.54900  Biso   1.000  H
  N136     1.0000 0.75631  0.89057  0.16639  Biso   1.000  N
  N137     1.0000 0.75625  0.89057  0.16639  Biso   1.000  N
  H737     1.0000 0.66528  0.76101  0.16639  Biso   1.000  H
  C683     1.0000 0.62836  0.82296  0.11630  Biso   1.000  C
  H738     1.0000 0.66531  0.76108  0.16639  Biso   1.000  H
  C684     1.0000 0.62842  0.82296  0.11630  Biso   1.000  C
  H739     1.0000 0.66522  0.76101  0.16639  Biso   1.000  H
  H740     1.0000 0.66525  0.76108  0.16639  Biso   1.000  H
  C685     1.0000 0.48097  0.76476  0.15178  Biso   1.000  C
  H741     1.0000 0.50829  0.69913  0.20281  Biso   1.000  H
  H742     1.0000 0.48228  0.76785  0.22362  Biso   1.000  H
  H743     1.0000 0.50833  0.69919  0.20281  Biso   1.000  H
  H744     1.0000 0.48223  0.76785  0.22362  Biso   1.000  H
  H745     1.0000 0.50824  0.69913  0.20281  Biso   1.000  H
  H746     1.0000 0.50827  0.69919  0.20281  Biso   1.000  H
  N138     1.0000 0.92791  0.69327  0.42789  Biso   1.000  N
  N139     1.0000 0.92785  0.69327  0.42789  Biso   1.000  N
  C686     1.0000 0.86307  0.57305  0.48289  Biso   1.000  C
  H747     1.0000 0.88218  0.69761  0.49240  Biso   1.000  H
  H748     1.0000 0.88221  0.69768  0.49240  Biso   1.000  H
  H749     1.0000 0.88212  0.69761  0.49240  Biso   1.000  H
  H750     1.0000 0.88216  0.69768  0.49240  Biso   1.000  H
  H751     1.0000 0.71415  0.62172  0.51251  Biso   1.000  H
  H752     1.0000 0.64457  0.56457  0.47288  Biso   1.000  H
  C687     1.0000 0.70476  0.50144  0.50230  Biso   1.000  C
  H753     1.0000 0.71418  0.62179  0.51251  Biso   1.000  H
  H754     1.0000 0.64463  0.56457  0.47288  Biso   1.000  H
  C688     1.0000 0.02652  0.08891  0.16851  Biso   1.000  C
  H755     1.0000 0.00709  0.19802  0.16939  Biso   1.000  H
  H756     1.0000 0.00714  0.19802  0.16939  Biso   1.000  H
  C689     1.0000 0.02646  0.08891  0.16851  Biso   1.000  C
  H757     1.0000 0.25489  0.49350  0.08260  Biso   1.000  H
  H758     1.0000 0.17199  0.47772  0.11341  Biso   1.000  H
  H759     1.0000 0.17205  0.47772  0.11341  Biso   1.000  H
  H760     1.0000 0.32049  0.06609  0.37289  Biso   1.000  H
  H761     1.0000 0.32044  0.06609  0.37289  Biso   1.000  H
  C690     1.0000 0.19727  0.94962  0.38150  Biso   1.000  C
  H762     1.0000 0.53989  0.23070  0.47599  Biso   1.000  H
  H763     1.0000 0.52828  0.18789  0.52670  Biso   1.000  H
  H764     1.0000 0.52833  0.18789  0.52670  Biso   1.000  H
  C691     1.0000 0.81776  0.86926  0.16820  Biso   1.000  C
  C692     1.0000 0.81782  0.86926  0.16820  Biso   1.000  C
  H765     1.0000 0.66099  0.81303  0.09121  Biso   1.000  H
  H766     1.0000 0.63627  0.88241  0.11209  Biso   1.000  H
  C693     1.0000 0.53000  0.75404  0.11261  Biso   1.000  C
  H767     1.0000 0.63631  0.88248  0.11209  Biso   1.000  H
  H768     1.0000 0.66093  0.81303  0.09121  Biso   1.000  H
  H769     1.0000 0.63622  0.88241  0.11209  Biso   1.000  H
  C694     1.0000 0.52994  0.75404  0.11261  Biso   1.000  C
  H770     1.0000 0.41825  0.71872  0.14959  Biso   1.000  H
  H771     1.0000 0.48450  0.82263  0.14900  Biso   1.000  H
  H772     1.0000 0.41834  0.71879  0.14959  Biso   1.000  H
  H773     1.0000 0.48445  0.82263  0.14900  Biso   1.000  H
  H774     1.0000 0.41829  0.71879  0.14959  Biso   1.000  H
  C695     1.0000 0.98340  0.77476  0.43270  Biso   1.000  C
  C696     1.0000 0.98335  0.77476  0.43270  Biso   1.000  C
  C697     1.0000 0.79610  0.52715  0.52210  Biso   1.000  C
  H775     1.0000 0.92237  0.58844  0.49421  Biso   1.000  H
  H776     1.0000 0.84835  0.53175  0.45640  Biso   1.000  H
  H777     1.0000 0.92231  0.58844  0.49421  Biso   1.000  H
  H778     1.0000 0.84840  0.53175  0.45640  Biso   1.000  H
  C698     1.0000 0.79604  0.52715  0.52210  Biso   1.000  C
  H779     1.0000 0.69079  0.46007  0.47599  Biso   1.000  H
  H780     1.0000 0.65956  0.47164  0.52670  Biso   1.000  H
  H781     1.0000 0.69074  0.46007  0.47599  Biso   1.000  H
  C699     1.0000 0.08850  0.06287  0.16890  Biso   1.000  C
  C700     1.0000 0.08854  0.06294  0.16890  Biso   1.000  C
  C701     1.0000 0.08845  0.06287  0.16890  Biso   1.000  C
  C702     1.0000 0.08848  0.06294  0.16890  Biso   1.000  C
  C703     1.0000 0.93710  0.02558  0.16890  Biso   1.000  C
  C704     1.0000 0.93704  0.02558  0.16890  Biso   1.000  C
  C705     1.0000 0.12776  0.90333  0.41221  Biso   1.000  C
  C706     1.0000 0.19495  0.91615  0.33731  Biso   1.000  C
  C707     1.0000 0.19500  0.91615  0.33731  Biso   1.000  C
  C708     1.0000 0.12782  0.90333  0.41221  Biso   1.000  C
  C709     1.0000 0.91107  0.93752  0.16851  Biso   1.000  C
  C710     1.0000 0.91101  0.93752  0.16851  Biso   1.000  C
  H782     1.0000 0.80194  0.80902  0.16939  Biso   1.000  H
  H783     1.0000 0.80202  0.80908  0.16939  Biso   1.000  H
  H784     1.0000 0.80197  0.80908  0.16939  Biso   1.000  H
  H785     1.0000 0.50648  0.76134  0.08260  Biso   1.000  H
  H786     1.0000 0.52226  0.69426  0.11341  Biso   1.000  H
  H787     1.0000 0.52232  0.69426  0.11341  Biso   1.000  H
  H788     1.0000 0.50642  0.76134  0.08260  Biso   1.000  H
  C711     1.0000 0.05608  0.82375  0.39872  Biso   1.000  C
  H789     1.0000 0.97838  0.80527  0.45870  Biso   1.000  H
  H790     1.0000 0.97833  0.80527  0.45870  Biso   1.000  H
  H791     1.0000 0.80998  0.56733  0.54900  Biso   1.000  H
  H792     1.0000 0.79727  0.47414  0.53259  Biso   1.000  H
  H793     1.0000 0.80992  0.56733  0.54900  Biso   1.000  H
  H794     1.0000 0.79722  0.47414  0.53259  Biso   1.000  H
  H795     1.0000 0.14931  0.10588  0.16949  Biso   1.000  H
  H796     1.0000 0.14925  0.10588  0.16949  Biso   1.000  H
  C712     1.0000 0.06235  0.97343  0.16851  Biso   1.000  C
  C713     1.0000 0.06241  0.97343  0.16851  Biso   1.000  C
  H797     1.0000 0.89413  0.04340  0.16949  Biso   1.000  H
  H798     1.0000 0.89407  0.04340  0.16949  Biso   1.000  H
  H799     1.0000 0.12927  0.92615  0.44239  Biso   1.000  H
  H800     1.0000 0.12932  0.92615  0.44239  Biso   1.000  H
  C714     1.0000 0.12323  0.83651  0.32378  Biso   1.000  C
  H801     1.0000 0.24246  0.94785  0.31629  Biso   1.000  H
  C715     1.0000 0.12332  0.83657  0.32378  Biso   1.000  C
  C716     1.0000 0.12329  0.83651  0.32378  Biso   1.000  C
  H802     1.0000 0.24252  0.94785  0.31629  Biso   1.000  H
  C717     1.0000 0.12326  0.83657  0.32378  Biso   1.000  C
  C718     1.0000 0.97433  0.91141  0.16890  Biso   1.000  C
  C719     1.0000 0.97442  0.91148  0.16890  Biso   1.000  C
  C720     1.0000 0.97436  0.91148  0.16890  Biso   1.000  C
  C721     1.0000 0.05372  0.79021  0.35449  Biso   1.000  C
  C722     1.0000 0.05381  0.79028  0.35449  Biso   1.000  C
  C723     1.0000 0.05378  0.79021  0.35449  Biso   1.000  C
  C724     1.0000 0.05375  0.79028  0.35449  Biso   1.000  C
  C725     1.0000 0.13067  0.94844  0.16820  Biso   1.000  C
  C726     1.0000 0.12124  0.79744  0.27670  Biso   1.000  C
  C727     1.0000 0.12130  0.79744  0.27670  Biso   1.000  C
  H803     1.0000 0.95659  0.85065  0.16949  Biso   1.000  H
  H804     1.0000 0.95653  0.85065  0.16949  Biso   1.000  H
  H805     1.0000 0.00477  0.73582  0.34522  Biso   1.000  H
  H806     1.0000 0.00480  0.73589  0.34522  Biso   1.000  H
  H807     1.0000 0.00475  0.73589  0.34522  Biso   1.000  H
  N140     1.0000 0.10938  0.86564  0.16639  Biso   1.000  N
  H808     1.0000 0.19086  0.99283  0.16939  Biso   1.000  H
  H809     1.0000 0.19091  0.99283  0.16939  Biso   1.000  H
  N141     1.0000 0.10944  0.86564  0.16639  Biso   1.000  N
  N142     1.0000 0.18269  0.83355  0.24840  Biso   1.000  N
  N143     1.0000 0.18264  0.83355  0.24840  Biso   1.000  N
  H810     1.0000 0.07107  0.74312  0.26830  Biso   1.000  H
  H811     1.0000 0.07110  0.74319  0.26830  Biso   1.000  H
  C728     1.0000 0.18169  0.84795  0.16350  Biso   1.000  C
  C729     1.0000 0.18164  0.84795  0.16350  Biso   1.000  C
  C730     1.0000 0.17247  0.78587  0.20319  Biso   1.000  C
  C731     1.0000 0.17252  0.78587  0.20319  Biso   1.000  C
  H812     1.0000 0.23882  0.90411  0.16639  Biso   1.000  H
  C732     1.0000 0.17696  0.80534  0.11630  Biso   1.000  C
  H813     1.0000 0.23891  0.90418  0.16639  Biso   1.000  H
  H814     1.0000 0.23888  0.90411  0.16639  Biso   1.000  H
  C733     1.0000 0.17702  0.80534  0.11630  Biso   1.000  C
  H815     1.0000 0.23885  0.90418  0.16639  Biso   1.000  H
  C734     1.0000 0.24126  0.75726  0.19880  Biso   1.000  C
  H816     1.0000 0.11248  0.73253  0.20201  Biso   1.000  H
  C735     1.0000 0.24131  0.75726  0.19880  Biso   1.000  C
  H817     1.0000 0.18687  0.84782  0.09121  Biso   1.000  H
  H818     1.0000 0.11743  0.75371  0.11209  Biso   1.000  H
  C736     1.0000 0.24589  0.77587  0.11261  Biso   1.000  C
  H819     1.0000 0.18690  0.84789  0.09121  Biso   1.000  H
  H820     1.0000 0.11752  0.75378  0.11209  Biso   1.000  H
  H821     1.0000 0.11749  0.75371  0.11209  Biso   1.000  H
  H822     1.0000 0.18684  0.84789  0.09121  Biso   1.000  H
  H823     1.0000 0.11746  0.75378  0.11209  Biso   1.000  H
  C737     1.0000 0.23517  0.71616  0.15178  Biso   1.000  C
  H824     1.0000 0.30074  0.80902  0.20281  Biso   1.000  H
  H825     1.0000 0.23203  0.71432  0.22362  Biso   1.000  H
  H826     1.0000 0.30077  0.80908  0.20281  Biso   1.000  H
  H827     1.0000 0.23212  0.71438  0.22362  Biso   1.000  H
  H828     1.0000 0.30080  0.80902  0.20281  Biso   1.000  H
  H829     1.0000 0.23209  0.71432  0.22362  Biso   1.000  H
  H830     1.0000 0.30083  0.80908  0.20281  Biso   1.000  H
  H831     1.0000 0.23856  0.74503  0.08260  Biso   1.000  H
  H832     1.0000 0.30565  0.82796  0.11341  Biso   1.000  H
  H833     1.0000 0.30571  0.82796  0.11341  Biso   1.000  H
  H834     1.0000 0.28115  0.69945  0.14959  Biso   1.000  H
  H835     1.0000 0.17728  0.66177  0.14900  Biso   1.000  H
  H836     1.0000 0.28121  0.69945  0.14959  Biso   1.000  H
  H837     1.0000 0.17734  0.66177  0.14900  Biso   1.000  H
  C738     1.0000 0.87870  0.29653  0.48571  Biso   1.000  C
  C739     1.0000 0.85840  0.22597  0.44779  Biso   1.000  C
  C740     1.0000 0.85838  0.22603  0.44779  Biso   1.000  C
  C741     1.0000 0.85834  0.22597  0.44779  Biso   1.000  C
  C742     1.0000 0.85843  0.22603  0.44779  Biso   1.000  C
  H838     1.0000 0.90763  0.28581  0.51251  Biso   1.000  H
  H839     1.0000 0.91998  0.35539  0.47288  Biso   1.000  H
  C743     1.0000 0.79672  0.29522  0.50230  Biso   1.000  C
  H840     1.0000 0.90757  0.28581  0.51251  Biso   1.000  H
  C744     1.0000 0.79666  0.29522  0.50230  Biso   1.000  C
  N144     1.0000 0.93837  0.22518  0.43611  Biso   1.000  N
  H841     1.0000 0.83497  0.24017  0.41932  Biso   1.000  H
  C745     1.0000 0.87867  0.29647  0.48571  Biso   1.000  C
  C746     1.0000 0.78984  0.13521  0.46619  Biso   1.000  C
  H842     1.0000 0.83501  0.24024  0.41932  Biso   1.000  H
  C747     1.0000 0.78978  0.13521  0.46619  Biso   1.000  C
  H843     1.0000 0.76929  0.30916  0.47599  Biso   1.000  H
  H844     1.0000 0.81213  0.34040  0.52670  Biso   1.000  H
  C748     1.0000 0.73111  0.20387  0.52210  Biso   1.000  C
  H845     1.0000 0.76926  0.30923  0.47599  Biso   1.000  H
  H846     1.0000 0.81207  0.34040  0.52670  Biso   1.000  H
  C749     1.0000 0.73108  0.20394  0.52210  Biso   1.000  C
  C750     1.0000 0.73105  0.20387  0.52210  Biso   1.000  C
  H847     1.0000 0.76932  0.30923  0.47599  Biso   1.000  H
  C751     1.0000 0.73114  0.20394  0.52210  Biso   1.000  C
  C752     1.0000 0.96663  0.24320  0.39551  Biso   1.000  C
  C753     1.0000 0.96657  0.24320  0.39551  Biso   1.000  C
  N145     1.0000 0.76539  0.07208  0.42789  Biso   1.000  N
  C754     1.0000 0.71005  0.13692  0.48289  Biso   1.000  C
  H848     1.0000 0.81553  0.11778  0.49240  Biso   1.000  H
  N146     1.0000 0.76537  0.07214  0.42789  Biso   1.000  N
  C755     1.0000 0.70999  0.13692  0.48289  Biso   1.000  C
  H849     1.0000 0.81547  0.11778  0.49240  Biso   1.000  H
  N147     1.0000 0.76543  0.07214  0.42789  Biso   1.000  N
  H850     1.0000 0.75743  0.18999  0.54900  Biso   1.000  H
  H851     1.0000 0.67692  0.20269  0.53259  Biso   1.000  H
  H852     1.0000 0.75737  0.18999  0.54900  Biso   1.000  H
  H853     1.0000 0.67686  0.20269  0.53259  Biso   1.000  H
  C756     1.0000 0.05033  0.24760  0.38150  Biso   1.000  C
  C757     1.0000 0.05027  0.24760  0.38150  Biso   1.000  C
  H854     1.0000 0.93383  0.25438  0.37289  Biso   1.000  H
  H855     1.0000 0.93389  0.25438  0.37289  Biso   1.000  H
  C758     1.0000 0.79141  0.01657  0.43270  Biso   1.000  C
  C759     1.0000 0.79138  0.01664  0.43270  Biso   1.000  C
  C760     1.0000 0.79135  0.01657  0.43270  Biso   1.000  C
  C761     1.0000 0.79144  0.01664  0.43270  Biso   1.000  C
  H856     1.0000 0.66609  0.07760  0.49421  Biso   1.000  H
  H857     1.0000 0.68338  0.15159  0.45640  Biso   1.000  H
  C762     1.0000 0.08380  0.27878  0.33731  Biso   1.000  C
  C763     1.0000 0.08374  0.27878  0.33731  Biso   1.000  C
  C764     1.0000 0.09659  0.22439  0.41221  Biso   1.000  C
  C765     1.0000 0.76768  0.94384  0.39872  Biso   1.000  C
  C766     1.0000 0.76762  0.94384  0.39872  Biso   1.000  C
  H858     1.0000 0.82688  0.02157  0.45870  Biso   1.000  H
  H859     1.0000 0.82686  0.02164  0.45870  Biso   1.000  H
  H860     1.0000 0.82691  0.02164  0.45870  Biso   1.000  H
  C767     1.0000 0.16338  0.28667  0.32378  Biso   1.000  C
  C768     1.0000 0.16342  0.28674  0.32378  Biso   1.000  C
  H861     1.0000 0.05211  0.29456  0.31629  Biso   1.000  H
  H862     1.0000 0.05214  0.29463  0.31629  Biso   1.000  H
  H863     1.0000 0.05205  0.29456  0.31629  Biso   1.000  H
  H864     1.0000 0.05209  0.29463  0.31629  Biso   1.000  H
  C769     1.0000 0.17617  0.23228  0.39872  Biso   1.000  C
  C770     1.0000 0.17623  0.23228  0.39872  Biso   1.000  C
  H865     1.0000 0.07380  0.20308  0.44239  Biso   1.000  H
  C771     1.0000 0.73648  0.94614  0.35449  Biso   1.000  C
  C772     1.0000 0.77558  0.87215  0.41221  Biso   1.000  C
  C773     1.0000 0.73642  0.94614  0.35449  Biso   1.000  C
  C774     1.0000 0.20252  0.32383  0.27670  Biso   1.000  C
  C775     1.0000 0.20249  0.32376  0.27670  Biso   1.000  C
  C776     1.0000 0.20243  0.32376  0.27670  Biso   1.000  C
  C777     1.0000 0.20973  0.26352  0.35449  Biso   1.000  C
  C778     1.0000 0.20967  0.26352  0.35449  Biso   1.000  C
  C779     1.0000 0.22522  0.20861  0.43270  Biso   1.000  C
  C780     1.0000 0.22516  0.20861  0.43270  Biso   1.000  C
  C781     1.0000 0.71329  0.87663  0.32378  Biso   1.000  C
  H866     1.0000 0.73108  0.99513  0.34522  Biso   1.000  H
  C782     1.0000 0.71323  0.87663  0.32378  Biso   1.000  C
  H867     1.0000 0.73102  0.99513  0.34522  Biso   1.000  H
  H868     1.0000 0.79686  0.87064  0.44239  Biso   1.000  H
  C783     1.0000 0.75238  0.80264  0.38150  Biso   1.000  C
  C784     1.0000 0.75233  0.80264  0.38150  Biso   1.000  C
  N148     1.0000 0.16640  0.34908  0.24840  Biso   1.000  N
  H869     1.0000 0.25679  0.32790  0.26830  Biso   1.000  H
  H870     1.0000 0.26408  0.26891  0.34522  Biso   1.000  H
  H871     1.0000 0.26414  0.26891  0.34522  Biso   1.000  H
  H872     1.0000 0.19470  0.17309  0.45870  Biso   1.000  H
  N149     1.0000 0.30666  0.23458  0.42789  Biso   1.000  N
  N150     1.0000 0.30672  0.23458  0.42789  Biso   1.000  N
  H873     1.0000 0.19465  0.17309  0.45870  Biso   1.000  H
  C785     1.0000 0.67620  0.87866  0.27670  Biso   1.000  C
  C786     1.0000 0.72119  0.80494  0.33731  Biso   1.000  C
  C787     1.0000 0.67615  0.87866  0.27670  Biso   1.000  C
  C788     1.0000 0.72113  0.80494  0.33731  Biso   1.000  C
  C789     1.0000 0.75675  0.72333  0.39551  Biso   1.000  C
  C790     1.0000 0.21407  0.38657  0.20319  Biso   1.000  C
  C791     1.0000 0.21410  0.38663  0.20319  Biso   1.000  C
  C792     1.0000 0.34538  0.21018  0.46619  Biso   1.000  C
  N151     1.0000 0.65090  0.81724  0.24840  Biso   1.000  N
  N152     1.0000 0.65085  0.81724  0.24840  Biso   1.000  N
  H874     1.0000 0.67208  0.92884  0.26830  Biso   1.000  H
  H875     1.0000 0.70536  0.75746  0.31629  Biso   1.000  H
  H876     1.0000 0.70542  0.75746  0.31629  Biso   1.000  H
  N153     1.0000 0.77478  0.71313  0.43611  Biso   1.000  N
  H877     1.0000 0.74559  0.67946  0.37289  Biso   1.000  H
  N154     1.0000 0.77472  0.71313  0.43611  Biso   1.000  N
  H878     1.0000 0.74553  0.67946  0.37289  Biso   1.000  H
  C793     1.0000 0.15198  0.33369  0.16350  Biso   1.000  C
  C794     1.0000 0.24267  0.48396  0.19880  Biso   1.000  C
  H879     1.0000 0.26739  0.37986  0.20201  Biso   1.000  H
  H880     1.0000 0.26742  0.37992  0.20201  Biso   1.000  H
  C795     1.0000 0.15204  0.33369  0.16350  Biso   1.000  C
  C796     1.0000 0.24276  0.48403  0.19880  Biso   1.000  C
  C797     1.0000 0.24270  0.48403  0.19880  Biso   1.000  C
  C798     1.0000 0.36758  0.14159  0.44779  Biso   1.000  C
  C799     1.0000 0.42693  0.29002  0.48289  Biso   1.000  C
  C800     1.0000 0.42688  0.29002  0.48289  Biso   1.000  C
  H881     1.0000 0.30231  0.18454  0.49240  Biso   1.000  H
  H882     1.0000 0.30228  0.18447  0.49240  Biso   1.000  H
  H883     1.0000 0.30223  0.18447  0.49240  Biso   1.000  H
  C801     1.0000 0.61340  0.82743  0.20319  Biso   1.000  C
  C802     1.0000 0.61334  0.82743  0.20319  Biso   1.000  C
  C803     1.0000 0.77398  0.63237  0.44779  Biso   1.000  C
  N155     1.0000 0.13434  0.24372  0.16639  Biso   1.000  N
  H884     1.0000 0.09580  0.33468  0.16639  Biso   1.000  H
  C804     1.0000 0.19461  0.37157  0.11630  Biso   1.000  C
  N156     1.0000 0.13428  0.24372  0.16639  Biso   1.000  N
  C805     1.0000 0.19465  0.37164  0.11630  Biso   1.000  C
  H885     1.0000 0.09575  0.33468  0.16639  Biso   1.000  H
  C806     1.0000 0.19459  0.37164  0.11630  Biso   1.000  C
  C807     1.0000 0.28383  0.51902  0.15178  Biso   1.000  C
  H886     1.0000 0.28562  0.51770  0.22362  Biso   1.000  H
  H887     1.0000 0.19087  0.49166  0.20281  Biso   1.000  H
  H888     1.0000 0.19090  0.49172  0.20281  Biso   1.000  H
  C808     1.0000 0.28377  0.51902  0.15178  Biso   1.000  C
  H889     1.0000 0.28556  0.51770  0.22362  Biso   1.000  H
  N157     1.0000 0.28682  0.06162  0.43611  Biso   1.000  N
  H890     1.0000 0.40520  0.16500  0.41932  Biso   1.000  H
  N158     1.0000 0.28676  0.06162  0.43611  Biso   1.000  N
  C809     1.0000 0.41779  0.12127  0.48571  Biso   1.000  C
  C810     1.0000 0.41783  0.12134  0.48571  Biso   1.000  C
  H891     1.0000 0.40515  0.16500  0.41932  Biso   1.000  H
  C811     1.0000 0.41774  0.12127  0.48571  Biso   1.000  C
  C812     1.0000 0.41777  0.12134  0.48571  Biso   1.000  C
  C813     1.0000 0.47282  0.26891  0.52210  Biso   1.000  C
  H892     1.0000 0.41151  0.33389  0.49421  Biso   1.000  H
  H893     1.0000 0.46818  0.31659  0.45640  Biso   1.000  H
  H894     1.0000 0.41145  0.33389  0.49421  Biso   1.000  H
  C814     1.0000 0.47276  0.26891  0.52210  Biso   1.000  C
  C815     1.0000 0.66626  0.81823  0.16350  Biso   1.000  C
  C816     1.0000 0.51595  0.75864  0.19880  Biso   1.000  C
  H895     1.0000 0.62009  0.88741  0.20201  Biso   1.000  H
  C817     1.0000 0.51601  0.75864  0.19880  Biso   1.000  C
  H896     1.0000 0.62012  0.88748  0.20201  Biso   1.000  H
  H897     1.0000 0.62004  0.88741  0.20201  Biso   1.000  H
  H898     1.0000 0.62007  0.88748  0.20201  Biso   1.000  H
  C818     1.0000 0.86474  0.65454  0.46619  Biso   1.000  C
  C819     1.0000 0.86480  0.65454  0.46619  Biso   1.000  C
  H899     1.0000 0.75979  0.59476  0.41932  Biso   1.000  H
  C820     1.0000 0.70347  0.58213  0.48571  Biso   1.000  C
  C821     1.0000 0.70341  0.58213  0.48571  Biso   1.000  C
  H900     1.0000 0.75973  0.59476  0.41932  Biso   1.000  H
  C822     1.0000 0.05150  0.18217  0.16820  Biso   1.000  C
  C823     1.0000 0.05153  0.18223  0.16820  Biso   1.000  C
  C824     1.0000 0.05144  0.18217  0.16820  Biso   1.000  C
  C825     1.0000 0.05148  0.18223  0.16820  Biso   1.000  C
  H901     1.0000 0.24620  0.36368  0.11209  Biso   1.000  H
  H902     1.0000 0.15208  0.33902  0.09121  Biso   1.000  H
  C826     1.0000 0.22410  0.46996  0.11261  Biso   1.000  C
  H903     1.0000 0.15214  0.33902  0.09121  Biso   1.000  H
  C827     1.0000 0.22413  0.47002  0.11261  Biso   1.000  C
  C828     1.0000 0.22408  0.47002  0.11261  Biso   1.000  C
  H904     1.0000 0.30047  0.58169  0.14959  Biso   1.000  H
  H905     1.0000 0.33821  0.51547  0.14900  Biso   1.000  H
  H906     1.0000 0.30053  0.58169  0.14959  Biso   1.000  H
  H907     1.0000 0.33824  0.51553  0.14900  Biso   1.000  H
  H908     1.0000 0.33815  0.51547  0.14900  Biso   1.000  H
  H909     1.0000 0.33818  0.51553  0.14900  Biso   1.000  H
  C829     1.0000 0.27659  0.03341  0.39551  Biso   1.000  C
  H910     1.0000 0.37819  0.09240  0.51251  Biso   1.000  H
  C830     1.0000 0.49850  0.20328  0.50230  Biso   1.000  C
  H911     1.0000 0.43539  0.08004  0.47288  Biso   1.000  H
  C831     1.0000 0.49844  0.20328  0.50230  Biso   1.000  C
  H912     1.0000 0.43536  0.07997  0.47288  Biso   1.000  H
  H913     1.0000 0.43542  0.07997  0.47288  Biso   1.000  H
  H914     1.0000 0.43261  0.24261  0.54900  Biso   1.000  H
  H915     1.0000 0.52583  0.32310  0.53259  Biso   1.000  H
  H916     1.0000 0.43256  0.24261  0.54900  Biso   1.000  H
  H917     1.0000 0.52577  0.32310  0.53259  Biso   1.000  H
  N159     1.0000 0.75631  0.89057  0.16639  Biso   1.000  N
  N160     1.0000 0.75625  0.89057  0.16639  Biso   1.000  N
  H918     1.0000 0.66528  0.76101  0.16639  Biso   1.000  H
  C832     1.0000 0.62836  0.82296  0.11630  Biso   1.000  C
  H919     1.0000 0.66531  0.76108  0.16639  Biso   1.000  H
  C833     1.0000 0.62842  0.82296  0.11630  Biso   1.000  C
  H920     1.0000 0.66522  0.76101  0.16639  Biso   1.000  H
  H921     1.0000 0.66525  0.76108  0.16639  Biso   1.000  H
  C834     1.0000 0.48097  0.76476  0.15178  Biso   1.000  C
  H922     1.0000 0.50829  0.69913  0.20281  Biso   1.000  H
  H923     1.0000 0.48228  0.76785  0.22362  Biso   1.000  H
  H924     1.0000 0.50833  0.69919  0.20281  Biso   1.000  H
  H925     1.0000 0.48223  0.76785  0.22362  Biso   1.000  H
  H926     1.0000 0.50824  0.69913  0.20281  Biso   1.000  H
  H927     1.0000 0.50827  0.69919  0.20281  Biso   1.000  H
  N161     1.0000 0.92791  0.69327  0.42789  Biso   1.000  N
  N162     1.0000 0.92785  0.69327  0.42789  Biso   1.000  N
  C835     1.0000 0.86307  0.57305  0.48289  Biso   1.000  C
  H928     1.0000 0.88218  0.69761  0.49240  Biso   1.000  H
  H929     1.0000 0.88221  0.69768  0.49240  Biso   1.000  H
  H930     1.0000 0.88212  0.69761  0.49240  Biso   1.000  H
  H931     1.0000 0.88216  0.69768  0.49240  Biso   1.000  H
  H932     1.0000 0.71415  0.62172  0.51251  Biso   1.000  H
  H933     1.0000 0.64457  0.56457  0.47288  Biso   1.000  H
  C836     1.0000 0.70476  0.50144  0.50230  Biso   1.000  C
  H934     1.0000 0.71418  0.62179  0.51251  Biso   1.000  H
  H935     1.0000 0.64463  0.56457  0.47288  Biso   1.000  H
  C837     1.0000 0.02652  0.08891  0.16851  Biso   1.000  C
  H936     1.0000 0.00709  0.19802  0.16939  Biso   1.000  H
  H937     1.0000 0.00714  0.19802  0.16939  Biso   1.000  H
  C838     1.0000 0.02646  0.08891  0.16851  Biso   1.000  C
  H938     1.0000 0.25489  0.49350  0.08260  Biso   1.000  H
  H939     1.0000 0.17199  0.47772  0.11341  Biso   1.000  H
  H940     1.0000 0.17205  0.47772  0.11341  Biso   1.000  H
  H941     1.0000 0.32049  0.06609  0.37289  Biso   1.000  H
  C839     1.0000 0.19727  0.94962  0.38150  Biso   1.000  C
  H942     1.0000 0.32044  0.06609  0.37289  Biso   1.000  H
  H943     1.0000 0.53989  0.23070  0.47599  Biso   1.000  H
  H944     1.0000 0.52828  0.18789  0.52670  Biso   1.000  H
  H945     1.0000 0.52833  0.18789  0.52670  Biso   1.000  H
  C840     1.0000 0.81776  0.86926  0.16820  Biso   1.000  C
  C841     1.0000 0.81782  0.86926  0.16820  Biso   1.000  C
  H946     1.0000 0.66099  0.81303  0.09121  Biso   1.000  H
  H947     1.0000 0.63627  0.88241  0.11209  Biso   1.000  H
  C842     1.0000 0.53000  0.75404  0.11261  Biso   1.000  C
  H948     1.0000 0.63631  0.88248  0.11209  Biso   1.000  H
  H949     1.0000 0.66093  0.81303  0.09121  Biso   1.000  H
  H950     1.0000 0.63622  0.88241  0.11209  Biso   1.000  H
  C843     1.0000 0.52994  0.75404  0.11261  Biso   1.000  C
  H951     1.0000 0.41825  0.71872  0.14959  Biso   1.000  H
  H952     1.0000 0.48450  0.82263  0.14900  Biso   1.000  H
  H953     1.0000 0.41834  0.71879  0.14959  Biso   1.000  H
  H954     1.0000 0.48445  0.82263  0.14900  Biso   1.000  H
  H955     1.0000 0.41829  0.71879  0.14959  Biso   1.000  H
  C844     1.0000 0.98340  0.77476  0.43270  Biso   1.000  C
  C845     1.0000 0.98335  0.77476  0.43270  Biso   1.000  C
  C846     1.0000 0.79610  0.52715  0.52210  Biso   1.000  C
  H956     1.0000 0.92237  0.58844  0.49421  Biso   1.000  H
  H957     1.0000 0.84835  0.53175  0.45640  Biso   1.000  H
  H958     1.0000 0.92231  0.58844  0.49421  Biso   1.000  H
  H959     1.0000 0.84840  0.53175  0.45640  Biso   1.000  H
  C847     1.0000 0.79604  0.52715  0.52210  Biso   1.000  C
  H960     1.0000 0.69079  0.46007  0.47599  Biso   1.000  H
  H961     1.0000 0.65956  0.47164  0.52670  Biso   1.000  H
  H962     1.0000 0.69074  0.46007  0.47599  Biso   1.000  H
  C848     1.0000 0.93710  0.02558  0.16890  Biso   1.000  C
  C849     1.0000 0.93704  0.02558  0.16890  Biso   1.000  C
  C850     1.0000 0.08850  0.06287  0.16890  Biso   1.000  C
  C851     1.0000 0.08854  0.06294  0.16890  Biso   1.000  C
  C852     1.0000 0.08845  0.06287  0.16890  Biso   1.000  C
  C853     1.0000 0.08848  0.06294  0.16890  Biso   1.000  C
  C854     1.0000 0.12776  0.90333  0.41221  Biso   1.000  C
  C855     1.0000 0.19495  0.91615  0.33731  Biso   1.000  C
  C856     1.0000 0.19500  0.91615  0.33731  Biso   1.000  C
  C857     1.0000 0.12782  0.90333  0.41221  Biso   1.000  C
  C858     1.0000 0.91107  0.93752  0.16851  Biso   1.000  C
  C859     1.0000 0.91101  0.93752  0.16851  Biso   1.000  C
  H963     1.0000 0.80194  0.80902  0.16939  Biso   1.000  H
  H964     1.0000 0.80202  0.80908  0.16939  Biso   1.000  H
  H965     1.0000 0.80197  0.80908  0.16939  Biso   1.000  H
  H966     1.0000 0.50648  0.76134  0.08260  Biso   1.000  H
  H967     1.0000 0.52226  0.69426  0.11341  Biso   1.000  H
  H968     1.0000 0.52232  0.69426  0.11341  Biso   1.000  H
  H969     1.0000 0.50642  0.76134  0.08260  Biso   1.000  H
  C860     1.0000 0.05608  0.82375  0.39872  Biso   1.000  C
  H970     1.0000 0.97838  0.80527  0.45870  Biso   1.000  H
  H971     1.0000 0.97833  0.80527  0.45870  Biso   1.000  H
  H972     1.0000 0.80998  0.56733  0.54900  Biso   1.000  H
  H973     1.0000 0.79727  0.47414  0.53259  Biso   1.000  H
  H974     1.0000 0.80992  0.56733  0.54900  Biso   1.000  H
  H975     1.0000 0.79722  0.47414  0.53259  Biso   1.000  H
  H976     1.0000 0.89413  0.04340  0.16949  Biso   1.000  H
  H977     1.0000 0.89407  0.04340  0.16949  Biso   1.000  H
  H978     1.0000 0.14931  0.10588  0.16949  Biso   1.000  H
  H979     1.0000 0.14925  0.10588  0.16949  Biso   1.000  H
  C861     1.0000 0.06235  0.97343  0.16851  Biso   1.000  C
  C862     1.0000 0.06241  0.97343  0.16851  Biso   1.000  C
  H980     1.0000 0.12927  0.92615  0.44239  Biso   1.000  H
  H981     1.0000 0.12932  0.92615  0.44239  Biso   1.000  H
  C863     1.0000 0.12323  0.83651  0.32378  Biso   1.000  C
  H982     1.0000 0.24246  0.94785  0.31629  Biso   1.000  H
  C864     1.0000 0.12332  0.83657  0.32378  Biso   1.000  C
  C865     1.0000 0.12329  0.83651  0.32378  Biso   1.000  C
  H983     1.0000 0.24252  0.94785  0.31629  Biso   1.000  H
  C866     1.0000 0.12326  0.83657  0.32378  Biso   1.000  C
  C867     1.0000 0.97433  0.91141  0.16890  Biso   1.000  C
  C868     1.0000 0.97442  0.91148  0.16890  Biso   1.000  C
  C869     1.0000 0.97436  0.91148  0.16890  Biso   1.000  C
  C870     1.0000 0.05372  0.79021  0.35449  Biso   1.000  C
  C871     1.0000 0.05381  0.79028  0.35449  Biso   1.000  C
  C872     1.0000 0.05378  0.79021  0.35449  Biso   1.000  C
  C873     1.0000 0.05375  0.79028  0.35449  Biso   1.000  C
  C874     1.0000 0.13067  0.94844  0.16820  Biso   1.000  C
  C875     1.0000 0.12124  0.79744  0.27670  Biso   1.000  C
  C876     1.0000 0.12130  0.79744  0.27670  Biso   1.000  C
  H984     1.0000 0.95659  0.85065  0.16949  Biso   1.000  H
  H985     1.0000 0.95653  0.85065  0.16949  Biso   1.000  H
  H986     1.0000 0.00477  0.73582  0.34522  Biso   1.000  H
  H987     1.0000 0.00480  0.73589  0.34522  Biso   1.000  H
  H988     1.0000 0.00475  0.73589  0.34522  Biso   1.000  H
  N163     1.0000 0.10938  0.86564  0.16639  Biso   1.000  N
  H989     1.0000 0.19086  0.99283  0.16939  Biso   1.000  H
  H990     1.0000 0.19091  0.99283  0.16939  Biso   1.000  H
  N164     1.0000 0.10944  0.86564  0.16639  Biso   1.000  N
  N165     1.0000 0.18269  0.83355  0.24840  Biso   1.000  N
  N166     1.0000 0.18264  0.83355  0.24840  Biso   1.000  N
  H991     1.0000 0.07107  0.74312  0.26830  Biso   1.000  H
  H992     1.0000 0.07110  0.74319  0.26830  Biso   1.000  H
  C877     1.0000 0.18169  0.84795  0.16350  Biso   1.000  C
  C878     1.0000 0.18164  0.84795  0.16350  Biso   1.000  C
  C879     1.0000 0.17247  0.78587  0.20319  Biso   1.000  C
  C880     1.0000 0.17252  0.78587  0.20319  Biso   1.000  C
  H993     1.0000 0.23882  0.90411  0.16639  Biso   1.000  H
  C881     1.0000 0.17696  0.80534  0.11630  Biso   1.000  C
  H994     1.0000 0.23891  0.90418  0.16639  Biso   1.000  H
  H995     1.0000 0.23888  0.90411  0.16639  Biso   1.000  H
  C882     1.0000 0.17702  0.80534  0.11630  Biso   1.000  C
  H996     1.0000 0.23885  0.90418  0.16639  Biso   1.000  H
  C883     1.0000 0.24126  0.75726  0.19880  Biso   1.000  C
  H997     1.0000 0.11248  0.73253  0.20201  Biso   1.000  H
  C884     1.0000 0.24131  0.75726  0.19880  Biso   1.000  C
  H998     1.0000 0.18687  0.84782  0.09121  Biso   1.000  H
  H999     1.0000 0.11743  0.75371  0.11209  Biso   1.000  H
  C885     1.0000 0.24589  0.77587  0.11261  Biso   1.000  C
  H1000    1.0000 0.18690  0.84789  0.09121  Biso   1.000  H
  H1001    1.0000 0.11752  0.75378  0.11209  Biso   1.000  H
  H1002    1.0000 0.11749  0.75371  0.11209  Biso   1.000  H
  H1003    1.0000 0.18684  0.84789  0.09121  Biso   1.000  H
  H1004    1.0000 0.11746  0.75378  0.11209  Biso   1.000  H
  C886     1.0000 0.23517  0.71616  0.15178  Biso   1.000  C
  H1005    1.0000 0.30074  0.80902  0.20281  Biso   1.000  H
  H1006    1.0000 0.23203  0.71432  0.22362  Biso   1.000  H
  H1007    1.0000 0.30077  0.80908  0.20281  Biso   1.000  H
  H1008    1.0000 0.23212  0.71438  0.22362  Biso   1.000  H
  H1009    1.0000 0.30080  0.80902  0.20281  Biso   1.000  H
  H1010    1.0000 0.23209  0.71432  0.22362  Biso   1.000  H
  H1011    1.0000 0.30083  0.80908  0.20281  Biso   1.000  H
  H1012    1.0000 0.23856  0.74503  0.08260  Biso   1.000  H
  H1013    1.0000 0.30565  0.82796  0.11341  Biso   1.000  H
  H1014    1.0000 0.30571  0.82796  0.11341  Biso   1.000  H
  H1015    1.0000 0.28115  0.69945  0.14959  Biso   1.000  H
  H1016    1.0000 0.17728  0.66177  0.14900  Biso   1.000  H
  H1017    1.0000 0.28121  0.69945  0.14959  Biso   1.000  H
  H1018    1.0000 0.17734  0.66177  0.14900  Biso   1.000  H
  C887     1.0000 0.87870  0.29653  0.48571  Biso   1.000  C
  C888     1.0000 0.85840  0.22597  0.44779  Biso   1.000  C
  C889     1.0000 0.85838  0.22603  0.44779  Biso   1.000  C
  C890     1.0000 0.85834  0.22597  0.44779  Biso   1.000  C
  C891     1.0000 0.85843  0.22603  0.44779  Biso   1.000  C
  H1019    1.0000 0.90763  0.28581  0.51251  Biso   1.000  H
  H1020    1.0000 0.91998  0.35539  0.47288  Biso   1.000  H
  C892     1.0000 0.79672  0.29522  0.50230  Biso   1.000  C
  H1021    1.0000 0.90757  0.28581  0.51251  Biso   1.000  H
  C893     1.0000 0.79666  0.29522  0.50230  Biso   1.000  C
  N167     1.0000 0.93837  0.22518  0.43611  Biso   1.000  N
  H1022    1.0000 0.83497  0.24017  0.41932  Biso   1.000  H
  C894     1.0000 0.87867  0.29647  0.48571  Biso   1.000  C
  C895     1.0000 0.78984  0.13521  0.46619  Biso   1.000  C
  H1023    1.0000 0.83501  0.24024  0.41932  Biso   1.000  H
  C896     1.0000 0.78978  0.13521  0.46619  Biso   1.000  C
  H1024    1.0000 0.76929  0.30916  0.47599  Biso   1.000  H
  H1025    1.0000 0.81213  0.34040  0.52670  Biso   1.000  H
  C897     1.0000 0.73111  0.20387  0.52210  Biso   1.000  C
  H1026    1.0000 0.76926  0.30923  0.47599  Biso   1.000  H
  H1027    1.0000 0.81207  0.34040  0.52670  Biso   1.000  H
  C898     1.0000 0.73108  0.20394  0.52210  Biso   1.000  C
  C899     1.0000 0.73105  0.20387  0.52210  Biso   1.000  C
  H1028    1.0000 0.76932  0.30923  0.47599  Biso   1.000  H
  C900     1.0000 0.73114  0.20394  0.52210  Biso   1.000  C
  C901     1.0000 0.96663  0.24320  0.39551  Biso   1.000  C
  C902     1.0000 0.96657  0.24320  0.39551  Biso   1.000  C
  N168     1.0000 0.76539  0.07208  0.42789  Biso   1.000  N
  C903     1.0000 0.71005  0.13692  0.48289  Biso   1.000  C
  H1029    1.0000 0.81553  0.11778  0.49240  Biso   1.000  H
  N169     1.0000 0.76537  0.07214  0.42789  Biso   1.000  N
  C904     1.0000 0.70999  0.13692  0.48289  Biso   1.000  C
  H1030    1.0000 0.81547  0.11778  0.49240  Biso   1.000  H
  N170     1.0000 0.76543  0.07214  0.42789  Biso   1.000  N
  H1031    1.0000 0.75743  0.18999  0.54900  Biso   1.000  H
  H1032    1.0000 0.67692  0.20269  0.53259  Biso   1.000  H
  H1033    1.0000 0.75737  0.18999  0.54900  Biso   1.000  H
  H1034    1.0000 0.67686  0.20269  0.53259  Biso   1.000  H
  C905     1.0000 0.05033  0.24760  0.38150  Biso   1.000  C
  C906     1.0000 0.05027  0.24760  0.38150  Biso   1.000  C
  H1035    1.0000 0.93383  0.25438  0.37289  Biso   1.000  H
  H1036    1.0000 0.93389  0.25438  0.37289  Biso   1.000  H
  C907     1.0000 0.79141  0.01657  0.43270  Biso   1.000  C
  C908     1.0000 0.79138  0.01664  0.43270  Biso   1.000  C
  C909     1.0000 0.79135  0.01657  0.43270  Biso   1.000  C
  C910     1.0000 0.79144  0.01664  0.43270  Biso   1.000  C
  H1037    1.0000 0.66609  0.07760  0.49421  Biso   1.000  H
  H1038    1.0000 0.68338  0.15159  0.45640  Biso   1.000  H
  C911     1.0000 0.08380  0.27878  0.33731  Biso   1.000  C
  C912     1.0000 0.08374  0.27878  0.33731  Biso   1.000  C
  C913     1.0000 0.09659  0.22439  0.41221  Biso   1.000  C
  C914     1.0000 0.76768  0.94384  0.39872  Biso   1.000  C
  C915     1.0000 0.76762  0.94384  0.39872  Biso   1.000  C
  H1039    1.0000 0.82688  0.02157  0.45870  Biso   1.000  H
  H1040    1.0000 0.82686  0.02164  0.45870  Biso   1.000  H
  H1041    1.0000 0.82691  0.02164  0.45870  Biso   1.000  H
  C916     1.0000 0.16338  0.28667  0.32378  Biso   1.000  C
  C917     1.0000 0.16342  0.28674  0.32378  Biso   1.000  C
  H1042    1.0000 0.05211  0.29456  0.31629  Biso   1.000  H
  H1043    1.0000 0.05214  0.29463  0.31629  Biso   1.000  H
  H1044    1.0000 0.05205  0.29456  0.31629  Biso   1.000  H
  H1045    1.0000 0.05209  0.29463  0.31629  Biso   1.000  H
  C918     1.0000 0.17617  0.23228  0.39872  Biso   1.000  C
  C919     1.0000 0.17623  0.23228  0.39872  Biso   1.000  C
  H1046    1.0000 0.07380  0.20308  0.44239  Biso   1.000  H
  C920     1.0000 0.73648  0.94614  0.35449  Biso   1.000  C
  C921     1.0000 0.77558  0.87215  0.41221  Biso   1.000  C
  C922     1.0000 0.73642  0.94614  0.35449  Biso   1.000  C
  C923     1.0000 0.20249  0.32376  0.27670  Biso   1.000  C
  C924     1.0000 0.20252  0.32383  0.27670  Biso   1.000  C
  C925     1.0000 0.20243  0.32376  0.27670  Biso   1.000  C
  C926     1.0000 0.20973  0.26352  0.35449  Biso   1.000  C
  C927     1.0000 0.20967  0.26352  0.35449  Biso   1.000  C
  C928     1.0000 0.22522  0.20861  0.43270  Biso   1.000  C
  C929     1.0000 0.22516  0.20861  0.43270  Biso   1.000  C
  C930     1.0000 0.71329  0.87663  0.32378  Biso   1.000  C
  H1047    1.0000 0.73108  0.99513  0.34522  Biso   1.000  H
  C931     1.0000 0.71323  0.87663  0.32378  Biso   1.000  C
  H1048    1.0000 0.73102  0.99513  0.34522  Biso   1.000  H
  H1049    1.0000 0.79686  0.87064  0.44239  Biso   1.000  H
  C932     1.0000 0.75238  0.80264  0.38150  Biso   1.000  C
  C933     1.0000 0.75233  0.80264  0.38150  Biso   1.000  C
  N171     1.0000 0.16640  0.34908  0.24840  Biso   1.000  N
  H1050    1.0000 0.25679  0.32790  0.26830  Biso   1.000  H
  H1051    1.0000 0.26408  0.26891  0.34522  Biso   1.000  H
  H1052    1.0000 0.26414  0.26891  0.34522  Biso   1.000  H
  N172     1.0000 0.30666  0.23458  0.42789  Biso   1.000  N
  H1053    1.0000 0.19470  0.17309  0.45870  Biso   1.000  H
  N173     1.0000 0.30672  0.23458  0.42789  Biso   1.000  N
  H1054    1.0000 0.19465  0.17309  0.45870  Biso   1.000  H
  C934     1.0000 0.67620  0.87866  0.27670  Biso   1.000  C
  C935     1.0000 0.67615  0.87866  0.27670  Biso   1.000  C
  C936     1.0000 0.72119  0.80494  0.33731  Biso   1.000  C
  C937     1.0000 0.72113  0.80494  0.33731  Biso   1.000  C
  C938     1.0000 0.75675  0.72333  0.39551  Biso   1.000  C
  C939     1.0000 0.21407  0.38657  0.20319  Biso   1.000  C
  C940     1.0000 0.21410  0.38663  0.20319  Biso   1.000  C
  C941     1.0000 0.34538  0.21018  0.46619  Biso   1.000  C
  N174     1.0000 0.65090  0.81724  0.24840  Biso   1.000  N
  N175     1.0000 0.65085  0.81724  0.24840  Biso   1.000  N
  H1055    1.0000 0.67208  0.92884  0.26830  Biso   1.000  H
  H1056    1.0000 0.70536  0.75746  0.31629  Biso   1.000  H
  H1057    1.0000 0.70542  0.75746  0.31629  Biso   1.000  H
  N176     1.0000 0.77478  0.71313  0.43611  Biso   1.000  N
  H1058    1.0000 0.74559  0.67946  0.37289  Biso   1.000  H
  N177     1.0000 0.77472  0.71313  0.43611  Biso   1.000  N
  H1059    1.0000 0.74553  0.67946  0.37289  Biso   1.000  H
  C942     1.0000 0.15198  0.33369  0.16350  Biso   1.000  C
  C943     1.0000 0.24267  0.48396  0.19880  Biso   1.000  C
  H1060    1.0000 0.26739  0.37986  0.20201  Biso   1.000  H
  C944     1.0000 0.15204  0.33369  0.16350  Biso   1.000  C
  C945     1.0000 0.24276  0.48403  0.19880  Biso   1.000  C
  H1061    1.0000 0.26742  0.37992  0.20201  Biso   1.000  H
  C946     1.0000 0.24270  0.48403  0.19880  Biso   1.000  C
  C947     1.0000 0.36758  0.14159  0.44779  Biso   1.000  C
  C948     1.0000 0.42688  0.29002  0.48289  Biso   1.000  C
  H1062    1.0000 0.30228  0.18447  0.49240  Biso   1.000  H
  C949     1.0000 0.42693  0.29002  0.48289  Biso   1.000  C
  H1063    1.0000 0.30231  0.18454  0.49240  Biso   1.000  H
  H1064    1.0000 0.30223  0.18447  0.49240  Biso   1.000  H
  C950     1.0000 0.61340  0.82743  0.20319  Biso   1.000  C
  C951     1.0000 0.61334  0.82743  0.20319  Biso   1.000  C
  C952     1.0000 0.77398  0.63237  0.44779  Biso   1.000  C
  H1065    1.0000 0.09580  0.33468  0.16639  Biso   1.000  H
  N178     1.0000 0.13434  0.24372  0.16639  Biso   1.000  N
  C953     1.0000 0.19461  0.37157  0.11630  Biso   1.000  C
  C954     1.0000 0.19465  0.37164  0.11630  Biso   1.000  C
  N179     1.0000 0.13428  0.24372  0.16639  Biso   1.000  N
  H1066    1.0000 0.09575  0.33468  0.16639  Biso   1.000  H
  C955     1.0000 0.19459  0.37164  0.11630  Biso   1.000  C
  C956     1.0000 0.28383  0.51902  0.15178  Biso   1.000  C
  H1067    1.0000 0.28562  0.51770  0.22362  Biso   1.000  H
  H1068    1.0000 0.19087  0.49166  0.20281  Biso   1.000  H
  H1069    1.0000 0.19090  0.49172  0.20281  Biso   1.000  H
  C957     1.0000 0.28377  0.51902  0.15178  Biso   1.000  C
  H1070    1.0000 0.28556  0.51770  0.22362  Biso   1.000  H
  H1071    1.0000 0.40520  0.16500  0.41932  Biso   1.000  H
  N180     1.0000 0.28682  0.06162  0.43611  Biso   1.000  N
  C958     1.0000 0.41779  0.12127  0.48571  Biso   1.000  C
  C959     1.0000 0.41783  0.12134  0.48571  Biso   1.000  C
  N181     1.0000 0.28676  0.06162  0.43611  Biso   1.000  N
  H1072    1.0000 0.40515  0.16500  0.41932  Biso   1.000  H
  C960     1.0000 0.41774  0.12127  0.48571  Biso   1.000  C
  C961     1.0000 0.41777  0.12134  0.48571  Biso   1.000  C
  C962     1.0000 0.47282  0.26891  0.52210  Biso   1.000  C
  H1073    1.0000 0.46818  0.31659  0.45640  Biso   1.000  H
  H1074    1.0000 0.41151  0.33389  0.49421  Biso   1.000  H
  H1075    1.0000 0.41145  0.33389  0.49421  Biso   1.000  H
  C963     1.0000 0.47276  0.26891  0.52210  Biso   1.000  C
  C964     1.0000 0.66626  0.81823  0.16350  Biso   1.000  C
  C965     1.0000 0.51595  0.75864  0.19880  Biso   1.000  C
  H1076    1.0000 0.62009  0.88741  0.20201  Biso   1.000  H
  C966     1.0000 0.51601  0.75864  0.19880  Biso   1.000  C
  H1077    1.0000 0.62012  0.88748  0.20201  Biso   1.000  H
  H1078    1.0000 0.62004  0.88741  0.20201  Biso   1.000  H
  H1079    1.0000 0.62007  0.88748  0.20201  Biso   1.000  H
  C967     1.0000 0.86474  0.65454  0.46619  Biso   1.000  C
  C968     1.0000 0.86480  0.65454  0.46619  Biso   1.000  C
  H1080    1.0000 0.75979  0.59476  0.41932  Biso   1.000  H
  C969     1.0000 0.70347  0.58213  0.48571  Biso   1.000  C
  C970     1.0000 0.70341  0.58213  0.48571  Biso   1.000  C
  H1081    1.0000 0.75973  0.59476  0.41932  Biso   1.000  H
  C971     1.0000 0.05150  0.18217  0.16820  Biso   1.000  C
  C972     1.0000 0.05153  0.18223  0.16820  Biso   1.000  C
  C973     1.0000 0.05144  0.18217  0.16820  Biso   1.000  C
  C974     1.0000 0.05148  0.18223  0.16820  Biso   1.000  C
  H1082    1.0000 0.24620  0.36368  0.11209  Biso   1.000  H
  H1083    1.0000 0.15208  0.33902  0.09121  Biso   1.000  H
  C975     1.0000 0.22410  0.46996  0.11261  Biso   1.000  C
  H1084    1.0000 0.15214  0.33902  0.09121  Biso   1.000  H
  C976     1.0000 0.22413  0.47002  0.11261  Biso   1.000  C
  C977     1.0000 0.22408  0.47002  0.11261  Biso   1.000  C
  H1085    1.0000 0.30047  0.58169  0.14959  Biso   1.000  H
  H1086    1.0000 0.33821  0.51547  0.14900  Biso   1.000  H
  H1087    1.0000 0.30053  0.58169  0.14959  Biso   1.000  H
  H1088    1.0000 0.33824  0.51553  0.14900  Biso   1.000  H
  H1089    1.0000 0.33815  0.51547  0.14900  Biso   1.000  H
  H1090    1.0000 0.33818  0.51553  0.14900  Biso   1.000  H
  C978     1.0000 0.27659  0.03341  0.39551  Biso   1.000  C
  H1091    1.0000 0.37819  0.09240  0.51251  Biso   1.000  H
  H1092    1.0000 0.43536  0.07997  0.47288  Biso   1.000  H
  C979     1.0000 0.49850  0.20328  0.50230  Biso   1.000  C
  H1093    1.0000 0.43539  0.08004  0.47288  Biso   1.000  H
  H1094    1.0000 0.43542  0.07997  0.47288  Biso   1.000  H
  C980     1.0000 0.49844  0.20328  0.50230  Biso   1.000  C
  H1095    1.0000 0.43261  0.24261  0.54900  Biso   1.000  H
  H1096    1.0000 0.52577  0.32310  0.53259  Biso   1.000  H
  H1097    1.0000 0.52583  0.32310  0.53259  Biso   1.000  H
  H1098    1.0000 0.43256  0.24261  0.54900  Biso   1.000  H
  N182     1.0000 0.75631  0.89057  0.16639  Biso   1.000  N
  N183     1.0000 0.75625  0.89057  0.16639  Biso   1.000  N
  H1099    1.0000 0.66528  0.76101  0.16639  Biso   1.000  H
  C981     1.0000 0.62836  0.82296  0.11630  Biso   1.000  C
  H1100    1.0000 0.66531  0.76108  0.16639  Biso   1.000  H
  C982     1.0000 0.62842  0.82296  0.11630  Biso   1.000  C
  H1101    1.0000 0.66522  0.76101  0.16639  Biso   1.000  H
  H1102    1.0000 0.66525  0.76108  0.16639  Biso   1.000  H
  C983     1.0000 0.48097  0.76476  0.15178  Biso   1.000  C
  H1103    1.0000 0.50829  0.69913  0.20281  Biso   1.000  H
  H1104    1.0000 0.48228  0.76785  0.22362  Biso   1.000  H
  H1105    1.0000 0.50833  0.69919  0.20281  Biso   1.000  H
  H1106    1.0000 0.48223  0.76785  0.22362  Biso   1.000  H
  H1107    1.0000 0.50824  0.69913  0.20281  Biso   1.000  H
  H1108    1.0000 0.50827  0.69919  0.20281  Biso   1.000  H
  N184     1.0000 0.92791  0.69327  0.42789  Biso   1.000  N
  N185     1.0000 0.92785  0.69327  0.42789  Biso   1.000  N
  C984     1.0000 0.86307  0.57305  0.48289  Biso   1.000  C
  H1109    1.0000 0.88218  0.69761  0.49240  Biso   1.000  H
  H1110    1.0000 0.88221  0.69768  0.49240  Biso   1.000  H
  H1111    1.0000 0.88212  0.69761  0.49240  Biso   1.000  H
  H1112    1.0000 0.88216  0.69768  0.49240  Biso   1.000  H
  H1113    1.0000 0.71415  0.62172  0.51251  Biso   1.000  H
  H1114    1.0000 0.64457  0.56457  0.47288  Biso   1.000  H
  C985     1.0000 0.70476  0.50144  0.50230  Biso   1.000  C
  H1115    1.0000 0.71418  0.62179  0.51251  Biso   1.000  H
  H1116    1.0000 0.64463  0.56457  0.47288  Biso   1.000  H
  C986     1.0000 0.02652  0.08891  0.16851  Biso   1.000  C
  H1117    1.0000 0.00709  0.19802  0.16939  Biso   1.000  H
  H1118    1.0000 0.00714  0.19802  0.16939  Biso   1.000  H
  C987     1.0000 0.02646  0.08891  0.16851  Biso   1.000  C
  H1119    1.0000 0.25489  0.49350  0.08260  Biso   1.000  H
  H1120    1.0000 0.17199  0.47772  0.11341  Biso   1.000  H
  H1121    1.0000 0.17205  0.47772  0.11341  Biso   1.000  H
  H1122    1.0000 0.32049  0.06609  0.37289  Biso   1.000  H
  C988     1.0000 0.19727  0.94962  0.38150  Biso   1.000  C
  H1123    1.0000 0.32044  0.06609  0.37289  Biso   1.000  H
  H1124    1.0000 0.53989  0.23070  0.47599  Biso   1.000  H
  H1125    1.0000 0.52828  0.18789  0.52670  Biso   1.000  H
  H1126    1.0000 0.52833  0.18789  0.52670  Biso   1.000  H
  C989     1.0000 0.81776  0.86926  0.16820  Biso   1.000  C
  C990     1.0000 0.81782  0.86926  0.16820  Biso   1.000  C
  H1127    1.0000 0.66099  0.81303  0.09121  Biso   1.000  H
  H1128    1.0000 0.63627  0.88241  0.11209  Biso   1.000  H
  C991     1.0000 0.53000  0.75404  0.11261  Biso   1.000  C
  H1129    1.0000 0.63631  0.88248  0.11209  Biso   1.000  H
  H1130    1.0000 0.66093  0.81303  0.09121  Biso   1.000  H
  H1131    1.0000 0.63622  0.88241  0.11209  Biso   1.000  H
  C992     1.0000 0.52994  0.75404  0.11261  Biso   1.000  C
  H1132    1.0000 0.41825  0.71872  0.14959  Biso   1.000  H
  H1133    1.0000 0.48450  0.82263  0.14900  Biso   1.000  H
  H1134    1.0000 0.41834  0.71879  0.14959  Biso   1.000  H
  H1135    1.0000 0.48445  0.82263  0.14900  Biso   1.000  H
  H1136    1.0000 0.41829  0.71879  0.14959  Biso   1.000  H
  C993     1.0000 0.98340  0.77476  0.43270  Biso   1.000  C
  C994     1.0000 0.98335  0.77476  0.43270  Biso   1.000  C
  C995     1.0000 0.79610  0.52715  0.52210  Biso   1.000  C
  H1137    1.0000 0.92237  0.58844  0.49421  Biso   1.000  H
  H1138    1.0000 0.84835  0.53175  0.45640  Biso   1.000  H
  H1139    1.0000 0.92231  0.58844  0.49421  Biso   1.000  H
  H1140    1.0000 0.84840  0.53175  0.45640  Biso   1.000  H
  C996     1.0000 0.79604  0.52715  0.52210  Biso   1.000  C
  H1141    1.0000 0.69079  0.46007  0.47599  Biso   1.000  H
  H1142    1.0000 0.65956  0.47164  0.52670  Biso   1.000  H
  H1143    1.0000 0.69074  0.46007  0.47599  Biso   1.000  H
  C997     1.0000 0.93710  0.02558  0.16890  Biso   1.000  C
  C998     1.0000 0.93704  0.02558  0.16890  Biso   1.000  C
  C999     1.0000 0.08850  0.06287  0.16890  Biso   1.000  C
  C1000    1.0000 0.08854  0.06294  0.16890  Biso   1.000  C
  C1001    1.0000 0.08845  0.06287  0.16890  Biso   1.000  C
  C1002    1.0000 0.08848  0.06294  0.16890  Biso   1.000  C
  C1003    1.0000 0.12776  0.90333  0.41221  Biso   1.000  C
  C1004    1.0000 0.19495  0.91615  0.33731  Biso   1.000  C
  C1005    1.0000 0.19500  0.91615  0.33731  Biso   1.000  C
  C1006    1.0000 0.12782  0.90333  0.41221  Biso   1.000  C
  C1007    1.0000 0.91107  0.93752  0.16851  Biso   1.000  C
  C1008    1.0000 0.91101  0.93752  0.16851  Biso   1.000  C
  H1144    1.0000 0.80194  0.80902  0.16939  Biso   1.000  H
  H1145    1.0000 0.80202  0.80908  0.16939  Biso   1.000  H
  H1146    1.0000 0.80197  0.80908  0.16939  Biso   1.000  H
  H1147    1.0000 0.50648  0.76134  0.08260  Biso   1.000  H
  H1148    1.0000 0.52226  0.69426  0.11341  Biso   1.000  H
  H1149    1.0000 0.52232  0.69426  0.11341  Biso   1.000  H
  H1150    1.0000 0.50642  0.76134  0.08260  Biso   1.000  H
  C1009    1.0000 0.05608  0.82375  0.39872  Biso   1.000  C
  H1151    1.0000 0.97838  0.80527  0.45870  Biso   1.000  H
  H1152    1.0000 0.97833  0.80527  0.45870  Biso   1.000  H
  H1153    1.0000 0.80998  0.56733  0.54900  Biso   1.000  H
  H1154    1.0000 0.79727  0.47414  0.53259  Biso   1.000  H
  H1155    1.0000 0.80992  0.56733  0.54900  Biso   1.000  H
  H1156    1.0000 0.79722  0.47414  0.53259  Biso   1.000  H
  H1157    1.0000 0.89413  0.04340  0.16949  Biso   1.000  H
  H1158    1.0000 0.89407  0.04340  0.16949  Biso   1.000  H
  C1010    1.0000 0.06235  0.97343  0.16851  Biso   1.000  C
  C1011    1.0000 0.06241  0.97343  0.16851  Biso   1.000  C
  H1159    1.0000 0.14931  0.10588  0.16949  Biso   1.000  H
  H1160    1.0000 0.14925  0.10588  0.16949  Biso   1.000  H
  H1161    1.0000 0.12927  0.92615  0.44239  Biso   1.000  H
  H1162    1.0000 0.12932  0.92615  0.44239  Biso   1.000  H
  C1012    1.0000 0.12323  0.83651  0.32378  Biso   1.000  C
  H1163    1.0000 0.24246  0.94785  0.31629  Biso   1.000  H
  C1013    1.0000 0.12332  0.83657  0.32378  Biso   1.000  C
  C1014    1.0000 0.12329  0.83651  0.32378  Biso   1.000  C
  H1164    1.0000 0.24252  0.94785  0.31629  Biso   1.000  H
  C1015    1.0000 0.12326  0.83657  0.32378  Biso   1.000  C
  C1016    1.0000 0.97433  0.91141  0.16890  Biso   1.000  C
  C1017    1.0000 0.97442  0.91148  0.16890  Biso   1.000  C
  C1018    1.0000 0.97436  0.91148  0.16890  Biso   1.000  C
  C1019    1.0000 0.05372  0.79021  0.35449  Biso   1.000  C
  C1020    1.0000 0.05381  0.79028  0.35449  Biso   1.000  C
  C1021    1.0000 0.05378  0.79021  0.35449  Biso   1.000  C
  C1022    1.0000 0.05375  0.79028  0.35449  Biso   1.000  C
  C1023    1.0000 0.13067  0.94844  0.16820  Biso   1.000  C
  C1024    1.0000 0.12124  0.79744  0.27670  Biso   1.000  C
  C1025    1.0000 0.12130  0.79744  0.27670  Biso   1.000  C
  H1165    1.0000 0.95659  0.85065  0.16949  Biso   1.000  H
  H1166    1.0000 0.95653  0.85065  0.16949  Biso   1.000  H
  H1167    1.0000 0.00477  0.73582  0.34522  Biso   1.000  H
  H1168    1.0000 0.00480  0.73589  0.34522  Biso   1.000  H
  H1169    1.0000 0.00475  0.73589  0.34522  Biso   1.000  H
  N186     1.0000 0.10938  0.86564  0.16639  Biso   1.000  N
  H1170    1.0000 0.19086  0.99283  0.16939  Biso   1.000  H
  H1171    1.0000 0.19091  0.99283  0.16939  Biso   1.000  H
  N187     1.0000 0.10944  0.86564  0.16639  Biso   1.000  N
  N188     1.0000 0.18269  0.83355  0.24840  Biso   1.000  N
  N189     1.0000 0.18264  0.83355  0.24840  Biso   1.000  N
  H1172    1.0000 0.07107  0.74312  0.26830  Biso   1.000  H
  H1173    1.0000 0.07110  0.74319  0.26830  Biso   1.000  H
  C1026    1.0000 0.18169  0.84795  0.16350  Biso   1.000  C
  C1027    1.0000 0.18164  0.84795  0.16350  Biso   1.000  C
  C1028    1.0000 0.17247  0.78587  0.20319  Biso   1.000  C
  C1029    1.0000 0.17252  0.78587  0.20319  Biso   1.000  C
  H1174    1.0000 0.23882  0.90411  0.16639  Biso   1.000  H
  C1030    1.0000 0.17696  0.80534  0.11630  Biso   1.000  C
  H1175    1.0000 0.23891  0.90418  0.16639  Biso   1.000  H
  H1176    1.0000 0.23888  0.90411  0.16639  Biso   1.000  H
  C1031    1.0000 0.17702  0.80534  0.11630  Biso   1.000  C
  H1177    1.0000 0.23885  0.90418  0.16639  Biso   1.000  H
  C1032    1.0000 0.24126  0.75726  0.19880  Biso   1.000  C
  H1178    1.0000 0.11248  0.73253  0.20201  Biso   1.000  H
  C1033    1.0000 0.24131  0.75726  0.19880  Biso   1.000  C
  H1179    1.0000 0.18687  0.84782  0.09121  Biso   1.000  H
  H1180    1.0000 0.11743  0.75371  0.11209  Biso   1.000  H
  C1034    1.0000 0.24589  0.77587  0.11261  Biso   1.000  C
  H1181    1.0000 0.18690  0.84789  0.09121  Biso   1.000  H
  H1182    1.0000 0.11752  0.75378  0.11209  Biso   1.000  H
  H1183    1.0000 0.11749  0.75371  0.11209  Biso   1.000  H
  H1184    1.0000 0.18684  0.84789  0.09121  Biso   1.000  H
  H1185    1.0000 0.11746  0.75378  0.11209  Biso   1.000  H
  C1035    1.0000 0.23517  0.71616  0.15178  Biso   1.000  C
  H1186    1.0000 0.30074  0.80902  0.20281  Biso   1.000  H
  H1187    1.0000 0.23203  0.71432  0.22362  Biso   1.000  H
  H1188    1.0000 0.30077  0.80908  0.20281  Biso   1.000  H
  H1189    1.0000 0.23212  0.71438  0.22362  Biso   1.000  H
  H1190    1.0000 0.30080  0.80902  0.20281  Biso   1.000  H
  H1191    1.0000 0.23209  0.71432  0.22362  Biso   1.000  H
  H1192    1.0000 0.30083  0.80908  0.20281  Biso   1.000  H
  H1193    1.0000 0.23856  0.74503  0.08260  Biso   1.000  H
  H1194    1.0000 0.30565  0.82796  0.11341  Biso   1.000  H
  H1195    1.0000 0.30571  0.82796  0.11341  Biso   1.000  H
  H1196    1.0000 0.28115  0.69945  0.14959  Biso   1.000  H
  H1197    1.0000 0.17728  0.66177  0.14900  Biso   1.000  H
  H1198    1.0000 0.28121  0.69945  0.14959  Biso   1.000  H
  H1199    1.0000 0.17734  0.66177  0.14900  Biso   1.000  H
  C1036    1.0000 0.87870  0.29653  0.48571  Biso   1.000  C
  C1037    1.0000 0.85840  0.22597  0.44779  Biso   1.000  C
  C1038    1.0000 0.85838  0.22603  0.44779  Biso   1.000  C
  C1039    1.0000 0.85834  0.22597  0.44779  Biso   1.000  C
  C1040    1.0000 0.85843  0.22603  0.44779  Biso   1.000  C
  H1200    1.0000 0.90763  0.28581  0.51251  Biso   1.000  H
  H1201    1.0000 0.91998  0.35539  0.47288  Biso   1.000  H
  C1041    1.0000 0.79672  0.29522  0.50230  Biso   1.000  C
  H1202    1.0000 0.90757  0.28581  0.51251  Biso   1.000  H
  C1042    1.0000 0.79666  0.29522  0.50230  Biso   1.000  C
  N190     1.0000 0.93837  0.22518  0.43611  Biso   1.000  N
  H1203    1.0000 0.83497  0.24017  0.41932  Biso   1.000  H
  C1043    1.0000 0.87867  0.29647  0.48571  Biso   1.000  C
  C1044    1.0000 0.78984  0.13521  0.46619  Biso   1.000  C
  H1204    1.0000 0.83501  0.24024  0.41932  Biso   1.000  H
  C1045    1.0000 0.78978  0.13521  0.46619  Biso   1.000  C
  H1205    1.0000 0.76929  0.30916  0.47599  Biso   1.000  H
  H1206    1.0000 0.81213  0.34040  0.52670  Biso   1.000  H
  C1046    1.0000 0.73111  0.20387  0.52210  Biso   1.000  C
  H1207    1.0000 0.76926  0.30923  0.47599  Biso   1.000  H
  H1208    1.0000 0.81207  0.34040  0.52670  Biso   1.000  H
  C1047    1.0000 0.73108  0.20394  0.52210  Biso   1.000  C
  C1048    1.0000 0.73105  0.20387  0.52210  Biso   1.000  C
  H1209    1.0000 0.76932  0.30923  0.47599  Biso   1.000  H
  C1049    1.0000 0.73114  0.20394  0.52210  Biso   1.000  C
  C1050    1.0000 0.96663  0.24320  0.39551  Biso   1.000  C
  C1051    1.0000 0.96657  0.24320  0.39551  Biso   1.000  C
  N191     1.0000 0.76539  0.07208  0.42789  Biso   1.000  N
  C1052    1.0000 0.71005  0.13692  0.48289  Biso   1.000  C
  H1210    1.0000 0.81553  0.11778  0.49240  Biso   1.000  H
  N192     1.0000 0.76537  0.07214  0.42789  Biso   1.000  N
  C1053    1.0000 0.70999  0.13692  0.48289  Biso   1.000  C
  H1211    1.0000 0.81547  0.11778  0.49240  Biso   1.000  H
  N193     1.0000 0.76543  0.07214  0.42789  Biso   1.000  N
  H1212    1.0000 0.75743  0.18999  0.54900  Biso   1.000  H
  H1213    1.0000 0.67692  0.20269  0.53259  Biso   1.000  H
  H1214    1.0000 0.75737  0.18999  0.54900  Biso   1.000  H
  H1215    1.0000 0.67686  0.20269  0.53259  Biso   1.000  H
  C1054    1.0000 0.05033  0.24760  0.38150  Biso   1.000  C
  C1055    1.0000 0.05027  0.24760  0.38150  Biso   1.000  C
  H1216    1.0000 0.93383  0.25438  0.37289  Biso   1.000  H
  H1217    1.0000 0.93389  0.25438  0.37289  Biso   1.000  H
  C1056    1.0000 0.79141  0.01657  0.43270  Biso   1.000  C
  C1057    1.0000 0.79138  0.01664  0.43270  Biso   1.000  C
  C1058    1.0000 0.79135  0.01657  0.43270  Biso   1.000  C
  C1059    1.0000 0.79144  0.01664  0.43270  Biso   1.000  C
  H1218    1.0000 0.66609  0.07760  0.49421  Biso   1.000  H
  H1219    1.0000 0.68338  0.15159  0.45640  Biso   1.000  H
  C1060    1.0000 0.08380  0.27878  0.33731  Biso   1.000  C
  C1061    1.0000 0.08374  0.27878  0.33731  Biso   1.000  C
  C1062    1.0000 0.09659  0.22439  0.41221  Biso   1.000  C
  C1063    1.0000 0.76768  0.94384  0.39872  Biso   1.000  C
  C1064    1.0000 0.76762  0.94384  0.39872  Biso   1.000  C
  H1220    1.0000 0.82688  0.02157  0.45870  Biso   1.000  H
  H1221    1.0000 0.82686  0.02164  0.45870  Biso   1.000  H
  H1222    1.0000 0.82691  0.02164  0.45870  Biso   1.000  H
  C1065    1.0000 0.16338  0.28667  0.32378  Biso   1.000  C
  C1066    1.0000 0.16342  0.28674  0.32378  Biso   1.000  C
  H1223    1.0000 0.05211  0.29456  0.31629  Biso   1.000  H
  H1224    1.0000 0.05214  0.29463  0.31629  Biso   1.000  H
  H1225    1.0000 0.05205  0.29456  0.31629  Biso   1.000  H
  H1226    1.0000 0.05209  0.29463  0.31629  Biso   1.000  H
  C1067    1.0000 0.17617  0.23228  0.39872  Biso   1.000  C
  C1068    1.0000 0.17623  0.23228  0.39872  Biso   1.000  C
  H1227    1.0000 0.07380  0.20308  0.44239  Biso   1.000  H
  C1069    1.0000 0.73648  0.94614  0.35449  Biso   1.000  C
  C1070    1.0000 0.77558  0.87215  0.41221  Biso   1.000  C
  C1071    1.0000 0.73642  0.94614  0.35449  Biso   1.000  C
  C1072    1.0000 0.20249  0.32376  0.27670  Biso   1.000  C
  C1073    1.0000 0.20252  0.32383  0.27670  Biso   1.000  C
  C1074    1.0000 0.20243  0.32376  0.27670  Biso   1.000  C
  C1075    1.0000 0.20973  0.26352  0.35449  Biso   1.000  C
  C1076    1.0000 0.20967  0.26352  0.35449  Biso   1.000  C
  C1077    1.0000 0.22522  0.20861  0.43270  Biso   1.000  C
  C1078    1.0000 0.22516  0.20861  0.43270  Biso   1.000  C
  C1079    1.0000 0.71329  0.87663  0.32378  Biso   1.000  C
  H1228    1.0000 0.73108  0.99513  0.34522  Biso   1.000  H
  C1080    1.0000 0.71323  0.87663  0.32378  Biso   1.000  C
  H1229    1.0000 0.73102  0.99513  0.34522  Biso   1.000  H
  H1230    1.0000 0.79686  0.87064  0.44239  Biso   1.000  H
  C1081    1.0000 0.75238  0.80264  0.38150  Biso   1.000  C
  C1082    1.0000 0.75233  0.80264  0.38150  Biso   1.000  C
  N194     1.0000 0.16640  0.34908  0.24840  Biso   1.000  N
  H1231    1.0000 0.25679  0.32790  0.26830  Biso   1.000  H
  H1232    1.0000 0.26408  0.26891  0.34522  Biso   1.000  H
  H1233    1.0000 0.26414  0.26891  0.34522  Biso   1.000  H
  N195     1.0000 0.30666  0.23458  0.42789  Biso   1.000  N
  H1234    1.0000 0.19470  0.17309  0.45870  Biso   1.000  H
  N196     1.0000 0.30672  0.23458  0.42789  Biso   1.000  N
  H1235    1.0000 0.19465  0.17309  0.45870  Biso   1.000  H
  C1083    1.0000 0.67620  0.87866  0.27670  Biso   1.000  C
  C1084    1.0000 0.67615  0.87866  0.27670  Biso   1.000  C
  C1085    1.0000 0.72119  0.80494  0.33731  Biso   1.000  C
  C1086    1.0000 0.72113  0.80494  0.33731  Biso   1.000  C
  C1087    1.0000 0.75675  0.72333  0.39551  Biso   1.000  C
  C1088    1.0000 0.21407  0.38657  0.20319  Biso   1.000  C
  C1089    1.0000 0.21410  0.38663  0.20319  Biso   1.000  C
  C1090    1.0000 0.34538  0.21018  0.46619  Biso   1.000  C
  N197     1.0000 0.65090  0.81724  0.24840  Biso   1.000  N
  N198     1.0000 0.65085  0.81724  0.24840  Biso   1.000  N
  H1236    1.0000 0.67208  0.92884  0.26830  Biso   1.000  H
  H1237    1.0000 0.70536  0.75746  0.31629  Biso   1.000  H
  H1238    1.0000 0.70542  0.75746  0.31629  Biso   1.000  H
  N199     1.0000 0.77478  0.71313  0.43611  Biso   1.000  N
  H1239    1.0000 0.74559  0.67946  0.37289  Biso   1.000  H
  N200     1.0000 0.77472  0.71313  0.43611  Biso   1.000  N
  H1240    1.0000 0.74553  0.67946  0.37289  Biso   1.000  H
  C1091    1.0000 0.15198  0.33369  0.16350  Biso   1.000  C
  C1092    1.0000 0.24267  0.48396  0.19880  Biso   1.000  C
  H1241    1.0000 0.26739  0.37986  0.20201  Biso   1.000  H
  C1093    1.0000 0.15204  0.33369  0.16350  Biso   1.000  C
  C1094    1.0000 0.24276  0.48403  0.19880  Biso   1.000  C
  H1242    1.0000 0.26742  0.37992  0.20201  Biso   1.000  H
  C1095    1.0000 0.24270  0.48403  0.19880  Biso   1.000  C
  C1096    1.0000 0.36758  0.14159  0.44779  Biso   1.000  C
  C1097    1.0000 0.42688  0.29002  0.48289  Biso   1.000  C
  H1243    1.0000 0.30228  0.18447  0.49240  Biso   1.000  H
  C1098    1.0000 0.42693  0.29002  0.48289  Biso   1.000  C
  H1244    1.0000 0.30231  0.18454  0.49240  Biso   1.000  H
  H1245    1.0000 0.30223  0.18447  0.49240  Biso   1.000  H
  C1099    1.0000 0.61340  0.82743  0.20319  Biso   1.000  C
  C1100    1.0000 0.61334  0.82743  0.20319  Biso   1.000  C
  C1101    1.0000 0.77398  0.63237  0.44779  Biso   1.000  C
  N201     1.0000 0.13434  0.24372  0.16639  Biso   1.000  N
  H1246    1.0000 0.09580  0.33468  0.16639  Biso   1.000  H
  C1102    1.0000 0.19461  0.37157  0.11630  Biso   1.000  C
  C1103    1.0000 0.19465  0.37164  0.11630  Biso   1.000  C
  N202     1.0000 0.13428  0.24372  0.16639  Biso   1.000  N
  H1247    1.0000 0.09575  0.33468  0.16639  Biso   1.000  H
  C1104    1.0000 0.19459  0.37164  0.11630  Biso   1.000  C
  C1105    1.0000 0.28383  0.51902  0.15178  Biso   1.000  C
  H1248    1.0000 0.19087  0.49166  0.20281  Biso   1.000  H
  H1249    1.0000 0.28562  0.51770  0.22362  Biso   1.000  H
  H1250    1.0000 0.19090  0.49172  0.20281  Biso   1.000  H
  C1106    1.0000 0.28377  0.51902  0.15178  Biso   1.000  C
  H1251    1.0000 0.28556  0.51770  0.22362  Biso   1.000  H
  N203     1.0000 0.28682  0.06162  0.43611  Biso   1.000  N
  H1252    1.0000 0.40520  0.16500  0.41932  Biso   1.000  H
  C1107    1.0000 0.41779  0.12127  0.48571  Biso   1.000  C
  C1108    1.0000 0.41783  0.12134  0.48571  Biso   1.000  C
  N204     1.0000 0.28676  0.06162  0.43611  Biso   1.000  N
  H1253    1.0000 0.40515  0.16500  0.41932  Biso   1.000  H
  C1109    1.0000 0.41774  0.12127  0.48571  Biso   1.000  C
  C1110    1.0000 0.41777  0.12134  0.48571  Biso   1.000  C
  H1254    1.0000 0.46818  0.31659  0.45640  Biso   1.000  H
  C1111    1.0000 0.47282  0.26891  0.52210  Biso   1.000  C
  H1255    1.0000 0.41151  0.33389  0.49421  Biso   1.000  H
  H1256    1.0000 0.41145  0.33389  0.49421  Biso   1.000  H
  C1112    1.0000 0.47276  0.26891  0.52210  Biso   1.000  C
  C1113    1.0000 0.66626  0.81823  0.16350  Biso   1.000  C
  C1114    1.0000 0.51595  0.75864  0.19880  Biso   1.000  C
  H1257    1.0000 0.62009  0.88741  0.20201  Biso   1.000  H
  C1115    1.0000 0.51601  0.75864  0.19880  Biso   1.000  C
  H1258    1.0000 0.62012  0.88748  0.20201  Biso   1.000  H
  H1259    1.0000 0.62004  0.88741  0.20201  Biso   1.000  H
  H1260    1.0000 0.62007  0.88748  0.20201  Biso   1.000  H
  C1116    1.0000 0.86474  0.65454  0.46619  Biso   1.000  C
  C1117    1.0000 0.86480  0.65454  0.46619  Biso   1.000  C
  H1261    1.0000 0.75979  0.59476  0.41932  Biso   1.000  H
  C1118    1.0000 0.70347  0.58213  0.48571  Biso   1.000  C
  C1119    1.0000 0.70341  0.58213  0.48571  Biso   1.000  C
  H1262    1.0000 0.75973  0.59476  0.41932  Biso   1.000  H
  C1120    1.0000 0.05150  0.18217  0.16820  Biso   1.000  C
  C1121    1.0000 0.05153  0.18223  0.16820  Biso   1.000  C
  C1122    1.0000 0.05144  0.18217  0.16820  Biso   1.000  C
  C1123    1.0000 0.05148  0.18223  0.16820  Biso   1.000  C
  H1263    1.0000 0.24620  0.36368  0.11209  Biso   1.000  H
  H1264    1.0000 0.15208  0.33902  0.09121  Biso   1.000  H
  C1124    1.0000 0.22410  0.46996  0.11261  Biso   1.000  C
  H1265    1.0000 0.15214  0.33902  0.09121  Biso   1.000  H
  C1125    1.0000 0.22413  0.47002  0.11261  Biso   1.000  C
  C1126    1.0000 0.22408  0.47002  0.11261  Biso   1.000  C
  H1266    1.0000 0.30047  0.58169  0.14959  Biso   1.000  H
  H1267    1.0000 0.33821  0.51547  0.14900  Biso   1.000  H
  H1268    1.0000 0.30053  0.58169  0.14959  Biso   1.000  H
  H1269    1.0000 0.33824  0.51553  0.14900  Biso   1.000  H
  H1270    1.0000 0.33815  0.51547  0.14900  Biso   1.000  H
  H1271    1.0000 0.33818  0.51553  0.14900  Biso   1.000  H
  C1127    1.0000 0.27659  0.03341  0.39551  Biso   1.000  C
  H1272    1.0000 0.37819  0.09240  0.51251  Biso   1.000  H
  H1273    1.0000 0.43536  0.07997  0.47288  Biso   1.000  H
  C1128    1.0000 0.49850  0.20328  0.50230  Biso   1.000  C
  H1274    1.0000 0.43539  0.08004  0.47288  Biso   1.000  H
  H1275    1.0000 0.43542  0.07997  0.47288  Biso   1.000  H
  C1129    1.0000 0.49844  0.20328  0.50230  Biso   1.000  C
  H1276    1.0000 0.43261  0.24261  0.54900  Biso   1.000  H
  H1277    1.0000 0.52577  0.32310  0.53259  Biso   1.000  H
  H1278    1.0000 0.52583  0.32310  0.53259  Biso   1.000  H
  H1279    1.0000 0.43256  0.24261  0.54900  Biso   1.000  H
  N205     1.0000 0.75631  0.89057  0.16639  Biso   1.000  N
  N206     1.0000 0.75625  0.89057  0.16639  Biso   1.000  N
  H1280    1.0000 0.66528  0.76101  0.16639  Biso   1.000  H
  C1130    1.0000 0.62836  0.82296  0.11630  Biso   1.000  C
  H1281    1.0000 0.66531  0.76108  0.16639  Biso   1.000  H
  C1131    1.0000 0.62842  0.82296  0.11630  Biso   1.000  C
  H1282    1.0000 0.66522  0.76101  0.16639  Biso   1.000  H
  H1283    1.0000 0.66525  0.76108  0.16639  Biso   1.000  H
  C1132    1.0000 0.48097  0.76476  0.15178  Biso   1.000  C
  H1284    1.0000 0.50829  0.69913  0.20281  Biso   1.000  H
  H1285    1.0000 0.48228  0.76785  0.22362  Biso   1.000  H
  H1286    1.0000 0.50833  0.69919  0.20281  Biso   1.000  H
  H1287    1.0000 0.48223  0.76785  0.22362  Biso   1.000  H
  H1288    1.0000 0.50824  0.69913  0.20281  Biso   1.000  H
  H1289    1.0000 0.50827  0.69919  0.20281  Biso   1.000  H
  N207     1.0000 0.92791  0.69327  0.42789  Biso   1.000  N
  N208     1.0000 0.92785  0.69327  0.42789  Biso   1.000  N
  C1133    1.0000 0.86307  0.57305  0.48289  Biso   1.000  C
  H1290    1.0000 0.88218  0.69761  0.49240  Biso   1.000  H
  H1291    1.0000 0.88221  0.69768  0.49240  Biso   1.000  H
  H1292    1.0000 0.88212  0.69761  0.49240  Biso   1.000  H
  H1293    1.0000 0.88216  0.69768  0.49240  Biso   1.000  H
  H1294    1.0000 0.71415  0.62172  0.51251  Biso   1.000  H
  H1295    1.0000 0.64457  0.56457  0.47288  Biso   1.000  H
  C1134    1.0000 0.70476  0.50144  0.50230  Biso   1.000  C
  H1296    1.0000 0.71418  0.62179  0.51251  Biso   1.000  H
  H1297    1.0000 0.64463  0.56457  0.47288  Biso   1.000  H
  C1135    1.0000 0.02652  0.08891  0.16851  Biso   1.000  C
  H1298    1.0000 0.00709  0.19802  0.16939  Biso   1.000  H
  H1299    1.0000 0.00714  0.19802  0.16939  Biso   1.000  H
  C1136    1.0000 0.02646  0.08891  0.16851  Biso   1.000  C
  H1300    1.0000 0.25489  0.49350  0.08260  Biso   1.000  H
  H1301    1.0000 0.17199  0.47772  0.11341  Biso   1.000  H
  H1302    1.0000 0.17205  0.47772  0.11341  Biso   1.000  H
  C1137    1.0000 0.19727  0.94962  0.38150  Biso   1.000  C
  H1303    1.0000 0.32049  0.06609  0.37289  Biso   1.000  H
  H1304    1.0000 0.32044  0.06609  0.37289  Biso   1.000  H
  H1305    1.0000 0.53989  0.23070  0.47599  Biso   1.000  H
  H1306    1.0000 0.52828  0.18789  0.52670  Biso   1.000  H
  H1307    1.0000 0.52833  0.18789  0.52670  Biso   1.000  H
  C1138    1.0000 0.81776  0.86926  0.16820  Biso   1.000  C
  C1139    1.0000 0.81782  0.86926  0.16820  Biso   1.000  C
  H1308    1.0000 0.66099  0.81303  0.09121  Biso   1.000  H
  H1309    1.0000 0.63627  0.88241  0.11209  Biso   1.000  H
  C1140    1.0000 0.53000  0.75404  0.11261  Biso   1.000  C
  H1310    1.0000 0.63631  0.88248  0.11209  Biso   1.000  H
  H1311    1.0000 0.66093  0.81303  0.09121  Biso   1.000  H
  H1312    1.0000 0.63622  0.88241  0.11209  Biso   1.000  H
  C1141    1.0000 0.52994  0.75404  0.11261  Biso   1.000  C
  H1313    1.0000 0.41825  0.71872  0.14959  Biso   1.000  H
  H1314    1.0000 0.48450  0.82263  0.14900  Biso   1.000  H
  H1315    1.0000 0.41834  0.71879  0.14959  Biso   1.000  H
  H1316    1.0000 0.48445  0.82263  0.14900  Biso   1.000  H
  H1317    1.0000 0.41829  0.71879  0.14959  Biso   1.000  H
  C1142    1.0000 0.98340  0.77476  0.43270  Biso   1.000  C
  C1143    1.0000 0.98335  0.77476  0.43270  Biso   1.000  C
  C1144    1.0000 0.79610  0.52715  0.52210  Biso   1.000  C
  H1318    1.0000 0.92237  0.58844  0.49421  Biso   1.000  H
  H1319    1.0000 0.84835  0.53175  0.45640  Biso   1.000  H
  H1320    1.0000 0.92231  0.58844  0.49421  Biso   1.000  H
  H1321    1.0000 0.84840  0.53175  0.45640  Biso   1.000  H
  C1145    1.0000 0.79604  0.52715  0.52210  Biso   1.000  C
  H1322    1.0000 0.69079  0.46007  0.47599  Biso   1.000  H
  H1323    1.0000 0.65956  0.47164  0.52670  Biso   1.000  H
  H1324    1.0000 0.69074  0.46007  0.47599  Biso   1.000  H
  C1146    1.0000 0.93710  0.02558  0.16890  Biso   1.000  C
  C1147    1.0000 0.93704  0.02558  0.16890  Biso   1.000  C
  C1148    1.0000 0.08850  0.06287  0.16890  Biso   1.000  C
  C1149    1.0000 0.08854  0.06294  0.16890  Biso   1.000  C
  C1150    1.0000 0.08845  0.06287  0.16890  Biso   1.000  C
  C1151    1.0000 0.08848  0.06294  0.16890  Biso   1.000  C
  C1152    1.0000 0.12776  0.90333  0.41221  Biso   1.000  C
  C1153    1.0000 0.19495  0.91615  0.33731  Biso   1.000  C
  C1154    1.0000 0.19500  0.91615  0.33731  Biso   1.000  C
  C1155    1.0000 0.12782  0.90333  0.41221  Biso   1.000  C
  C1156    1.0000 0.91107  0.93752  0.16851  Biso   1.000  C
  C1157    1.0000 0.91101  0.93752  0.16851  Biso   1.000  C
  H1325    1.0000 0.80194  0.80902  0.16939  Biso   1.000  H
  H1326    1.0000 0.80202  0.80908  0.16939  Biso   1.000  H
  H1327    1.0000 0.80197  0.80908  0.16939  Biso   1.000  H
  H1328    1.0000 0.50648  0.76134  0.08260  Biso   1.000  H
  H1329    1.0000 0.52226  0.69426  0.11341  Biso   1.000  H
  H1330    1.0000 0.52232  0.69426  0.11341  Biso   1.000  H
  H1331    1.0000 0.50642  0.76134  0.08260  Biso   1.000  H
  C1158    1.0000 0.05608  0.82375  0.39872  Biso   1.000  C
  H1332    1.0000 0.97838  0.80527  0.45870  Biso   1.000  H
  H1333    1.0000 0.97833  0.80527  0.45870  Biso   1.000  H
  H1334    1.0000 0.80998  0.56733  0.54900  Biso   1.000  H
  H1335    1.0000 0.79727  0.47414  0.53259  Biso   1.000  H
  H1336    1.0000 0.80992  0.56733  0.54900  Biso   1.000  H
  H1337    1.0000 0.79722  0.47414  0.53259  Biso   1.000  H
  H1338    1.0000 0.89413  0.04340  0.16949  Biso   1.000  H
  H1339    1.0000 0.89407  0.04340  0.16949  Biso   1.000  H
  C1159    1.0000 0.06235  0.97343  0.16851  Biso   1.000  C
  C1160    1.0000 0.06241  0.97343  0.16851  Biso   1.000  C
  H1340    1.0000 0.14931  0.10588  0.16949  Biso   1.000  H
  H1341    1.0000 0.14925  0.10588  0.16949  Biso   1.000  H
  H1342    1.0000 0.12927  0.92615  0.44239  Biso   1.000  H
  H1343    1.0000 0.12932  0.92615  0.44239  Biso   1.000  H
  C1161    1.0000 0.12323  0.83651  0.32378  Biso   1.000  C
  H1344    1.0000 0.24246  0.94785  0.31629  Biso   1.000  H
  C1162    1.0000 0.12332  0.83657  0.32378  Biso   1.000  C
  C1163    1.0000 0.12329  0.83651  0.32378  Biso   1.000  C
  H1345    1.0000 0.24252  0.94785  0.31629  Biso   1.000  H
  C1164    1.0000 0.12326  0.83657  0.32378  Biso   1.000  C
  C1165    1.0000 0.97433  0.91141  0.16890  Biso   1.000  C
  C1166    1.0000 0.97442  0.91148  0.16890  Biso   1.000  C
  C1167    1.0000 0.97436  0.91148  0.16890  Biso   1.000  C
  C1168    1.0000 0.05372  0.79021  0.35449  Biso   1.000  C
  C1169    1.0000 0.05381  0.79028  0.35449  Biso   1.000  C
  C1170    1.0000 0.05378  0.79021  0.35449  Biso   1.000  C
  C1171    1.0000 0.05375  0.79028  0.35449  Biso   1.000  C
  C1172    1.0000 0.13067  0.94844  0.16820  Biso   1.000  C
  C1173    1.0000 0.12124  0.79744  0.27670  Biso   1.000  C
  C1174    1.0000 0.12130  0.79744  0.27670  Biso   1.000  C
  H1346    1.0000 0.95659  0.85065  0.16949  Biso   1.000  H
  H1347    1.0000 0.95653  0.85065  0.16949  Biso   1.000  H
  H1348    1.0000 0.00477  0.73582  0.34522  Biso   1.000  H
  H1349    1.0000 0.00480  0.73589  0.34522  Biso   1.000  H
  H1350    1.0000 0.00475  0.73589  0.34522  Biso   1.000  H
  N209     1.0000 0.10938  0.86564  0.16639  Biso   1.000  N
  H1351    1.0000 0.19086  0.99283  0.16939  Biso   1.000  H
  H1352    1.0000 0.19091  0.99283  0.16939  Biso   1.000  H
  N210     1.0000 0.10944  0.86564  0.16639  Biso   1.000  N
  N211     1.0000 0.18269  0.83355  0.24840  Biso   1.000  N
  N212     1.0000 0.18264  0.83355  0.24840  Biso   1.000  N
  H1353    1.0000 0.07107  0.74312  0.26830  Biso   1.000  H
  H1354    1.0000 0.07110  0.74319  0.26830  Biso   1.000  H
  C1175    1.0000 0.18169  0.84795  0.16350  Biso   1.000  C
  C1176    1.0000 0.18164  0.84795  0.16350  Biso   1.000  C
  C1177    1.0000 0.17247  0.78587  0.20319  Biso   1.000  C
  C1178    1.0000 0.17252  0.78587  0.20319  Biso   1.000  C
  H1355    1.0000 0.23882  0.90411  0.16639  Biso   1.000  H
  C1179    1.0000 0.17696  0.80534  0.11630  Biso   1.000  C
  H1356    1.0000 0.23891  0.90418  0.16639  Biso   1.000  H
  H1357    1.0000 0.23888  0.90411  0.16639  Biso   1.000  H
  C1180    1.0000 0.17702  0.80534  0.11630  Biso   1.000  C
  H1358    1.0000 0.23885  0.90418  0.16639  Biso   1.000  H
  C1181    1.0000 0.24126  0.75726  0.19880  Biso   1.000  C
  H1359    1.0000 0.11248  0.73253  0.20201  Biso   1.000  H
  C1182    1.0000 0.24131  0.75726  0.19880  Biso   1.000  C
  H1360    1.0000 0.18687  0.84782  0.09121  Biso   1.000  H
  H1361    1.0000 0.11743  0.75371  0.11209  Biso   1.000  H
  C1183    1.0000 0.24589  0.77587  0.11261  Biso   1.000  C
  H1362    1.0000 0.18690  0.84789  0.09121  Biso   1.000  H
  H1363    1.0000 0.11752  0.75378  0.11209  Biso   1.000  H
  H1364    1.0000 0.11749  0.75371  0.11209  Biso   1.000  H
  H1365    1.0000 0.18684  0.84789  0.09121  Biso   1.000  H
  H1366    1.0000 0.11746  0.75378  0.11209  Biso   1.000  H
  C1184    1.0000 0.23517  0.71616  0.15178  Biso   1.000  C
  H1367    1.0000 0.30074  0.80902  0.20281  Biso   1.000  H
  H1368    1.0000 0.23203  0.71432  0.22362  Biso   1.000  H
  H1369    1.0000 0.30077  0.80908  0.20281  Biso   1.000  H
  H1370    1.0000 0.23212  0.71438  0.22362  Biso   1.000  H
  H1371    1.0000 0.30080  0.80902  0.20281  Biso   1.000  H
  H1372    1.0000 0.23209  0.71432  0.22362  Biso   1.000  H
  H1373    1.0000 0.30083  0.80908  0.20281  Biso   1.000  H
  H1374    1.0000 0.23856  0.74503  0.08260  Biso   1.000  H
  H1375    1.0000 0.30565  0.82796  0.11341  Biso   1.000  H
  H1376    1.0000 0.30571  0.82796  0.11341  Biso   1.000  H
  H1377    1.0000 0.28115  0.69945  0.14959  Biso   1.000  H
  H1378    1.0000 0.17728  0.66177  0.14900  Biso   1.000  H
  H1379    1.0000 0.28121  0.69945  0.14959  Biso   1.000  H
  H1380    1.0000 0.17734  0.66177  0.14900  Biso   1.000  H
