data_image0
_cell_length_a       24.05
_cell_length_b       25.72
_cell_length_c       16.369
_cell_angle_alpha    90
_cell_angle_beta     90.57
_cell_angle_gamma    90

_symmetry_space_group_name_H-M    "P 1"
_symmetry_int_tables_number       1

loop_
  _symmetry_equiv_pos_as_xyz
  'x, y, z'

loop_
  _atom_site_label
  _atom_site_occupancy
  _atom_site_fract_x
  _atom_site_fract_y
  _atom_site_fract_z
  _atom_site_thermal_displace_type
  _atom_site_B_iso_or_equiv
  _atom_site_type_symbol
  C1       1.0000 0.40503  0.35540  0.39852  Biso   1.000  C
  N1       1.0000 0.38111  0.34518  0.32398  Biso   1.000  N
  C2       1.0000 0.44692  0.32360  0.42668  Biso   1.000  C
  H1       1.0000 0.39281  0.38410  0.43022  Biso   1.000  H
  B1       1.0000 0.33222  0.38200  0.28818  Biso   1.000  B
  C3       1.0000 0.39803  0.30369  0.27981  Biso   1.000  C
  O1       1.0000 0.47526  0.32706  0.49792  Biso   1.000  O
  C4       1.0000 0.46461  0.28009  0.38037  Biso   1.000  C
  C5       1.0000 0.27271  0.35680  0.29820  Biso   1.000  C
  O2       1.0000 0.34817  0.39184  0.19947  Biso   1.000  O
  O3       1.0000 0.34022  0.43480  0.32740  Biso   1.000  O
  H2       1.0000 0.38043  0.29720  0.22861  Biso   1.000  H
  C6       1.0000 0.43991  0.27022  0.30571  Biso   1.000  C
  B2       1.0000 0.51771  0.28398  0.49749  Biso   1.000  B
  O4       1.0000 0.50459  0.25443  0.41941  Biso   1.000  O
  H3       1.0000 0.27309  0.32290  0.26973  Biso   1.000  H
  H4       1.0000 0.24581  0.37920  0.26839  Biso   1.000  H
  C7       1.0000 0.24912  0.34740  0.38349  Biso   1.000  C
  C8       1.0000 0.26282  0.36781  0.39748  Biso   1.000  C
  C9       1.0000 0.37181  0.43880  0.19703  Biso   1.000  C
  C10      1.0000 0.36679  0.46509  0.27272  Biso   1.000  C
  H5       1.0000 0.45100  0.24149  0.27321  Biso   1.000  H
  N2       1.0000 0.57742  0.31093  0.48521  Biso   1.000  N
  C11      1.0000 0.51573  0.25039  0.57929  Biso   1.000  C
  H6       1.0000 0.27982  0.33771  0.42118  Biso   1.000  H
  H7       1.0000 0.22262  0.31800  0.38111  Biso   1.000  H
  C12      1.0000 0.21970  0.39498  0.41642  Biso   1.000  C
  H8       1.0000 0.28583  0.34351  0.43053  Biso   1.000  H
  C13      1.0000 0.20074  0.35960  0.41642  Biso   1.000  C
  H9       1.0000 0.27401  0.40381  0.41141  Biso   1.000  H
  C14      1.0000 0.39699  0.46380  0.13282  Biso   1.000  C
  C15      1.0000 0.38573  0.51470  0.28152  Biso   1.000  C
  C16      1.0000 0.58754  0.35747  0.52431  Biso   1.000  C
  C17      1.0000 0.61801  0.28709  0.44318  Biso   1.000  C
  H10      1.0000 0.47841  0.23421  0.58241  Biso   1.000  H
  H11      1.0000 0.51925  0.27461  0.62609  Biso   1.000  H
  C18      1.0000 0.55884  0.20758  0.59072  Biso   1.000  C
  H12      1.0000 0.24663  0.42348  0.42631  Biso   1.000  H
  H13      1.0000 0.19112  0.40719  0.37701  Biso   1.000  H
  C19      1.0000 0.18893  0.37570  0.50788  Biso   1.000  C
  C20      1.0000 0.19893  0.38690  0.49340  Biso   1.000  C
  H14      1.0000 0.19130  0.32240  0.42228  Biso   1.000  H
  H15      1.0000 0.17622  0.37582  0.37463  Biso   1.000  H
  C21      1.0000 0.41499  0.51439  0.14492  Biso   1.000  C
  H16      1.0000 0.40188  0.44681  0.08181  Biso   1.000  H
  N3       1.0000 0.41012  0.53892  0.21768  Biso   1.000  N
  H17      1.0000 0.38183  0.53219  0.33223  Biso   1.000  H
  C22      1.0000 0.63914  0.37877  0.51808  Biso   1.000  C
  H18      1.0000 0.55931  0.37418  0.55467  Biso   1.000  H
  H19      1.0000 0.60994  0.25490  0.41721  Biso   1.000  H
  C23      1.0000 0.67102  0.30750  0.43640  Biso   1.000  C
  H20      1.0000 0.59584  0.22411  0.59591  Biso   1.000  H
  H21      1.0000 0.55905  0.18608  0.54062  Biso   1.000  H
  C24      1.0000 0.55093  0.17251  0.66220  Biso   1.000  C
  C25      1.0000 0.54635  0.15840  0.54423  Biso   1.000  C
  H22      1.0000 0.17143  0.40591  0.53360  Biso   1.000  H
  H23      1.0000 0.16083  0.34911  0.49651  Biso   1.000  H
  H24      1.0000 0.21753  0.36151  0.54472  Biso   1.000  H
  H25      1.0000 0.18602  0.42259  0.48411  Biso   1.000  H
  H26      1.0000 0.17324  0.36909  0.53011  Biso   1.000  H
  H27      1.0000 0.23623  0.38760  0.51808  Biso   1.000  H
  H28      1.0000 0.43128  0.53258  0.10062  Biso   1.000  H
  B3       1.0000 0.42549  0.59942  0.22800  Biso   1.000  B
  O5       1.0000 0.65775  0.42414  0.55229  Biso   1.000  O
  C26      1.0000 0.68143  0.35467  0.47519  Biso   1.000  C
  H29      1.0000 0.69914  0.29009  0.40652  Biso   1.000  H
  H30      1.0000 0.58524  0.15179  0.67002  Biso   1.000  H
  H31      1.0000 0.54623  0.19421  0.71162  Biso   1.000  H
  C27      1.0000 0.50174  0.13530  0.65591  Biso   1.000  C
  H32      1.0000 0.57902  0.13530  0.54991  Biso   1.000  H
  H33      1.0000 0.54283  0.16750  0.48558  Biso   1.000  H
  C28      1.0000 0.49701  0.12811  0.56610  Biso   1.000  C
  O6       1.0000 0.46454  0.61388  0.16019  Biso   1.000  O
  O7       1.0000 0.46136  0.60393  0.30492  Biso   1.000  O
  C29      1.0000 0.36980  0.63340  0.23173  Biso   1.000  C
  B4       1.0000 0.71602  0.43169  0.52321  Biso   1.000  B
  O8       1.0000 0.72923  0.38165  0.47892  Biso   1.000  O
  H34      1.0000 0.50961  0.10851  0.61491  Biso   1.000  H
  H35      1.0000 0.49582  0.11870  0.70900  Biso   1.000  H
  H36      1.0000 0.46832  0.15459  0.63972  Biso   1.000  H
  H37      1.0000 0.50163  0.11439  0.62157  Biso   1.000  H
  H38      1.0000 0.46402  0.15051  0.56372  Biso   1.000  H
  H39      1.0000 0.49230  0.09918  0.52767  Biso   1.000  H
  C30      1.0000 0.51461  0.62092  0.19318  Biso   1.000  C
  C31      1.0000 0.51341  0.61462  0.27932  Biso   1.000  C
  H40      1.0000 0.34581  0.61928  0.27523  Biso   1.000  H
  H41      1.0000 0.34940  0.62978  0.17919  Biso   1.000  H
  C32      1.0000 0.38010  0.69079  0.24823  Biso   1.000  C
  N4       1.0000 0.71280  0.47652  0.45362  Biso   1.000  N
  C33      1.0000 0.75911  0.44790  0.59322  Biso   1.000  C
  C34      1.0000 0.56401  0.63320  0.15640  Biso   1.000  C
  C35      1.0000 0.56021  0.62053  0.32569  Biso   1.000  C
  H42      1.0000 0.39880  0.69452  0.30199  Biso   1.000  H
  H43      1.0000 0.40572  0.70439  0.20619  Biso   1.000  H
  C36      1.0000 0.32712  0.72372  0.24749  Biso   1.000  C
  C37      1.0000 0.68294  0.52057  0.47061  Biso   1.000  C
  C38      1.0000 0.74202  0.47240  0.38361  Biso   1.000  C
  H44      1.0000 0.76063  0.41940  0.63379  Biso   1.000  H
  H45      1.0000 0.74433  0.47900  0.62133  Biso   1.000  H
  C39      1.0000 0.81823  0.45980  0.56689  Biso   1.000  C
  C40      1.0000 0.61122  0.63721  0.20717  Biso   1.000  C
  H46      1.0000 0.56612  0.63880  0.09922  Biso   1.000  H
  N5       1.0000 0.60981  0.63095  0.28830  Biso   1.000  N
  H47      1.0000 0.55860  0.61750  0.38349  Biso   1.000  H
  H48      1.0000 0.30760  0.71882  0.19452  Biso   1.000  H
  H49      1.0000 0.33763  0.76089  0.25189  Biso   1.000  H
  C41      1.0000 0.28733  0.71081  0.31567  Biso   1.000  C
  C42      1.0000 0.68261  0.56065  0.41568  Biso   1.000  C
  H50      1.0000 0.66252  0.52309  0.51991  Biso   1.000  H
  C43      1.0000 0.74291  0.51209  0.32508  Biso   1.000  C
  H51      1.0000 0.76253  0.44149  0.37377  Biso   1.000  H
  H52      1.0000 0.83394  0.42830  0.54142  Biso   1.000  H
  H53      1.0000 0.81682  0.48729  0.52468  Biso   1.000  H
  C44      1.0000 0.85774  0.47749  0.63611  Biso   1.000  C
  H54      1.0000 0.64589  0.64479  0.18267  Biso   1.000  H
  B5       1.0000 0.66664  0.63460  0.34127  Biso   1.000  B
  H55      1.0000 0.30661  0.71392  0.36852  Biso   1.000  H
  H56      1.0000 0.25581  0.73499  0.31402  Biso   1.000  H
  H57      1.0000 0.27373  0.67512  0.30883  Biso   1.000  H
  O9       1.0000 0.65678  0.60712  0.42112  Biso   1.000  O
  C45      1.0000 0.71292  0.55700  0.34170  Biso   1.000  C
  H58      1.0000 0.76332  0.50859  0.27602  Biso   1.000  H
  H59      1.0000 0.85952  0.44988  0.67821  Biso   1.000  H
  H60      1.0000 0.84203  0.50898  0.66202  Biso   1.000  H
  C46      1.0000 0.91643  0.48962  0.60831  Biso   1.000  C
  O10      1.0000 0.70783  0.60031  0.29692  Biso   1.000  O
  C47      1.0000 0.68730  0.69351  0.35331  Biso   1.000  C
  H61      1.0000 0.91554  0.51901  0.57019  Biso   1.000  H
  H62      1.0000 0.93962  0.49848  0.65578  Biso   1.000  H
  H63      1.0000 0.93192  0.45910  0.58088  Biso   1.000  H
  H64      1.0000 0.68673  0.71108  0.29961  Biso   1.000  H
  H65      1.0000 0.72643  0.69300  0.37310  Biso   1.000  H
  C48      1.0000 0.65302  0.72461  0.41232  Biso   1.000  C
  H66      1.0000 0.61671  0.73281  0.38611  Biso   1.000  H
  H67      1.0000 0.64553  0.70299  0.46102  Biso   1.000  H
  C49      1.0000 0.68061  0.77601  0.44043  Biso   1.000  C
  H68      1.0000 0.68702  0.79809  0.39192  Biso   1.000  H
  H69      1.0000 0.71733  0.76800  0.46517  Biso   1.000  H
  C50      1.0000 0.64664  0.80618  0.50128  Biso   1.000  C
  H70      1.0000 0.63964  0.78449  0.54930  Biso   1.000  H
  H71      1.0000 0.66704  0.83748  0.51802  Biso   1.000  H
  H72      1.0000 0.61112  0.81629  0.47598  Biso   1.000  H
  C51      1.0000 0.31714  0.47943  0.52938  Biso   1.000  C
  C52      1.0000 0.31743  0.43935  0.58430  Biso   1.000  C
  N6       1.0000 0.28723  0.52348  0.54643  Biso   1.000  N
  H73      1.0000 0.33751  0.47691  0.48008  Biso   1.000  H
  O11      1.0000 0.34325  0.39288  0.57893  Biso   1.000  O
  C53      1.0000 0.28712  0.44300  0.65829  Biso   1.000  C
  C54      1.0000 0.25802  0.52760  0.61638  Biso   1.000  C
  B6       1.0000 0.28402  0.56831  0.47678  Biso   1.000  B
  B7       1.0000 0.33344  0.36540  0.65872  Biso   1.000  B
  O12      1.0000 0.29220  0.39969  0.70307  Biso   1.000  O
  C55      1.0000 0.25713  0.48791  0.67491  Biso   1.000  C
  H74      1.0000 0.23755  0.55851  0.62621  Biso   1.000  H
  O13      1.0000 0.27080  0.61835  0.52107  Biso   1.000  O
  O14      1.0000 0.34228  0.57586  0.44770  Biso   1.000  O
  C56      1.0000 0.24093  0.55210  0.40683  Biso   1.000  C
  C57      1.0000 0.31274  0.30649  0.64668  Biso   1.000  C
  N7       1.0000 0.39022  0.36905  0.71169  Biso   1.000  N
  H75      1.0000 0.23675  0.49141  0.72403  Biso   1.000  H
  C58      1.0000 0.31861  0.64533  0.52480  Biso   1.000  C
  C59      1.0000 0.36093  0.62123  0.48191  Biso   1.000  C
  H76      1.0000 0.23940  0.58060  0.36620  Biso   1.000  H
  H77      1.0000 0.25570  0.52100  0.37872  Biso   1.000  H
  C60      1.0000 0.18181  0.54020  0.43310  Biso   1.000  C
  C61      1.0000 0.34701  0.27539  0.58773  Biso   1.000  C
  H78      1.0000 0.31335  0.28892  0.70038  Biso   1.000  H
  H79      1.0000 0.27364  0.30700  0.62689  Biso   1.000  H
  C62      1.0000 0.43983  0.37947  0.67430  Biso   1.000  C
  C63      1.0000 0.38882  0.36279  0.79282  Biso   1.000  C
  C64      1.0000 0.32901  0.69250  0.56359  Biso   1.000  C
  C65      1.0000 0.41253  0.64253  0.47568  Biso   1.000  C
  H80      1.0000 0.16614  0.57170  0.45857  Biso   1.000  H
  H81      1.0000 0.18322  0.51271  0.47531  Biso   1.000  H
  C66      1.0000 0.14230  0.52251  0.36388  Biso   1.000  C
  C67      1.0000 0.31942  0.22399  0.55962  Biso   1.000  C
  H82      1.0000 0.38332  0.26719  0.61387  Biso   1.000  H
  H83      1.0000 0.35454  0.29701  0.53897  Biso   1.000  H
  C68      1.0000 0.48663  0.38538  0.72073  Biso   1.000  C
  H84      1.0000 0.44143  0.38250  0.61650  Biso   1.000  H
  H85      1.0000 0.35414  0.35521  0.81732  Biso   1.000  H
  C69      1.0000 0.43602  0.36680  0.84359  Biso   1.000  C
  C70      1.0000 0.38202  0.71291  0.55681  Biso   1.000  C
  H86      1.0000 0.30094  0.70991  0.59353  Biso   1.000  H
  N8       1.0000 0.42261  0.68907  0.51478  Biso   1.000  N
  H87      1.0000 0.44073  0.62582  0.44531  Biso   1.000  H
  H88      1.0000 0.14052  0.55012  0.32178  Biso   1.000  H
  H89      1.0000 0.15801  0.49102  0.33797  Biso   1.000  H
  C71      1.0000 0.08361  0.51038  0.39167  Biso   1.000  C
  C72      1.0000 0.35344  0.19382  0.49871  Biso   1.000  C
  H90      1.0000 0.31302  0.20191  0.60813  Biso   1.000  H
  H91      1.0000 0.28271  0.23200  0.53482  Biso   1.000  H
  O15      1.0000 0.53868  0.39607  0.69513  Biso   1.000  O
  C73      1.0000 0.48542  0.37908  0.80681  Biso   1.000  C
  H92      1.0000 0.43396  0.36120  0.90077  Biso   1.000  H
  H93      1.0000 0.39014  0.74510  0.58278  Biso   1.000  H
  B8       1.0000 0.48232  0.71602  0.50250  Biso   1.000  B
  H94      1.0000 0.08453  0.48099  0.42980  Biso   1.000  H
  H95      1.0000 0.06042  0.50152  0.34420  Biso   1.000  H
  H96      1.0000 0.06812  0.54090  0.41911  Biso   1.000  H
  H97      1.0000 0.36043  0.21551  0.45069  Biso   1.000  H
  H98      1.0000 0.33303  0.16252  0.48197  Biso   1.000  H
  H99      1.0000 0.38891  0.18371  0.52400  Biso   1.000  H
  B9       1.0000 0.57454  0.40058  0.77199  Biso   1.000  B
  O16      1.0000 0.53550  0.38612  0.83980  Biso   1.000  O
  O17      1.0000 0.49545  0.74557  0.58058  Biso   1.000  O
  O18      1.0000 0.52481  0.67294  0.50207  Biso   1.000  O
  C74      1.0000 0.48430  0.74961  0.42069  Biso   1.000  C
  N9       1.0000 0.58995  0.46108  0.78231  Biso   1.000  N
  C75      1.0000 0.63023  0.36660  0.76832  Biso   1.000  C
  C76      1.0000 0.53542  0.71991  0.61962  Biso   1.000  C
  C77      1.0000 0.55311  0.67640  0.57331  Biso   1.000  C
  H100     1.0000 0.52162  0.76579  0.41758  Biso   1.000  H
  H101     1.0000 0.48083  0.72539  0.37390  Biso   1.000  H
  C78      1.0000 0.44123  0.79242  0.40933  Biso   1.000  C
  C79      1.0000 0.61435  0.48530  0.71853  Biso   1.000  C
  C80      1.0000 0.58504  0.48561  0.85507  Biso   1.000  C
  H102     1.0000 0.65422  0.38072  0.72482  Biso   1.000  H
  H103     1.0000 0.65063  0.37022  0.82080  Biso   1.000  H
  C81      1.0000 0.61993  0.30921  0.75182  Biso   1.000  C
  C82      1.0000 0.56013  0.72978  0.69427  Biso   1.000  C
  C83      1.0000 0.59501  0.64460  0.60147  Biso   1.000  C
  H104     1.0000 0.40423  0.77589  0.40408  Biso   1.000  H
  H105     1.0000 0.44103  0.81392  0.45943  Biso   1.000  H
  C84      1.0000 0.44911  0.82749  0.33779  Biso   1.000  C
  C85      1.0000 0.45373  0.84160  0.45582  Biso   1.000  C
  C86      1.0000 0.63324  0.53491  0.72733  Biso   1.000  C
  H106     1.0000 0.61824  0.46781  0.66782  Biso   1.000  H
  H107     1.0000 0.56875  0.46742  0.89943  Biso   1.000  H
  C87      1.0000 0.60304  0.53620  0.86723  Biso   1.000  C
  H108     1.0000 0.60123  0.30548  0.69800  Biso   1.000  H
  H109     1.0000 0.59436  0.29561  0.79380  Biso   1.000  H
  C88      1.0000 0.67295  0.27628  0.75250  Biso   1.000  C
  C89      1.0000 0.60205  0.69631  0.72018  Biso   1.000  C
  H110     1.0000 0.54904  0.75851  0.72678  Biso   1.000  H
  N10      1.0000 0.61892  0.65482  0.67601  Biso   1.000  N
  H111     1.0000 0.60723  0.61590  0.56982  Biso   1.000  H
  H112     1.0000 0.41483  0.84821  0.33003  Biso   1.000  H
  H113     1.0000 0.45380  0.80579  0.28843  Biso   1.000  H
  C90      1.0000 0.49830  0.86470  0.34408  Biso   1.000  C
  H114     1.0000 0.42101  0.86470  0.45008  Biso   1.000  H
  H115     1.0000 0.45720  0.83250  0.51441  Biso   1.000  H
  C91      1.0000 0.50302  0.87189  0.43389  Biso   1.000  C
  O19      1.0000 0.65981  0.56520  0.67259  Biso   1.000  O
  C92      1.0000 0.62822  0.56120  0.80302  Biso   1.000  C
  H116     1.0000 0.59815  0.55319  0.91818  Biso   1.000  H
  H117     1.0000 0.69244  0.28118  0.80553  Biso   1.000  H
  H118     1.0000 0.66245  0.23911  0.74810  Biso   1.000  H
  C93      1.0000 0.71274  0.28919  0.68432  Biso   1.000  C
  H119     1.0000 0.61965  0.70280  0.77137  Biso   1.000  H
  B10      1.0000 0.66781  0.61800  0.71181  Biso   1.000  B
  H120     1.0000 0.49042  0.89149  0.38508  Biso   1.000  H
  H121     1.0000 0.50422  0.88130  0.29099  Biso   1.000  H
  H122     1.0000 0.53171  0.84541  0.36027  Biso   1.000  H
  H123     1.0000 0.49840  0.88561  0.37842  Biso   1.000  H
  H124     1.0000 0.53601  0.84949  0.43627  Biso   1.000  H
  H125     1.0000 0.50773  0.90082  0.47232  Biso   1.000  H
  O20      1.0000 0.65187  0.60816  0.80052  Biso   1.000  O
  H126     1.0000 0.69342  0.28608  0.63153  Biso   1.000  H
  H127     1.0000 0.74423  0.26501  0.68603  Biso   1.000  H
  H128     1.0000 0.72634  0.32488  0.69122  Biso   1.000  H
  C94      1.0000 0.72733  0.64320  0.70179  Biso   1.000  C
  H129     1.0000 0.72694  0.67710  0.73032  Biso   1.000  H
  H130     1.0000 0.75423  0.62080  0.73160  Biso   1.000  H
  C95      1.0000 0.75091  0.65260  0.61650  Biso   1.000  C
  C96      1.0000 0.73722  0.63219  0.60251  Biso   1.000  C
  H131     1.0000 0.72022  0.66229  0.57881  Biso   1.000  H
  H132     1.0000 0.77741  0.68200  0.61888  Biso   1.000  H
  C97      1.0000 0.78033  0.60502  0.58357  Biso   1.000  C
  H133     1.0000 0.71421  0.65649  0.56952  Biso   1.000  H
  C98      1.0000 0.79934  0.64040  0.58357  Biso   1.000  C
  H134     1.0000 0.72602  0.59619  0.58858  Biso   1.000  H
  H135     1.0000 0.75345  0.57652  0.57367  Biso   1.000  H
  H136     1.0000 0.80892  0.59281  0.62298  Biso   1.000  H
  C99      1.0000 0.81111  0.62430  0.49211  Biso   1.000  C
  C100     1.0000 0.80114  0.61310  0.50659  Biso   1.000  C
  H137     1.0000 0.80873  0.67760  0.57771  Biso   1.000  H
  H138     1.0000 0.82382  0.62418  0.62542  Biso   1.000  H
  H139     1.0000 0.82860  0.59409  0.46639  Biso   1.000  H
  H140     1.0000 0.83921  0.65089  0.50348  Biso   1.000  H
  H141     1.0000 0.78254  0.63849  0.45527  Biso   1.000  H
  H142     1.0000 0.81401  0.57741  0.51588  Biso   1.000  H
  H143     1.0000 0.82684  0.63091  0.46987  Biso   1.000  H
  H144     1.0000 0.76380  0.61240  0.48191  Biso   1.000  H
  C101     1.0000 0.24570  0.52838  0.17241  Biso   1.000  C
  C102     1.0000 0.24321  0.48538  0.11809  Biso   1.000  C
  C103     1.0000 0.21393  0.57080  0.15292  Biso   1.000  C
  H145     1.0000 0.26852  0.52768  0.22018  Biso   1.000  H
  N11      1.0000 0.21219  0.48569  0.04949  Biso   1.000  N
  H146     1.0000 0.26442  0.45521  0.13080  Biso   1.000  H
  C104     1.0000 0.18050  0.57111  0.07948  Biso   1.000  C
  O21      1.0000 0.20932  0.61575  0.19171  Biso   1.000  O
  B11      1.0000 0.21643  0.43939  0.98308  Biso   1.000  B
  C105     1.0000 0.18240  0.52850  0.02933  Biso   1.000  C
  O22      1.0000 0.15399  0.61625  0.07069  Biso   1.000  O
  B12      1.0000 0.16499  0.64720  0.14718  Biso   1.000  B
  O23      1.0000 0.23198  0.39090  0.03140  Biso   1.000  O
  O24      1.0000 0.15790  0.42799  0.95369  Biso   1.000  O
  C106     1.0000 0.25795  0.45509  0.91172  Biso   1.000  C
  H147     1.0000 0.16235  0.52908  0.97898  Biso   1.000  H
  N12      1.0000 0.11023  0.64320  0.20271  Biso   1.000  N
  C107     1.0000 0.18079  0.70610  0.12891  Biso   1.000  C
  C108     1.0000 0.18609  0.36369  0.03989  Biso   1.000  C
  C109     1.0000 0.14194  0.38480  0.99242  Biso   1.000  C
  H148     1.0000 0.24115  0.48441  0.88081  Biso   1.000  H
  H149     1.0000 0.26064  0.42531  0.87360  Biso   1.000  H
  C110     1.0000 0.31646  0.47068  0.93738  Biso   1.000  C
  C111     1.0000 0.05922  0.63118  0.16770  Biso   1.000  C
  C112     1.0000 0.11293  0.65249  0.28238  Biso   1.000  C
  H150     1.0000 0.21512  0.70680  0.09622  Biso   1.000  H
  H151     1.0000 0.18880  0.72379  0.18139  Biso   1.000  H
  C113     1.0000 0.13470  0.73670  0.08272  Biso   1.000  C
  C114     1.0000 0.17771  0.31890  0.08523  Biso   1.000  C
  C115     1.0000 0.09024  0.36019  0.98961  Biso   1.000  C
  H152     1.0000 0.33533  0.43981  0.96078  Biso   1.000  H
  H153     1.0000 0.31384  0.49701  0.98131  Biso   1.000  H
  C116     1.0000 0.35243  0.49250  0.87048  Biso   1.000  C
  C117     1.0000 0.01280  0.62621  0.21383  Biso   1.000  C
  H154     1.0000 0.05659  0.62628  0.11027  Biso   1.000  H
  H155     1.0000 0.14781  0.66201  0.30541  Biso   1.000  H
  C118     1.0000 0.06771  0.64911  0.33431  Biso   1.000  C
  H156     1.0000 0.10369  0.74300  0.12078  Biso   1.000  H
  H157     1.0000 0.12021  0.71450  0.03788  Biso   1.000  H
  C119     1.0000 0.15228  0.78950  0.04570  Biso   1.000  C
  C120     1.0000 0.12340  0.29592  0.07887  Biso   1.000  C
  H158     1.0000 0.20629  0.30432  0.11852  Biso   1.000  H
  N13      1.0000 0.08169  0.31637  0.03452  Biso   1.000  N
  H159     1.0000 0.06112  0.37391  0.95650  Biso   1.000  H
  H160     1.0000 0.35575  0.46621  0.82661  Biso   1.000  H
  H161     1.0000 0.33385  0.52348  0.84678  Biso   1.000  H
  C121     1.0000 0.41084  0.50781  0.89999  Biso   1.000  C
  C122     1.0000 0.01721  0.63550  0.30101  Biso   1.000  C
  O25      1.0000 0.96146  0.61477  0.19159  Biso   1.000  O
  H162     1.0000 0.07163  0.65610  0.39112  Biso   1.000  H
  H163     1.0000 0.17650  0.80809  0.08541  Biso   1.000  H
  H164     1.0000 0.11871  0.81100  0.03598  Biso   1.000  H
  C123     1.0000 0.18293  0.78289  0.96640  Biso   1.000  C
  H165     1.0000 0.11670  0.26450  0.10777  Biso   1.000  H
  B13      1.0000 0.02400  0.28779  0.02511  Biso   1.000  B
  H166     1.0000 0.42963  0.47741  0.92333  Biso   1.000  H
  H167     1.0000 0.43231  0.52092  0.85368  Biso   1.000  H
  H168     1.0000 0.40805  0.53499  0.94172  Biso   1.000  H
  O26      1.0000 0.96813  0.62912  0.33510  Biso   1.000  O
  B14      1.0000 0.92731  0.61240  0.26961  Biso   1.000  B
  H169     1.0000 0.15905  0.76470  0.92687  Biso   1.000  H
  H170     1.0000 0.19293  0.81711  0.94471  Biso   1.000  H
  H171     1.0000 0.21684  0.76248  0.97611  Biso   1.000  H
  O27      1.0000 0.01271  0.26205  0.10881  Biso   1.000  O
  O28      1.0000 0.97942  0.32854  0.01882  Biso   1.000  O
  C124     1.0000 0.02332  0.24759  0.95057  Biso   1.000  C
  N14      1.0000 0.91303  0.55226  0.28403  Biso   1.000  N
  C125     1.0000 0.87061  0.64428  0.26442  Biso   1.000  C
  C126     1.0000 0.97211  0.28849  0.14290  Biso   1.000  C
  C127     1.0000 0.95179  0.32932  0.08908  Biso   1.000  C
  H172     1.0000 0.98622  0.23079  0.94831  Biso   1.000  H
  H173     1.0000 0.02784  0.26742  0.89932  Biso   1.000  H
  C128     1.0000 0.06704  0.20521  0.95320  Biso   1.000  C
  C129     1.0000 0.89031  0.52551  0.22049  Biso   1.000  C
  C130     1.0000 0.91714  0.52978  0.35691  Biso   1.000  C
  H174     1.0000 0.85451  0.64611  0.31971  Biso   1.000  H
  H175     1.0000 0.84413  0.62500  0.22898  Biso   1.000  H
  C131     1.0000 0.87641  0.69918  0.23161  Biso   1.000  C
  C132     1.0000 0.94850  0.28212  0.21750  Biso   1.000  C
  C133     1.0000 0.91021  0.36061  0.11333  Biso   1.000  C
  H176     1.0000 0.06742  0.18939  0.00831  Biso   1.000  H
  H177     1.0000 0.10395  0.22100  0.94410  Biso   1.000  H
  C134     1.0000 0.05763  0.16229  0.88991  Biso   1.000  C
  C135     1.0000 0.87241  0.47551  0.23002  Biso   1.000  C
  H178     1.0000 0.88692  0.54180  0.16862  Biso   1.000  H
  C136     1.0000 0.90004  0.47819  0.37390  Biso   1.000  C
  H179     1.0000 0.93240  0.54969  0.40047  Biso   1.000  H
  H180     1.0000 0.90252  0.71858  0.26747  Biso   1.000  H
  H181     1.0000 0.89309  0.69740  0.17668  Biso   1.000  H
  C137     1.0000 0.82211  0.73002  0.22519  Biso   1.000  C
  C138     1.0000 0.90502  0.31641  0.23778  Biso   1.000  C
  H182     1.0000 0.96081  0.25579  0.25409  Biso   1.000  H
  N15      1.0000 0.88752  0.35428  0.18939  Biso   1.000  N
  H183     1.0000 0.89662  0.38701  0.07777  Biso   1.000  H
  H184     1.0000 0.09114  0.13989  0.88850  Biso   1.000  H
  H185     1.0000 0.05331  0.17862  0.83541  Biso   1.000  H
  C139     1.0000 0.00722  0.12819  0.90543  Biso   1.000  C
  O29      1.0000 0.84689  0.44425  0.17638  Biso   1.000  O
  C140     1.0000 0.87690  0.45229  0.30962  Biso   1.000  C
  H186     1.0000 0.90430  0.46279  0.42631  Biso   1.000  H
  H187     1.0000 0.80430  0.73021  0.27938  Biso   1.000  H
  H188     1.0000 0.83099  0.76641  0.21090  Biso   1.000  H
  C141     1.0000 0.78039  0.70890  0.16220  Biso   1.000  C
  H189     1.0000 0.88732  0.31209  0.28910  Biso   1.000  H
  B15      1.0000 0.83869  0.39261  0.21847  Biso   1.000  B
  H190     1.0000 0.97376  0.14981  0.90677  Biso   1.000  H
  H191     1.0000 0.00364  0.10241  0.86162  Biso   1.000  H
  H192     1.0000 0.01194  0.11030  0.95791  Biso   1.000  H
  O30      1.0000 0.85340  0.40498  0.30859  Biso   1.000  O
  H193     1.0000 0.76952  0.67348  0.17742  Biso   1.000  H
  H194     1.0000 0.74741  0.73130  0.16080  Biso   1.000  H
  H195     1.0000 0.79749  0.70840  0.10820  Biso   1.000  H
  C142     1.0000 0.77879  0.36928  0.20222  Biso   1.000  C
  H196     1.0000 0.75130  0.39032  0.23240  Biso   1.000  H
  H197     1.0000 0.77761  0.33340  0.22428  Biso   1.000  H
  C143     1.0000 0.76201  0.36788  0.11309  Biso   1.000  C
  H198     1.0000 0.78632  0.34250  0.08523  Biso   1.000  H
  H199     1.0000 0.76979  0.40249  0.08938  Biso   1.000  H
  C144     1.0000 0.70250  0.35400  0.09292  Biso   1.000  C
  H200     1.0000 0.69551  0.31781  0.11027  Biso   1.000  H
  H201     1.0000 0.67760  0.37691  0.12457  Biso   1.000  H
  C145     1.0000 0.68779  0.35921  0.00250  Biso   1.000  C
  H202     1.0000 0.71223  0.33659  0.97049  Biso   1.000  H
  H203     1.0000 0.64902  0.34879  0.99359  Biso   1.000  H
  H204     1.0000 0.69283  0.39530  0.98528  Biso   1.000  H
  C146     1.0000 0.43993  0.22978  0.80571  Biso   1.000  C
  C147     1.0000 0.39805  0.19631  0.77981  Biso   1.000  C
  C148     1.0000 0.46463  0.21991  0.88043  Biso   1.000  C
  H205     1.0000 0.45106  0.25851  0.77321  Biso   1.000  H
  N16      1.0000 0.38113  0.15482  0.82398  Biso   1.000  N
  H206     1.0000 0.38044  0.20280  0.72861  Biso   1.000  H
  C149     1.0000 0.44694  0.17640  0.92668  Biso   1.000  C
  O31      1.0000 0.50460  0.24557  0.91941  Biso   1.000  O
  B16      1.0000 0.33224  0.11800  0.78818  Biso   1.000  B
  C150     1.0000 0.40504  0.14460  0.89851  Biso   1.000  C
  O32      1.0000 0.47528  0.17294  0.99791  Biso   1.000  O
  B17      1.0000 0.51773  0.21602  0.99748  Biso   1.000  B
  O33      1.0000 0.34819  0.10816  0.69953  Biso   1.000  O
  O34      1.0000 0.34024  0.06520  0.82740  Biso   1.000  O
  C151     1.0000 0.27272  0.14320  0.79819  Biso   1.000  C
  H207     1.0000 0.39283  0.11590  0.93022  Biso   1.000  H
  N17      1.0000 0.57744  0.18907  0.98520  Biso   1.000  N
  C152     1.0000 0.51571  0.24961  0.07929  Biso   1.000  C
  C153     1.0000 0.37183  0.06120  0.69702  Biso   1.000  C
  C154     1.0000 0.36685  0.03491  0.77272  Biso   1.000  C
  H208     1.0000 0.27315  0.17710  0.76972  Biso   1.000  H
  H209     1.0000 0.24583  0.12080  0.76838  Biso   1.000  H
  C155     1.0000 0.24914  0.15260  0.88348  Biso   1.000  C
  C156     1.0000 0.26283  0.13219  0.89747  Biso   1.000  C
  C157     1.0000 0.61803  0.21291  0.94317  Biso   1.000  C
  C158     1.0000 0.58752  0.14253  0.02430  Biso   1.000  C
  H210     1.0000 0.47839  0.26579  0.08240  Biso   1.000  H
  H211     1.0000 0.51923  0.22539  0.12609  Biso   1.000  H
  C159     1.0000 0.55882  0.29242  0.09071  Biso   1.000  C
  C160     1.0000 0.39705  0.03620  0.63281  Biso   1.000  C
  C161     1.0000 0.38575  0.98530  0.78152  Biso   1.000  C
  H212     1.0000 0.27983  0.16229  0.92118  Biso   1.000  H
  H213     1.0000 0.22264  0.18200  0.88110  Biso   1.000  H
  C162     1.0000 0.21976  0.10502  0.91641  Biso   1.000  C
  H214     1.0000 0.28584  0.15649  0.93052  Biso   1.000  H
  C163     1.0000 0.20076  0.14040  0.91641  Biso   1.000  C
  H215     1.0000 0.27403  0.09619  0.91140  Biso   1.000  H
  H216     1.0000 0.60995  0.24510  0.91721  Biso   1.000  H
  C164     1.0000 0.67104  0.19250  0.93639  Biso   1.000  C
  C165     1.0000 0.63912  0.12123  0.01807  Biso   1.000  C
  H217     1.0000 0.55932  0.12582  0.05473  Biso   1.000  H
  H218     1.0000 0.59582  0.27589  0.09591  Biso   1.000  H
  H219     1.0000 0.55902  0.31392  0.04062  Biso   1.000  H
  C166     1.0000 0.55090  0.32749  0.16219  Biso   1.000  C
  C167     1.0000 0.54632  0.34160  0.04422  Biso   1.000  C
  H220     1.0000 0.40194  0.05319  0.58180  Biso   1.000  H
  C168     1.0000 0.41501  0.98561  0.64491  Biso   1.000  C
  N18      1.0000 0.41014  0.96108  0.71767  Biso   1.000  N
  H221     1.0000 0.38185  0.96781  0.83222  Biso   1.000  H
  H222     1.0000 0.24665  0.07652  0.92631  Biso   1.000  H
  H223     1.0000 0.19114  0.09281  0.87701  Biso   1.000  H
  C169     1.0000 0.19895  0.11310  0.99339  Biso   1.000  C
  C170     1.0000 0.18890  0.12430  0.00793  Biso   1.000  C
  H224     1.0000 0.19136  0.17760  0.92228  Biso   1.000  H
  H225     1.0000 0.17623  0.12418  0.87462  Biso   1.000  H
  C171     1.0000 0.68145  0.14533  0.97518  Biso   1.000  C
  H226     1.0000 0.69915  0.20991  0.90651  Biso   1.000  H
  O35      1.0000 0.65773  0.07586  0.05228  Biso   1.000  O
  H227     1.0000 0.58522  0.34821  0.17001  Biso   1.000  H
  H228     1.0000 0.54621  0.30579  0.21162  Biso   1.000  H
  C172     1.0000 0.50171  0.36470  0.15590  Biso   1.000  C
  H229     1.0000 0.54285  0.33250  0.98557  Biso   1.000  H
  H230     1.0000 0.57900  0.36470  0.04990  Biso   1.000  H
  C173     1.0000 0.49699  0.37189  0.06609  Biso   1.000  C
  H231     1.0000 0.43134  0.96742  0.60062  Biso   1.000  H
  B18      1.0000 0.42555  0.90058  0.72800  Biso   1.000  B
  H232     1.0000 0.18604  0.07741  0.98410  Biso   1.000  H
  H233     1.0000 0.17141  0.09409  0.03359  Biso   1.000  H
  H234     1.0000 0.21751  0.13849  0.04471  Biso   1.000  H
  H235     1.0000 0.17321  0.13091  0.03011  Biso   1.000  H
  H236     1.0000 0.23621  0.11240  0.01807  Biso   1.000  H
  H237     1.0000 0.16084  0.15089  0.99651  Biso   1.000  H
  O36      1.0000 0.72925  0.11835  0.97891  Biso   1.000  O
  B19      1.0000 0.71599  0.06831  0.02320  Biso   1.000  B
  H238     1.0000 0.50963  0.39149  0.11491  Biso   1.000  H
  H239     1.0000 0.49580  0.38130  0.20899  Biso   1.000  H
  H240     1.0000 0.46830  0.34541  0.13971  Biso   1.000  H
  H241     1.0000 0.50161  0.38561  0.12163  Biso   1.000  H
  H242     1.0000 0.46400  0.34949  0.06371  Biso   1.000  H
  H243     1.0000 0.49232  0.40082  0.02773  Biso   1.000  H
  O37      1.0000 0.46455  0.88612  0.66018  Biso   1.000  O
  O38      1.0000 0.46138  0.89607  0.80491  Biso   1.000  O
  C174     1.0000 0.36982  0.86660  0.73172  Biso   1.000  C
  N19      1.0000 0.71286  0.02348  0.95362  Biso   1.000  N
  C175     1.0000 0.75913  0.05210  0.09322  Biso   1.000  C
  C176     1.0000 0.51463  0.87908  0.69317  Biso   1.000  C
  C177     1.0000 0.51343  0.88538  0.77932  Biso   1.000  C
  H244     1.0000 0.34583  0.88072  0.77522  Biso   1.000  H
  H245     1.0000 0.34942  0.87022  0.67918  Biso   1.000  H
  C178     1.0000 0.38012  0.80921  0.74822  Biso   1.000  C
  C179     1.0000 0.68295  0.97943  0.97060  Biso   1.000  C
  C180     1.0000 0.74203  0.02760  0.88360  Biso   1.000  C
  H246     1.0000 0.76061  0.08060  0.13378  Biso   1.000  H
  H247     1.0000 0.74431  0.02100  0.12132  Biso   1.000  H
  C181     1.0000 0.81820  0.04020  0.06689  Biso   1.000  C
  C182     1.0000 0.56403  0.86680  0.65640  Biso   1.000  C
  C183     1.0000 0.56023  0.87947  0.82569  Biso   1.000  C
  H248     1.0000 0.39882  0.80548  0.80198  Biso   1.000  H
  H249     1.0000 0.40574  0.79561  0.70619  Biso   1.000  H
  C184     1.0000 0.32714  0.77628  0.74749  Biso   1.000  C
  C185     1.0000 0.68262  0.93935  0.91568  Biso   1.000  C
  H250     1.0000 0.66250  0.97691  0.01991  Biso   1.000  H
  C186     1.0000 0.74293  0.98791  0.82508  Biso   1.000  C
  H251     1.0000 0.76255  0.05851  0.87383  Biso   1.000  H
  H252     1.0000 0.83391  0.07170  0.04141  Biso   1.000  H
  H253     1.0000 0.81679  0.01271  0.02467  Biso   1.000  H
  C187     1.0000 0.85771  0.02251  0.13611  Biso   1.000  C
  C188     1.0000 0.61123  0.86279  0.70723  Biso   1.000  C
  H254     1.0000 0.56614  0.86120  0.59921  Biso   1.000  H
  N20      1.0000 0.60983  0.86905  0.78830  Biso   1.000  N
  H255     1.0000 0.55862  0.88250  0.88348  Biso   1.000  H
  H256     1.0000 0.30761  0.78118  0.69452  Biso   1.000  H
  H257     1.0000 0.33765  0.73911  0.75189  Biso   1.000  H
  C189     1.0000 0.28735  0.78919  0.81573  Biso   1.000  C
  O39      1.0000 0.65680  0.89288  0.92112  Biso   1.000  O
  C190     1.0000 0.71293  0.94300  0.84169  Biso   1.000  C
  H258     1.0000 0.76334  0.99141  0.77602  Biso   1.000  H
  H259     1.0000 0.84201  0.99102  0.16201  Biso   1.000  H
  H260     1.0000 0.85950  0.05012  0.17820  Biso   1.000  H
  C191     1.0000 0.91640  0.01038  0.10831  Biso   1.000  C
  H261     1.0000 0.64595  0.85521  0.68273  Biso   1.000  H
  B20      1.0000 0.66665  0.86540  0.84133  Biso   1.000  B
  H262     1.0000 0.30663  0.78608  0.86851  Biso   1.000  H
  H263     1.0000 0.25582  0.76501  0.81402  Biso   1.000  H
  H264     1.0000 0.27375  0.82488  0.80882  Biso   1.000  H
  O40      1.0000 0.70785  0.89969  0.79691  Biso   1.000  O
  H265     1.0000 0.91552  0.98099  0.07019  Biso   1.000  H
  H266     1.0000 0.93959  0.00152  0.15578  Biso   1.000  H
  H267     1.0000 0.93189  0.04090  0.08088  Biso   1.000  H
  C192     1.0000 0.68736  0.80649  0.85330  Biso   1.000  C
  H268     1.0000 0.68674  0.78892  0.79960  Biso   1.000  H
  H269     1.0000 0.72645  0.80700  0.87310  Biso   1.000  H
  C193     1.0000 0.65304  0.77539  0.91232  Biso   1.000  C
  H270     1.0000 0.61673  0.76719  0.88611  Biso   1.000  H
  H271     1.0000 0.64555  0.79701  0.96101  Biso   1.000  H
  C194     1.0000 0.68063  0.72399  0.94042  Biso   1.000  C
  H272     1.0000 0.68704  0.70191  0.89191  Biso   1.000  H
  H273     1.0000 0.71735  0.73200  0.96523  Biso   1.000  H
  C195     1.0000 0.64661  0.69382  0.00127  Biso   1.000  C
  H274     1.0000 0.61114  0.68371  0.97598  Biso   1.000  H
  H275     1.0000 0.63962  0.71551  0.04929  Biso   1.000  H
  H276     1.0000 0.66702  0.66252  0.01801  Biso   1.000  H
  C196     1.0000 0.75434  0.47162  0.82758  Biso   1.000  C
  C197     1.0000 0.78615  0.42920  0.84713  Biso   1.000  C
  C198     1.0000 0.75682  0.51462  0.88189  Biso   1.000  C
  H277     1.0000 0.73152  0.47232  0.77981  Biso   1.000  H
  O41      1.0000 0.79075  0.38425  0.80828  Biso   1.000  O
  C199     1.0000 0.81954  0.42889  0.92050  Biso   1.000  C
  N21      1.0000 0.78785  0.51431  0.95050  Biso   1.000  N
  H278     1.0000 0.73566  0.54479  0.86919  Biso   1.000  H
  B21      1.0000 0.83505  0.35280  0.85281  Biso   1.000  B
  O42      1.0000 0.84608  0.38375  0.92930  Biso   1.000  O
  C200     1.0000 0.81763  0.47150  0.97072  Biso   1.000  C
  B22      1.0000 0.78360  0.56061  0.01691  Biso   1.000  B
  N22      1.0000 0.88985  0.35680  0.79728  Biso   1.000  N
  C201     1.0000 0.81925  0.29390  0.87108  Biso   1.000  C
  H279     1.0000 0.83772  0.47092  0.02100  Biso   1.000  H
  O43      1.0000 0.76810  0.60910  0.96859  Biso   1.000  O
  O44      1.0000 0.84218  0.57201  0.04630  Biso   1.000  O
  C202     1.0000 0.74213  0.54491  0.08833  Biso   1.000  C
  C203     1.0000 0.94085  0.36882  0.83229  Biso   1.000  C
  C204     1.0000 0.88715  0.34751  0.71761  Biso   1.000  C
  H280     1.0000 0.78496  0.29320  0.90383  Biso   1.000  H
  H281     1.0000 0.81124  0.27621  0.81860  Biso   1.000  H
  C205     1.0000 0.86534  0.26330  0.91733  Biso   1.000  C
  C206     1.0000 0.81394  0.63631  0.96009  Biso   1.000  C
  C207     1.0000 0.85809  0.61520  0.00763  Biso   1.000  C
  H282     1.0000 0.75893  0.51559  0.11918  Biso   1.000  H
  H283     1.0000 0.73939  0.57469  0.12639  Biso   1.000  H
  C208     1.0000 0.68362  0.52932  0.06261  Biso   1.000  C
  C209     1.0000 0.98724  0.37379  0.78622  Biso   1.000  C
  H284     1.0000 0.94345  0.37372  0.88971  Biso   1.000  H
  H285     1.0000 0.85223  0.33799  0.69458  Biso   1.000  H
  C210     1.0000 0.93232  0.35089  0.66568  Biso   1.000  C
  H286     1.0000 0.89635  0.25700  0.87921  Biso   1.000  H
  H287     1.0000 0.87986  0.28550  0.96211  Biso   1.000  H
  C211     1.0000 0.84775  0.21050  0.95429  Biso   1.000  C
  C212     1.0000 0.82233  0.68110  0.91482  Biso   1.000  C
  C213     1.0000 0.90979  0.63981  0.01037  Biso   1.000  C
  H288     1.0000 0.66471  0.56019  0.03921  Biso   1.000  H
  H289     1.0000 0.68619  0.50299  0.01868  Biso   1.000  H
  C214     1.0000 0.64761  0.50750  0.12951  Biso   1.000  C
  C215     1.0000 0.98282  0.36450  0.69898  Biso   1.000  C
  O45      1.0000 0.03861  0.38523  0.80840  Biso   1.000  O
  H290     1.0000 0.92845  0.34390  0.60892  Biso   1.000  H
  H291     1.0000 0.82353  0.19191  0.91458  Biso   1.000  H
  H292     1.0000 0.88133  0.18900  0.96400  Biso   1.000  H
  C216     1.0000 0.81710  0.21711  0.03359  Biso   1.000  C
  C217     1.0000 0.87663  0.70408  0.92112  Biso   1.000  C
  H293     1.0000 0.79374  0.69568  0.88153  Biso   1.000  H
  N23      1.0000 0.91835  0.68363  0.96547  Biso   1.000  N
  H294     1.0000 0.93892  0.62609  0.04349  Biso   1.000  H
  H295     1.0000 0.64433  0.53379  0.17337  Biso   1.000  H
  H296     1.0000 0.66623  0.47652  0.15321  Biso   1.000  H
  C218     1.0000 0.58919  0.49219  0.10000  Biso   1.000  C
  O46      1.0000 0.03194  0.37088  0.66489  Biso   1.000  O
  B23      1.0000 0.07272  0.38760  0.73038  Biso   1.000  B
  H297     1.0000 0.84103  0.23530  0.07312  Biso   1.000  H
  H298     1.0000 0.80710  0.18289  0.05528  Biso   1.000  H
  H299     1.0000 0.78319  0.23752  0.02388  Biso   1.000  H
  H300     1.0000 0.88334  0.73550  0.89222  Biso   1.000  H
  B24      1.0000 0.97604  0.71221  0.97488  Biso   1.000  B
  H301     1.0000 0.57041  0.52259  0.07672  Biso   1.000  H
  H302     1.0000 0.56772  0.47908  0.14631  Biso   1.000  H
  H303     1.0000 0.59199  0.46501  0.05827  Biso   1.000  H
  N24      1.0000 0.08705  0.44774  0.71602  Biso   1.000  N
  C219     1.0000 0.12943  0.35572  0.73557  Biso   1.000  C
  O47      1.0000 0.98732  0.73795  0.89118  Biso   1.000  O
  C220     1.0000 0.97671  0.75241  0.04941  Biso   1.000  C
  O48      1.0000 0.02066  0.67146  0.98117  Biso   1.000  O
  C221     1.0000 0.10973  0.47449  0.77950  Biso   1.000  C
  C222     1.0000 0.08294  0.47022  0.64308  Biso   1.000  C
  H304     1.0000 0.14552  0.35389  0.68028  Biso   1.000  H
  H305     1.0000 0.15595  0.37500  0.77101  Biso   1.000  H
  C223     1.0000 0.12362  0.30082  0.76838  Biso   1.000  C
  C224     1.0000 0.02792  0.71151  0.85709  Biso   1.000  C
  H306     1.0000 0.97219  0.73258  0.10067  Biso   1.000  H
  C225     1.0000 0.93299  0.79479  0.04679  Biso   1.000  C
  H307     1.0000 0.01382  0.76921  0.05167  Biso   1.000  H
  C226     1.0000 0.04825  0.67068  0.91091  Biso   1.000  C
  C227     1.0000 0.12763  0.52449  0.77003  Biso   1.000  C
  H308     1.0000 0.11316  0.45820  0.83143  Biso   1.000  H
  H309     1.0000 0.06764  0.45031  0.59952  Biso   1.000  H
  C228     1.0000 0.10004  0.52181  0.62609  Biso   1.000  C
  H310     1.0000 0.09752  0.28142  0.73252  Biso   1.000  H
  H311     1.0000 0.10695  0.30260  0.82330  Biso   1.000  H
  C229     1.0000 0.17793  0.26998  0.77480  Biso   1.000  C
  C230     1.0000 0.05154  0.71788  0.78249  Biso   1.000  C
  H312     1.0000 0.93266  0.81061  0.99168  Biso   1.000  H
  H313     1.0000 0.89609  0.77900  0.05589  Biso   1.000  H
  C231     1.0000 0.94240  0.83771  0.11008  Biso   1.000  C
  C232     1.0000 0.08983  0.63939  0.88672  Biso   1.000  C
  O49      1.0000 0.15314  0.55575  0.82361  Biso   1.000  O
  C233     1.0000 0.12314  0.54771  0.69042  Biso   1.000  C
  H314     1.0000 0.09573  0.53721  0.57367  Biso   1.000  H
  H315     1.0000 0.19573  0.26979  0.72061  Biso   1.000  H
  H316     1.0000 0.16904  0.23359  0.78909  Biso   1.000  H
  C234     1.0000 0.21964  0.29110  0.83778  Biso   1.000  C
  C235     1.0000 0.09506  0.68359  0.76221  Biso   1.000  C
  H317     1.0000 0.03923  0.74421  0.74590  Biso   1.000  H
  H318     1.0000 0.90890  0.86011  0.11149  Biso   1.000  H
  H319     1.0000 0.94672  0.82138  0.16458  Biso   1.000  H
  C236     1.0000 0.99282  0.87181  0.09462  Biso   1.000  C
  N25      1.0000 0.11256  0.64572  0.81060  Biso   1.000  N
  H320     1.0000 0.10346  0.61299  0.92222  Biso   1.000  H
  B25      1.0000 0.16134  0.60739  0.78152  Biso   1.000  B
  O50      1.0000 0.14664  0.59502  0.69140  Biso   1.000  O
  H321     1.0000 0.23056  0.32652  0.82257  Biso   1.000  H
  H322     1.0000 0.25263  0.26870  0.83919  Biso   1.000  H
  H323     1.0000 0.20255  0.29160  0.89179  Biso   1.000  H
  H324     1.0000 0.11271  0.68791  0.71089  Biso   1.000  H
  H325     1.0000 0.99640  0.89759  0.13843  Biso   1.000  H
  H326     1.0000 0.98810  0.88970  0.04208  Biso   1.000  H
  H327     1.0000 0.02632  0.85019  0.09322  Biso   1.000  H
  C237     1.0000 0.22124  0.63072  0.79783  Biso   1.000  C
  H328     1.0000 0.24873  0.60968  0.76759  Biso   1.000  H
  H329     1.0000 0.22242  0.66660  0.77571  Biso   1.000  H
  C238     1.0000 0.23802  0.63212  0.88690  Biso   1.000  C
  H330     1.0000 0.21376  0.65750  0.91482  Biso   1.000  H
  H331     1.0000 0.23024  0.59751  0.91061  Biso   1.000  H
  C239     1.0000 0.29754  0.64600  0.90713  Biso   1.000  C
  H332     1.0000 0.30453  0.68219  0.88971  Biso   1.000  H
  H333     1.0000 0.32243  0.62309  0.87542  Biso   1.000  H
  C240     1.0000 0.31224  0.64079  0.99748  Biso   1.000  C
  H334     1.0000 0.28780  0.66341  0.02950  Biso   1.000  H
  H335     1.0000 0.35101  0.65121  0.00640  Biso   1.000  H
  H336     1.0000 0.30720  0.60470  0.01471  Biso   1.000  H
  C241     1.0000 0.56011  0.77022  0.19428  Biso   1.000  C
  C242     1.0000 0.53540  0.78009  0.11962  Biso   1.000  C
  C243     1.0000 0.60199  0.80369  0.22018  Biso   1.000  C
  H337     1.0000 0.54902  0.74149  0.22678  Biso   1.000  H
  O51      1.0000 0.49543  0.75443  0.08058  Biso   1.000  O
  C244     1.0000 0.55310  0.82360  0.07331  Biso   1.000  C
  N26      1.0000 0.61890  0.84518  0.17601  Biso   1.000  N
  H338     1.0000 0.61959  0.79720  0.27138  Biso   1.000  H
  B26      1.0000 0.48230  0.78398  0.00250  Biso   1.000  B
  O52      1.0000 0.52480  0.82706  0.00208  Biso   1.000  O
  C245     1.0000 0.59499  0.85540  0.10148  Biso   1.000  C
  B27      1.0000 0.66780  0.88200  0.21181  Biso   1.000  B
  N27      1.0000 0.42259  0.81093  0.01478  Biso   1.000  N
  C246     1.0000 0.48433  0.75039  0.92070  Biso   1.000  C
  H339     1.0000 0.60721  0.88410  0.06983  Biso   1.000  H
  O53      1.0000 0.65185  0.89184  0.30052  Biso   1.000  O
  O54      1.0000 0.65980  0.93480  0.17259  Biso   1.000  O
  C247     1.0000 0.72731  0.85680  0.20179  Biso   1.000  C
  C248     1.0000 0.38201  0.78709  0.05682  Biso   1.000  C
  C249     1.0000 0.41256  0.85747  0.97568  Biso   1.000  C
  H340     1.0000 0.52165  0.73421  0.91758  Biso   1.000  H
  H341     1.0000 0.48085  0.77461  0.87390  Biso   1.000  H
  C250     1.0000 0.44126  0.70758  0.90928  Biso   1.000  C
  C251     1.0000 0.62821  0.93880  0.30303  Biso   1.000  C
  C252     1.0000 0.63322  0.96509  0.22727  Biso   1.000  C
  H342     1.0000 0.72692  0.82290  0.23032  Biso   1.000  H
  H343     1.0000 0.75421  0.87920  0.23161  Biso   1.000  H
  C253     1.0000 0.75089  0.84740  0.11651  Biso   1.000  C
  C254     1.0000 0.73720  0.86781  0.10252  Biso   1.000  C
  H344     1.0000 0.39012  0.75490  0.08278  Biso   1.000  H
  C255     1.0000 0.32900  0.80750  0.06360  Biso   1.000  C
  C256     1.0000 0.36096  0.87877  0.98192  Biso   1.000  C
  H345     1.0000 0.44075  0.87418  0.94532  Biso   1.000  H
  H346     1.0000 0.40426  0.72411  0.90408  Biso   1.000  H
  H347     1.0000 0.44106  0.68608  0.95937  Biso   1.000  H
  C257     1.0000 0.44913  0.67251  0.83780  Biso   1.000  C
  C258     1.0000 0.45375  0.65840  0.95583  Biso   1.000  C
  C259     1.0000 0.60303  0.96380  0.36718  Biso   1.000  C
  C260     1.0000 0.61433  0.01470  0.21847  Biso   1.000  C
  H348     1.0000 0.72020  0.83771  0.07881  Biso   1.000  H
  H349     1.0000 0.77740  0.81800  0.11889  Biso   1.000  H
  C261     1.0000 0.78032  0.89498  0.08358  Biso   1.000  C
  H350     1.0000 0.71419  0.84351  0.06953  Biso   1.000  H
  C262     1.0000 0.79932  0.85960  0.08358  Biso   1.000  C
  H351     1.0000 0.72601  0.90381  0.08859  Biso   1.000  H
  C263     1.0000 0.31859  0.85467  0.02480  Biso   1.000  C
  H352     1.0000 0.30092  0.79009  0.09347  Biso   1.000  H
  O55      1.0000 0.34231  0.92414  0.94770  Biso   1.000  O
  H353     1.0000 0.41482  0.65179  0.82998  Biso   1.000  H
  H354     1.0000 0.45383  0.69421  0.78837  Biso   1.000  H
  C264     1.0000 0.49832  0.63530  0.84409  Biso   1.000  C
  H355     1.0000 0.45719  0.66750  0.01442  Biso   1.000  H
  H356     1.0000 0.42103  0.63530  0.95009  Biso   1.000  H
  C265     1.0000 0.50305  0.62811  0.93390  Biso   1.000  C
  H357     1.0000 0.59813  0.94681  0.41819  Biso   1.000  H
  C266     1.0000 0.58502  0.01439  0.35508  Biso   1.000  C
  N28      1.0000 0.58989  0.03892  0.28232  Biso   1.000  N
  H358     1.0000 0.61823  0.03219  0.16783  Biso   1.000  H
  H359     1.0000 0.75339  0.92348  0.07368  Biso   1.000  H
  H360     1.0000 0.80890  0.90719  0.12298  Biso   1.000  H
  C267     1.0000 0.80108  0.88690  0.00660  Biso   1.000  C
  C268     1.0000 0.81113  0.87570  0.99212  Biso   1.000  C
  H361     1.0000 0.80872  0.82240  0.07771  Biso   1.000  H
  H362     1.0000 0.82380  0.87582  0.12543  Biso   1.000  H
  O56      1.0000 0.27079  0.88165  0.02108  Biso   1.000  O
  B28      1.0000 0.28404  0.93169  0.97678  Biso   1.000  B
  H363     1.0000 0.49045  0.60851  0.88508  Biso   1.000  H
  H364     1.0000 0.50424  0.61870  0.79100  Biso   1.000  H
  H365     1.0000 0.53174  0.65459  0.86028  Biso   1.000  H
  H366     1.0000 0.49843  0.61439  0.87842  Biso   1.000  H
  H367     1.0000 0.53603  0.65051  0.93628  Biso   1.000  H
  H368     1.0000 0.50775  0.59918  0.97232  Biso   1.000  H
  H369     1.0000 0.56873  0.03258  0.39937  Biso   1.000  H
  B29      1.0000 0.57452  0.09942  0.27199  Biso   1.000  B
  H370     1.0000 0.81400  0.92259  0.01588  Biso   1.000  H
  H371     1.0000 0.82863  0.90591  0.96640  Biso   1.000  H
  H372     1.0000 0.78252  0.86151  0.95528  Biso   1.000  H
  H373     1.0000 0.82682  0.86909  0.96988  Biso   1.000  H
  H374     1.0000 0.76383  0.88760  0.98192  Biso   1.000  H
  H375     1.0000 0.83919  0.84911  0.00348  Biso   1.000  H
  N29      1.0000 0.28722  0.97652  0.04637  Biso   1.000  N
  C269     1.0000 0.24095  0.94790  0.90677  Biso   1.000  C
  O57      1.0000 0.53548  0.11388  0.33981  Biso   1.000  O
  O58      1.0000 0.53866  0.10393  0.19507  Biso   1.000  O
  C270     1.0000 0.63022  0.13340  0.26833  Biso   1.000  C
  C271     1.0000 0.25800  0.97240  0.11638  Biso   1.000  C
  C272     1.0000 0.31712  0.02057  0.02939  Biso   1.000  C
  H376     1.0000 0.23943  0.91940  0.86620  Biso   1.000  H
  H377     1.0000 0.25573  0.97900  0.87873  Biso   1.000  H
  C273     1.0000 0.18183  0.95980  0.93310  Biso   1.000  C
  C274     1.0000 0.48540  0.12092  0.30681  Biso   1.000  C
  C275     1.0000 0.48661  0.11462  0.22067  Biso   1.000  C
  H378     1.0000 0.65420  0.11928  0.22483  Biso   1.000  H
  H379     1.0000 0.65061  0.12978  0.32081  Biso   1.000  H
  C276     1.0000 0.61992  0.19079  0.25183  Biso   1.000  C
  H380     1.0000 0.23749  0.94149  0.12622  Biso   1.000  H
  C277     1.0000 0.25711  0.01209  0.17491  Biso   1.000  C
  H381     1.0000 0.33754  0.02309  0.98008  Biso   1.000  H
  C278     1.0000 0.31741  0.06065  0.08431  Biso   1.000  C
  H382     1.0000 0.16612  0.92830  0.95858  Biso   1.000  H
  H383     1.0000 0.18324  0.98729  0.97532  Biso   1.000  H
  C279     1.0000 0.14232  0.97749  0.86388  Biso   1.000  C
  C280     1.0000 0.43601  0.13320  0.34359  Biso   1.000  C
  C281     1.0000 0.43981  0.12053  0.17430  Biso   1.000  C
  H384     1.0000 0.60122  0.19452  0.19801  Biso   1.000  H
  H385     1.0000 0.59430  0.20439  0.29380  Biso   1.000  H
  C282     1.0000 0.67289  0.22372  0.25250  Biso   1.000  C
  C283     1.0000 0.28710  0.05700  0.15829  Biso   1.000  C
  H386     1.0000 0.23669  0.00859  0.22397  Biso   1.000  H
  O59      1.0000 0.34324  0.10712  0.07887  Biso   1.000  O
  H387     1.0000 0.14054  0.94988  0.82179  Biso   1.000  H
  C284     1.0000 0.08363  0.98962  0.89168  Biso   1.000  C
  H388     1.0000 0.15803  0.00898  0.83798  Biso   1.000  H
  C285     1.0000 0.38880  0.13721  0.29282  Biso   1.000  C
  H389     1.0000 0.43390  0.13880  0.40078  Biso   1.000  H
  N30      1.0000 0.39021  0.13095  0.21169  Biso   1.000  N
  H390     1.0000 0.44141  0.11750  0.11651  Biso   1.000  H
  H391     1.0000 0.69242  0.21882  0.30547  Biso   1.000  H
  H392     1.0000 0.66243  0.26089  0.24810  Biso   1.000  H
  C286     1.0000 0.71272  0.21081  0.18432  Biso   1.000  C
  O60      1.0000 0.29219  0.10031  0.20308  Biso   1.000  O
  B30      1.0000 0.33342  0.13460  0.15872  Biso   1.000  B
  H393     1.0000 0.06044  0.99848  0.84421  Biso   1.000  H
  H394     1.0000 0.06814  0.95910  0.91911  Biso   1.000  H
  H395     1.0000 0.08456  0.01901  0.92980  Biso   1.000  H
  H396     1.0000 0.35412  0.14479  0.31732  Biso   1.000  H
  H397     1.0000 0.69341  0.21392  0.13147  Biso   1.000  H
  H398     1.0000 0.74421  0.23499  0.18597  Biso   1.000  H
  H399     1.0000 0.72633  0.17512  0.19122  Biso   1.000  H
  C287     1.0000 0.31272  0.19351  0.14669  Biso   1.000  C
  H400     1.0000 0.31329  0.21108  0.20039  Biso   1.000  H
  H401     1.0000 0.27362  0.19300  0.12689  Biso   1.000  H
  C288     1.0000 0.34700  0.22461  0.08767  Biso   1.000  C
  H402     1.0000 0.38331  0.23281  0.11388  Biso   1.000  H
  H403     1.0000 0.35448  0.20299  0.03898  Biso   1.000  H
  C289     1.0000 0.31941  0.27601  0.05963  Biso   1.000  C
  C290     1.0000 0.35342  0.30618  0.99872  Biso   1.000  C
  H404     1.0000 0.31300  0.29809  0.10808  Biso   1.000  H
  H405     1.0000 0.28269  0.26800  0.03482  Biso   1.000  H
  H406     1.0000 0.36046  0.28449  0.95070  Biso   1.000  H
  H407     1.0000 0.33306  0.33748  0.98198  Biso   1.000  H
  H408     1.0000 0.38889  0.31629  0.02401  Biso   1.000  H
  C291     1.0000 0.17773  0.18110  0.58522  Biso   1.000  C
  C292     1.0000 0.12342  0.20408  0.57893  Biso   1.000  C
  C293     1.0000 0.18611  0.13631  0.53989  Biso   1.000  C
  H409     1.0000 0.20635  0.19568  0.61852  Biso   1.000  H
  N31      1.0000 0.08171  0.18363  0.53451  Biso   1.000  N
  H410     1.0000 0.11671  0.23550  0.60783  Biso   1.000  H
  C294     1.0000 0.14192  0.11520  0.49242  Biso   1.000  C
  O61      1.0000 0.23200  0.10910  0.53140  Biso   1.000  O
  B31      1.0000 0.02401  0.21221  0.52510  Biso   1.000  B
  C295     1.0000 0.09022  0.13981  0.48961  Biso   1.000  C
  O62      1.0000 0.15787  0.07201  0.45368  Biso   1.000  O
  B32      1.0000 0.21641  0.06061  0.48307  Biso   1.000  B
  C296     1.0000 0.02334  0.25241  0.45063  Biso   1.000  C
  O63      1.0000 0.01273  0.23795  0.60880  Biso   1.000  O
  O64      1.0000 0.97944  0.17146  0.51881  Biso   1.000  O
  H411     1.0000 0.06114  0.12609  0.45650  Biso   1.000  H
  N32      1.0000 0.21224  0.01431  0.54948  Biso   1.000  N
  C297     1.0000 0.25792  0.04491  0.41171  Biso   1.000  C
  C298     1.0000 0.06702  0.29479  0.45320  Biso   1.000  C
  H412     1.0000 0.02782  0.23258  0.39931  Biso   1.000  H
  H413     1.0000 0.98624  0.26921  0.44831  Biso   1.000  H
  C299     1.0000 0.97213  0.21151  0.64289  Biso   1.000  C
  C300     1.0000 0.95185  0.17068  0.58913  Biso   1.000  C
  C301     1.0000 0.24323  0.01462  0.61809  Biso   1.000  C
  C302     1.0000 0.18242  0.97150  0.52932  Biso   1.000  C
  H414     1.0000 0.24112  0.01559  0.38080  Biso   1.000  H
  H415     1.0000 0.26062  0.07469  0.37359  Biso   1.000  H
  C303     1.0000 0.31643  0.02932  0.43737  Biso   1.000  C
  H416     1.0000 0.10392  0.27900  0.44409  Biso   1.000  H
  H417     1.0000 0.06743  0.31061  0.50830  Biso   1.000  H
  C304     1.0000 0.05761  0.33771  0.38990  Biso   1.000  C
  C305     1.0000 0.94852  0.21788  0.71749  Biso   1.000  C
  C306     1.0000 0.91022  0.13939  0.61332  Biso   1.000  C
  H418     1.0000 0.26444  0.04479  0.63080  Biso   1.000  H
  C307     1.0000 0.24572  0.97162  0.67240  Biso   1.000  C
  C308     1.0000 0.18051  0.92889  0.57948  Biso   1.000  C
  H419     1.0000 0.16233  0.97092  0.47898  Biso   1.000  H
  H420     1.0000 0.33530  0.06019  0.46077  Biso   1.000  H
  H421     1.0000 0.31382  0.00299  0.48130  Biso   1.000  H
  C309     1.0000 0.35240  0.00750  0.37047  Biso   1.000  C
  H422     1.0000 0.09111  0.36011  0.38850  Biso   1.000  H
  H423     1.0000 0.05333  0.32138  0.33541  Biso   1.000  H
  C310     1.0000 0.00724  0.37181  0.40542  Biso   1.000  C
  C311     1.0000 0.90504  0.18359  0.73777  Biso   1.000  C
  H424     1.0000 0.96082  0.24421  0.75408  Biso   1.000  H
  N33      1.0000 0.88754  0.14572  0.68939  Biso   1.000  N
  H425     1.0000 0.89664  0.11299  0.57783  Biso   1.000  H
  C312     1.0000 0.21394  0.92920  0.65291  Biso   1.000  C
  H426     1.0000 0.26854  0.97232  0.72018  Biso   1.000  H
  O65      1.0000 0.15401  0.88375  0.57068  Biso   1.000  O
  H427     1.0000 0.35572  0.03379  0.32661  Biso   1.000  H
  H428     1.0000 0.33382  0.97652  0.34677  Biso   1.000  H
  C313     1.0000 0.41082  0.99219  0.39998  Biso   1.000  C
  H429     1.0000 0.00361  0.39759  0.36162  Biso   1.000  H
  H430     1.0000 0.01192  0.38970  0.45790  Biso   1.000  H
  H431     1.0000 0.97373  0.35019  0.40683  Biso   1.000  H
  H432     1.0000 0.88734  0.18791  0.78909  Biso   1.000  H
  B33      1.0000 0.83875  0.10739  0.71853  Biso   1.000  B
  O66      1.0000 0.20934  0.88425  0.69171  Biso   1.000  O
  B34      1.0000 0.16505  0.85280  0.64717  Biso   1.000  B
  H433     1.0000 0.42960  0.02259  0.42332  Biso   1.000  H
  H434     1.0000 0.43233  0.97908  0.35367  Biso   1.000  H
  H435     1.0000 0.40802  0.96501  0.44171  Biso   1.000  H
  O67      1.0000 0.85346  0.09502  0.80858  Biso   1.000  O
  O68      1.0000 0.84695  0.05575  0.67637  Biso   1.000  O
  C314     1.0000 0.77885  0.13072  0.70222  Biso   1.000  C
  N34      1.0000 0.11025  0.85680  0.70270  Biso   1.000  N
  C315     1.0000 0.18085  0.79390  0.62890  Biso   1.000  C
  C316     1.0000 0.87696  0.04771  0.80962  Biso   1.000  C
  C317     1.0000 0.87243  0.02449  0.73001  Biso   1.000  C
  H436     1.0000 0.75132  0.10968  0.73240  Biso   1.000  H
  H437     1.0000 0.77763  0.16660  0.72427  Biso   1.000  H
  C318     1.0000 0.76203  0.13212  0.61308  Biso   1.000  C
  C319     1.0000 0.05924  0.86882  0.66770  Biso   1.000  C
  C320     1.0000 0.11295  0.84751  0.78237  Biso   1.000  C
  H438     1.0000 0.21514  0.79320  0.59622  Biso   1.000  H
  H439     1.0000 0.18881  0.77621  0.68138  Biso   1.000  H
  C321     1.0000 0.13471  0.76330  0.58272  Biso   1.000  C
  C322     1.0000 0.90005  0.02181  0.87389  Biso   1.000  C
  C323     1.0000 0.89033  0.97449  0.72048  Biso   1.000  C
  H440     1.0000 0.78633  0.15750  0.58522  Biso   1.000  H
  H441     1.0000 0.76981  0.09751  0.58937  Biso   1.000  H
  C324     1.0000 0.70252  0.14600  0.59292  Biso   1.000  C
  C325     1.0000 0.01282  0.87379  0.71382  Biso   1.000  C
  H442     1.0000 0.05665  0.87372  0.61033  Biso   1.000  H
  H443     1.0000 0.14782  0.83799  0.80540  Biso   1.000  H
  C326     1.0000 0.06773  0.85089  0.83430  Biso   1.000  C
  H444     1.0000 0.10375  0.75700  0.62078  Biso   1.000  H
  H445     1.0000 0.12023  0.78550  0.53787  Biso   1.000  H
  C327     1.0000 0.15234  0.71050  0.54569  Biso   1.000  C
  C328     1.0000 0.91715  0.97022  0.85691  Biso   1.000  C
  H446     1.0000 0.90436  0.03721  0.92631  Biso   1.000  H
  N35      1.0000 0.91304  0.94774  0.78402  Biso   1.000  N
  H447     1.0000 0.88694  0.95820  0.66861  Biso   1.000  H
  H448     1.0000 0.69553  0.18219  0.61033  Biso   1.000  H
  H449     1.0000 0.67762  0.12309  0.62463  Biso   1.000  H
  C329     1.0000 0.68781  0.14079  0.50250  Biso   1.000  C
  O69      1.0000 0.96148  0.88523  0.69159  Biso   1.000  O
  C330     1.0000 0.01723  0.86450  0.80100  Biso   1.000  C
  H450     1.0000 0.07165  0.84390  0.89112  Biso   1.000  H
  H451     1.0000 0.17652  0.69191  0.58540  Biso   1.000  H
  H452     1.0000 0.11872  0.68900  0.53598  Biso   1.000  H
  C331     1.0000 0.18291  0.71711  0.46639  Biso   1.000  C
  H453     1.0000 0.93246  0.95031  0.90053  Biso   1.000  H
  B35      1.0000 0.92733  0.88760  0.76960  Biso   1.000  B
  H454     1.0000 0.71221  0.16341  0.47049  Biso   1.000  H
  H455     1.0000 0.64904  0.15121  0.49358  Biso   1.000  H
  H456     1.0000 0.69281  0.10470  0.48527  Biso   1.000  H
  O70      1.0000 0.96815  0.87088  0.83510  Biso   1.000  O
  H457     1.0000 0.15902  0.73530  0.42693  Biso   1.000  H
  H458     1.0000 0.19291  0.68289  0.44470  Biso   1.000  H
  H459     1.0000 0.21682  0.73752  0.47611  Biso   1.000  H
  C332     1.0000 0.87062  0.85572  0.76441  Biso   1.000  C
  H460     1.0000 0.85453  0.85389  0.81970  Biso   1.000  H
  H461     1.0000 0.84415  0.87500  0.72897  Biso   1.000  H
  C333     1.0000 0.87643  0.80082  0.73160  Biso   1.000  C
  H462     1.0000 0.90254  0.78142  0.76753  Biso   1.000  H
  H463     1.0000 0.89315  0.80260  0.67668  Biso   1.000  H
  C334     1.0000 0.82212  0.76998  0.72519  Biso   1.000  C
  H464     1.0000 0.80432  0.76979  0.77938  Biso   1.000  H
  H465     1.0000 0.83105  0.73359  0.71089  Biso   1.000  H
  C335     1.0000 0.78045  0.79110  0.66220  Biso   1.000  C
  H466     1.0000 0.76953  0.82652  0.67741  Biso   1.000  H
  H467     1.0000 0.74743  0.76870  0.66079  Biso   1.000  H
  H468     1.0000 0.79755  0.79160  0.60819  Biso   1.000  H
  C336     1.0000 0.82231  0.81890  0.41483  Biso   1.000  C
  C337     1.0000 0.81393  0.86369  0.46010  Biso   1.000  C
  C338     1.0000 0.87661  0.79592  0.42112  Biso   1.000  C
  H469     1.0000 0.79373  0.80432  0.38147  Biso   1.000  H
  O71      1.0000 0.76808  0.89090  0.46859  Biso   1.000  O
  C339     1.0000 0.85811  0.88480  0.50757  Biso   1.000  C
  N36      1.0000 0.91833  0.81637  0.46548  Biso   1.000  N
  H470     1.0000 0.88332  0.76450  0.39222  Biso   1.000  H
  B36      1.0000 0.78362  0.93939  0.51692  Biso   1.000  B
  O72      1.0000 0.84216  0.92799  0.54630  Biso   1.000  O
  C340     1.0000 0.90982  0.86019  0.51038  Biso   1.000  C
  B37      1.0000 0.97602  0.78779  0.47488  Biso   1.000  B
  N37      1.0000 0.78783  0.98569  0.45051  Biso   1.000  N
  C341     1.0000 0.74211  0.95509  0.58828  Biso   1.000  C
  H471     1.0000 0.93894  0.87391  0.54349  Biso   1.000  H
  O73      1.0000 0.98731  0.76205  0.39119  Biso   1.000  O
  C342     1.0000 0.97673  0.74759  0.54942  Biso   1.000  C
  O74      1.0000 0.02064  0.82854  0.48118  Biso   1.000  O
  C343     1.0000 0.75681  0.98538  0.38190  Biso   1.000  C
  C344     1.0000 0.81762  0.02850  0.47073  Biso   1.000  C
  H472     1.0000 0.75891  0.98441  0.61919  Biso   1.000  H
  H473     1.0000 0.73942  0.92531  0.62640  Biso   1.000  H
  C345     1.0000 0.68364  0.97068  0.56262  Biso   1.000  C
  C346     1.0000 0.02791  0.78849  0.35710  Biso   1.000  C
  H474     1.0000 0.97222  0.76742  0.60068  Biso   1.000  H
  C347     1.0000 0.93302  0.70521  0.54679  Biso   1.000  C
  H475     1.0000 0.01384  0.73079  0.55168  Biso   1.000  H
  C348     1.0000 0.04823  0.82932  0.41092  Biso   1.000  C
  H476     1.0000 0.73560  0.95521  0.36919  Biso   1.000  H
  C349     1.0000 0.75432  0.02838  0.32759  Biso   1.000  C
  C350     1.0000 0.81952  0.07111  0.42051  Biso   1.000  C
  H477     1.0000 0.83771  0.02908  0.52101  Biso   1.000  H
  H478     1.0000 0.66473  0.93981  0.53922  Biso   1.000  H
  H479     1.0000 0.68621  0.99701  0.51869  Biso   1.000  H
  C351     1.0000 0.64763  0.99250  0.62951  Biso   1.000  C
  C352     1.0000 0.05152  0.78212  0.28250  Biso   1.000  C
  H480     1.0000 0.89611  0.72100  0.55590  Biso   1.000  H
  H481     1.0000 0.93264  0.68939  0.49169  Biso   1.000  H
  C353     1.0000 0.94243  0.66229  0.61009  Biso   1.000  C
  C354     1.0000 0.08981  0.86061  0.38673  Biso   1.000  C
  C355     1.0000 0.78613  0.07080  0.34708  Biso   1.000  C
  H482     1.0000 0.73150  0.02768  0.27981  Biso   1.000  H
  O75      1.0000 0.84607  0.11625  0.42931  Biso   1.000  O
  H483     1.0000 0.64435  0.96621  0.67338  Biso   1.000  H
  H484     1.0000 0.66621  0.02348  0.65322  Biso   1.000  H
  C356     1.0000 0.58922  0.00781  0.60001  Biso   1.000  C
  C357     1.0000 0.09500  0.81641  0.26222  Biso   1.000  C
  H485     1.0000 0.03921  0.75579  0.24590  Biso   1.000  H
  H486     1.0000 0.90892  0.63989  0.61149  Biso   1.000  H
  H487     1.0000 0.94675  0.67862  0.66458  Biso   1.000  H
  C358     1.0000 0.99284  0.62819  0.59463  Biso   1.000  C
  N38      1.0000 0.11250  0.85428  0.31060  Biso   1.000  N
  H488     1.0000 0.10344  0.88701  0.42222  Biso   1.000  H
  O76      1.0000 0.79069  0.11575  0.30828  Biso   1.000  O
  B38      1.0000 0.83503  0.14720  0.35282  Biso   1.000  B
  H489     1.0000 0.57043  0.97741  0.57673  Biso   1.000  H
  H490     1.0000 0.56774  0.02092  0.64631  Biso   1.000  H
  H491     1.0000 0.59201  0.03499  0.55828  Biso   1.000  H
  H492     1.0000 0.11270  0.81209  0.21090  Biso   1.000  H
  H493     1.0000 0.99642  0.60241  0.63837  Biso   1.000  H
  H494     1.0000 0.98812  0.61030  0.54209  Biso   1.000  H
  H495     1.0000 0.02635  0.64981  0.59322  Biso   1.000  H
  B39      1.0000 0.16132  0.89261  0.28152  Biso   1.000  B
  N39      1.0000 0.88983  0.14320  0.29728  Biso   1.000  N
  C359     1.0000 0.81923  0.20610  0.37109  Biso   1.000  C
  O77      1.0000 0.14662  0.90498  0.19141  Biso   1.000  O
  O78      1.0000 0.15313  0.94425  0.32362  Biso   1.000  O
  C360     1.0000 0.22123  0.86928  0.29777  Biso   1.000  C
  C361     1.0000 0.94084  0.13118  0.33229  Biso   1.000  C
  C362     1.0000 0.88713  0.15249  0.21762  Biso   1.000  C
  H496     1.0000 0.78494  0.20680  0.40377  Biso   1.000  H
  H497     1.0000 0.81122  0.22379  0.31861  Biso   1.000  H
  C363     1.0000 0.86532  0.23670  0.41727  Biso   1.000  C
  C364     1.0000 0.12312  0.95229  0.19043  Biso   1.000  C
  C365     1.0000 0.12761  0.97551  0.26997  Biso   1.000  C
  H498     1.0000 0.24871  0.89032  0.26759  Biso   1.000  H
  H499     1.0000 0.22241  0.83340  0.27572  Biso   1.000  H
  C366     1.0000 0.23800  0.86788  0.38691  Biso   1.000  C
  C367     1.0000 0.98722  0.12621  0.28623  Biso   1.000  C
  H500     1.0000 0.94343  0.12628  0.38972  Biso   1.000  H
  H501     1.0000 0.85221  0.16201  0.19458  Biso   1.000  H
  C368     1.0000 0.93231  0.14911  0.16569  Biso   1.000  C
  H502     1.0000 0.89633  0.24300  0.37921  Biso   1.000  H
  H503     1.0000 0.87980  0.21450  0.46212  Biso   1.000  H
  C369     1.0000 0.84773  0.28950  0.45430  Biso   1.000  C
  C370     1.0000 0.10002  0.97819  0.12610  Biso   1.000  C
  C371     1.0000 0.10971  0.02551  0.27951  Biso   1.000  C
  H504     1.0000 0.21370  0.84250  0.41483  Biso   1.000  H
  H505     1.0000 0.23022  0.90249  0.41061  Biso   1.000  H
  C372     1.0000 0.29752  0.85400  0.40707  Biso   1.000  C
  C373     1.0000 0.98280  0.13550  0.19898  Biso   1.000  C
  O79      1.0000 0.03855  0.11477  0.30840  Biso   1.000  O
  H506     1.0000 0.92839  0.15610  0.10887  Biso   1.000  H
  H507     1.0000 0.82351  0.30809  0.41458  Biso   1.000  H
  H508     1.0000 0.88131  0.31100  0.46401  Biso   1.000  H
  C374     1.0000 0.81713  0.28289  0.53360  Biso   1.000  C
  H509     1.0000 0.09572  0.96279  0.07368  Biso   1.000  H
  C375     1.0000 0.08292  0.02978  0.14308  Biso   1.000  C
  N40      1.0000 0.08699  0.05226  0.21603  Biso   1.000  N
  H510     1.0000 0.11310  0.04180  0.33137  Biso   1.000  H
  H511     1.0000 0.30451  0.81781  0.38972  Biso   1.000  H
  H512     1.0000 0.32242  0.87691  0.37542  Biso   1.000  H
  C376     1.0000 0.31223  0.85921  0.49749  Biso   1.000  C
  O80      1.0000 0.03193  0.12912  0.16489  Biso   1.000  O
  B40      1.0000 0.07270  0.11240  0.23039  Biso   1.000  B
  H513     1.0000 0.84101  0.26470  0.57312  Biso   1.000  H
  H514     1.0000 0.80713  0.31711  0.55528  Biso   1.000  H
  H515     1.0000 0.78321  0.26248  0.52388  Biso   1.000  H
  H516     1.0000 0.06762  0.04969  0.09952  Biso   1.000  H
  H517     1.0000 0.28783  0.83659  0.52950  Biso   1.000  H
  H518     1.0000 0.35104  0.84879  0.50641  Biso   1.000  H
  H519     1.0000 0.30723  0.89530  0.51472  Biso   1.000  H
  C377     1.0000 0.12941  0.14428  0.23558  Biso   1.000  C
  H520     1.0000 0.14550  0.14611  0.18029  Biso   1.000  H
  H521     1.0000 0.15593  0.12500  0.27101  Biso   1.000  H
  C378     1.0000 0.12361  0.19918  0.26839  Biso   1.000  C
  H522     1.0000 0.09750  0.21858  0.23252  Biso   1.000  H
  H523     1.0000 0.10693  0.19740  0.32331  Biso   1.000  H
  C379     1.0000 0.17791  0.23002  0.27480  Biso   1.000  C
  H524     1.0000 0.19571  0.23021  0.22061  Biso   1.000  H
  H525     1.0000 0.16903  0.26641  0.28910  Biso   1.000  H
  C380     1.0000 0.21963  0.20890  0.33779  Biso   1.000  C
  H526     1.0000 0.23050  0.17348  0.32258  Biso   1.000  H
  H527     1.0000 0.25261  0.23130  0.33919  Biso   1.000  H
  H528     1.0000 0.20253  0.20840  0.39180  Biso   1.000  H
