data_image0
_cell_length_a       41.277
_cell_length_b       19.829
_cell_length_c       29.101
_cell_angle_alpha    90
_cell_angle_beta     119.4
_cell_angle_gamma    90

_symmetry_space_group_name_H-M    "P 1"
_symmetry_int_tables_number       1

loop_
  _symmetry_equiv_pos_as_xyz
  'x, y, z'

loop_
  _atom_site_label
  _atom_site_occupancy
  _atom_site_fract_x
  _atom_site_fract_y
  _atom_site_fract_z
  _atom_site_thermal_displace_type
  _atom_site_B_iso_or_equiv
  _atom_site_type_symbol
  N1       1.0000 0.35742  0.47350  0.47055  Biso   1.000  N
  C1       1.0000 0.34711  0.52428  0.43663  Biso   1.000  C
  C2       1.0000 0.36335  0.41838  0.44941  Biso   1.000  C
  N2       1.0000 0.34312  0.52453  0.38843  Biso   1.000  N
  O1       1.0000 0.34002  0.58011  0.45592  Biso   1.000  O
  N3       1.0000 0.36113  0.40935  0.40295  Biso   1.000  N
  Cl1      1.0000 0.37749  0.34722  0.49012  Biso   1.000  Cl
  C3       1.0000 0.35099  0.46619  0.37518  Biso   1.000  C
  C4       1.0000 0.33291  0.64229  0.42815  Biso   1.000  C
  O2       1.0000 0.34906  0.45822  0.32797  Biso   1.000  O
  C5       1.0000 0.30306  0.67931  0.42291  Biso   1.000  C
  C6       1.0000 0.35695  0.66620  0.41151  Biso   1.000  C
  C7       1.0000 0.33974  0.51258  0.29278  Biso   1.000  C
  C8       1.0000 0.29603  0.74280  0.39908  Biso   1.000  C
  H1       1.0000 0.28772  0.66221  0.43513  Biso   1.000  H
  H2       1.0000 0.37732  0.64078  0.41640  Biso   1.000  H
  C9       1.0000 0.34982  0.72959  0.38705  Biso   1.000  C
  C10      1.0000 0.31048  0.50391  0.24245  Biso   1.000  C
  C11      1.0000 0.36124  0.57002  0.30813  Biso   1.000  C
  C12      1.0000 0.26604  0.79222  0.39222  Biso   1.000  C
  C13      1.0000 0.31925  0.76701  0.38070  Biso   1.000  C
  H3       1.0000 0.36533  0.74658  0.37510  Biso   1.000  H
  H4       1.0000 0.29621  0.46482  0.23342  Biso   1.000  H
  C14      1.0000 0.30264  0.55399  0.20565  Biso   1.000  C
  C15      1.0000 0.35306  0.62121  0.27050  Biso   1.000  C
  H5       1.0000 0.38072  0.57492  0.34252  Biso   1.000  H
  C16      1.0000 0.24462  0.80720  0.33258  Biso   1.000  C
  H6       1.0000 0.25003  0.77518  0.40583  Biso   1.000  H
  C17      1.0000 0.28587  0.85642  0.41853  Biso   1.000  C
  C18      1.0000 0.30854  0.83731  0.35684  Biso   1.000  C
  C19      1.0000 0.27339  0.55232  0.14830  Biso   1.000  C
  C20      1.0000 0.32423  0.61309  0.21981  Biso   1.000  C
  H7       1.0000 0.36711  0.66050  0.27981  Biso   1.000  H
  C21      1.0000 0.20706  0.79908  0.29965  Biso   1.000  C
  C22      1.0000 0.26790  0.83111  0.31452  Biso   1.000  C
  C23      1.0000 0.28320  0.88638  0.45813  Biso   1.000  C
  C24      1.0000 0.30903  0.88058  0.39983  Biso   1.000  C
  H8       1.0000 0.32452  0.85441  0.34343  Biso   1.000  H
  H9       1.0000 0.25841  0.51112  0.13892  Biso   1.000  H
  C25      1.0000 0.24994  0.61582  0.13726  Biso   1.000  C
  C26      1.0000 0.29422  0.55969  0.11797  Biso   1.000  C
  C27      1.0000 0.31242  0.66100  0.17304  Biso   1.000  C
  C28      1.0000 0.19249  0.81431  0.24656  Biso   1.000  C
  H10      1.0000 0.19183  0.78380  0.31262  Biso   1.000  H
  C29      1.0000 0.25248  0.84578  0.26115  Biso   1.000  C
  H11      1.0000 0.26834  0.86782  0.47063  Biso   1.000  H
  C30      1.0000 0.30212  0.94301  0.47911  Biso   1.000  C
  C31      1.0000 0.33021  0.93762  0.42160  Biso   1.000  C
  C32      1.0000 0.21161  0.62010  0.11715  Biso   1.000  C
  C33      1.0000 0.27057  0.67452  0.14961  Biso   1.000  C
  C34      1.0000 0.31533  0.61919  0.13130  Biso   1.000  C
  C35      1.0000 0.29560  0.51500  0.08283  Biso   1.000  C
  H12      1.0000 0.32731  0.70241  0.18230  Biso   1.000  H
  O3       1.0000 0.15368  0.81033  0.21500  Biso   1.000  O
  C36      1.0000 0.21443  0.83802  0.22672  Biso   1.000  C
  H13      1.0000 0.26773  0.86111  0.24821  Biso   1.000  H
  H14      1.0000 0.29903  0.96490  0.50491  Biso   1.000  H
  C37      1.0000 0.32642  0.97060  0.46373  Biso   1.000  C
  H15      1.0000 0.34612  0.95431  0.41013  Biso   1.000  H
  H16      1.0000 0.19712  0.58142  0.10902  Biso   1.000  H
  C38      1.0000 0.19577  0.68309  0.10961  Biso   1.000  C
  C39      1.0000 0.25376  0.73720  0.14156  Biso   1.000  C
  C40      1.0000 0.33678  0.63321  0.10851  Biso   1.000  C
  C41      1.0000 0.31739  0.52988  0.06011  Biso   1.000  C
  H17      1.0000 0.28199  0.47521  0.07439  Biso   1.000  H
  C42      1.0000 0.13752  0.78042  0.16803  Biso   1.000  C
  H18      1.0000 0.20411  0.84861  0.19110  Biso   1.000  H
  H19      1.0000 0.34003  0.00918  0.48002  Biso   1.000  H
  O4       1.0000 0.15588  0.68339  0.08437  Biso   1.000  O
  C43      1.0000 0.21593  0.74149  0.12081  Biso   1.000  C
  H20      1.0000 0.26811  0.77619  0.15020  Biso   1.000  H
  H21      1.0000 0.35081  0.67260  0.11671  Biso   1.000  H
  C44      1.0000 0.33715  0.58611  0.07222  Biso   1.000  C
  H22      1.0000 0.31821  0.49992  0.03609  Biso   1.000  H
  N4       1.0000 0.15843  0.74608  0.15327  Biso   1.000  N
  N5       1.0000 0.10101  0.78829  0.14199  Biso   1.000  N
  C45      1.0000 0.13864  0.71991  0.10602  Biso   1.000  C
  H23      1.0000 0.20420  0.78320  0.11450  Biso   1.000  H
  H24      1.0000 0.35159  0.59489  0.05640  Biso   1.000  H
  C46      1.0000 0.08635  0.75818  0.09620  Biso   1.000  C
  N6       1.0000 0.10214  0.72238  0.07399  Biso   1.000  N
  Cl2      1.0000 0.03787  0.76529  0.05699  Biso   1.000  Cl
  C47      1.0000 0.31741  0.47012  0.56013  Biso   1.000  C
  C48      1.0000 0.33718  0.41389  0.57224  Biso   1.000  C
  H25      1.0000 0.31823  0.50008  0.53611  Biso   1.000  H
  C49      1.0000 0.29562  0.48500  0.58285  Biso   1.000  C
  C50      1.0000 0.33680  0.36679  0.60852  Biso   1.000  C
  H26      1.0000 0.35162  0.40511  0.55642  Biso   1.000  H
  C51      1.0000 0.29424  0.44031  0.61799  Biso   1.000  C
  H27      1.0000 0.28202  0.52479  0.57440  Biso   1.000  H
  C52      1.0000 0.31536  0.38081  0.63132  Biso   1.000  C
  H28      1.0000 0.35084  0.32740  0.61673  Biso   1.000  H
  C53      1.0000 0.27342  0.44768  0.64832  Biso   1.000  C
  C54      1.0000 0.31245  0.33900  0.67305  Biso   1.000  C
  C55      1.0000 0.24997  0.38418  0.63728  Biso   1.000  C
  C56      1.0000 0.30266  0.44601  0.70567  Biso   1.000  C
  H29      1.0000 0.25844  0.48888  0.63893  Biso   1.000  H
  C57      1.0000 0.27060  0.32548  0.64962  Biso   1.000  C
  H30      1.0000 0.32734  0.29759  0.68232  Biso   1.000  H
  C58      1.0000 0.32426  0.38691  0.71983  Biso   1.000  C
  C59      1.0000 0.21163  0.37990  0.61716  Biso   1.000  C
  C60      1.0000 0.31051  0.49609  0.74247  Biso   1.000  C
  C61      1.0000 0.25378  0.26280  0.64158  Biso   1.000  C
  C62      1.0000 0.35309  0.37879  0.77051  Biso   1.000  C
  H31      1.0000 0.19715  0.41858  0.60904  Biso   1.000  H
  C63      1.0000 0.19580  0.31691  0.60963  Biso   1.000  C
  C64      1.0000 0.33977  0.48742  0.79280  Biso   1.000  C
  H32      1.0000 0.29624  0.53518  0.73344  Biso   1.000  H
  C65      1.0000 0.21596  0.25851  0.62083  Biso   1.000  C
  H33      1.0000 0.26814  0.22381  0.65021  Biso   1.000  H
  H34      1.0000 0.36714  0.33950  0.77982  Biso   1.000  H
  C66      1.0000 0.36127  0.42998  0.80814  Biso   1.000  C
  O5       1.0000 0.15591  0.31661  0.58438  Biso   1.000  O
  O6       1.0000 0.34910  0.54178  0.82802  Biso   1.000  O
  H35      1.0000 0.20423  0.21680  0.61452  Biso   1.000  H
  H36      1.0000 0.38075  0.42508  0.84254  Biso   1.000  H
  C67      1.0000 0.13867  0.28009  0.60604  Biso   1.000  C
  C68      1.0000 0.35102  0.53381  0.87520  Biso   1.000  C
  N7       1.0000 0.15846  0.25392  0.65329  Biso   1.000  N
  N8       1.0000 0.10217  0.27762  0.57401  Biso   1.000  N
  N9       1.0000 0.34315  0.47547  0.88845  Biso   1.000  N
  N10      1.0000 0.36117  0.59065  0.90300  Biso   1.000  N
  C69      1.0000 0.13755  0.21958  0.66804  Biso   1.000  C
  C70      1.0000 0.08638  0.24182  0.59622  Biso   1.000  C
  C71      1.0000 0.34714  0.47572  0.93665  Biso   1.000  C
  C72      1.0000 0.36338  0.58162  0.94943  Biso   1.000  C
  N11      1.0000 0.10104  0.21171  0.64201  Biso   1.000  N
  O7       1.0000 0.15371  0.18967  0.71502  Biso   1.000  O
  Cl3      1.0000 0.03790  0.23471  0.55701  Biso   1.000  Cl
  N12      1.0000 0.35745  0.52650  0.97057  Biso   1.000  N
  O8       1.0000 0.34005  0.41989  0.95593  Biso   1.000  O
  Cl4      1.0000 0.37752  0.65278  0.99013  Biso   1.000  Cl
  C73      1.0000 0.19251  0.18569  0.74657  Biso   1.000  C
  C74      1.0000 0.33294  0.35771  0.92817  Biso   1.000  C
  C75      1.0000 0.20708  0.20092  0.79966  Biso   1.000  C
  C76      1.0000 0.21445  0.16198  0.72673  Biso   1.000  C
  C77      1.0000 0.30309  0.32069  0.92292  Biso   1.000  C
  C78      1.0000 0.35697  0.33380  0.91152  Biso   1.000  C
  H37      1.0000 0.19185  0.21620  0.81264  Biso   1.000  H
  C79      1.0000 0.24465  0.19280  0.83260  Biso   1.000  C
  C80      1.0000 0.25251  0.15422  0.76117  Biso   1.000  C
  H38      1.0000 0.20414  0.15139  0.69112  Biso   1.000  H
  C81      1.0000 0.29606  0.25720  0.89910  Biso   1.000  C
  H39      1.0000 0.28775  0.33779  0.93515  Biso   1.000  H
  H40      1.0000 0.37736  0.35922  0.91645  Biso   1.000  H
  C82      1.0000 0.34984  0.27041  0.88707  Biso   1.000  C
  C83      1.0000 0.26606  0.20778  0.89223  Biso   1.000  C
  C84      1.0000 0.26793  0.16889  0.81453  Biso   1.000  C
  H41      1.0000 0.26775  0.13889  0.74823  Biso   1.000  H
  C85      1.0000 0.31928  0.23299  0.88072  Biso   1.000  C
  H42      1.0000 0.36535  0.25342  0.87512  Biso   1.000  H
  H43      1.0000 0.25006  0.22482  0.90584  Biso   1.000  H
  C86      1.0000 0.28590  0.14358  0.91854  Biso   1.000  C
  C87      1.0000 0.30857  0.16269  0.85685  Biso   1.000  C
  C88      1.0000 0.28323  0.11362  0.95814  Biso   1.000  C
  C89      1.0000 0.30906  0.11942  0.89985  Biso   1.000  C
  H44      1.0000 0.32455  0.14559  0.84344  Biso   1.000  H
  H45      1.0000 0.26837  0.13218  0.97065  Biso   1.000  H
  C90      1.0000 0.30214  0.05699  0.97913  Biso   1.000  C
  C91      1.0000 0.33023  0.06238  0.92162  Biso   1.000  C
  C92      1.0000 0.32645  0.02940  0.96374  Biso   1.000  C
  H46      1.0000 0.29899  0.03510  0.00488  Biso   1.000  H
  H47      1.0000 0.34615  0.04569  0.91014  Biso   1.000  H
  H48      1.0000 0.34006  0.99082  0.98003  Biso   1.000  H
  C93      1.0000 0.42808  0.50991  0.60549  Biso   1.000  C
  C94      1.0000 0.43421  0.57421  0.59645  Biso   1.000  C
  H49      1.0000 0.40475  0.49690  0.59953  Biso   1.000  H
  C95      1.0000 0.45687  0.46331  0.62371  Biso   1.000  C
  O9       1.0000 0.40572  0.62237  0.57358  Biso   1.000  O
  C96      1.0000 0.46827  0.59509  0.60324  Biso   1.000  C
  H50      1.0000 0.45293  0.41918  0.63073  Biso   1.000  H
  C97      1.0000 0.49164  0.48298  0.63144  Biso   1.000  C
  C98      1.0000 0.38169  0.63402  0.59066  Biso   1.000  C
  C99      1.0000 0.49720  0.54889  0.62103  Biso   1.000  C
  H51      1.0000 0.47173  0.63942  0.59602  Biso   1.000  H
  C100     1.0000 0.52613  0.43880  0.65017  Biso   1.000  C
  N13      1.0000 0.38602  0.60538  0.63459  Biso   1.000  N
  N14      1.0000 0.35462  0.67568  0.55906  Biso   1.000  N
  C101     1.0000 0.53630  0.56130  0.62880  Biso   1.000  C
  H52      1.0000 0.52244  0.39210  0.65763  Biso   1.000  H
  C102     1.0000 0.55672  0.47622  0.69802  Biso   1.000  C
  C103     1.0000 0.53631  0.44571  0.60627  Biso   1.000  C
  C104     1.0000 0.35929  0.62091  0.64584  Biso   1.000  C
  C105     1.0000 0.33089  0.68531  0.57665  Biso   1.000  C
  C106     1.0000 0.56236  0.54098  0.68658  Biso   1.000  C
  H53      1.0000 0.54013  0.60770  0.62103  Biso   1.000  H
  C107     1.0000 0.54132  0.50991  0.59480  Biso   1.000  C
  C108     1.0000 0.57789  0.45191  0.74854  Biso   1.000  C
  C109     1.0000 0.53851  0.38988  0.57681  Biso   1.000  C
  N15      1.0000 0.33075  0.66110  0.61874  Biso   1.000  N
  O10      1.0000 0.35967  0.59700  0.68867  Biso   1.000  O
  Cl5      1.0000 0.29486  0.74114  0.53816  Biso   1.000  Cl
  C110     1.0000 0.58977  0.58208  0.72464  Biso   1.000  C
  C111     1.0000 0.55025  0.52322  0.55599  Biso   1.000  C
  H54      1.0000 0.57404  0.40839  0.75675  Biso   1.000  H
  C112     1.0000 0.60545  0.49291  0.78779  Biso   1.000  C
  C113     1.0000 0.54702  0.40279  0.53733  Biso   1.000  C
  H55      1.0000 0.53433  0.34611  0.58411  Biso   1.000  H
  C114     1.0000 0.38947  0.55651  0.72535  Biso   1.000  C
  C115     1.0000 0.61062  0.55651  0.77473  Biso   1.000  C
  H56      1.0000 0.59384  0.62540  0.71644  Biso   1.000  H
  H57      1.0000 0.55475  0.56710  0.54924  Biso   1.000  H
  C116     1.0000 0.55243  0.46851  0.52664  Biso   1.000  C
  H58      1.0000 0.61984  0.47678  0.82203  Biso   1.000  H
  H59      1.0000 0.54914  0.36739  0.51792  Biso   1.000  H
  C117     1.0000 0.41032  0.58208  0.77544  Biso   1.000  C
  C118     1.0000 0.39464  0.49291  0.71230  Biso   1.000  C
  O11      1.0000 0.64041  0.59700  0.81138  Biso   1.000  O
  H60      1.0000 0.55764  0.47678  0.49942  Biso   1.000  H
  H61      1.0000 0.40626  0.62540  0.78365  Biso   1.000  H
  C119     1.0000 0.43774  0.54098  0.81351  Biso   1.000  C
  C120     1.0000 0.42219  0.45191  0.75150  Biso   1.000  C
  H62      1.0000 0.38024  0.47678  0.67802  Biso   1.000  H
  C121     1.0000 0.64081  0.62091  0.85425  Biso   1.000  C
  C122     1.0000 0.46378  0.56130  0.87125  Biso   1.000  C
  C123     1.0000 0.44336  0.47622  0.80203  Biso   1.000  C
  H63      1.0000 0.42605  0.40839  0.74334  Biso   1.000  H
  N16      1.0000 0.61408  0.60538  0.86549  Biso   1.000  N
  N17      1.0000 0.66934  0.66110  0.88131  Biso   1.000  N
  H64      1.0000 0.45995  0.60770  0.87902  Biso   1.000  H
  C124     1.0000 0.50290  0.54889  0.87906  Biso   1.000  C
  C125     1.0000 0.45876  0.50991  0.90525  Biso   1.000  C
  C126     1.0000 0.47395  0.43880  0.84987  Biso   1.000  C
  C127     1.0000 0.61841  0.63402  0.90943  Biso   1.000  C
  C128     1.0000 0.66920  0.68531  0.92339  Biso   1.000  C
  C129     1.0000 0.53183  0.59509  0.89685  Biso   1.000  C
  C130     1.0000 0.50844  0.48298  0.86861  Biso   1.000  C
  C131     1.0000 0.44983  0.52322  0.94406  Biso   1.000  C
  C132     1.0000 0.46376  0.44571  0.89381  Biso   1.000  C
  H65      1.0000 0.47764  0.39210  0.84242  Biso   1.000  H
  N18      1.0000 0.64548  0.67568  0.94103  Biso   1.000  N
  O12      1.0000 0.59437  0.62237  0.92651  Biso   1.000  O
  Cl6      1.0000 0.70522  0.74114  0.96189  Biso   1.000  Cl
  H66      1.0000 0.52835  0.63942  0.90403  Biso   1.000  H
  C133     1.0000 0.56587  0.57421  0.90359  Biso   1.000  C
  C134     1.0000 0.54323  0.46331  0.87638  Biso   1.000  C
  H67      1.0000 0.44535  0.56710  0.95085  Biso   1.000  H
  C135     1.0000 0.44767  0.46851  0.97345  Biso   1.000  C
  C136     1.0000 0.46157  0.38988  0.92324  Biso   1.000  C
  C137     1.0000 0.57200  0.50991  0.89456  Biso   1.000  C
  H68      1.0000 0.54715  0.41918  0.86932  Biso   1.000  H
  C138     1.0000 0.45307  0.40279  0.96272  Biso   1.000  C
  H69      1.0000 0.44238  0.47678  0.00058  Biso   1.000  H
  H70      1.0000 0.46575  0.34611  0.91594  Biso   1.000  H
  H71      1.0000 0.59533  0.49690  0.90052  Biso   1.000  H
  H72      1.0000 0.45094  0.36739  0.98212  Biso   1.000  H
  C139     1.0000 0.44764  0.53149  0.47343  Biso   1.000  C
  C140     1.0000 0.44980  0.47678  0.44405  Biso   1.000  C
  H73      1.0000 0.44242  0.52322  0.50061  Biso   1.000  H
  C141     1.0000 0.45304  0.59721  0.46270  Biso   1.000  C
  C142     1.0000 0.45873  0.49009  0.40523  Biso   1.000  C
  H74      1.0000 0.44532  0.43290  0.45083  Biso   1.000  H
  C143     1.0000 0.46154  0.61012  0.42322  Biso   1.000  C
  H75      1.0000 0.45091  0.63261  0.48211  Biso   1.000  H
  C144     1.0000 0.46375  0.43870  0.37124  Biso   1.000  C
  C145     1.0000 0.46372  0.55429  0.39376  Biso   1.000  C
  H76      1.0000 0.46573  0.65389  0.41592  Biso   1.000  H
  C146     1.0000 0.43771  0.45902  0.31349  Biso   1.000  C
  H77      1.0000 0.45993  0.39230  0.37901  Biso   1.000  H
  C147     1.0000 0.50286  0.45111  0.37901  Biso   1.000  C
  C148     1.0000 0.47392  0.56120  0.34986  Biso   1.000  C
  C149     1.0000 0.41029  0.41792  0.27543  Biso   1.000  C
  C150     1.0000 0.44333  0.52378  0.30201  Biso   1.000  C
  C151     1.0000 0.53180  0.40491  0.39683  Biso   1.000  C
  C152     1.0000 0.50841  0.51702  0.36859  Biso   1.000  C
  H78      1.0000 0.47761  0.60790  0.34240  Biso   1.000  H
  C153     1.0000 0.38944  0.44349  0.22534  Biso   1.000  C
  H79      1.0000 0.40622  0.37460  0.28359  Biso   1.000  H
  C154     1.0000 0.42216  0.54809  0.25149  Biso   1.000  C
  C155     1.0000 0.56585  0.42579  0.40358  Biso   1.000  C
  H80      1.0000 0.52832  0.36058  0.40401  Biso   1.000  H
  C156     1.0000 0.54320  0.53669  0.37636  Biso   1.000  C
  O13      1.0000 0.35965  0.40300  0.18865  Biso   1.000  O
  C157     1.0000 0.39460  0.50709  0.21224  Biso   1.000  C
  H81      1.0000 0.42603  0.59161  0.24332  Biso   1.000  H
  O14      1.0000 0.59435  0.37763  0.42649  Biso   1.000  O
  C158     1.0000 0.57197  0.49009  0.39455  Biso   1.000  C
  H82      1.0000 0.54713  0.58082  0.36930  Biso   1.000  H
  C159     1.0000 0.35926  0.37909  0.14582  Biso   1.000  C
  H83      1.0000 0.38021  0.52322  0.17801  Biso   1.000  H
  C160     1.0000 0.61837  0.36598  0.40938  Biso   1.000  C
  H84      1.0000 0.59531  0.50310  0.40050  Biso   1.000  H
  N19      1.0000 0.38598  0.39462  0.13454  Biso   1.000  N
  N20      1.0000 0.33072  0.33890  0.11872  Biso   1.000  N
  N21      1.0000 0.61405  0.39462  0.36548  Biso   1.000  N
  N22      1.0000 0.64543  0.32432  0.44097  Biso   1.000  N
  C161     1.0000 0.38166  0.36598  0.09064  Biso   1.000  C
  C162     1.0000 0.33086  0.31469  0.07664  Biso   1.000  C
  C163     1.0000 0.64077  0.37909  0.35420  Biso   1.000  C
  C164     1.0000 0.66917  0.31469  0.42338  Biso   1.000  C
  N23      1.0000 0.35459  0.32432  0.05905  Biso   1.000  N
  O15      1.0000 0.40570  0.37763  0.07356  Biso   1.000  O
  Cl7      1.0000 0.29483  0.25886  0.03814  Biso   1.000  Cl
  O16      1.0000 0.64038  0.40300  0.31136  Biso   1.000  O
  N24      1.0000 0.66931  0.33890  0.38129  Biso   1.000  N
  Cl8      1.0000 0.70519  0.25886  0.46187  Biso   1.000  Cl
  C165     1.0000 0.43418  0.42579  0.09644  Biso   1.000  C
  C166     1.0000 0.61060  0.44349  0.27472  Biso   1.000  C
  C167     1.0000 0.46824  0.40491  0.10322  Biso   1.000  C
  C168     1.0000 0.42805  0.49009  0.10547  Biso   1.000  C
  C169     1.0000 0.58975  0.41792  0.22463  Biso   1.000  C
  C170     1.0000 0.60542  0.50709  0.28777  Biso   1.000  C
  C171     1.0000 0.49717  0.45111  0.12101  Biso   1.000  C
  H85      1.0000 0.47170  0.36058  0.09600  Biso   1.000  H
  H86      1.0000 0.40472  0.50310  0.09951  Biso   1.000  H
  C172     1.0000 0.45684  0.53669  0.12369  Biso   1.000  C
  C173     1.0000 0.56233  0.45902  0.18656  Biso   1.000  C
  H87      1.0000 0.59381  0.37460  0.21642  Biso   1.000  H
  C174     1.0000 0.57786  0.54809  0.24853  Biso   1.000  C
  H88      1.0000 0.61982  0.52322  0.32201  Biso   1.000  H
  C175     1.0000 0.53627  0.43870  0.12878  Biso   1.000  C
  C176     1.0000 0.49162  0.51702  0.13142  Biso   1.000  C
  H89      1.0000 0.45290  0.58082  0.13071  Biso   1.000  H
  C177     1.0000 0.55669  0.52378  0.19800  Biso   1.000  C
  H90      1.0000 0.57400  0.59161  0.25669  Biso   1.000  H
  H91      1.0000 0.54010  0.39230  0.12101  Biso   1.000  H
  C178     1.0000 0.54129  0.49009  0.09478  Biso   1.000  C
  C179     1.0000 0.52611  0.56120  0.15016  Biso   1.000  C
  C180     1.0000 0.55022  0.47678  0.05597  Biso   1.000  C
  C181     1.0000 0.53628  0.55429  0.10626  Biso   1.000  C
  H92      1.0000 0.52241  0.60790  0.15761  Biso   1.000  H
  H93      1.0000 0.55471  0.43290  0.04919  Biso   1.000  H
  C182     1.0000 0.55238  0.53149  0.02658  Biso   1.000  C
  C183     1.0000 0.53849  0.61012  0.07680  Biso   1.000  C
  C184     1.0000 0.54699  0.59721  0.03731  Biso   1.000  C
  H94      1.0000 0.55767  0.52322  0.99945  Biso   1.000  H
  H95      1.0000 0.53430  0.65389  0.08409  Biso   1.000  H
  H96      1.0000 0.54911  0.63261  0.01791  Biso   1.000  H
  C185     1.0000 0.28410  0.24151  0.37924  Biso   1.000  C
  C186     1.0000 0.30426  0.18312  0.39044  Biso   1.000  C
  H97      1.0000 0.29582  0.28322  0.38551  Biso   1.000  H
  C187     1.0000 0.24626  0.23718  0.35846  Biso   1.000  C
  O17      1.0000 0.34413  0.18342  0.41565  Biso   1.000  O
  C188     1.0000 0.28843  0.12008  0.38287  Biso   1.000  C
  C189     1.0000 0.22947  0.17449  0.35041  Biso   1.000  C
  H98      1.0000 0.23193  0.27621  0.34982  Biso   1.000  H
  C190     1.0000 0.36139  0.21988  0.39403  Biso   1.000  C
  C191     1.0000 0.25007  0.11579  0.36276  Biso   1.000  C
  H99      1.0000 0.30292  0.08140  0.39100  Biso   1.000  H
  C192     1.0000 0.18761  0.16098  0.32698  Biso   1.000  C
  N25      1.0000 0.34158  0.24605  0.34674  Biso   1.000  N
  N26      1.0000 0.39790  0.22240  0.42602  Biso   1.000  N
  C193     1.0000 0.22665  0.05230  0.35171  Biso   1.000  C
  C194     1.0000 0.17581  0.11312  0.28020  Biso   1.000  C
  C195     1.0000 0.18471  0.11922  0.36871  Biso   1.000  C
  H100     1.0000 0.17273  0.20238  0.31771  Biso   1.000  H
  C196     1.0000 0.36253  0.28040  0.33203  Biso   1.000  C
  C197     1.0000 0.41369  0.25821  0.40382  Biso   1.000  C
  C198     1.0000 0.19738  0.05401  0.29436  Biso   1.000  C
  H101     1.0000 0.24163  0.01109  0.36110  Biso   1.000  H
  C199     1.0000 0.20581  0.05971  0.38208  Biso   1.000  C
  C200     1.0000 0.14699  0.12119  0.22956  Biso   1.000  C
  C201     1.0000 0.16324  0.13319  0.39151  Biso   1.000  C
  O18      1.0000 0.34633  0.31030  0.28501  Biso   1.000  O
  N27      1.0000 0.39900  0.28832  0.35802  Biso   1.000  N
  Cl9      1.0000 0.46214  0.26527  0.44302  Biso   1.000  Cl
  C202     1.0000 0.18956  0.00393  0.25756  Biso   1.000  C
  C203     1.0000 0.20443  0.01498  0.41723  Biso   1.000  C
  C204     1.0000 0.13878  0.07000  0.19189  Biso   1.000  C
  H102     1.0000 0.13290  0.16052  0.22021  Biso   1.000  H
  H103     1.0000 0.14921  0.17258  0.38330  Biso   1.000  H
  C205     1.0000 0.16290  0.08609  0.42784  Biso   1.000  C
  C206     1.0000 0.30755  0.31429  0.25346  Biso   1.000  C
  C207     1.0000 0.16027  0.01261  0.20723  Biso   1.000  C
  H104     1.0000 0.20381  0.96480  0.26659  Biso   1.000  H
  C208     1.0000 0.18263  0.02991  0.43991  Biso   1.000  C
  H105     1.0000 0.21802  0.97519  0.42563  Biso   1.000  H
  H106     1.0000 0.11931  0.07489  0.15749  Biso   1.000  H
  H107     1.0000 0.14842  0.09491  0.44361  Biso   1.000  H
  C209     1.0000 0.28560  0.33799  0.27334  Biso   1.000  C
  C210     1.0000 0.29298  0.29911  0.20037  Biso   1.000  C
  O19      1.0000 0.15095  0.95819  0.17205  Biso   1.000  O
  H108     1.0000 0.18183  0.99990  0.46393  Biso   1.000  H
  C211     1.0000 0.24756  0.34581  0.23887  Biso   1.000  C
  H109     1.0000 0.29593  0.34858  0.30892  Biso   1.000  H
  C212     1.0000 0.25539  0.30718  0.16743  Biso   1.000  C
  H110     1.0000 0.30821  0.28378  0.18739  Biso   1.000  H
  C213     1.0000 0.14905  0.96621  0.12484  Biso   1.000  C
  C214     1.0000 0.23211  0.33108  0.18550  Biso   1.000  C
  H111     1.0000 0.23231  0.36109  0.25180  Biso   1.000  H
  C215     1.0000 0.23400  0.29220  0.10780  Biso   1.000  C
  N28      1.0000 0.15692  0.02451  0.11158  Biso   1.000  N
  N29      1.0000 0.13888  0.90938  0.09707  Biso   1.000  N
  C216     1.0000 0.19150  0.33728  0.14318  Biso   1.000  C
  H112     1.0000 0.25001  0.27520  0.09419  Biso   1.000  H
  C217     1.0000 0.20399  0.24278  0.10093  Biso   1.000  C
  C218     1.0000 0.21414  0.35640  0.08149  Biso   1.000  C
  C219     1.0000 0.15293  0.02431  0.06338  Biso   1.000  C
  C220     1.0000 0.13666  0.91840  0.05061  Biso   1.000  C
  C221     1.0000 0.18079  0.26698  0.11931  Biso   1.000  C
  H113     1.0000 0.17550  0.35438  0.15659  Biso   1.000  H
  C222     1.0000 0.19101  0.38060  0.10018  Biso   1.000  C
  C223     1.0000 0.19698  0.17928  0.07711  Biso   1.000  C
  C224     1.0000 0.21684  0.38640  0.04189  Biso   1.000  C
  O20      1.0000 0.15999  0.08014  0.04410  Biso   1.000  O
  N30      1.0000 0.14260  0.97352  0.02946  Biso   1.000  N
  Cl10     1.0000 0.12255  0.84724  0.00990  Biso   1.000  Cl
  C225     1.0000 0.15022  0.22961  0.11296  Biso   1.000  C
  C226     1.0000 0.16981  0.43759  0.07841  Biso   1.000  C
  H114     1.0000 0.21230  0.16219  0.06488  Biso   1.000  H
  C227     1.0000 0.16711  0.14232  0.07186  Biso   1.000  C
  H115     1.0000 0.23170  0.36779  0.02938  Biso   1.000  H
  C228     1.0000 0.19790  0.44299  0.02090  Biso   1.000  C
  C229     1.0000 0.14307  0.16622  0.08851  Biso   1.000  C
  H116     1.0000 0.13471  0.24661  0.12492  Biso   1.000  H
  C230     1.0000 0.17359  0.47062  0.03629  Biso   1.000  C
  H117     1.0000 0.15389  0.45428  0.08989  Biso   1.000  H
  H118     1.0000 0.20107  0.46493  0.99515  Biso   1.000  H
  H119     1.0000 0.12272  0.14080  0.08362  Biso   1.000  H
  H120     1.0000 0.16001  0.50920  0.02000  Biso   1.000  H
  C231     1.0000 0.21686  0.61360  0.54190  Biso   1.000  C
  C232     1.0000 0.19793  0.55701  0.52092  Biso   1.000  C
  C233     1.0000 0.21417  0.64360  0.58150  Biso   1.000  C
  H121     1.0000 0.23174  0.63221  0.52944  Biso   1.000  H
  H122     1.0000 0.20104  0.53507  0.49513  Biso   1.000  H
  C234     1.0000 0.17362  0.52938  0.53630  Biso   1.000  C
  C235     1.0000 0.23403  0.70780  0.60781  Biso   1.000  C
  C236     1.0000 0.19105  0.61940  0.60024  Biso   1.000  C
  H123     1.0000 0.16004  0.49080  0.52001  Biso   1.000  H
  C237     1.0000 0.16984  0.56241  0.57843  Biso   1.000  C
  C238     1.0000 0.25542  0.69282  0.66745  Biso   1.000  C
  H124     1.0000 0.25003  0.72480  0.59421  Biso   1.000  H
  C239     1.0000 0.20401  0.75722  0.60095  Biso   1.000  C
  C240     1.0000 0.19154  0.66272  0.64323  Biso   1.000  C
  H125     1.0000 0.15392  0.54572  0.58991  Biso   1.000  H
  C241     1.0000 0.29301  0.70089  0.70039  Biso   1.000  C
  C242     1.0000 0.23216  0.66892  0.68555  Biso   1.000  C
  C243     1.0000 0.19700  0.82072  0.57713  Biso   1.000  C
  C244     1.0000 0.18082  0.73302  0.61933  Biso   1.000  C
  H126     1.0000 0.17554  0.64562  0.65664  Biso   1.000  H
  C245     1.0000 0.30758  0.68571  0.75348  Biso   1.000  C
  H127     1.0000 0.30824  0.71622  0.68741  Biso   1.000  H
  C246     1.0000 0.24758  0.65419  0.73888  Biso   1.000  C
  H128     1.0000 0.21234  0.83781  0.56494  Biso   1.000  H
  C247     1.0000 0.16713  0.85768  0.57188  Biso   1.000  C
  C248     1.0000 0.15025  0.77039  0.61298  Biso   1.000  C
  O21      1.0000 0.34636  0.68970  0.78503  Biso   1.000  O
  C249     1.0000 0.28563  0.66201  0.77335  Biso   1.000  C
  H129     1.0000 0.23234  0.63891  0.75182  Biso   1.000  H
  O22      1.0000 0.16002  0.91986  0.54411  Biso   1.000  O
  C250     1.0000 0.14310  0.83378  0.58853  Biso   1.000  C
  H130     1.0000 0.13474  0.75339  0.62493  Biso   1.000  H
  C251     1.0000 0.36256  0.71960  0.83205  Biso   1.000  C
  H131     1.0000 0.29596  0.65142  0.80893  Biso   1.000  H
  C252     1.0000 0.15296  0.97569  0.56340  Biso   1.000  C
  H132     1.0000 0.12275  0.85920  0.58363  Biso   1.000  H
  N31      1.0000 0.34161  0.75395  0.84676  Biso   1.000  N
  N32      1.0000 0.39903  0.71168  0.85804  Biso   1.000  N
  N33      1.0000 0.15694  0.97549  0.61160  Biso   1.000  N
  N34      1.0000 0.14262  0.02648  0.52948  Biso   1.000  N
  C253     1.0000 0.36142  0.78012  0.89405  Biso   1.000  C
  C254     1.0000 0.41372  0.74179  0.90383  Biso   1.000  C
  C255     1.0000 0.14909  0.03379  0.62489  Biso   1.000  C
  C256     1.0000 0.13669  0.08160  0.55062  Biso   1.000  C
  N35      1.0000 0.39793  0.77760  0.92604  Biso   1.000  N
  O23      1.0000 0.34416  0.81658  0.91566  Biso   1.000  O
  Cl11     1.0000 0.46217  0.73473  0.94304  Biso   1.000  Cl
  N36      1.0000 0.13891  0.09062  0.59708  Biso   1.000  N
  O24      1.0000 0.15098  0.04181  0.67207  Biso   1.000  O
  Cl12     1.0000 0.12258  0.15276  0.50992  Biso   1.000  Cl
  C257     1.0000 0.30428  0.81688  0.89046  Biso   1.000  C
  C258     1.0000 0.16030  0.98739  0.70725  Biso   1.000  C
  C259     1.0000 0.28846  0.87992  0.88289  Biso   1.000  C
  C260     1.0000 0.28413  0.75849  0.87926  Biso   1.000  C
  C261     1.0000 0.18958  0.99607  0.75762  Biso   1.000  C
  C262     1.0000 0.13880  0.93000  0.69190  Biso   1.000  C
  C263     1.0000 0.25010  0.88421  0.86277  Biso   1.000  C
  H133     1.0000 0.30296  0.91860  0.89105  Biso   1.000  H
  H134     1.0000 0.29584  0.71678  0.88553  Biso   1.000  H
  C264     1.0000 0.24629  0.76282  0.85847  Biso   1.000  C
  C265     1.0000 0.19741  0.94599  0.79438  Biso   1.000  C
  H135     1.0000 0.20385  0.03520  0.76665  Biso   1.000  H
  C266     1.0000 0.14702  0.87881  0.72957  Biso   1.000  C
  H136     1.0000 0.11934  0.92511  0.65751  Biso   1.000  H
  C267     1.0000 0.22665  0.94770  0.85173  Biso   1.000  C
  C268     1.0000 0.22950  0.82551  0.85043  Biso   1.000  C
  H137     1.0000 0.23196  0.72379  0.84983  Biso   1.000  H
  C269     1.0000 0.17584  0.88688  0.78022  Biso   1.000  C
  H138     1.0000 0.13293  0.83948  0.72022  Biso   1.000  H
  H139     1.0000 0.24165  0.98891  0.86111  Biso   1.000  H
  C270     1.0000 0.20584  0.94029  0.88210  Biso   1.000  C
  C271     1.0000 0.18764  0.83902  0.82700  Biso   1.000  C
  C272     1.0000 0.18474  0.88078  0.86873  Biso   1.000  C
  C273     1.0000 0.20446  0.98502  0.91724  Biso   1.000  C
  H140     1.0000 0.17273  0.79762  0.81773  Biso   1.000  H
  C274     1.0000 0.16327  0.86681  0.89152  Biso   1.000  C
  C275     1.0000 0.18266  0.97009  0.93992  Biso   1.000  C
  H141     1.0000 0.21805  0.02481  0.92564  Biso   1.000  H
  H142     1.0000 0.14923  0.82742  0.88332  Biso   1.000  H
  C276     1.0000 0.16293  0.91391  0.92785  Biso   1.000  C
  H143     1.0000 0.18186  0.00010  0.96394  Biso   1.000  H
  H144     1.0000 0.14845  0.90509  0.94363  Biso   1.000  H
  C277     1.0000 0.16916  0.81472  0.42338  Biso   1.000  C
  N37      1.0000 0.16932  0.83892  0.38129  Biso   1.000  N
  Cl13     1.0000 0.20518  0.75884  0.46187  Biso   1.000  Cl
  N38      1.0000 0.14545  0.82430  0.44097  Biso   1.000  N
  C278     1.0000 0.14078  0.87912  0.35420  Biso   1.000  C
  C279     1.0000 0.11835  0.86600  0.40938  Biso   1.000  C
  N39      1.0000 0.11406  0.89460  0.36548  Biso   1.000  N
  O25      1.0000 0.14037  0.90297  0.31136  Biso   1.000  O
  O26      1.0000 0.09436  0.87765  0.42649  Biso   1.000  O
  C280     1.0000 0.11058  0.94352  0.27472  Biso   1.000  C
  C281     1.0000 0.06583  0.92582  0.40358  Biso   1.000  C
  C282     1.0000 0.08976  0.91790  0.22463  Biso   1.000  C
  C283     1.0000 0.10541  0.00711  0.28777  Biso   1.000  C
  C284     1.0000 0.07196  0.99012  0.39455  Biso   1.000  C
  C285     1.0000 0.03181  0.90489  0.39683  Biso   1.000  C
  H145     1.0000 0.09382  0.87458  0.21642  Biso   1.000  H
  C286     1.0000 0.06232  0.95900  0.18656  Biso   1.000  C
  C287     1.0000 0.07787  0.04811  0.24853  Biso   1.000  C
  H146     1.0000 0.11983  0.02320  0.32201  Biso   1.000  H
  H147     1.0000 0.09532  0.00308  0.40050  Biso   1.000  H
  C288     1.0000 0.04321  0.03671  0.37636  Biso   1.000  C
  C289     1.0000 0.00284  0.95108  0.37901  Biso   1.000  C
  H148     1.0000 0.02831  0.86061  0.40401  Biso   1.000  H
  C290     1.0000 0.03626  0.93868  0.12878  Biso   1.000  C
  C291     1.0000 0.05668  0.02380  0.19800  Biso   1.000  C
  H149     1.0000 0.07401  0.09158  0.25669  Biso   1.000  H
  H150     1.0000 0.04712  0.08079  0.36930  Biso   1.000  H
  C292     1.0000 0.00840  0.01700  0.36859  Biso   1.000  C
  C293     1.0000 0.96377  0.93868  0.37124  Biso   1.000  C
  H151     1.0000 0.04011  0.89228  0.12101  Biso   1.000  H
  C294     1.0000 0.04128  0.99012  0.09478  Biso   1.000  C
  C295     1.0000 0.99718  0.95108  0.12101  Biso   1.000  C
  C296     1.0000 0.02610  0.06122  0.15016  Biso   1.000  C
  C297     1.0000 0.97393  0.06122  0.34986  Biso   1.000  C
  C298     1.0000 0.93772  0.95900  0.31349  Biso   1.000  C
  H152     1.0000 0.95991  0.89228  0.37901  Biso   1.000  H
  C299     1.0000 0.95874  0.99012  0.40523  Biso   1.000  C
  C300     1.0000 0.05024  0.97680  0.05597  Biso   1.000  C
  C301     1.0000 0.03629  0.05431  0.10626  Biso   1.000  C
  C302     1.0000 0.96823  0.90489  0.10322  Biso   1.000  C
  C303     1.0000 0.99163  0.01700  0.13142  Biso   1.000  C
  H153     1.0000 0.02240  0.10792  0.15761  Biso   1.000  H
  H154     1.0000 0.97763  0.10792  0.34240  Biso   1.000  H
  C304     1.0000 0.94335  0.02380  0.30201  Biso   1.000  C
  C305     1.0000 0.96374  0.05431  0.39376  Biso   1.000  C
  C306     1.0000 0.91028  0.91790  0.27543  Biso   1.000  C
  C307     1.0000 0.94979  0.97680  0.44405  Biso   1.000  C
  H155     1.0000 0.05470  0.93288  0.04919  Biso   1.000  H
  C308     1.0000 0.05240  0.03152  0.02658  Biso   1.000  C
  C309     1.0000 0.03850  0.11009  0.07680  Biso   1.000  C
  H156     1.0000 0.97172  0.86061  0.09600  Biso   1.000  H
  C310     1.0000 0.93419  0.92582  0.09644  Biso   1.000  C
  C311     1.0000 0.95683  0.03671  0.12369  Biso   1.000  C
  C312     1.0000 0.92215  0.04811  0.25149  Biso   1.000  C
  C313     1.0000 0.96153  0.11009  0.42322  Biso   1.000  C
  C314     1.0000 0.88946  0.94352  0.22534  Biso   1.000  C
  H157     1.0000 0.90620  0.87458  0.28359  Biso   1.000  H
  H158     1.0000 0.94533  0.93288  0.45083  Biso   1.000  H
  C315     1.0000 0.94763  0.03152  0.47343  Biso   1.000  C
  H159     1.0000 0.05766  0.02320  0.99945  Biso   1.000  H
  C316     1.0000 0.04698  0.09718  0.03731  Biso   1.000  C
  H160     1.0000 0.03431  0.15392  0.08409  Biso   1.000  H
  O27      1.0000 0.90568  0.87765  0.07356  Biso   1.000  O
  C317     1.0000 0.92806  0.99012  0.10547  Biso   1.000  C
  H161     1.0000 0.95291  0.08079  0.13071  Biso   1.000  H
  H162     1.0000 0.92601  0.09158  0.24332  Biso   1.000  H
  C318     1.0000 0.89462  0.00711  0.21224  Biso   1.000  C
  C319     1.0000 0.95305  0.09718  0.46270  Biso   1.000  C
  H163     1.0000 0.96571  0.15392  0.41592  Biso   1.000  H
  O28      1.0000 0.85966  0.90297  0.18865  Biso   1.000  O
  H164     1.0000 0.94243  0.02320  0.50061  Biso   1.000  H
  H165     1.0000 0.04910  0.13258  0.01791  Biso   1.000  H
  C320     1.0000 0.88167  0.86600  0.09064  Biso   1.000  C
  H166     1.0000 0.90471  0.00308  0.09951  Biso   1.000  H
  H167     1.0000 0.88020  0.02320  0.17801  Biso   1.000  H
  H168     1.0000 0.95092  0.13258  0.48211  Biso   1.000  H
  C321     1.0000 0.85925  0.87912  0.14582  Biso   1.000  C
  N40      1.0000 0.88597  0.89460  0.13454  Biso   1.000  N
  N41      1.0000 0.85458  0.82430  0.05905  Biso   1.000  N
  N42      1.0000 0.83071  0.83892  0.11872  Biso   1.000  N
  C322     1.0000 0.83087  0.81472  0.07664  Biso   1.000  C
  Cl14     1.0000 0.79485  0.75884  0.03814  Biso   1.000  Cl
  C323     1.0000 0.58637  0.74179  0.59622  Biso   1.000  C
  Cl15     1.0000 0.53791  0.73473  0.55701  Biso   1.000  Cl
  N43      1.0000 0.60216  0.77760  0.57401  Biso   1.000  N
  N44      1.0000 0.60105  0.71168  0.64201  Biso   1.000  N
  C324     1.0000 0.63868  0.78012  0.60604  Biso   1.000  C
  C325     1.0000 0.63753  0.71960  0.66804  Biso   1.000  C
  N45      1.0000 0.65847  0.75395  0.65329  Biso   1.000  N
  O29      1.0000 0.65592  0.81658  0.58438  Biso   1.000  O
  O30      1.0000 0.65372  0.68970  0.71502  Biso   1.000  O
  C326     1.0000 0.69579  0.81688  0.60963  Biso   1.000  C
  C327     1.0000 0.69250  0.68571  0.74657  Biso   1.000  C
  C328     1.0000 0.71162  0.87992  0.61716  Biso   1.000  C
  C329     1.0000 0.71597  0.75849  0.62083  Biso   1.000  C
  C330     1.0000 0.70707  0.70089  0.79966  Biso   1.000  C
  C331     1.0000 0.71446  0.66201  0.72673  Biso   1.000  C
  C332     1.0000 0.74998  0.88421  0.63728  Biso   1.000  C
  H169     1.0000 0.69713  0.91860  0.60904  Biso   1.000  H
  H170     1.0000 0.70424  0.71678  0.61452  Biso   1.000  H
  C333     1.0000 0.75380  0.76282  0.64158  Biso   1.000  C
  H171     1.0000 0.69184  0.71622  0.81264  Biso   1.000  H
  C334     1.0000 0.74466  0.69282  0.83260  Biso   1.000  C
  C335     1.0000 0.75250  0.65419  0.76117  Biso   1.000  C
  H172     1.0000 0.70412  0.65142  0.69112  Biso   1.000  H
  C336     1.0000 0.77340  0.94770  0.64832  Biso   1.000  C
  C337     1.0000 0.77058  0.82551  0.64962  Biso   1.000  C
  H173     1.0000 0.76812  0.72379  0.65021  Biso   1.000  H
  C338     1.0000 0.76605  0.70780  0.89223  Biso   1.000  C
  C339     1.0000 0.76794  0.66892  0.81453  Biso   1.000  C
  H174     1.0000 0.76774  0.63891  0.74823  Biso   1.000  H
  C340     1.0000 0.80265  0.94599  0.70567  Biso   1.000  C
  H175     1.0000 0.75843  0.98891  0.63893  Biso   1.000  H
  C341     1.0000 0.79426  0.94029  0.61799  Biso   1.000  C
  C342     1.0000 0.81244  0.83902  0.67305  Biso   1.000  C
  H176     1.0000 0.75005  0.72480  0.90584  Biso   1.000  H
  C343     1.0000 0.79607  0.75722  0.89910  Biso   1.000  C
  C344     1.0000 0.78591  0.64360  0.91854  Biso   1.000  C
  C345     1.0000 0.80856  0.66272  0.85685  Biso   1.000  C
  C346     1.0000 0.81049  0.99607  0.74247  Biso   1.000  C
  C347     1.0000 0.82424  0.88688  0.71983  Biso   1.000  C
  C348     1.0000 0.81534  0.88078  0.63132  Biso   1.000  C
  C349     1.0000 0.79563  0.98502  0.58285  Biso   1.000  C
  H177     1.0000 0.82732  0.79762  0.68232  Biso   1.000  H
  C350     1.0000 0.80308  0.82072  0.92292  Biso   1.000  C
  C351     1.0000 0.81926  0.73302  0.88072  Biso   1.000  C
  C352     1.0000 0.78322  0.61360  0.95814  Biso   1.000  C
  C353     1.0000 0.80905  0.61940  0.89985  Biso   1.000  C
  H178     1.0000 0.82456  0.64562  0.84344  Biso   1.000  H
  C354     1.0000 0.83978  0.98739  0.79280  Biso   1.000  C
  H179     1.0000 0.79625  0.03520  0.73344  Biso   1.000  H
  C355     1.0000 0.85308  0.87881  0.77051  Biso   1.000  C
  C356     1.0000 0.83682  0.86681  0.60852  Biso   1.000  C
  C357     1.0000 0.81743  0.97009  0.56013  Biso   1.000  C
  H180     1.0000 0.78203  0.02481  0.57440  Biso   1.000  H
  H181     1.0000 0.78776  0.83781  0.93515  Biso   1.000  H
  C358     1.0000 0.83295  0.85768  0.92817  Biso   1.000  C
  C359     1.0000 0.84983  0.77039  0.88707  Biso   1.000  C
  H182     1.0000 0.76836  0.63221  0.97065  Biso   1.000  H
  C360     1.0000 0.80216  0.55701  0.97913  Biso   1.000  C
  C361     1.0000 0.83025  0.56241  0.92162  Biso   1.000  C
  C362     1.0000 0.86128  0.93000  0.80814  Biso   1.000  C
  O31      1.0000 0.84909  0.04181  0.82802  Biso   1.000  O
  H183     1.0000 0.86715  0.83948  0.77982  Biso   1.000  H
  H184     1.0000 0.85085  0.82742  0.61673  Biso   1.000  H
  C363     1.0000 0.83717  0.91391  0.57224  Biso   1.000  C
  H185     1.0000 0.81822  0.00010  0.53611  Biso   1.000  H
  O32      1.0000 0.84006  0.91986  0.95593  Biso   1.000  O
  C364     1.0000 0.85699  0.83378  0.91152  Biso   1.000  C
  H186     1.0000 0.86534  0.75339  0.87512  Biso   1.000  H
  C365     1.0000 0.82646  0.52938  0.96374  Biso   1.000  C
  H187     1.0000 0.79898  0.53507  0.00488  Biso   1.000  H
  H188     1.0000 0.84616  0.54572  0.91014  Biso   1.000  H
  H189     1.0000 0.88074  0.92511  0.84254  Biso   1.000  H
  C366     1.0000 0.85100  0.03379  0.87520  Biso   1.000  C
  H190     1.0000 0.85163  0.90509  0.55642  Biso   1.000  H
  C367     1.0000 0.84712  0.97569  0.93665  Biso   1.000  C
  H191     1.0000 0.87735  0.85920  0.91645  Biso   1.000  H
  H192     1.0000 0.84005  0.49080  0.98003  Biso   1.000  H
  N46      1.0000 0.84314  0.97549  0.88845  Biso   1.000  N
  N47      1.0000 0.86118  0.09062  0.90300  Biso   1.000  N
  N48      1.0000 0.85746  0.02648  0.97057  Biso   1.000  N
  C368     1.0000 0.86339  0.08160  0.94943  Biso   1.000  C
  Cl16     1.0000 0.87751  0.15276  0.99013  Biso   1.000  Cl
  C369     1.0000 0.63882  0.42998  0.69190  Biso   1.000  C
  C370     1.0000 0.66031  0.48742  0.70725  Biso   1.000  C
  C371     1.0000 0.64701  0.37879  0.72957  Biso   1.000  C
  H193     1.0000 0.61933  0.42508  0.65751  Biso   1.000  H
  O33      1.0000 0.65099  0.54178  0.67207  Biso   1.000  O
  C372     1.0000 0.68959  0.49609  0.75762  Biso   1.000  C
  C373     1.0000 0.67582  0.38691  0.78022  Biso   1.000  C
  H194     1.0000 0.63294  0.33950  0.72022  Biso   1.000  H
  C374     1.0000 0.64908  0.53381  0.62489  Biso   1.000  C
  H195     1.0000 0.70386  0.53518  0.76665  Biso   1.000  H
  C375     1.0000 0.69742  0.44601  0.79438  Biso   1.000  C
  C376     1.0000 0.68763  0.33900  0.82700  Biso   1.000  C
  N49      1.0000 0.65693  0.47547  0.61160  Biso   1.000  N
  N50      1.0000 0.63892  0.59065  0.59708  Biso   1.000  N
  C377     1.0000 0.72667  0.44768  0.85173  Biso   1.000  C
  C378     1.0000 0.72949  0.32548  0.85043  Biso   1.000  C
  C379     1.0000 0.68473  0.38081  0.86873  Biso   1.000  C
  H196     1.0000 0.67274  0.29759  0.81773  Biso   1.000  H
  C380     1.0000 0.65295  0.47572  0.56340  Biso   1.000  C
  C381     1.0000 0.63670  0.58162  0.55062  Biso   1.000  C
  H197     1.0000 0.74164  0.48888  0.86111  Biso   1.000  H
  C382     1.0000 0.75011  0.38418  0.86277  Biso   1.000  C
  C383     1.0000 0.70585  0.44031  0.88210  Biso   1.000  C
  C384     1.0000 0.74630  0.26280  0.85847  Biso   1.000  C
  C385     1.0000 0.66328  0.36679  0.89152  Biso   1.000  C
  O34      1.0000 0.66003  0.41989  0.54411  Biso   1.000  O
  N51      1.0000 0.64263  0.52650  0.52948  Biso   1.000  N
  Cl17     1.0000 0.62256  0.65278  0.50992  Biso   1.000  Cl
  C386     1.0000 0.78845  0.37990  0.88289  Biso   1.000  C
  C387     1.0000 0.70447  0.48500  0.91724  Biso   1.000  C
  C388     1.0000 0.78414  0.25851  0.87926  Biso   1.000  C
  H198     1.0000 0.73195  0.22381  0.84983  Biso   1.000  H
  H199     1.0000 0.64925  0.32740  0.88332  Biso   1.000  H
  C389     1.0000 0.66291  0.41389  0.92785  Biso   1.000  C
  C390     1.0000 0.66715  0.35771  0.57188  Biso   1.000  C
  H200     1.0000 0.80295  0.41858  0.89105  Biso   1.000  H
  C391     1.0000 0.80430  0.31691  0.89046  Biso   1.000  C
  C392     1.0000 0.68267  0.47012  0.93992  Biso   1.000  C
  H201     1.0000 0.71806  0.52479  0.92564  Biso   1.000  H
  H202     1.0000 0.79585  0.21680  0.88553  Biso   1.000  H
  H203     1.0000 0.64846  0.40511  0.94363  Biso   1.000  H
  C393     1.0000 0.64311  0.33380  0.58853  Biso   1.000  C
  C394     1.0000 0.69699  0.32069  0.57713  Biso   1.000  C
  O35      1.0000 0.84417  0.31661  0.91566  Biso   1.000  O
  H204     1.0000 0.68185  0.50008  0.96394  Biso   1.000  H
  H205     1.0000 0.62274  0.35922  0.58363  Biso   1.000  H
  C395     1.0000 0.65024  0.27041  0.61298  Biso   1.000  C
  C396     1.0000 0.70400  0.25720  0.60095  Biso   1.000  C
  H206     1.0000 0.71235  0.33779  0.56494  Biso   1.000  H
  C397     1.0000 0.86143  0.28009  0.89405  Biso   1.000  C
  H207     1.0000 0.63473  0.25342  0.62493  Biso   1.000  H
  C398     1.0000 0.68081  0.23299  0.61933  Biso   1.000  C
  C399     1.0000 0.73402  0.20778  0.60781  Biso   1.000  C
  N52      1.0000 0.84162  0.25392  0.84676  Biso   1.000  N
  N53      1.0000 0.89791  0.27762  0.92604  Biso   1.000  N
  C400     1.0000 0.69153  0.16269  0.64323  Biso   1.000  C
  C401     1.0000 0.75543  0.19280  0.66745  Biso   1.000  C
  H208     1.0000 0.75002  0.22482  0.59421  Biso   1.000  H
  C402     1.0000 0.71418  0.14358  0.58150  Biso   1.000  C
  C403     1.0000 0.86255  0.21958  0.83205  Biso   1.000  C
  C404     1.0000 0.91370  0.24182  0.90383  Biso   1.000  C
  H209     1.0000 0.67555  0.14559  0.65664  Biso   1.000  H
  C405     1.0000 0.73217  0.16889  0.68555  Biso   1.000  C
  C406     1.0000 0.69104  0.11942  0.60024  Biso   1.000  C
  C407     1.0000 0.79300  0.20092  0.70039  Biso   1.000  C
  C408     1.0000 0.71685  0.11362  0.54190  Biso   1.000  C
  O36      1.0000 0.84637  0.18967  0.78503  Biso   1.000  O
  N54      1.0000 0.89904  0.21171  0.85804  Biso   1.000  N
  Cl18     1.0000 0.96218  0.23471  0.94304  Biso   1.000  Cl
  C409     1.0000 0.74757  0.15422  0.73888  Biso   1.000  C
  C410     1.0000 0.66985  0.06238  0.57843  Biso   1.000  C
  C411     1.0000 0.80757  0.18569  0.75348  Biso   1.000  C
  H210     1.0000 0.80823  0.21620  0.68741  Biso   1.000  H
  H211     1.0000 0.73173  0.13218  0.52944  Biso   1.000  H
  C412     1.0000 0.69794  0.05699  0.52092  Biso   1.000  C
  H212     1.0000 0.73233  0.13889  0.75182  Biso   1.000  H
  C413     1.0000 0.78564  0.16198  0.77335  Biso   1.000  C
  C414     1.0000 0.67363  0.02940  0.53630  Biso   1.000  C
  H213     1.0000 0.65393  0.04569  0.58991  Biso   1.000  H
  H214     1.0000 0.70103  0.03510  0.49513  Biso   1.000  H
  H215     1.0000 0.79595  0.15139  0.80893  Biso   1.000  H
  H216     1.0000 0.66002  0.99082  0.52001  Biso   1.000  H
  C415     1.0000 0.66289  0.58611  0.42784  Biso   1.000  C
  C416     1.0000 0.66325  0.63321  0.39151  Biso   1.000  C
  H217     1.0000 0.64843  0.59489  0.44361  Biso   1.000  H
  C417     1.0000 0.68264  0.52988  0.43991  Biso   1.000  C
  C418     1.0000 0.68470  0.61919  0.36871  Biso   1.000  C
  H218     1.0000 0.64922  0.67260  0.38330  Biso   1.000  H
  H219     1.0000 0.68182  0.49992  0.46393  Biso   1.000  H
  C419     1.0000 0.70445  0.51500  0.41723  Biso   1.000  C
  C420     1.0000 0.68760  0.66100  0.32698  Biso   1.000  C
  C421     1.0000 0.70583  0.55969  0.38208  Biso   1.000  C
  H220     1.0000 0.71804  0.47521  0.42563  Biso   1.000  H
  C422     1.0000 0.72946  0.67452  0.35041  Biso   1.000  C
  H221     1.0000 0.67272  0.70241  0.31771  Biso   1.000  H
  C423     1.0000 0.67580  0.61309  0.28020  Biso   1.000  C
  C424     1.0000 0.72664  0.55232  0.35171  Biso   1.000  C
  C425     1.0000 0.75008  0.61582  0.36276  Biso   1.000  C
  C426     1.0000 0.74627  0.73720  0.35846  Biso   1.000  C
  C427     1.0000 0.69739  0.55399  0.29436  Biso   1.000  C
  C428     1.0000 0.64698  0.62121  0.22956  Biso   1.000  C
  H222     1.0000 0.74161  0.51112  0.36110  Biso   1.000  H
  C429     1.0000 0.78842  0.62010  0.38287  Biso   1.000  C
  C430     1.0000 0.78411  0.74149  0.37924  Biso   1.000  C
  H223     1.0000 0.73192  0.77619  0.34982  Biso   1.000  H
  C431     1.0000 0.68955  0.50391  0.25756  Biso   1.000  C
  H224     1.0000 0.63292  0.66050  0.22021  Biso   1.000  H
  C432     1.0000 0.63879  0.57002  0.19189  Biso   1.000  C
  H225     1.0000 0.80291  0.58142  0.39100  Biso   1.000  H
  C433     1.0000 0.80427  0.68309  0.39044  Biso   1.000  C
  H226     1.0000 0.79583  0.78320  0.38551  Biso   1.000  H
  C434     1.0000 0.66028  0.51258  0.20723  Biso   1.000  C
  H227     1.0000 0.70382  0.46482  0.26659  Biso   1.000  H
  H228     1.0000 0.61930  0.57492  0.15749  Biso   1.000  H
  O37      1.0000 0.84415  0.68339  0.41565  Biso   1.000  O
  O38      1.0000 0.65096  0.45822  0.17205  Biso   1.000  O
  C435     1.0000 0.86140  0.71991  0.39403  Biso   1.000  C
  C436     1.0000 0.64904  0.46619  0.12484  Biso   1.000  C
  N55      1.0000 0.84159  0.74608  0.34674  Biso   1.000  N
  N56      1.0000 0.89789  0.72238  0.42602  Biso   1.000  N
  N57      1.0000 0.65690  0.52453  0.11158  Biso   1.000  N
  N58      1.0000 0.63890  0.40935  0.09707  Biso   1.000  N
  C437     1.0000 0.86252  0.78042  0.33203  Biso   1.000  C
  C438     1.0000 0.91368  0.75818  0.40382  Biso   1.000  C
  C439     1.0000 0.65292  0.52428  0.06338  Biso   1.000  C
  C440     1.0000 0.63667  0.41838  0.05061  Biso   1.000  C
  N59      1.0000 0.89901  0.78829  0.35802  Biso   1.000  N
  O39      1.0000 0.84635  0.81033  0.28501  Biso   1.000  O
  Cl19     1.0000 0.96216  0.76529  0.44302  Biso   1.000  Cl
  N60      1.0000 0.64261  0.47350  0.02946  Biso   1.000  N
  O40      1.0000 0.66000  0.58011  0.04410  Biso   1.000  O
  Cl20     1.0000 0.62254  0.34722  0.00990  Biso   1.000  Cl
  C441     1.0000 0.80754  0.81431  0.25346  Biso   1.000  C
  C442     1.0000 0.66712  0.64229  0.07186  Biso   1.000  C
  C443     1.0000 0.79297  0.79908  0.20037  Biso   1.000  C
  C444     1.0000 0.78562  0.83802  0.27334  Biso   1.000  C
  C445     1.0000 0.69696  0.67931  0.07711  Biso   1.000  C
  C446     1.0000 0.64308  0.66620  0.08851  Biso   1.000  C
  H229     1.0000 0.80820  0.78380  0.18739  Biso   1.000  H
  C447     1.0000 0.75541  0.80720  0.16743  Biso   1.000  C
  C448     1.0000 0.74754  0.84578  0.23887  Biso   1.000  C
  H230     1.0000 0.79592  0.84861  0.30892  Biso   1.000  H
  C449     1.0000 0.70397  0.74280  0.10093  Biso   1.000  C
  H231     1.0000 0.71231  0.66221  0.06488  Biso   1.000  H
  H232     1.0000 0.62271  0.64078  0.08362  Biso   1.000  H
  C450     1.0000 0.65021  0.72959  0.11296  Biso   1.000  C
  C451     1.0000 0.73399  0.79222  0.10780  Biso   1.000  C
  C452     1.0000 0.73213  0.83111  0.18550  Biso   1.000  C
  H233     1.0000 0.73230  0.86111  0.25180  Biso   1.000  H
  C453     1.0000 0.68078  0.76701  0.11931  Biso   1.000  C
  H234     1.0000 0.63470  0.74658  0.12492  Biso   1.000  H
  H235     1.0000 0.75000  0.77518  0.09419  Biso   1.000  H
  C454     1.0000 0.71415  0.85642  0.08149  Biso   1.000  C
  C455     1.0000 0.69148  0.83731  0.14318  Biso   1.000  C
  C456     1.0000 0.71683  0.88638  0.04189  Biso   1.000  C
  C457     1.0000 0.69100  0.88058  0.10018  Biso   1.000  C
  H236     1.0000 0.67551  0.85441  0.15659  Biso   1.000  H
  H237     1.0000 0.73169  0.86782  0.02938  Biso   1.000  H
  C458     1.0000 0.69791  0.94301  0.02090  Biso   1.000  C
  C459     1.0000 0.66982  0.93762  0.07841  Biso   1.000  C
  C460     1.0000 0.67360  0.97060  0.03629  Biso   1.000  C
  H238     1.0000 0.70106  0.96490  0.99515  Biso   1.000  H
  H239     1.0000 0.65390  0.95431  0.08989  Biso   1.000  H
  H240     1.0000 0.66000  0.00918  0.02000  Biso   1.000  H
  C461     1.0000 0.05026  0.02320  0.55599  Biso   1.000  C
  C462     1.0000 0.04131  0.00988  0.59480  Biso   1.000  C
  H241     1.0000 0.05474  0.06712  0.54924  Biso   1.000  H
  C463     1.0000 0.05244  0.96848  0.52664  Biso   1.000  C
  C464     1.0000 0.03629  0.06132  0.62880  Biso   1.000  C
  C465     1.0000 0.03632  0.94569  0.60627  Biso   1.000  C
  H242     1.0000 0.05763  0.97680  0.49942  Biso   1.000  H
  C466     1.0000 0.04700  0.90282  0.53733  Biso   1.000  C
  C467     1.0000 0.06234  0.04100  0.68658  Biso   1.000  C
  H243     1.0000 0.04014  0.10772  0.62103  Biso   1.000  H
  C468     1.0000 0.99721  0.04892  0.62103  Biso   1.000  C
  C469     1.0000 0.02612  0.93878  0.65017  Biso   1.000  C
  C470     1.0000 0.03853  0.88991  0.57681  Biso   1.000  C
  H244     1.0000 0.04913  0.86742  0.51792  Biso   1.000  H
  C471     1.0000 0.08979  0.08210  0.72464  Biso   1.000  C
  C472     1.0000 0.05671  0.97620  0.69802  Biso   1.000  C
  C473     1.0000 0.99166  0.98300  0.63144  Biso   1.000  C
  C474     1.0000 0.96826  0.09511  0.60324  Biso   1.000  C
  H245     1.0000 0.02243  0.89208  0.65763  Biso   1.000  H
  H246     1.0000 0.03434  0.84608  0.58411  Biso   1.000  H
  C475     1.0000 0.11061  0.05648  0.77473  Biso   1.000  C
  H247     1.0000 0.09385  0.12542  0.71644  Biso   1.000  H
  C476     1.0000 0.07790  0.95189  0.74854  Biso   1.000  C
  C477     1.0000 0.95686  0.96329  0.62371  Biso   1.000  C
  C478     1.0000 0.93422  0.07418  0.59645  Biso   1.000  C
  H248     1.0000 0.97174  0.13939  0.59602  Biso   1.000  H
  O41      1.0000 0.14040  0.09703  0.81138  Biso   1.000  O
  C479     1.0000 0.10544  0.99289  0.78779  Biso   1.000  C
  H249     1.0000 0.07405  0.90842  0.75675  Biso   1.000  H
  H250     1.0000 0.95294  0.91921  0.63073  Biso   1.000  H
  C480     1.0000 0.92809  0.00988  0.60549  Biso   1.000  C
  O42      1.0000 0.90571  0.12235  0.57358  Biso   1.000  O
  C481     1.0000 0.14082  0.12088  0.85425  Biso   1.000  C
  H251     1.0000 0.11986  0.97680  0.82203  Biso   1.000  H
  H252     1.0000 0.90474  0.99692  0.59953  Biso   1.000  H
  C482     1.0000 0.88170  0.13400  0.59066  Biso   1.000  C
  N61      1.0000 0.11409  0.10540  0.86549  Biso   1.000  N
  N62      1.0000 0.16935  0.16108  0.88131  Biso   1.000  N
  N63      1.0000 0.88601  0.10540  0.63459  Biso   1.000  N
  N64      1.0000 0.85461  0.17570  0.55906  Biso   1.000  N
  C483     1.0000 0.11839  0.13400  0.90943  Biso   1.000  C
  C484     1.0000 0.16918  0.18528  0.92339  Biso   1.000  C
  C485     1.0000 0.85927  0.12088  0.64584  Biso   1.000  C
  C486     1.0000 0.83090  0.18528  0.57665  Biso   1.000  C
  N65      1.0000 0.14549  0.17570  0.94103  Biso   1.000  N
  O43      1.0000 0.09439  0.12235  0.92651  Biso   1.000  O
  Cl21     1.0000 0.20521  0.24116  0.96189  Biso   1.000  Cl
  N66      1.0000 0.83073  0.16108  0.61874  Biso   1.000  N
  O44      1.0000 0.85968  0.09703  0.68867  Biso   1.000  O
  Cl22     1.0000 0.79487  0.24116  0.53816  Biso   1.000  Cl
  C487     1.0000 0.06586  0.07418  0.90359  Biso   1.000  C
  C488     1.0000 0.88948  0.05648  0.72535  Biso   1.000  C
  C489     1.0000 0.03184  0.09511  0.89685  Biso   1.000  C
  C490     1.0000 0.07199  0.00988  0.89456  Biso   1.000  C
  C491     1.0000 0.89466  0.99289  0.71230  Biso   1.000  C
  C492     1.0000 0.91031  0.08210  0.77544  Biso   1.000  C
  C493     1.0000 0.00288  0.04892  0.87906  Biso   1.000  C
  H253     1.0000 0.02834  0.13939  0.90403  Biso   1.000  H
  H254     1.0000 0.09535  0.99692  0.90052  Biso   1.000  H
  C494     1.0000 0.04324  0.96329  0.87638  Biso   1.000  C
  C495     1.0000 0.92218  0.95189  0.75150  Biso   1.000  C
  H255     1.0000 0.88023  0.97680  0.67802  Biso   1.000  H
  H256     1.0000 0.90624  0.12542  0.78365  Biso   1.000  H
  C496     1.0000 0.93775  0.04100  0.81351  Biso   1.000  C
  C497     1.0000 0.96379  0.06132  0.87125  Biso   1.000  C
  C498     1.0000 0.00843  0.98300  0.86861  Biso   1.000  C
  H257     1.0000 0.04714  0.91921  0.86932  Biso   1.000  H
  C499     1.0000 0.94337  0.97620  0.80203  Biso   1.000  C
  H258     1.0000 0.92604  0.90842  0.74334  Biso   1.000  H
  H259     1.0000 0.95994  0.10772  0.87902  Biso   1.000  H
  C500     1.0000 0.95875  0.00988  0.90525  Biso   1.000  C
  C501     1.0000 0.97396  0.93878  0.84987  Biso   1.000  C
  C502     1.0000 0.96378  0.94569  0.89381  Biso   1.000  C
  C503     1.0000 0.94982  0.02320  0.94406  Biso   1.000  C
  H260     1.0000 0.97765  0.89208  0.84242  Biso   1.000  H
  C504     1.0000 0.96156  0.88991  0.92324  Biso   1.000  C
  C505     1.0000 0.94766  0.96848  0.97345  Biso   1.000  C
  H261     1.0000 0.94536  0.06712  0.95085  Biso   1.000  H
  C506     1.0000 0.95308  0.90282  0.96272  Biso   1.000  C
  H262     1.0000 0.96574  0.84608  0.91594  Biso   1.000  H
  H263     1.0000 0.94239  0.97680  0.00058  Biso   1.000  H
  H264     1.0000 0.95095  0.86742  0.98212  Biso   1.000  H
  N67      1.0000 0.60102  0.28832  0.14199  Biso   1.000  N
  C507     1.0000 0.58634  0.25821  0.09620  Biso   1.000  C
  C508     1.0000 0.63751  0.28040  0.16803  Biso   1.000  C
  Cl23     1.0000 0.53788  0.26527  0.05699  Biso   1.000  Cl
  N68      1.0000 0.60213  0.22240  0.07399  Biso   1.000  N
  N69      1.0000 0.65845  0.24605  0.15327  Biso   1.000  N
  O45      1.0000 0.65369  0.31030  0.21500  Biso   1.000  O
  C509     1.0000 0.63865  0.21988  0.10602  Biso   1.000  C
  C510     1.0000 0.69247  0.31429  0.24656  Biso   1.000  C
  O46      1.0000 0.65589  0.18342  0.08437  Biso   1.000  O
  C511     1.0000 0.70704  0.29911  0.29965  Biso   1.000  C
  C512     1.0000 0.71444  0.33799  0.22672  Biso   1.000  C
  C513     1.0000 0.69576  0.18312  0.10961  Biso   1.000  C
  H265     1.0000 0.69182  0.28378  0.31262  Biso   1.000  H
  C514     1.0000 0.74463  0.30718  0.33258  Biso   1.000  C
  C515     1.0000 0.75247  0.34581  0.26115  Biso   1.000  C
  H266     1.0000 0.70410  0.34858  0.19110  Biso   1.000  H
  C516     1.0000 0.71160  0.12008  0.11715  Biso   1.000  C
  C517     1.0000 0.71594  0.24151  0.12081  Biso   1.000  C
  C518     1.0000 0.76602  0.29220  0.39222  Biso   1.000  C
  C519     1.0000 0.76791  0.33108  0.31452  Biso   1.000  C
  H267     1.0000 0.76771  0.36109  0.24821  Biso   1.000  H
  C520     1.0000 0.74995  0.11579  0.13726  Biso   1.000  C
  H268     1.0000 0.69711  0.08140  0.10902  Biso   1.000  H
  H269     1.0000 0.70421  0.28322  0.11450  Biso   1.000  H
  C521     1.0000 0.75377  0.23718  0.14156  Biso   1.000  C
  H270     1.0000 0.75002  0.27520  0.40583  Biso   1.000  H
  C522     1.0000 0.79604  0.24278  0.39908  Biso   1.000  C
  C523     1.0000 0.78589  0.35640  0.41853  Biso   1.000  C
  C524     1.0000 0.80853  0.33728  0.35684  Biso   1.000  C
  C525     1.0000 0.77338  0.05230  0.14830  Biso   1.000  C
  C526     1.0000 0.77056  0.17449  0.14961  Biso   1.000  C
  H271     1.0000 0.76810  0.27621  0.15020  Biso   1.000  H
  C527     1.0000 0.80305  0.17928  0.42291  Biso   1.000  C
  C528     1.0000 0.81924  0.26698  0.38070  Biso   1.000  C
  C529     1.0000 0.78319  0.38640  0.45813  Biso   1.000  C
  C530     1.0000 0.80902  0.38060  0.39983  Biso   1.000  C
  H272     1.0000 0.82453  0.35438  0.34343  Biso   1.000  H
  C531     1.0000 0.80265  0.05401  0.20565  Biso   1.000  C
  H273     1.0000 0.75840  0.01109  0.13892  Biso   1.000  H
  C532     1.0000 0.79423  0.05971  0.11797  Biso   1.000  C
  C533     1.0000 0.81241  0.16098  0.17304  Biso   1.000  C
  H274     1.0000 0.78773  0.16219  0.43513  Biso   1.000  H
  C534     1.0000 0.83292  0.14232  0.42815  Biso   1.000  C
  C535     1.0000 0.84980  0.22961  0.38705  Biso   1.000  C
  H275     1.0000 0.76833  0.36779  0.47063  Biso   1.000  H
  C536     1.0000 0.80213  0.44299  0.47911  Biso   1.000  C
  C537     1.0000 0.83022  0.43759  0.42160  Biso   1.000  C
  C538     1.0000 0.81047  0.00393  0.24245  Biso   1.000  C
  C539     1.0000 0.82422  0.11312  0.21981  Biso   1.000  C
  C540     1.0000 0.81532  0.11922  0.13130  Biso   1.000  C
  C541     1.0000 0.79561  0.01498  0.08283  Biso   1.000  C
  H276     1.0000 0.82730  0.20238  0.18230  Biso   1.000  H
  O47      1.0000 0.84004  0.08014  0.45592  Biso   1.000  O
  C542     1.0000 0.85696  0.16622  0.41151  Biso   1.000  C
  H277     1.0000 0.86532  0.24661  0.37510  Biso   1.000  H
  H278     1.0000 0.79902  0.46493  0.50491  Biso   1.000  H
  C543     1.0000 0.82643  0.47062  0.46373  Biso   1.000  C
  H279     1.0000 0.84614  0.45428  0.41013  Biso   1.000  H
  C544     1.0000 0.83976  0.01261  0.29278  Biso   1.000  C
  H280     1.0000 0.79622  0.96480  0.23342  Biso   1.000  H
  C545     1.0000 0.85305  0.12119  0.27050  Biso   1.000  C
  C546     1.0000 0.83679  0.13319  0.10851  Biso   1.000  C
  C547     1.0000 0.81740  0.02991  0.06011  Biso   1.000  C
  H281     1.0000 0.78200  0.97519  0.07439  Biso   1.000  H
  C548     1.0000 0.84710  0.02431  0.43663  Biso   1.000  C
  H282     1.0000 0.87731  0.14080  0.41640  Biso   1.000  H
  H283     1.0000 0.84002  0.50920  0.48002  Biso   1.000  H
  C549     1.0000 0.86125  0.07000  0.30813  Biso   1.000  C
  O48      1.0000 0.84907  0.95819  0.32797  Biso   1.000  O
  H284     1.0000 0.86712  0.16052  0.27981  Biso   1.000  H
  H285     1.0000 0.85082  0.17258  0.11671  Biso   1.000  H
  C550     1.0000 0.83714  0.08609  0.07222  Biso   1.000  C
  H286     1.0000 0.81819  0.99990  0.03609  Biso   1.000  H
  N70      1.0000 0.84311  0.02451  0.38843  Biso   1.000  N
  N71      1.0000 0.85743  0.97352  0.47055  Biso   1.000  N
  H287     1.0000 0.88071  0.07489  0.34252  Biso   1.000  H
  C551     1.0000 0.85098  0.96621  0.37518  Biso   1.000  C
  H288     1.0000 0.85161  0.09491  0.05640  Biso   1.000  H
  C552     1.0000 0.86337  0.91840  0.44941  Biso   1.000  C
  N72      1.0000 0.86114  0.90938  0.40295  Biso   1.000  N
  Cl24     1.0000 0.87748  0.84724  0.49012  Biso   1.000  Cl
  Ne1      1.0000 0.23045  0.17051  0.23069  Biso   1.000  Ne
  He1      1.0000 0.27049  0.09437  0.22703  Biso   1.000  He
  He2      1.0000 0.19822  0.23536  0.24046  Biso   1.000  He
  Ar1      1.0000 0.26905  0.08609  0.22231  Biso   1.000  Ar
  Ne2      1.0000 0.26958  0.67051  0.26933  Biso   1.000  Ne
  He3      1.0000 0.22050  0.58314  0.27318  Biso   1.000  He
  He4      1.0000 0.30518  0.73625  0.26886  Biso   1.000  He
  Ar2      1.0000 0.22931  0.59446  0.27295  Biso   1.000  Ar
  Ne3      1.0000 0.50001  0.44082  0.25001  Biso   1.000  Ne
  He5      1.0000 0.48426  0.29609  0.24266  Biso   1.000  He
  He6      1.0000 0.49923  0.54137  0.25002  Biso   1.000  He
  Ar3      1.0000 0.50284  0.34376  0.25089  Biso   1.000  Ar
  Ne4      1.0000 0.26960  0.32949  0.76935  Biso   1.000  Ne
  He7      1.0000 0.21551  0.42608  0.77365  Biso   1.000  He
  He8      1.0000 0.30291  0.26258  0.75945  Biso   1.000  He
  Ar4      1.0000 0.22934  0.40559  0.77297  Biso   1.000  Ar
  Ne5      1.0000 0.50004  0.55918  0.75003  Biso   1.000  Ne
  He9      1.0000 0.48807  0.68545  0.74637  Biso   1.000  He
  He10     1.0000 0.50108  0.46573  0.75006  Biso   1.000  He
  Ar5      1.0000 0.48911  0.65623  0.74668  Biso   1.000  Ar
  Ne6      1.0000 0.23048  0.82949  0.73071  Biso   1.000  Ne
  He11     1.0000 0.27940  0.92316  0.72611  Biso   1.000  He
  He12     1.0000 0.19541  0.76474  0.73115  Biso   1.000  He
  Ar6      1.0000 0.27091  0.90717  0.72763  Biso   1.000  Ar
  Ne7      1.0000 0.00001  0.94082  0.25001  Biso   1.000  Ne
  He13     1.0000 0.98756  0.80111  0.24620  Biso   1.000  He
  He14     1.0000 0.00030  0.05685  0.25003  Biso   1.000  He
  Ar7      1.0000 0.00085  0.84377  0.25028  Biso   1.000  Ar
  Ne8      1.0000 0.73048  0.32949  0.73071  Biso   1.000  Ne
  He15     1.0000 0.77939  0.42310  0.72612  Biso   1.000  He
  He16     1.0000 0.69540  0.26475  0.73113  Biso   1.000  He
  Ar8      1.0000 0.77072  0.40608  0.72702  Biso   1.000  Ar
  Ne9      1.0000 0.00004  0.05918  0.75003  Biso   1.000  Ne
  He17     1.0000 0.98784  0.19171  0.74630  Biso   1.000  He
  He18     1.0000 0.99945  0.95214  0.75004  Biso   1.000  He
  Ar9      1.0000 0.99746  0.15623  0.74925  Biso   1.000  Ar
  Ne10     1.0000 0.76960  0.82949  0.76935  Biso   1.000  Ne
  He19     1.0000 0.71547  0.92609  0.77364  Biso   1.000  He
  He20     1.0000 0.80291  0.76257  0.75947  Biso   1.000  He
  Ar10     1.0000 0.72936  0.90553  0.77297  Biso   1.000  Ar
  Ne11     1.0000 0.76958  0.17051  0.26933  Biso   1.000  Ne
  He21     1.0000 0.72046  0.08314  0.27318  Biso   1.000  He
  He22     1.0000 0.80197  0.23567  0.25954  Biso   1.000  He
  Ar11     1.0000 0.72939  0.09381  0.27312  Biso   1.000  Ar
  Ne12     1.0000 0.73045  0.67051  0.23069  Biso   1.000  Ne
  He23     1.0000 0.78027  0.57516  0.22601  Biso   1.000  He
  He24     1.0000 0.69822  0.73535  0.24048  Biso   1.000  He
  Ar12     1.0000 0.77069  0.59394  0.22700  Biso   1.000  Ar
