data_image0
_cell_length_a       13.889
_cell_length_b       24.477
_cell_length_c       30.848
_cell_angle_alpha    90
_cell_angle_beta     90
_cell_angle_gamma    90

_symmetry_space_group_name_H-M    "P 1"
_symmetry_int_tables_number       1

loop_
  _symmetry_equiv_pos_as_xyz
  'x, y, z'

loop_
  _atom_site_label
  _atom_site_occupancy
  _atom_site_fract_x
  _atom_site_fract_y
  _atom_site_fract_z
  _atom_site_thermal_displace_type
  _atom_site_B_iso_or_equiv
  _atom_site_type_symbol
  C1       1.0000 0.79408  0.53659  0.43215  Biso   1.000  C
  C2       1.0000 0.85910  0.48989  0.41922  Biso   1.000  C
  H1       1.0000 0.73382  0.52151  0.44509  Biso   1.000  H
  O1       1.0000 0.84290  0.56923  0.46421  Biso   1.000  O
  C3       1.0000 0.76823  0.57078  0.39354  Biso   1.000  C
  C4       1.0000 0.81388  0.45761  0.38242  Biso   1.000  C
  H2       1.0000 0.92073  0.50590  0.40829  Biso   1.000  H
  O2       1.0000 0.88178  0.45500  0.45413  Biso   1.000  O
  C5       1.0000 0.72251  0.53532  0.35814  Biso   1.000  C
  H3       1.0000 0.82663  0.58982  0.38200  Biso   1.000  H
  O3       1.0000 0.69782  0.61016  0.40768  Biso   1.000  O
  O4       1.0000 0.73151  0.43036  0.39938  Biso   1.000  O
  H4       1.0000 0.86097  0.42959  0.37211  Biso   1.000  H
  O5       1.0000 0.78839  0.49124  0.34764  Biso   1.000  O
  H5       1.0000 0.65692  0.52192  0.36621  Biso   1.000  H
  C6       1.0000 0.68450  0.56988  0.31911  Biso   1.000  C
  C7       1.0000 0.72439  0.56330  0.31451  Biso   1.000  C
  C8       1.0000 0.71560  0.66589  0.39873  Biso   1.000  C
  C9       1.0000 0.72043  0.37308  0.39101  Biso   1.000  C
  O6       1.0000 0.61682  0.55342  0.29380  Biso   1.000  O
  O7       1.0000 0.76348  0.57519  0.29380  Biso   1.000  O
  O8       1.0000 0.81892  0.57969  0.29989  Biso   1.000  O
  H6       1.0000 0.78429  0.67100  0.38991  Biso   1.000  H
  C10      1.0000 0.69530  0.69780  0.44048  Biso   1.000  C
  O9       1.0000 0.65419  0.68550  0.36596  Biso   1.000  O
  C11      1.0000 0.69307  0.34771  0.43419  Biso   1.000  C
  C12      1.0000 0.64072  0.36504  0.35714  Biso   1.000  C
  H7       1.0000 0.78242  0.35732  0.38028  Biso   1.000  H
  H8       1.0000 0.70768  0.73759  0.43581  Biso   1.000  H
  O10      1.0000 0.75751  0.67704  0.47413  Biso   1.000  O
  C13      1.0000 0.59292  0.68889  0.45361  Biso   1.000  C
  C14      1.0000 0.55339  0.67851  0.37409  Biso   1.000  C
  C15      1.0000 0.65793  0.28999  0.42842  Biso   1.000  C
  H9       1.0000 0.64022  0.36990  0.44739  Biso   1.000  H
  O11      1.0000 0.77579  0.35106  0.46149  Biso   1.000  O
  O12      1.0000 0.61099  0.30882  0.35555  Biso   1.000  O
  H10      1.0000 0.58428  0.38881  0.36430  Biso   1.000  H
  C16      1.0000 0.67751  0.37852  0.31244  Biso   1.000  C
  C17      1.0000 0.52401  0.70401  0.41714  Biso   1.000  C
  H11      1.0000 0.58399  0.64930  0.46052  Biso   1.000  H
  O13      1.0000 0.56512  0.72015  0.49070  Biso   1.000  O
  C18      1.0000 0.50803  0.70352  0.33428  Biso   1.000  C
  C19      1.0000 0.47800  0.70389  0.33879  Biso   1.000  C
  C20      1.0000 0.57607  0.28880  0.39536  Biso   1.000  C
  H12      1.0000 0.71207  0.26670  0.41779  Biso   1.000  H
  O14      1.0000 0.62431  0.26907  0.46911  Biso   1.000  O
  O15      1.0000 0.61113  0.37721  0.28060  Biso   1.000  O
  O16      1.0000 0.58888  0.38309  0.28190  Biso   1.000  O
  O17      1.0000 0.43272  0.68244  0.42991  Biso   1.000  O
  H13      1.0000 0.51998  0.74462  0.41419  Biso   1.000  H
  O18      1.0000 0.54007  0.75740  0.32731  Biso   1.000  O
  O19      1.0000 0.49363  0.76439  0.33801  Biso   1.000  O
  O20      1.0000 0.50299  0.32267  0.41209  Biso   1.000  O
  H14      1.0000 0.55159  0.25060  0.39169  Biso   1.000  H
  C21      1.0000 0.34819  0.71361  0.42560  Biso   1.000  C
  C22      1.0000 0.40500  0.30465  0.41121  Biso   1.000  C
  C23      1.0000 0.29340  0.70654  0.46775  Biso   1.000  C
  O21      1.0000 0.29153  0.69543  0.39069  Biso   1.000  O
  H15      1.0000 0.36518  0.75299  0.42139  Biso   1.000  H
  C24      1.0000 0.34740  0.33611  0.37750  Biso   1.000  C
  C25      1.0000 0.36612  0.31605  0.45640  Biso   1.000  C
  H16      1.0000 0.40219  0.26462  0.40499  Biso   1.000  H
  C26      1.0000 0.26661  0.64722  0.47364  Biso   1.000  C
  H17      1.0000 0.23263  0.72832  0.46590  Biso   1.000  H
  O22      1.0000 0.34920  0.72725  0.50314  Biso   1.000  O
  C27      1.0000 0.26712  0.63880  0.39302  Biso   1.000  C
  C28      1.0000 0.37339  0.32022  0.33153  Biso   1.000  C
  H18      1.0000 0.35899  0.37611  0.38152  Biso   1.000  H
  O23      1.0000 0.24638  0.32500  0.38284  Biso   1.000  O
  C29      1.0000 0.25913  0.30710  0.45877  Biso   1.000  C
  H19      1.0000 0.37872  0.35539  0.46301  Biso   1.000  H
  O24      1.0000 0.41580  0.28402  0.48823  Biso   1.000  O
  C30      1.0000 0.21081  0.62716  0.43465  Biso   1.000  C
  H20      1.0000 0.32681  0.62499  0.47659  Biso   1.000  H
  O25      1.0000 0.21031  0.64109  0.51225  Biso   1.000  O
  H21      1.0000 0.32630  0.61568  0.39160  Biso   1.000  H
  C31      1.0000 0.20210  0.62839  0.35360  Biso   1.000  C
  C32      1.0000 0.24422  0.61421  0.35159  Biso   1.000  C
  O26      1.0000 0.32573  0.35339  0.30034  Biso   1.000  O
  H22      1.0000 0.44388  0.32361  0.32761  Biso   1.000  H
  H23      1.0000 0.35582  0.28149  0.32660  Biso   1.000  H
  C33      1.0000 0.21002  0.34020  0.42372  Biso   1.000  C
  H24      1.0000 0.24530  0.26752  0.45381  Biso   1.000  H
  O27      1.0000 0.22313  0.32218  0.50039  Biso   1.000  O
  O28      1.0000 0.19922  0.56988  0.44077  Biso   1.000  O
  H25      1.0000 0.14637  0.64538  0.43351  Biso   1.000  H
  O29      1.0000 0.24249  0.63611  0.31441  Biso   1.000  O
  O30      1.0000 0.26849  0.62120  0.31671  Biso   1.000  O
  O31      1.0000 0.16963  0.64440  0.33720  Biso   1.000  O
  O32      1.0000 0.22701  0.39580  0.43251  Biso   1.000  O
  H26      1.0000 0.13917  0.33301  0.42460  Biso   1.000  H
  C34      1.0000 0.10577  0.54811  0.43633  Biso   1.000  C
  C35      1.0000 0.14803  0.43367  0.43192  Biso   1.000  C
  C36      1.0000 0.08597  0.51130  0.47527  Biso   1.000  C
  O33      1.0000 0.09713  0.51771  0.39756  Biso   1.000  O
  H27      1.0000 0.05803  0.57871  0.43601  Biso   1.000  H
  C37      1.0000 0.15091  0.46260  0.47523  Biso   1.000  C
  H28      1.0000 0.08568  0.41369  0.42839  Biso   1.000  H
  C38      1.0000 0.16329  0.47326  0.39422  Biso   1.000  C
  H29      1.0000 0.01742  0.49879  0.47439  Biso   1.000  H
  O34      1.0000 0.10109  0.54398  0.51362  Biso   1.000  O
  H30      1.0000 0.21823  0.47579  0.48010  Biso   1.000  H
  O35      1.0000 0.12722  0.42636  0.50960  Biso   1.000  O
  H31      1.0000 0.23047  0.48780  0.39529  Biso   1.000  H
  C39      1.0000 0.14587  0.44760  0.35040  Biso   1.000  C
  H32      1.0000 0.16409  0.47391  0.32751  Biso   1.000  H
  H33      1.0000 0.18741  0.41500  0.34732  Biso   1.000  H
  O36      1.0000 0.04810  0.43204  0.34466  Biso   1.000  O
  C40      1.0000 0.75923  0.36430  0.58033  Biso   1.000  C
  C41      1.0000 0.73540  0.33958  0.62416  Biso   1.000  C
  C42      1.0000 0.86579  0.37733  0.57835  Biso   1.000  C
  H34      1.0000 0.72158  0.39878  0.57650  Biso   1.000  H
  O37      1.0000 0.73598  0.32765  0.54636  Biso   1.000  O
  O38      1.0000 0.63302  0.33325  0.62529  Biso   1.000  O
  H35      1.0000 0.76751  0.30318  0.62730  Biso   1.000  H
  C43      1.0000 0.76802  0.37778  0.66014  Biso   1.000  C
  C44      1.0000 0.89358  0.41439  0.61628  Biso   1.000  C
  H36      1.0000 0.90201  0.34228  0.58159  Biso   1.000  H
  O39      1.0000 0.89301  0.40115  0.53809  Biso   1.000  O
  C45      1.0000 0.59457  0.28222  0.63745  Biso   1.000  C
  H37      1.0000 0.73173  0.41292  0.65771  Biso   1.000  H
  O40      1.0000 0.86853  0.38869  0.65576  Biso   1.000  O
  C46      1.0000 0.75419  0.35478  0.70491  Biso   1.000  C
  O41      1.0000 0.84311  0.46346  0.61022  Biso   1.000  O
  H38      1.0000 0.96450  0.42162  0.61560  Biso   1.000  H
  C47      1.0000 0.51818  0.26617  0.60409  Biso   1.000  C
  H39      1.0000 0.64699  0.25420  0.63761  Biso   1.000  H
  O42      1.0000 0.55080  0.28414  0.67884  Biso   1.000  O
  H40      1.0000 0.77817  0.38122  0.72669  Biso   1.000  H
  H41      1.0000 0.68479  0.34861  0.71029  Biso   1.000  H
  O43      1.0000 0.80431  0.30551  0.70873  Biso   1.000  O
  C48      1.0000 0.89063  0.51403  0.61936  Biso   1.000  C
  C49      1.0000 0.43668  0.30637  0.60467  Biso   1.000  C
  H42      1.0000 0.49298  0.22891  0.61109  Biso   1.000  H
  O44      1.0000 0.56419  0.26511  0.56269  Biso   1.000  O
  C50      1.0000 0.47548  0.32390  0.68277  Biso   1.000  C
  C51      1.0000 0.86500  0.55113  0.58130  Biso   1.000  C
  H43      1.0000 0.96177  0.50860  0.62111  Biso   1.000  H
  C52      1.0000 0.85183  0.53728  0.66186  Biso   1.000  C
  O45      1.0000 0.35928  0.28999  0.57715  Biso   1.000  O
  H44      1.0000 0.46123  0.34269  0.59469  Biso   1.000  H
  C53      1.0000 0.39607  0.31250  0.65012  Biso   1.000  C
  H45      1.0000 0.50270  0.36111  0.67729  Biso   1.000  H
  C54      1.0000 0.44193  0.32038  0.72954  Biso   1.000  C
  C55      1.0000 0.89099  0.61057  0.59061  Biso   1.000  C
  H46      1.0000 0.79401  0.54880  0.57621  Biso   1.000  H
  O46      1.0000 0.91317  0.53062  0.54393  Biso   1.000  O
  O47      1.0000 0.88019  0.59370  0.66682  Biso   1.000  O
  C56      1.0000 0.87551  0.50762  0.70361  Biso   1.000  C
  C57      1.0000 0.89920  0.50901  0.70040  Biso   1.000  C
  H47      1.0000 0.35899  0.27912  0.65849  Biso   1.000  H
  O48      1.0000 0.33350  0.35907  0.64792  Biso   1.000  O
  H48      1.0000 0.49737  0.32631  0.74919  Biso   1.000  H
  H49      1.0000 0.39412  0.34959  0.73519  Biso   1.000  H
  O49      1.0000 0.39981  0.26878  0.73836  Biso   1.000  O
  C58      1.0000 0.84571  0.62777  0.63333  Biso   1.000  C
  H50      1.0000 0.96249  0.61470  0.59219  Biso   1.000  H
  O50      1.0000 0.85319  0.64481  0.55728  Biso   1.000  O
  O51      1.0000 0.84700  0.52641  0.73771  Biso   1.000  O
  O52      1.0000 0.97739  0.49961  0.70831  Biso   1.000  O
  C59      1.0000 0.24012  0.35658  0.66562  Biso   1.000  C
  O53      1.0000 0.74512  0.62258  0.62908  Biso   1.000  O
  H51      1.0000 0.86263  0.66671  0.63968  Biso   1.000  H
  H52      1.0000 0.22291  0.31781  0.67220  Biso   1.000  H
  C60      1.0000 0.17201  0.37942  0.63145  Biso   1.000  C
  O54      1.0000 0.23443  0.38828  0.70368  Biso   1.000  O
  C61      1.0000 0.68471  0.66781  0.64063  Biso   1.000  C
  H53      1.0000 0.10519  0.37750  0.64351  Biso   1.000  H
  O55      1.0000 0.17373  0.34776  0.59281  Biso   1.000  O
  C62      1.0000 0.19433  0.43894  0.62257  Biso   1.000  C
  C63      1.0000 0.26273  0.44401  0.69761  Biso   1.000  C
  C64      1.0000 0.61509  0.67427  0.60305  Biso   1.000  C
  H54      1.0000 0.72359  0.70172  0.64500  Biso   1.000  H
  C65      1.0000 0.62827  0.65298  0.68166  Biso   1.000  C
  H55      1.0000 0.25869  0.44160  0.60821  Biso   1.000  H
  O56      1.0000 0.12413  0.46415  0.59560  Biso   1.000  O
  C66      1.0000 0.19627  0.47171  0.66455  Biso   1.000  C
  H56      1.0000 0.33033  0.44511  0.68659  Biso   1.000  H
  C67      1.0000 0.25877  0.47150  0.74241  Biso   1.000  C
  C68      1.0000 0.53899  0.71671  0.61421  Biso   1.000  C
  H57      1.0000 0.58240  0.63852  0.59800  Biso   1.000  H
  O57      1.0000 0.66247  0.68979  0.56457  Biso   1.000  O
  O58      1.0000 0.55807  0.69510  0.69003  Biso   1.000  O
  H58      1.0000 0.59169  0.61878  0.67521  Biso   1.000  H
  C69      1.0000 0.68723  0.64219  0.72251  Biso   1.000  C
  C70      1.0000 0.70523  0.67398  0.72011  Biso   1.000  C
  H59      1.0000 0.12967  0.47518  0.67661  Biso   1.000  H
  O59      1.0000 0.23407  0.52466  0.65388  Biso   1.000  O
  O60      1.0000 0.33530  0.44809  0.76890  Biso   1.000  O
  O61      1.0000 0.14969  0.47649  0.75379  Biso   1.000  O
  C71      1.0000 0.48931  0.70098  0.65628  Biso   1.000  C
  H60      1.0000 0.57261  0.75230  0.61910  Biso   1.000  H
  O62      1.0000 0.47188  0.72439  0.58033  Biso   1.000  O
  O63      1.0000 0.63093  0.61588  0.75538  Biso   1.000  O
  O64      1.0000 0.74887  0.73089  0.71509  Biso   1.000  O
  C72      1.0000 0.18691  0.57152  0.67029  Biso   1.000  C
  O65      1.0000 0.44121  0.65212  0.64860  Biso   1.000  O
  H61      1.0000 0.44172  0.72991  0.66439  Biso   1.000  H
  O66      1.0000 0.77450  0.77689  0.71849  Biso   1.000  O
  O67      1.0000 0.78127  0.79569  0.73211  Biso   1.000  O
  H62      1.0000 0.11938  0.56179  0.67849  Biso   1.000  H
  C73      1.0000 0.18533  0.61249  0.63278  Biso   1.000  C
  O68      1.0000 0.23443  0.59341  0.70607  Biso   1.000  O
  C74      1.0000 0.34200  0.64791  0.66102  Biso   1.000  C
  H63      1.0000 0.15041  0.64599  0.64260  Biso   1.000  H
  O69      1.0000 0.13550  0.59051  0.59670  Biso   1.000  O
  C75      1.0000 0.28771  0.62851  0.62127  Biso   1.000  C
  C76      1.0000 0.33393  0.60649  0.69794  Biso   1.000  C
  H64      1.0000 0.31723  0.68432  0.67061  Biso   1.000  H
  H65      1.0000 0.32148  0.59611  0.60879  Biso   1.000  H
  O70      1.0000 0.29138  0.67218  0.59074  Biso   1.000  O
  H66      1.0000 0.36727  0.57229  0.68860  Biso   1.000  H
  C77      1.0000 0.37742  0.62459  0.74008  Biso   1.000  C
  H67      1.0000 0.37008  0.59488  0.76161  Biso   1.000  H
  H68      1.0000 0.44719  0.63092  0.73580  Biso   1.000  H
  O71      1.0000 0.33480  0.67300  0.75687  Biso   1.000  O
  O72      1.0000 0.84923  0.77273  0.49686  Biso   1.000  O
  C78      1.0000 0.79343  0.79348  0.53225  Biso   1.000  C
  C79      1.0000 0.84823  0.78641  0.57440  Biso   1.000  C
  H69      1.0000 0.73259  0.77170  0.53410  Biso   1.000  H
  C80      1.0000 0.76658  0.85280  0.52636  Biso   1.000  C
  O73      1.0000 0.93268  0.81754  0.57009  Biso   1.000  O
  H70      1.0000 0.86522  0.74699  0.57861  Biso   1.000  H
  O74      1.0000 0.79149  0.80455  0.60931  Biso   1.000  O
  H71      1.0000 0.82677  0.87498  0.52341  Biso   1.000  H
  O75      1.0000 0.71027  0.85889  0.48775  Biso   1.000  O
  C81      1.0000 0.71078  0.87286  0.56535  Biso   1.000  C
  C82      1.0000 0.02398  0.79597  0.58286  Biso   1.000  C
  C83      1.0000 0.76708  0.86122  0.60698  Biso   1.000  C
  H72      1.0000 0.64641  0.85460  0.56649  Biso   1.000  H
  O76      1.0000 0.69919  0.93010  0.55923  Biso   1.000  O
  C84      1.0000 0.09288  0.81109  0.54639  Biso   1.000  C
  H73      1.0000 0.02002  0.75540  0.58581  Biso   1.000  H
  C85      1.0000 0.05342  0.82151  0.62591  Biso   1.000  C
  H74      1.0000 0.82627  0.88430  0.60840  Biso   1.000  H
  C86      1.0000 0.70207  0.87159  0.64640  Biso   1.000  C
  C87      1.0000 0.74419  0.88581  0.64841  Biso   1.000  C
  C88      1.0000 0.60580  0.95191  0.56367  Biso   1.000  C
  C89      1.0000 0.19533  0.80218  0.55952  Biso   1.000  C
  H75      1.0000 0.08402  0.85072  0.53948  Biso   1.000  H
  O77      1.0000 0.06509  0.77983  0.50930  Biso   1.000  O
  C90      1.0000 0.97797  0.79609  0.66121  Biso   1.000  C
  O78      1.0000 0.15422  0.81452  0.63404  Biso   1.000  O
  C91      1.0000 0.00799  0.79650  0.66572  Biso   1.000  C
  O79      1.0000 0.74253  0.86391  0.68559  Biso   1.000  O
  O80      1.0000 0.76852  0.87878  0.68329  Biso   1.000  O
  O81      1.0000 0.66959  0.85562  0.66280  Biso   1.000  O
  H76      1.0000 0.55800  0.92131  0.56399  Biso   1.000  H
  C92      1.0000 0.58600  0.98868  0.52473  Biso   1.000  C
  O82      1.0000 0.59709  0.98231  0.60244  Biso   1.000  O
  C93      1.0000 0.21557  0.83409  0.60127  Biso   1.000  C
  H77      1.0000 0.20772  0.76239  0.56419  Biso   1.000  H
  O83      1.0000 0.25747  0.82294  0.52587  Biso   1.000  O
  O84      1.0000 0.99359  0.73559  0.66199  Biso   1.000  O
  O85      1.0000 0.04010  0.74262  0.67269  Biso   1.000  O
  O86      1.0000 0.60112  0.95604  0.48638  Biso   1.000  O
  H78      1.0000 0.51739  0.00118  0.52561  Biso   1.000  H
  C94      1.0000 0.65087  0.03738  0.52477  Biso   1.000  C
  C95      1.0000 0.66333  0.02676  0.60578  Biso   1.000  C
  O87      1.0000 0.19778  0.88981  0.59232  Biso   1.000  O
  H79      1.0000 0.28433  0.82898  0.61009  Biso   1.000  H
  H80      1.0000 0.71819  0.02419  0.51990  Biso   1.000  H
  O88      1.0000 0.62719  0.07362  0.49040  Biso   1.000  O
  C96      1.0000 0.64799  0.06631  0.56808  Biso   1.000  C
  H81      1.0000 0.73051  0.01222  0.60471  Biso   1.000  H
  C97      1.0000 0.64591  0.05242  0.64960  Biso   1.000  C
  C98      1.0000 0.26820  0.92920  0.60646  Biso   1.000  C
  H82      1.0000 0.58572  0.08629  0.57161  Biso   1.000  H
  O89      1.0000 0.72698  0.10418  0.56749  Biso   1.000  O
  H83      1.0000 0.66412  0.02611  0.67249  Biso   1.000  H
  H84      1.0000 0.68738  0.08502  0.65268  Biso   1.000  H
  O90      1.0000 0.54813  0.06794  0.65534  Biso   1.000  O
  C99      1.0000 0.29412  0.96339  0.56785  Biso   1.000  C
  H85      1.0000 0.32659  0.91020  0.61800  Biso   1.000  H
  C100     1.0000 0.22248  0.96470  0.64186  Biso   1.000  C
  C101     1.0000 0.70999  0.15982  0.57628  Biso   1.000  C
  H86      1.0000 0.23378  0.97851  0.55491  Biso   1.000  H
  O91      1.0000 0.34293  0.93075  0.53579  Biso   1.000  O
  C102     1.0000 0.35913  0.01009  0.58078  Biso   1.000  C
  H87      1.0000 0.15689  0.97810  0.63379  Biso   1.000  H
  C103     1.0000 0.18453  0.93010  0.68089  Biso   1.000  C
  C104     1.0000 0.22442  0.93672  0.68549  Biso   1.000  C
  O92      1.0000 0.28843  0.00874  0.65236  Biso   1.000  O
  H88      1.0000 0.63921  0.16701  0.57540  Biso   1.000  H
  C105     1.0000 0.75909  0.19292  0.54123  Biso   1.000  C
  O93      1.0000 0.74642  0.17502  0.61716  Biso   1.000  O
  H89      1.0000 0.42069  0.99412  0.59171  Biso   1.000  H
  C106     1.0000 0.31392  0.04241  0.61758  Biso   1.000  C
  O94      1.0000 0.38181  0.04502  0.54587  Biso   1.000  O
  O95      1.0000 0.11678  0.94660  0.70620  Biso   1.000  O
  O96      1.0000 0.26352  0.92479  0.70620  Biso   1.000  O
  O97      1.0000 0.31889  0.92029  0.70011  Biso   1.000  O
  H90      1.0000 0.74527  0.23250  0.54619  Biso   1.000  H
  O98      1.0000 0.72309  0.17784  0.49961  Biso   1.000  O
  C107     1.0000 0.86608  0.18397  0.54360  Biso   1.000  C
  C108     1.0000 0.84743  0.16391  0.62250  Biso   1.000  C
  O99      1.0000 0.23148  0.06962  0.60062  Biso   1.000  O
  H91      1.0000 0.36101  0.07039  0.62789  Biso   1.000  H
  H92      1.0000 0.87868  0.14458  0.53699  Biso   1.000  H
  O100     1.0000 0.91583  0.21600  0.51177  Biso   1.000  O
  C109     1.0000 0.90503  0.19537  0.58879  Biso   1.000  C
  H93      1.0000 0.85903  0.12391  0.61848  Biso   1.000  H
  C110     1.0000 0.87343  0.17980  0.66847  Biso   1.000  C
  C111     1.0000 0.22039  0.12689  0.60899  Biso   1.000  C
  H94      1.0000 0.90222  0.23540  0.59501  Biso   1.000  H
  O101     1.0000 0.00302  0.17735  0.58791  Biso   1.000  O
  H95      1.0000 0.94391  0.17641  0.67239  Biso   1.000  H
  H96      1.0000 0.85579  0.21849  0.67340  Biso   1.000  H
  O102     1.0000 0.82569  0.14659  0.69966  Biso   1.000  O
  C112     1.0000 0.19310  0.15231  0.56581  Biso   1.000  C
  H97      1.0000 0.28238  0.14271  0.61972  Biso   1.000  H
  C113     1.0000 0.14069  0.13494  0.64286  Biso   1.000  C
  C114     1.0000 0.07610  0.21122  0.60464  Biso   1.000  C
  C115     1.0000 0.15789  0.20999  0.57158  Biso   1.000  C
  H98      1.0000 0.14018  0.13008  0.55261  Biso   1.000  H
  O103     1.0000 0.27583  0.14896  0.53851  Biso   1.000  O
  H99      1.0000 0.08431  0.11121  0.63570  Biso   1.000  H
  O104     1.0000 0.11102  0.19116  0.64445  Biso   1.000  O
  C116     1.0000 0.17748  0.12150  0.68756  Biso   1.000  C
  H100     1.0000 0.05162  0.24942  0.60831  Biso   1.000  H
  H101     1.0000 0.21211  0.23328  0.58221  Biso   1.000  H
  O105     1.0000 0.12427  0.23095  0.53089  Biso   1.000  O
  O106     1.0000 0.11110  0.12281  0.71940  Biso   1.000  O
  O107     1.0000 0.08892  0.11689  0.71810  Biso   1.000  O
  O108     1.0000 0.65303  0.47359  0.23771  Biso   1.000  O
  C117     1.0000 0.62452  0.49238  0.20361  Biso   1.000  C
  C118     1.0000 0.60084  0.49099  0.20040  Biso   1.000  C
  C119     1.0000 0.64821  0.46272  0.16186  Biso   1.000  C
  O109     1.0000 0.52257  0.50039  0.20831  Biso   1.000  O
  O110     1.0000 0.61977  0.40630  0.16682  Biso   1.000  O
  C120     1.0000 0.60940  0.48597  0.11936  Biso   1.000  C
  C121     1.0000 0.65433  0.37223  0.13333  Biso   1.000  C
  C122     1.0000 0.63503  0.44887  0.08130  Biso   1.000  C
  H102     1.0000 0.53820  0.49140  0.12111  Biso   1.000  H
  O111     1.0000 0.65692  0.53654  0.11022  Biso   1.000  O
  O112     1.0000 0.75491  0.37742  0.12908  Biso   1.000  O
  H103     1.0000 0.63741  0.33329  0.13968  Biso   1.000  H
  C123     1.0000 0.60897  0.38943  0.09061  Biso   1.000  C
  H104     1.0000 0.70603  0.45120  0.07621  Biso   1.000  H
  O113     1.0000 0.58680  0.46938  0.04393  Biso   1.000  O
  C124     1.0000 0.60638  0.58561  0.11628  Biso   1.000  C
  C125     1.0000 0.81532  0.33219  0.14063  Biso   1.000  C
  H105     1.0000 0.53748  0.38530  0.09219  Biso   1.000  H
  O114     1.0000 0.64677  0.35519  0.05728  Biso   1.000  O
  H106     1.0000 0.53553  0.57838  0.11560  Biso   1.000  H
  C126     1.0000 0.63417  0.62267  0.07835  Biso   1.000  C
  O115     1.0000 0.63151  0.61131  0.15576  Biso   1.000  O
  C127     1.0000 0.87170  0.34702  0.18166  Biso   1.000  C
  C128     1.0000 0.88487  0.32573  0.10305  Biso   1.000  C
  H107     1.0000 0.77637  0.29828  0.14500  Biso   1.000  H
  H108     1.0000 0.59803  0.65772  0.08159  Biso   1.000  H
  O116     1.0000 0.60703  0.59885  0.03809  Biso   1.000  O
  C129     1.0000 0.74080  0.63570  0.08033  Biso   1.000  C
  C130     1.0000 0.73202  0.62222  0.16014  Biso   1.000  C
  C131     1.0000 0.79480  0.32602  0.22011  Biso   1.000  C
  H109     1.0000 0.90827  0.38122  0.17521  Biso   1.000  H
  O117     1.0000 0.94190  0.30490  0.19003  Biso   1.000  O
  C132     1.0000 0.81280  0.35781  0.22251  Biso   1.000  C
  C133     1.0000 0.96098  0.28329  0.11421  Biso   1.000  C
  H110     1.0000 0.91763  0.36148  0.09800  Biso   1.000  H
  O118     1.0000 0.83750  0.31021  0.06457  Biso   1.000  O
  H111     1.0000 0.77839  0.60122  0.07650  Biso   1.000  H
  O119     1.0000 0.76399  0.67235  0.04636  Biso   1.000  O
  C134     1.0000 0.76463  0.66042  0.12416  Biso   1.000  C
  H112     1.0000 0.76831  0.58708  0.15771  Biso   1.000  H
  C135     1.0000 0.74577  0.64522  0.20491  Biso   1.000  C
  O120     1.0000 0.75110  0.26911  0.21509  Biso   1.000  O
  C136     1.0000 0.01073  0.29902  0.15628  Biso   1.000  C
  O121     1.0000 0.86911  0.38412  0.25538  Biso   1.000  O
  H113     1.0000 0.92742  0.24770  0.11910  Biso   1.000  H
  O122     1.0000 0.02808  0.27561  0.08033  Biso   1.000  O
  H114     1.0000 0.73252  0.69682  0.12730  Biso   1.000  H
  O123     1.0000 0.86702  0.66675  0.12529  Biso   1.000  O
  H115     1.0000 0.72179  0.61878  0.22669  Biso   1.000  H
  H116     1.0000 0.81518  0.65139  0.21029  Biso   1.000  H
  O124     1.0000 0.69573  0.69449  0.20873  Biso   1.000  O
  O125     1.0000 0.71870  0.20431  0.23211  Biso   1.000  O
  O126     1.0000 0.72547  0.22311  0.21849  Biso   1.000  O
  O127     1.0000 0.05882  0.34788  0.14860  Biso   1.000  O
  H117     1.0000 0.05832  0.27009  0.16439  Biso   1.000  H
  C137     1.0000 0.90539  0.71778  0.13745  Biso   1.000  C
  C138     1.0000 0.15797  0.35209  0.16102  Biso   1.000  C
  H118     1.0000 0.85298  0.74580  0.13761  Biso   1.000  H
  C139     1.0000 0.98178  0.73383  0.10409  Biso   1.000  C
  O128     1.0000 0.94917  0.71586  0.17884  Biso   1.000  O
  C140     1.0000 0.21233  0.37149  0.12127  Biso   1.000  C
  H119     1.0000 0.18281  0.31568  0.17061  Biso   1.000  H
  C141     1.0000 0.16610  0.39351  0.19794  Biso   1.000  C
  O129     1.0000 0.93578  0.73489  0.06269  Biso   1.000  O
  H120     1.0000 0.00698  0.77109  0.11109  Biso   1.000  H
  C142     1.0000 0.06329  0.69363  0.10467  Biso   1.000  C
  C143     1.0000 0.02448  0.67610  0.18277  Biso   1.000  C
  C144     1.0000 0.31471  0.38751  0.13278  Biso   1.000  C
  H121     1.0000 0.17849  0.40389  0.10879  Biso   1.000  H
  O130     1.0000 0.20858  0.32782  0.09074  Biso   1.000  O
  H122     1.0000 0.13269  0.42771  0.18860  Biso   1.000  H
  O131     1.0000 0.26561  0.40659  0.20607  Biso   1.000  O
  C145     1.0000 0.12262  0.37541  0.24008  Biso   1.000  C
  C146     1.0000 0.10390  0.68750  0.15012  Biso   1.000  C
  H123     1.0000 0.03881  0.65731  0.09469  Biso   1.000  H
  O132     1.0000 0.14069  0.71001  0.07715  Biso   1.000  O
  H124     1.0000 0.99726  0.63889  0.17729  Biso   1.000  H
  C147     1.0000 0.05810  0.67962  0.22954  Biso   1.000  C
  C148     1.0000 0.31313  0.42848  0.17029  Biso   1.000  C
  H125     1.0000 0.34963  0.35401  0.14260  Biso   1.000  H
  O133     1.0000 0.36453  0.40949  0.09670  Biso   1.000  O
  H126     1.0000 0.12989  0.40512  0.26161  Biso   1.000  H
  H127     1.0000 0.05278  0.36908  0.23580  Biso   1.000  H
  O134     1.0000 0.16517  0.32700  0.25687  Biso   1.000  O
  O135     1.0000 0.16653  0.64093  0.14792  Biso   1.000  O
  H128     1.0000 0.14097  0.72088  0.15849  Biso   1.000  H
  H129     1.0000 0.00259  0.67369  0.24919  Biso   1.000  H
  H130     1.0000 0.10591  0.65041  0.23519  Biso   1.000  H
  O136     1.0000 0.10022  0.73122  0.23836  Biso   1.000  O
  O137     1.0000 0.26589  0.47534  0.15388  Biso   1.000  O
  H131     1.0000 0.38059  0.43821  0.17849  Biso   1.000  H
  C149     1.0000 0.25992  0.64342  0.16562  Biso   1.000  C
  C150     1.0000 0.30369  0.52829  0.16455  Biso   1.000  C
  C151     1.0000 0.32803  0.62058  0.13145  Biso   1.000  C
  O138     1.0000 0.26561  0.61172  0.20368  Biso   1.000  O
  H132     1.0000 0.27713  0.68219  0.17220  Biso   1.000  H
  C152     1.0000 0.30571  0.56106  0.12257  Biso   1.000  C
  H133     1.0000 0.37029  0.52482  0.17661  Biso   1.000  H
  C153     1.0000 0.23731  0.55599  0.19761  Biso   1.000  C
  H134     1.0000 0.39477  0.62250  0.14351  Biso   1.000  H
  O139     1.0000 0.32630  0.65224  0.09281  Biso   1.000  O
  H135     1.0000 0.24127  0.55840  0.10821  Biso   1.000  H
  O140     1.0000 0.37591  0.53585  0.09560  Biso   1.000  O
  H136     1.0000 0.16970  0.55489  0.18659  Biso   1.000  H
  C154     1.0000 0.24120  0.52850  0.24241  Biso   1.000  C
  O141     1.0000 0.16473  0.55191  0.26890  Biso   1.000  O
  O142     1.0000 0.35028  0.52351  0.25379  Biso   1.000  O
  O143     1.0000 0.35323  0.85517  0.44272  Biso   1.000  O
  C155     1.0000 0.39103  0.88945  0.40939  Biso   1.000  C
  C156     1.0000 0.34567  0.87221  0.36667  Biso   1.000  C
  H137     1.0000 0.46252  0.88528  0.40781  Biso   1.000  H
  C157     1.0000 0.36497  0.94885  0.41870  Biso   1.000  C
  O144     1.0000 0.24509  0.87740  0.37092  Biso   1.000  O
  H138     1.0000 0.36259  0.83331  0.36032  Biso   1.000  H
  O145     1.0000 0.38023  0.90632  0.33318  Biso   1.000  O
  H139     1.0000 0.29397  0.95122  0.42379  Biso   1.000  H
  O146     1.0000 0.41320  0.96940  0.45607  Biso   1.000  O
  C158     1.0000 0.39060  0.98599  0.38064  Biso   1.000  C
  C159     1.0000 0.18468  0.83221  0.35938  Biso   1.000  C
  C160     1.0000 0.35179  0.96274  0.33814  Biso   1.000  C
  H140     1.0000 0.46180  0.99138  0.37889  Biso   1.000  H
  O147     1.0000 0.34308  0.03652  0.38978  Biso   1.000  O
  C161     1.0000 0.12830  0.84700  0.31834  Biso   1.000  C
  C162     1.0000 0.11513  0.82571  0.39695  Biso   1.000  C
  H141     1.0000 0.22363  0.79830  0.35500  Biso   1.000  H
  C163     1.0000 0.37548  0.99240  0.29639  Biso   1.000  C
  C164     1.0000 0.39916  0.99101  0.29960  Biso   1.000  C
  C165     1.0000 0.39362  0.08559  0.38372  Biso   1.000  C
  C166     1.0000 0.20520  0.82600  0.27989  Biso   1.000  C
  H142     1.0000 0.09173  0.88119  0.32479  Biso   1.000  H
  O148     1.0000 0.05810  0.80492  0.30997  Biso   1.000  O
  C167     1.0000 0.18720  0.85778  0.27749  Biso   1.000  C
  C168     1.0000 0.03902  0.78331  0.38579  Biso   1.000  C
  H143     1.0000 0.08237  0.86150  0.40200  Biso   1.000  H
  O149     1.0000 0.16250  0.81019  0.43543  Biso   1.000  O
  O150     1.0000 0.34697  0.97361  0.26229  Biso   1.000  O
  O151     1.0000 0.47743  0.00041  0.29169  Biso   1.000  O
  H144     1.0000 0.46447  0.07840  0.38440  Biso   1.000  H
  C169     1.0000 0.36583  0.12265  0.42165  Biso   1.000  C
  O152     1.0000 0.36849  0.11133  0.34424  Biso   1.000  O
  O153     1.0000 0.24890  0.76909  0.28491  Biso   1.000  O
  C170     1.0000 0.98927  0.79899  0.34372  Biso   1.000  C
  O154     1.0000 0.13089  0.88410  0.24462  Biso   1.000  O
  H145     1.0000 0.07258  0.74768  0.38090  Biso   1.000  H
  O155     1.0000 0.97192  0.77559  0.41967  Biso   1.000  O
  H146     1.0000 0.40197  0.15770  0.41841  Biso   1.000  H
  O156     1.0000 0.39297  0.09887  0.46191  Biso   1.000  O
  C171     1.0000 0.25920  0.13572  0.41967  Biso   1.000  C
  C172     1.0000 0.26798  0.12220  0.33986  Biso   1.000  C
  O157     1.0000 0.28130  0.70429  0.26789  Biso   1.000  O
  O158     1.0000 0.27453  0.72309  0.28151  Biso   1.000  O
  O159     1.0000 0.94118  0.84790  0.35140  Biso   1.000  O
  H147     1.0000 0.94168  0.77011  0.33561  Biso   1.000  H
  H148     1.0000 0.22161  0.10120  0.42350  Biso   1.000  H
  O160     1.0000 0.23601  0.17233  0.45364  Biso   1.000  O
  C173     1.0000 0.23537  0.16040  0.37584  Biso   1.000  C
  H149     1.0000 0.23169  0.08710  0.34229  Biso   1.000  H
  C174     1.0000 0.25423  0.14520  0.29509  Biso   1.000  C
  C175     1.0000 0.84203  0.85211  0.33898  Biso   1.000  C
  H150     1.0000 0.26748  0.19680  0.37270  Biso   1.000  H
  O161     1.0000 0.13298  0.16677  0.37471  Biso   1.000  O
  H151     1.0000 0.27821  0.11881  0.27331  Biso   1.000  H
  H152     1.0000 0.18482  0.15141  0.28971  Biso   1.000  H
  O162     1.0000 0.30427  0.19451  0.29127  Biso   1.000  O
  C176     1.0000 0.78767  0.87151  0.37873  Biso   1.000  C
  H153     1.0000 0.81719  0.81570  0.32939  Biso   1.000  H
  C177     1.0000 0.83390  0.89349  0.30206  Biso   1.000  C
  C178     1.0000 0.09461  0.21776  0.36255  Biso   1.000  C
  C179     1.0000 0.68529  0.88749  0.36722  Biso   1.000  C
  H154     1.0000 0.82151  0.90391  0.39121  Biso   1.000  H
  O163     1.0000 0.79142  0.82784  0.40926  Biso   1.000  O
  H155     1.0000 0.86731  0.92769  0.31140  Biso   1.000  H
  O164     1.0000 0.73439  0.90657  0.29393  Biso   1.000  O
  C180     1.0000 0.87738  0.87539  0.25992  Biso   1.000  C
  H156     1.0000 0.14702  0.24578  0.36239  Biso   1.000  H
  C181     1.0000 0.01822  0.23381  0.39591  Biso   1.000  C
  O165     1.0000 0.05083  0.21584  0.32116  Biso   1.000  O
  C182     1.0000 0.68687  0.92850  0.32971  Biso   1.000  C
  H157     1.0000 0.65037  0.85399  0.35740  Biso   1.000  H
  O166     1.0000 0.63547  0.90947  0.40330  Biso   1.000  O
  H158     1.0000 0.87011  0.90509  0.23839  Biso   1.000  H
  H159     1.0000 0.94722  0.86910  0.26420  Biso   1.000  H
  O167     1.0000 0.83483  0.82698  0.24313  Biso   1.000  O
  H160     1.0000 0.99302  0.27111  0.38891  Biso   1.000  H
  C183     1.0000 0.93671  0.19365  0.39533  Biso   1.000  C
  O168     1.0000 0.06422  0.23491  0.43731  Biso   1.000  O
  C184     1.0000 0.97552  0.17608  0.31723  Biso   1.000  C
  O169     1.0000 0.73411  0.97536  0.34612  Biso   1.000  O
  H161     1.0000 0.61941  0.93819  0.32151  Biso   1.000  H
  C185     1.0000 0.89610  0.18748  0.34988  Biso   1.000  C
  H162     1.0000 0.96119  0.15729  0.40531  Biso   1.000  H
  O170     1.0000 0.85931  0.21003  0.42285  Biso   1.000  O
  C186     1.0000 0.94190  0.17960  0.27046  Biso   1.000  C
  H163     1.0000 0.00274  0.13891  0.32271  Biso   1.000  H
  C187     1.0000 0.69631  0.02831  0.33545  Biso   1.000  C
  O171     1.0000 0.83347  0.14095  0.35208  Biso   1.000  O
  H164     1.0000 0.85903  0.22090  0.34151  Biso   1.000  H
  H165     1.0000 0.99741  0.17371  0.25081  Biso   1.000  H
  H166     1.0000 0.89409  0.15039  0.26481  Biso   1.000  H
  O172     1.0000 0.89978  0.23120  0.26164  Biso   1.000  O
  C188     1.0000 0.69429  0.06108  0.37743  Biso   1.000  C
  H167     1.0000 0.62971  0.02480  0.32339  Biso   1.000  H
  C189     1.0000 0.76269  0.05601  0.30239  Biso   1.000  C
  C190     1.0000 0.74008  0.14340  0.33438  Biso   1.000  C
  C191     1.0000 0.67197  0.12060  0.36855  Biso   1.000  C
  H168     1.0000 0.75873  0.05838  0.39179  Biso   1.000  H
  O173     1.0000 0.62409  0.03583  0.40440  Biso   1.000  O
  H169     1.0000 0.83030  0.05491  0.31341  Biso   1.000  H
  O174     1.0000 0.73439  0.11174  0.29632  Biso   1.000  O
  C192     1.0000 0.75880  0.02852  0.25759  Biso   1.000  C
  H170     1.0000 0.72287  0.18221  0.32780  Biso   1.000  H
  H171     1.0000 0.60523  0.12248  0.35649  Biso   1.000  H
  O175     1.0000 0.67370  0.15222  0.40719  Biso   1.000  O
  O176     1.0000 0.83527  0.05189  0.23110  Biso   1.000  O
  O177     1.0000 0.64972  0.02349  0.24621  Biso   1.000  O
  O178     1.0000 0.21873  0.29571  0.76789  Biso   1.000  O
  O179     1.0000 0.25113  0.23091  0.78491  Biso   1.000  O
  C193     1.0000 0.29477  0.17400  0.77989  Biso   1.000  C
  O180     1.0000 0.22550  0.27691  0.78151  Biso   1.000  O
  C194     1.0000 0.37173  0.15300  0.81834  Biso   1.000  C
  C195     1.0000 0.31277  0.14222  0.77749  Biso   1.000  C
  C196     1.0000 0.31529  0.16779  0.85938  Biso   1.000  C
  H172     1.0000 0.40831  0.11881  0.82479  Biso   1.000  H
  O181     1.0000 0.44193  0.19508  0.80997  Biso   1.000  O
  O182     1.0000 0.36907  0.11590  0.74462  Biso   1.000  O
  C197     1.0000 0.38491  0.17429  0.89695  Biso   1.000  C
  H173     1.0000 0.27641  0.20170  0.85500  Biso   1.000  H
  O183     1.0000 0.25488  0.12260  0.87092  Biso   1.000  O
  C198     1.0000 0.51069  0.20101  0.84372  Biso   1.000  C
  C199     1.0000 0.46101  0.21669  0.88579  Biso   1.000  C
  H174     1.0000 0.41760  0.13850  0.90200  Biso   1.000  H
  O184     1.0000 0.33753  0.18981  0.93543  Biso   1.000  O
  C200     1.0000 0.15429  0.12779  0.86667  Biso   1.000  C
  O185     1.0000 0.55879  0.15210  0.85140  Biso   1.000  O
  H175     1.0000 0.55828  0.22989  0.83561  Biso   1.000  H
  H176     1.0000 0.42739  0.25232  0.88090  Biso   1.000  H
  O186     1.0000 0.52812  0.22441  0.91967  Biso   1.000  O
  H177     1.0000 0.13737  0.16669  0.86032  Biso   1.000  H
  C201     1.0000 0.10901  0.11055  0.90939  Biso   1.000  C
  O187     1.0000 0.11981  0.09368  0.83318  Biso   1.000  O
  C202     1.0000 0.65800  0.14789  0.83898  Biso   1.000  C
  H178     1.0000 0.03751  0.11472  0.90781  Biso   1.000  H
  O188     1.0000 0.14681  0.14483  0.94272  Biso   1.000  O
  C203     1.0000 0.13500  0.05115  0.91870  Biso   1.000  C
  C204     1.0000 0.14817  0.03726  0.83814  Biso   1.000  C
  C205     1.0000 0.71229  0.12849  0.87873  Biso   1.000  C
  H179     1.0000 0.68277  0.18430  0.82939  Biso   1.000  H
  C206     1.0000 0.66607  0.10651  0.80206  Biso   1.000  C
  H180     1.0000 0.20599  0.04878  0.92379  Biso   1.000  H
  O189     1.0000 0.08683  0.03060  0.95607  Biso   1.000  O
  C207     1.0000 0.10937  0.01401  0.88064  Biso   1.000  C
  C208     1.0000 0.12449  0.00760  0.79639  Biso   1.000  C
  C209     1.0000 0.10080  0.00899  0.79960  Biso   1.000  C
  C210     1.0000 0.81467  0.11251  0.86722  Biso   1.000  C
  H181     1.0000 0.67852  0.09609  0.89121  Biso   1.000  H
  O190     1.0000 0.70862  0.17216  0.90926  Biso   1.000  O
  H182     1.0000 0.63273  0.07231  0.81140  Biso   1.000  H
  O191     1.0000 0.76557  0.09343  0.79393  Biso   1.000  O
  C211     1.0000 0.62258  0.12461  0.75992  Biso   1.000  C
  H183     1.0000 0.03823  0.00862  0.87889  Biso   1.000  H
  O192     1.0000 0.15689  0.96348  0.88978  Biso   1.000  O
  O193     1.0000 0.15300  0.02639  0.76229  Biso   1.000  O
  O194     1.0000 0.02261  0.99959  0.79169  Biso   1.000  O
  C212     1.0000 0.81309  0.07150  0.82971  Biso   1.000  C
  H184     1.0000 0.84959  0.14601  0.85740  Biso   1.000  H
  O195     1.0000 0.86450  0.09053  0.90330  Biso   1.000  O
  H185     1.0000 0.62992  0.09491  0.73839  Biso   1.000  H
  H186     1.0000 0.55281  0.13090  0.76420  Biso   1.000  H
  O196     1.0000 0.66520  0.17302  0.74313  Biso   1.000  O
  C213     1.0000 0.10642  0.91441  0.88372  Biso   1.000  C
  O197     1.0000 0.76593  0.02464  0.84612  Biso   1.000  O
  H187     1.0000 0.88062  0.06181  0.82151  Biso   1.000  H
  H188     1.0000 0.03550  0.92160  0.88440  Biso   1.000  H
  C214     1.0000 0.13421  0.87735  0.92165  Biso   1.000  C
  O198     1.0000 0.13147  0.88867  0.84424  Biso   1.000  O
  C215     1.0000 0.80373  0.97169  0.83545  Biso   1.000  C
  H189     1.0000 0.09799  0.84230  0.91841  Biso   1.000  H
  O199     1.0000 0.10699  0.90113  0.96191  Biso   1.000  O
  C216     1.0000 0.24077  0.86428  0.91967  Biso   1.000  C
  C217     1.0000 0.23198  0.87780  0.83986  Biso   1.000  C
  C218     1.0000 0.80567  0.93892  0.87743  Biso   1.000  C
  H190     1.0000 0.87033  0.97520  0.82339  Biso   1.000  H
  C219     1.0000 0.73727  0.94399  0.80239  Biso   1.000  C
  H191     1.0000 0.27842  0.89880  0.92350  Biso   1.000  H
  O200     1.0000 0.26402  0.82767  0.95364  Biso   1.000  O
  C220     1.0000 0.26460  0.83960  0.87584  Biso   1.000  C
  H192     1.0000 0.26827  0.91290  0.84229  Biso   1.000  H
  C221     1.0000 0.24581  0.85480  0.79509  Biso   1.000  C
  C222     1.0000 0.82799  0.87940  0.86855  Biso   1.000  C
  H193     1.0000 0.74131  0.94162  0.89179  Biso   1.000  H
  O201     1.0000 0.87587  0.96417  0.90440  Biso   1.000  O
  H194     1.0000 0.66967  0.94509  0.81341  Biso   1.000  H
  O202     1.0000 0.76557  0.88826  0.79632  Biso   1.000  O
  C223     1.0000 0.74123  0.97148  0.75759  Biso   1.000  C
  H195     1.0000 0.23249  0.80320  0.87270  Biso   1.000  H
  O203     1.0000 0.36698  0.83323  0.87471  Biso   1.000  O
  H196     1.0000 0.22183  0.88119  0.77331  Biso   1.000  H
  H197     1.0000 0.31521  0.84859  0.78971  Biso   1.000  H
  O204     1.0000 0.19569  0.80549  0.79127  Biso   1.000  O
  C224     1.0000 0.75988  0.85660  0.83438  Biso   1.000  C
  H198     1.0000 0.89481  0.87752  0.85649  Biso   1.000  H
  O205     1.0000 0.82627  0.84778  0.90719  Biso   1.000  O
  O206     1.0000 0.66470  0.94811  0.73110  Biso   1.000  O
  O207     1.0000 0.85031  0.97651  0.74621  Biso   1.000  O
  C225     1.0000 0.40543  0.78224  0.86255  Biso   1.000  C
  O208     1.0000 0.66650  0.85905  0.85208  Biso   1.000  O
  H199     1.0000 0.77709  0.81779  0.82780  Biso   1.000  H
  H200     1.0000 0.35301  0.75422  0.86239  Biso   1.000  H
  C226     1.0000 0.48182  0.76619  0.89591  Biso   1.000  C
  O209     1.0000 0.44920  0.78416  0.82116  Biso   1.000  O
  C227     1.0000 0.60393  0.81252  0.84988  Biso   1.000  C
  H201     1.0000 0.50702  0.72889  0.88891  Biso   1.000  H
  O210     1.0000 0.43581  0.76509  0.93731  Biso   1.000  O
  C228     1.0000 0.56332  0.80635  0.89533  Biso   1.000  C
  C229     1.0000 0.52452  0.82392  0.81723  Biso   1.000  C
  H202     1.0000 0.64101  0.77910  0.84151  Biso   1.000  H
  H203     1.0000 0.53877  0.84271  0.90531  Biso   1.000  H
  O211     1.0000 0.64072  0.78997  0.92285  Biso   1.000  O
  H204     1.0000 0.49730  0.86109  0.82271  Biso   1.000  H
  C230     1.0000 0.55807  0.82040  0.77046  Biso   1.000  C
  H205     1.0000 0.50263  0.82629  0.75081  Biso   1.000  H
  H206     1.0000 0.60588  0.84961  0.76481  Biso   1.000  H
  O212     1.0000 0.60019  0.76880  0.76164  Biso   1.000  O
  O213     1.0000 0.45187  0.56796  0.84466  Biso   1.000  O
  C231     1.0000 0.35409  0.55240  0.85040  Biso   1.000  C
  C232     1.0000 0.33667  0.52674  0.89422  Biso   1.000  C
  H207     1.0000 0.33588  0.52609  0.82751  Biso   1.000  H
  H208     1.0000 0.31262  0.58500  0.84732  Biso   1.000  H
  O214     1.0000 0.40291  0.48229  0.89756  Biso   1.000  O
  C233     1.0000 0.35201  0.56633  0.93192  Biso   1.000  C
  H209     1.0000 0.26949  0.51220  0.89529  Biso   1.000  H
  C234     1.0000 0.39420  0.45189  0.93633  Biso   1.000  C
  C235     1.0000 0.34913  0.53740  0.97523  Biso   1.000  C
  H210     1.0000 0.41428  0.58631  0.92839  Biso   1.000  H
  O215     1.0000 0.27302  0.60420  0.93251  Biso   1.000  O
  O216     1.0000 0.30081  0.43012  0.94077  Biso   1.000  O
  H211     1.0000 0.44200  0.42129  0.93601  Biso   1.000  H
  C236     1.0000 0.41400  0.48870  0.97527  Biso   1.000  C
  H212     1.0000 0.28181  0.52421  0.98010  Biso   1.000  H
  O217     1.0000 0.37281  0.57364  0.00960  Biso   1.000  O
  C237     1.0000 0.29001  0.65980  0.92372  Biso   1.000  C
  C238     1.0000 0.28922  0.37284  0.93465  Biso   1.000  C
  H213     1.0000 0.48261  0.50121  0.97439  Biso   1.000  H
  O218     1.0000 0.39888  0.45602  0.01362  Biso   1.000  O
  H214     1.0000 0.36079  0.66699  0.92460  Biso   1.000  H
  C239     1.0000 0.24091  0.69290  0.95877  Biso   1.000  C
  O219     1.0000 0.25358  0.67500  0.88284  Biso   1.000  O
  C240     1.0000 0.23292  0.36120  0.89302  Biso   1.000  C
  C241     1.0000 0.23342  0.35278  0.97364  Biso   1.000  C
  H215     1.0000 0.35359  0.35462  0.93351  Biso   1.000  H
  H216     1.0000 0.25473  0.73248  0.95381  Biso   1.000  H
  C242     1.0000 0.13392  0.68395  0.95640  Biso   1.000  C
  O220     1.0000 0.27691  0.67782  0.00039  Biso   1.000  O
  C243     1.0000 0.15257  0.66389  0.87750  Biso   1.000  C
  C244     1.0000 0.29793  0.37161  0.85360  Biso   1.000  C
  C245     1.0000 0.25581  0.38579  0.85159  Biso   1.000  C
  H217     1.0000 0.17373  0.38432  0.89160  Biso   1.000  H
  O221     1.0000 0.20851  0.30457  0.89069  Biso   1.000  O
  C246     1.0000 0.20657  0.29346  0.96775  Biso   1.000  C
  H218     1.0000 0.17323  0.37501  0.97659  Biso   1.000  H
  O222     1.0000 0.28973  0.35891  0.01225  Biso   1.000  O
  H219     1.0000 0.12132  0.64461  0.96301  Biso   1.000  H
  O223     1.0000 0.08417  0.71598  0.98823  Biso   1.000  O
  C247     1.0000 0.09497  0.69535  0.91121  Biso   1.000  C
  H220     1.0000 0.14097  0.62389  0.88152  Biso   1.000  H
  C248     1.0000 0.12657  0.67978  0.83153  Biso   1.000  C
  O224     1.0000 0.25747  0.36389  0.81441  Biso   1.000  O
  O225     1.0000 0.23148  0.37880  0.81671  Biso   1.000  O
  O226     1.0000 0.33041  0.35560  0.83720  Biso   1.000  O
  C249     1.0000 0.15177  0.28639  0.92560  Biso   1.000  C
  H221     1.0000 0.26741  0.27168  0.96590  Biso   1.000  H
  O227     1.0000 0.15077  0.27275  0.00314  Biso   1.000  O
  H222     1.0000 0.09778  0.73538  0.90499  Biso   1.000  H
  O228     1.0000 0.99698  0.67733  0.91209  Biso   1.000  O
  H223     1.0000 0.05609  0.67639  0.82761  Biso   1.000  H
  H224     1.0000 0.14421  0.71851  0.82660  Biso   1.000  H
  O229     1.0000 0.17431  0.64661  0.80034  Biso   1.000  O
  O230     1.0000 0.06732  0.31756  0.92991  Biso   1.000  O
  H225     1.0000 0.13478  0.24701  0.92139  Biso   1.000  H
  C250     1.0000 0.92390  0.71120  0.89536  Biso   1.000  C
  C251     1.0000 0.97602  0.29599  0.91714  Biso   1.000  C
  H226     1.0000 0.94838  0.74940  0.89169  Biso   1.000  H
  C252     1.0000 0.84211  0.71001  0.92842  Biso   1.000  C
  O231     1.0000 0.88898  0.69118  0.85555  Biso   1.000  O
  C253     1.0000 0.90712  0.31111  0.95361  Biso   1.000  C
  H227     1.0000 0.97998  0.25538  0.91419  Biso   1.000  H
  C254     1.0000 0.94658  0.32149  0.87409  Biso   1.000  C
  H228     1.0000 0.78789  0.73330  0.91779  Biso   1.000  H
  O232     1.0000 0.87573  0.73093  0.96911  Biso   1.000  O
  C255     1.0000 0.80690  0.65229  0.93419  Biso   1.000  C
  C256     1.0000 0.85931  0.63496  0.85714  Biso   1.000  C
  C257     1.0000 0.80467  0.30220  0.94048  Biso   1.000  C
  H229     1.0000 0.91598  0.35070  0.96052  Biso   1.000  H
  O233     1.0000 0.93491  0.27985  0.99070  Biso   1.000  O
  C258     1.0000 0.02203  0.29611  0.83879  Biso   1.000  C
  O234     1.0000 0.84578  0.31450  0.86596  Biso   1.000  O
  C259     1.0000 0.99201  0.29648  0.83428  Biso   1.000  C
  C260     1.0000 0.77961  0.62692  0.89101  Biso   1.000  C
  H230     1.0000 0.85982  0.63010  0.94739  Biso   1.000  H
  O235     1.0000 0.72417  0.64894  0.96149  Biso   1.000  O
  H231     1.0000 0.91569  0.61119  0.86430  Biso   1.000  H
  C261     1.0000 0.82252  0.62148  0.81244  Biso   1.000  C
  C262     1.0000 0.78443  0.33411  0.89873  Biso   1.000  C
  H232     1.0000 0.79228  0.26241  0.93581  Biso   1.000  H
  O236     1.0000 0.74253  0.32296  0.97413  Biso   1.000  O
  O237     1.0000 0.00641  0.23561  0.83801  Biso   1.000  O
  O238     1.0000 0.95990  0.24260  0.82731  Biso   1.000  O
  O239     1.0000 0.76852  0.56964  0.89938  Biso   1.000  O
  H233     1.0000 0.71762  0.64268  0.88028  Biso   1.000  H
  O240     1.0000 0.88890  0.62279  0.78060  Biso   1.000  O
  O241     1.0000 0.91108  0.61691  0.78190  Biso   1.000  O
  O242     1.0000 0.80222  0.38984  0.90768  Biso   1.000  O
  H234     1.0000 0.71567  0.32900  0.88991  Biso   1.000  H
  C263     1.0000 0.68608  0.54239  0.88242  Biso   1.000  C
  C264     1.0000 0.73180  0.42922  0.89354  Biso   1.000  C
  C265     1.0000 0.64087  0.51011  0.91922  Biso   1.000  C
  O243     1.0000 0.71157  0.50876  0.84764  Biso   1.000  O
  H235     1.0000 0.63899  0.57041  0.87211  Biso   1.000  H
  C266     1.0000 0.70588  0.46341  0.93215  Biso   1.000  C
  H236     1.0000 0.67341  0.41018  0.88200  Biso   1.000  H
  C267     1.0000 0.77752  0.46468  0.85814  Biso   1.000  C
  H237     1.0000 0.57931  0.49410  0.90829  Biso   1.000  H
  O244     1.0000 0.61819  0.54500  0.95413  Biso   1.000  O
  H238     1.0000 0.76622  0.47849  0.94509  Biso   1.000  H
  O245     1.0000 0.65707  0.43077  0.96421  Biso   1.000  O
  H239     1.0000 0.84311  0.47808  0.86621  Biso   1.000  H
  C268     1.0000 0.81547  0.43012  0.81911  Biso   1.000  C
  C269     1.0000 0.77558  0.43670  0.81451  Biso   1.000  C
  O246     1.0000 0.88322  0.44658  0.79380  Biso   1.000  O
  O247     1.0000 0.73648  0.42481  0.79380  Biso   1.000  O
  O248     1.0000 0.68111  0.42031  0.79989  Biso   1.000  O
  O249     1.0000 0.45993  0.25738  0.17269  Biso   1.000  O
  C270     1.0000 0.49197  0.20350  0.16572  Biso   1.000  C
  C271     1.0000 0.52200  0.20391  0.16121  Biso   1.000  C
  C272     1.0000 0.44661  0.17849  0.12591  Biso   1.000  C
  O250     1.0000 0.50637  0.26441  0.16199  Biso   1.000  O
  C273     1.0000 0.47599  0.20403  0.08286  Biso   1.000  C
  O251     1.0000 0.34581  0.18548  0.13404  Biso   1.000  O
  C274     1.0000 0.40708  0.18891  0.04639  Biso   1.000  C
  H240     1.0000 0.48002  0.24460  0.08581  Biso   1.000  H
  O252     1.0000 0.56728  0.18246  0.07009  Biso   1.000  O
  C275     1.0000 0.28440  0.16591  0.10127  Biso   1.000  C
  C276     1.0000 0.30470  0.19782  0.05952  Biso   1.000  C
  H241     1.0000 0.41601  0.14928  0.03948  Biso   1.000  H
  O253     1.0000 0.43488  0.22017  0.00930  Biso   1.000  O
  C277     1.0000 0.65181  0.21359  0.07440  Biso   1.000  C
  O254     1.0000 0.30218  0.11019  0.09232  Biso   1.000  O
  H242     1.0000 0.21571  0.17102  0.11009  Biso   1.000  H
  H243     1.0000 0.29232  0.23761  0.06419  Biso   1.000  H
  O255     1.0000 0.24249  0.17706  0.02587  Biso   1.000  O
  H244     1.0000 0.63482  0.25301  0.07861  Biso   1.000  H
  C278     1.0000 0.70660  0.20652  0.03225  Biso   1.000  C
  O256     1.0000 0.70847  0.19545  0.10931  Biso   1.000  O
  C279     1.0000 0.23177  0.07080  0.10646  Biso   1.000  C
  H245     1.0000 0.76737  0.22830  0.03410  Biso   1.000  H
  C280     1.0000 0.73339  0.14720  0.02636  Biso   1.000  C
  O257     1.0000 0.65080  0.22727  0.99686  Biso   1.000  O
  C281     1.0000 0.73288  0.13878  0.10698  Biso   1.000  C
  C282     1.0000 0.20592  0.03661  0.06785  Biso   1.000  C
  H246     1.0000 0.17337  0.08980  0.11800  Biso   1.000  H
  C283     1.0000 0.27749  0.03530  0.14186  Biso   1.000  C
  H247     1.0000 0.67319  0.12502  0.02341  Biso   1.000  H
  C284     1.0000 0.78919  0.12714  0.06535  Biso   1.000  C
  O258     1.0000 0.78969  0.14111  0.98775  Biso   1.000  O
  H248     1.0000 0.67370  0.11570  0.10840  Biso   1.000  H
  C285     1.0000 0.79790  0.12841  0.14640  Biso   1.000  C
  C286     1.0000 0.75578  0.11419  0.14841  Biso   1.000  C
  H249     1.0000 0.26618  0.02149  0.05491  Biso   1.000  H
  O259     1.0000 0.15710  0.06925  0.03579  Biso   1.000  O
  C287     1.0000 0.14090  0.98991  0.08078  Biso   1.000  C
  H250     1.0000 0.34308  0.02190  0.13379  Biso   1.000  H
  C288     1.0000 0.31550  0.06990  0.18089  Biso   1.000  C
  C289     1.0000 0.27561  0.06328  0.18549  Biso   1.000  C
  O260     1.0000 0.21161  0.99126  0.15236  Biso   1.000  O
  H251     1.0000 0.85363  0.14540  0.06649  Biso   1.000  H
  O261     1.0000 0.80078  0.06990  0.05923  Biso   1.000  O
  O262     1.0000 0.75751  0.13609  0.18559  Biso   1.000  O
  O263     1.0000 0.73151  0.12122  0.18329  Biso   1.000  O
  O264     1.0000 0.83037  0.14438  0.16280  Biso   1.000  O
  H252     1.0000 0.07927  0.00588  0.09171  Biso   1.000  H
  C290     1.0000 0.18612  0.95759  0.11758  Biso   1.000  C
  O265     1.0000 0.11822  0.95498  0.04587  Biso   1.000  O
  O266     1.0000 0.38318  0.05340  0.20620  Biso   1.000  O
  O267     1.0000 0.23652  0.07521  0.20620  Biso   1.000  O
  O268     1.0000 0.18108  0.07971  0.20011  Biso   1.000  O
  C291     1.0000 0.89423  0.04809  0.06367  Biso   1.000  C
  O269     1.0000 0.26849  0.93038  0.10062  Biso   1.000  O
  H253     1.0000 0.13903  0.92961  0.12789  Biso   1.000  H
  H254     1.0000 0.94197  0.07869  0.06399  Biso   1.000  H
  C292     1.0000 0.91403  0.01132  0.02473  Biso   1.000  C
  O270     1.0000 0.90287  0.01769  0.10244  Biso   1.000  O
  C293     1.0000 0.27957  0.87311  0.10899  Biso   1.000  C
  H255     1.0000 0.98258  0.99882  0.02561  Biso   1.000  H
  C294     1.0000 0.84909  0.96262  0.02477  Biso   1.000  C
  O271     1.0000 0.89891  0.04396  0.98638  Biso   1.000  O
  C295     1.0000 0.83671  0.97324  0.10578  Biso   1.000  C
  C296     1.0000 0.30693  0.84769  0.06581  Biso   1.000  C
  H256     1.0000 0.21758  0.85729  0.11972  Biso   1.000  H
  C297     1.0000 0.35928  0.86506  0.14286  Biso   1.000  C
  O272     1.0000 0.87278  0.92638  0.99040  Biso   1.000  O
  H257     1.0000 0.78177  0.97581  0.01990  Biso   1.000  H
  C298     1.0000 0.85197  0.93369  0.06808  Biso   1.000  C
  H258     1.0000 0.76953  0.98778  0.10471  Biso   1.000  H
  C299     1.0000 0.85413  0.94758  0.14960  Biso   1.000  C
  C300     1.0000 0.34207  0.79001  0.07158  Biso   1.000  C
  H259     1.0000 0.35978  0.86992  0.05261  Biso   1.000  H
  O273     1.0000 0.22421  0.85104  0.03851  Biso   1.000  O
  H260     1.0000 0.41572  0.88879  0.13570  Biso   1.000  H
  O274     1.0000 0.38901  0.80884  0.14445  Biso   1.000  O
  C301     1.0000 0.32249  0.87850  0.18756  Biso   1.000  C
  H261     1.0000 0.91432  0.91371  0.07161  Biso   1.000  H
  O275     1.0000 0.77299  0.89582  0.06749  Biso   1.000  O
  H262     1.0000 0.83591  0.97389  0.17249  Biso   1.000  H
  H263     1.0000 0.81259  0.91498  0.15268  Biso   1.000  H
  O276     1.0000 0.95190  0.93206  0.15534  Biso   1.000  O
  C302     1.0000 0.42393  0.78878  0.10464  Biso   1.000  C
  H264     1.0000 0.28793  0.76672  0.08221  Biso   1.000  H
  O277     1.0000 0.37569  0.76905  0.03089  Biso   1.000  O
  O278     1.0000 0.38887  0.87719  0.21940  Biso   1.000  O
  O279     1.0000 0.41112  0.88311  0.21810  Biso   1.000  O
  C303     1.0000 0.78998  0.84018  0.07628  Biso   1.000  C
  O280     1.0000 0.49701  0.82265  0.08791  Biso   1.000  O
  H265     1.0000 0.44841  0.75058  0.10831  Biso   1.000  H
  H266     1.0000 0.86083  0.83299  0.07540  Biso   1.000  H
  C304     1.0000 0.74087  0.80708  0.04123  Biso   1.000  C
  O281     1.0000 0.75362  0.82498  0.11716  Biso   1.000  O
  C305     1.0000 0.59500  0.80463  0.08879  Biso   1.000  C
  O282     1.0000 0.77687  0.82216  0.99961  Biso   1.000  O
  H267     1.0000 0.75470  0.76750  0.04619  Biso   1.000  H
  C306     1.0000 0.63388  0.81603  0.04360  Biso   1.000  C
  C307     1.0000 0.65260  0.83609  0.12250  Biso   1.000  C
  H268     1.0000 0.59781  0.76460  0.09501  Biso   1.000  H
  H269     1.0000 0.62128  0.85542  0.03699  Biso   1.000  H
  O283     1.0000 0.58420  0.78400  0.01177  Biso   1.000  O
  H270     1.0000 0.64101  0.87609  0.11848  Biso   1.000  H
  C308     1.0000 0.62661  0.82020  0.16847  Biso   1.000  C
  H271     1.0000 0.55612  0.82359  0.17239  Biso   1.000  H
  H272     1.0000 0.64418  0.78151  0.17340  Biso   1.000  H
  O284     1.0000 0.67427  0.85341  0.19966  Biso   1.000  O
