data_image0
_cell_length_a       14.317
_cell_length_b       19.722
_cell_length_c       19.99
_cell_angle_alpha    90
_cell_angle_beta     105.53
_cell_angle_gamma    90

_symmetry_space_group_name_H-M    "P 1"
_symmetry_int_tables_number       1

loop_
  _symmetry_equiv_pos_as_xyz
  'x, y, z'

loop_
  _atom_site_label
  _atom_site_occupancy
  _atom_site_fract_x
  _atom_site_fract_y
  _atom_site_fract_z
  _atom_site_thermal_displace_type
  _atom_site_B_iso_or_equiv
  _atom_site_type_symbol
  N1       1.0000 0.09144  0.35138  0.77055  Biso   1.000  N
  C1       1.0000 0.01053  0.34200  0.71126  Biso   1.000  C
  C2       1.0000 0.10729  0.31102  0.82902  Biso   1.000  C
  C3       1.0000 0.01055  0.34200  0.71131  Biso   1.000  C
  C4       1.0000 0.18158  0.38323  0.76448  Biso   1.000  C
  C5       1.0000 0.10720  0.31102  0.82896  Biso   1.000  C
  N2       1.0000 0.09146  0.35138  0.77061  Biso   1.000  N
  H1       1.0000 0.03495  0.33349  0.67009  Biso   1.000  H
  N3       1.0000 0.94534  0.39910  0.69719  Biso   1.000  N
  H2       1.0000 0.97409  0.30129  0.71858  Biso   1.000  H
  H3       1.0000 0.97402  0.30129  0.71858  Biso   1.000  H
  O1       1.0000 0.04664  0.27614  0.84428  Biso   1.000  O
  N4       1.0000 0.20296  0.31741  0.86541  Biso   1.000  N
  N5       1.0000 0.20295  0.31741  0.86536  Biso   1.000  N
  N6       1.0000 0.18265  0.45558  0.77351  Biso   1.000  N
  C6       1.0000 0.25857  0.35782  0.83011  Biso   1.000  C
  H4       1.0000 0.19776  0.36969  0.72071  Biso   1.000  H
  N7       1.0000 0.18263  0.45558  0.77346  Biso   1.000  N
  C7       1.0000 0.25855  0.35782  0.83005  Biso   1.000  C
  H5       1.0000 0.19774  0.36969  0.72066  Biso   1.000  H
  C8       1.0000 0.85553  0.39818  0.70731  Biso   1.000  C
  C9       1.0000 0.96393  0.46050  0.66339  Biso   1.000  C
  C10      1.0000 0.85551  0.39818  0.70726  Biso   1.000  C
  C11      1.0000 0.24652  0.26889  0.91951  Biso   1.000  C
  C12      1.0000 0.24650  0.26889  0.91946  Biso   1.000  C
  C13      1.0000 0.25154  0.47581  0.83000  Biso   1.000  C
  C14      1.0000 0.13626  0.50101  0.71837  Biso   1.000  C
  C15      1.0000 0.25152  0.47581  0.82995  Biso   1.000  C
  N8       1.0000 0.29687  0.41938  0.86401  Biso   1.000  N
  H6       1.0000 0.30997  0.33029  0.81739  Biso   1.000  H
  N9       1.0000 0.29685  0.41938  0.86396  Biso   1.000  N
  O2       1.0000 0.81996  0.35149  0.73379  Biso   1.000  O
  N10      1.0000 0.81007  0.45710  0.68322  Biso   1.000  N
  O3       1.0000 0.81994  0.35149  0.73374  Biso   1.000  O
  N11      1.0000 0.81005  0.45710  0.68317  Biso   1.000  N
  N12      1.0000 0.03244  0.50659  0.70820  Biso   1.000  N
  H7       1.0000 0.98157  0.45082  0.61921  Biso   1.000  H
  C16      1.0000 0.86660  0.49990  0.65041  Biso   1.000  C
  C17      1.0000 0.86651  0.49990  0.65036  Biso   1.000  C
  N13      1.0000 0.28493  0.29972  0.98639  Biso   1.000  N
  H8       1.0000 0.29955  0.24480  0.90612  Biso   1.000  H
  H9       1.0000 0.19724  0.23492  0.92279  Biso   1.000  H
  H10      1.0000 0.29953  0.24480  0.90607  Biso   1.000  H
  O4       1.0000 0.27286  0.53478  0.84760  Biso   1.000  O
  O5       1.0000 0.27284  0.53478  0.84755  Biso   1.000  O
  H11      1.0000 0.16579  0.54650  0.72860  Biso   1.000  H
  H12      1.0000 0.14886  0.48499  0.67471  Biso   1.000  H
  H13      1.0000 0.16572  0.54650  0.72860  Biso   1.000  H
  H14      1.0000 0.14884  0.48499  0.67466  Biso   1.000  H
  C18      1.0000 0.38705  0.42283  0.91822  Biso   1.000  C
  C19      1.0000 0.38704  0.42283  0.91816  Biso   1.000  C
  C20      1.0000 0.70743  0.46902  0.67549  Biso   1.000  C
  C21      1.0000 0.99044  0.56789  0.71469  Biso   1.000  C
  N14      1.0000 0.89369  0.56348  0.68421  Biso   1.000  N
  H15      1.0000 0.83478  0.50578  0.59968  Biso   1.000  H
  N15      1.0000 0.89367  0.56348  0.68416  Biso   1.000  N
  C22      1.0000 0.26380  0.27370  0.04329  Biso   1.000  C
  C23      1.0000 0.38051  0.33029  0.00477  Biso   1.000  C
  N16      1.0000 0.37915  0.40062  0.98488  Biso   1.000  N
  H16      1.0000 0.41076  0.47019  0.92221  Biso   1.000  H
  H17      1.0000 0.43592  0.39438  0.90451  Biso   1.000  H
  H18      1.0000 0.41074  0.47019  0.92216  Biso   1.000  H
  H19      1.0000 0.43590  0.39438  0.90446  Biso   1.000  H
  N17      1.0000 0.68975  0.52251  0.72029  Biso   1.000  N
  H20      1.0000 0.67749  0.42653  0.68618  Biso   1.000  H
  H21      1.0000 0.67574  0.48109  0.62658  Biso   1.000  H
  H22      1.0000 0.67742  0.42653  0.68618  Biso   1.000  H
  O6       1.0000 0.03403  0.61911  0.74309  Biso   1.000  O
  C24      1.0000 0.83384  0.62423  0.66910  Biso   1.000  C
  O7       1.0000 0.19450  0.23522  0.04251  Biso   1.000  O
  N18      1.0000 0.32940  0.29652  0.10067  Biso   1.000  N
  O8       1.0000 0.19449  0.23522  0.04246  Biso   1.000  O
  H23      1.0000 0.42857  0.30321  0.98779  Biso   1.000  H
  H24      1.0000 0.42850  0.30321  0.98779  Biso   1.000  H
  C25      1.0000 0.40612  0.33328  0.08488  Biso   1.000  C
  C26      1.0000 0.40010  0.44382  0.04168  Biso   1.000  C
  C27      1.0000 0.64006  0.50852  0.76749  Biso   1.000  C
  C28      1.0000 0.67713  0.59269  0.69719  Biso   1.000  C
  N19      1.0000 0.76547  0.63143  0.70929  Biso   1.000  N
  H25      1.0000 0.79805  0.62372  0.61931  Biso   1.000  H
  H26      1.0000 0.87686  0.66438  0.67710  Biso   1.000  H
  H27      1.0000 0.79803  0.62372  0.61926  Biso   1.000  H
  C29      1.0000 0.33037  0.27472  0.16998  Biso   1.000  C
  N20      1.0000 0.40842  0.40559  0.09999  Biso   1.000  N
  H28      1.0000 0.47028  0.31158  0.10627  Biso   1.000  H
  O9       1.0000 0.40857  0.50522  0.03987  Biso   1.000  O
  O10      1.0000 0.63076  0.45178  0.79101  Biso   1.000  O
  N21      1.0000 0.60375  0.56718  0.78582  Biso   1.000  N
  O11      1.0000 0.63074  0.45178  0.79096  Biso   1.000  O
  N22      1.0000 0.60373  0.56718  0.78577  Biso   1.000  N
  H29      1.0000 0.63737  0.59629  0.64781  Biso   1.000  H
  C30      1.0000 0.62408  0.62392  0.74828  Biso   1.000  C
  H30      1.0000 0.63735  0.59629  0.64776  Biso   1.000  H
  C31      1.0000 0.77333  0.67939  0.76059  Biso   1.000  C
  N23      1.0000 0.30522  0.32781  0.21219  Biso   1.000  N
  H31      1.0000 0.28409  0.23669  0.16650  Biso   1.000  H
  H32      1.0000 0.39578  0.25738  0.19360  Biso   1.000  H
  N24      1.0000 0.30520  0.32781  0.21214  Biso   1.000  N
  H33      1.0000 0.28407  0.23669  0.16645  Biso   1.000  H
  H34      1.0000 0.39576  0.25738  0.19355  Biso   1.000  H
  C32      1.0000 0.45732  0.43048  0.16801  Biso   1.000  C
  C33      1.0000 0.45730  0.43048  0.16795  Biso   1.000  C
  C34      1.0000 0.54263  0.56952  0.83198  Biso   1.000  C
  N25      1.0000 0.69473  0.67219  0.78779  Biso   1.000  N
  H35      1.0000 0.56306  0.64740  0.72258  Biso   1.000  H
  O12      1.0000 0.83609  0.72249  0.77730  Biso   1.000  O
  O13      1.0000 0.83600  0.72249  0.77725  Biso   1.000  O
  C35      1.0000 0.22662  0.32061  0.23940  Biso   1.000  C
  C36      1.0000 0.37587  0.37613  0.25170  Biso   1.000  C
  C37      1.0000 0.22660  0.32061  0.23935  Biso   1.000  C
  C38      1.0000 0.37585  0.37613  0.25165  Biso   1.000  C
  N26      1.0000 0.39620  0.43282  0.21416  Biso   1.000  N
  H36      1.0000 0.48221  0.47663  0.16359  Biso   1.000  H
  H37      1.0000 0.51363  0.40092  0.18841  Biso   1.000  H
  H38      1.0000 0.48219  0.47663  0.16354  Biso   1.000  H
  H39      1.0000 0.51361  0.40092  0.18836  Biso   1.000  H
  N27      1.0000 0.59153  0.59441  0.89999  Biso   1.000  N
  H40      1.0000 0.51774  0.52343  0.83639  Biso   1.000  H
  H41      1.0000 0.48632  0.59913  0.81157  Biso   1.000  H
  C39      1.0000 0.66958  0.72533  0.83000  Biso   1.000  C
  C40      1.0000 0.66956  0.72533  0.82995  Biso   1.000  C
  O14      1.0000 0.16386  0.27751  0.22268  Biso   1.000  O
  N28      1.0000 0.23448  0.36862  0.29069  Biso   1.000  N
  N29      1.0000 0.23446  0.36862  0.29064  Biso   1.000  N
  C41      1.0000 0.32282  0.40731  0.30279  Biso   1.000  C
  H42      1.0000 0.43689  0.35260  0.27740  Biso   1.000  H
  C42      1.0000 0.32273  0.40731  0.30274  Biso   1.000  C
  H43      1.0000 0.43687  0.35260  0.27735  Biso   1.000  H
  C43      1.0000 0.35989  0.49148  0.23249  Biso   1.000  C
  C44      1.0000 0.35987  0.49148  0.23244  Biso   1.000  C
  C45      1.0000 0.59985  0.55618  0.95830  Biso   1.000  C
  C46      1.0000 0.59382  0.66672  0.91510  Biso   1.000  C
  C47      1.0000 0.59983  0.55618  0.95825  Biso   1.000  C
  C48      1.0000 0.59381  0.66672  0.91505  Biso   1.000  C
  N30      1.0000 0.67055  0.70353  0.89932  Biso   1.000  N
  H44      1.0000 0.71586  0.76331  0.83348  Biso   1.000  H
  H45      1.0000 0.60417  0.74262  0.80638  Biso   1.000  H
  N31      1.0000 0.67053  0.70353  0.89927  Biso   1.000  N
  C49      1.0000 0.16610  0.37582  0.33088  Biso   1.000  C
  N32      1.0000 0.31020  0.47749  0.27969  Biso   1.000  N
  H46      1.0000 0.36258  0.40371  0.35217  Biso   1.000  H
  O15      1.0000 0.36919  0.54822  0.20897  Biso   1.000  O
  O16      1.0000 0.59137  0.49483  0.96012  Biso   1.000  O
  O17      1.0000 0.59136  0.49483  0.96006  Biso   1.000  O
  N33      1.0000 0.62080  0.59938  0.01510  Biso   1.000  N
  N34      1.0000 0.62078  0.59938  0.01505  Biso   1.000  N
  H47      1.0000 0.52967  0.68842  0.89371  Biso   1.000  H
  C50      1.0000 0.61944  0.66971  0.99521  Biso   1.000  C
  H48      1.0000 0.52965  0.68842  0.89366  Biso   1.000  H
  C51      1.0000 0.61942  0.66971  0.99516  Biso   1.000  C
  C52      1.0000 0.73614  0.72630  0.95669  Biso   1.000  C
  N35      1.0000 0.10625  0.43652  0.31577  Biso   1.000  N
  H49      1.0000 0.20190  0.37628  0.38067  Biso   1.000  H
  H50      1.0000 0.12309  0.33562  0.32289  Biso   1.000  H
  C53      1.0000 0.29251  0.53098  0.32449  Biso   1.000  C
  C54      1.0000 0.29250  0.53098  0.32444  Biso   1.000  C
  C55      1.0000 0.61289  0.57722  0.08177  Biso   1.000  C
  N36      1.0000 0.71502  0.70028  0.01359  Biso   1.000  N
  H51      1.0000 0.57138  0.69679  0.01219  Biso   1.000  H
  O18      1.0000 0.80544  0.76483  0.95747  Biso   1.000  O
  C56      1.0000 0.00951  0.43211  0.28529  Biso   1.000  C
  C57      1.0000 0.13335  0.50010  0.34957  Biso   1.000  C
  C58      1.0000 0.00949  0.43211  0.28524  Biso   1.000  C
  N37      1.0000 0.18988  0.54290  0.31676  Biso   1.000  N
  H52      1.0000 0.32246  0.57352  0.31380  Biso   1.000  H
  H53      1.0000 0.32421  0.51891  0.37340  Biso   1.000  H
  H54      1.0000 0.32244  0.57352  0.31375  Biso   1.000  H
  H55      1.0000 0.32419  0.51891  0.37335  Biso   1.000  H
  N38      1.0000 0.70307  0.58062  0.13597  Biso   1.000  N
  H56      1.0000 0.58919  0.52981  0.07777  Biso   1.000  H
  H57      1.0000 0.56403  0.60562  0.09547  Biso   1.000  H
  H58      1.0000 0.56396  0.60562  0.09547  Biso   1.000  H
  C59      1.0000 0.75343  0.73111  0.08047  Biso   1.000  C
  C60      1.0000 0.75336  0.73111  0.08047  Biso   1.000  C
  O19      1.0000 0.96592  0.38089  0.25689  Biso   1.000  O
  N39      1.0000 0.96751  0.49341  0.29178  Biso   1.000  N
  O20      1.0000 0.96583  0.38089  0.25684  Biso   1.000  O
  C61      1.0000 0.03602  0.53950  0.33659  Biso   1.000  C
  H59      1.0000 0.16516  0.49422  0.40030  Biso   1.000  H
  C62      1.0000 0.03593  0.53950  0.33654  Biso   1.000  C
  H60      1.0000 0.16514  0.49422  0.40025  Biso   1.000  H
  C63      1.0000 0.14442  0.60182  0.29267  Biso   1.000  C
  C64      1.0000 0.14435  0.60182  0.29267  Biso   1.000  C
  C65      1.0000 0.74841  0.52419  0.16998  Biso   1.000  C
  C66      1.0000 0.74138  0.64223  0.16988  Biso   1.000  C
  N40      1.0000 0.79698  0.68259  0.13457  Biso   1.000  N
  H61      1.0000 0.70039  0.75520  0.09386  Biso   1.000  H
  H62      1.0000 0.80271  0.76508  0.07720  Biso   1.000  H
  H63      1.0000 0.80269  0.76508  0.07715  Biso   1.000  H
  C67      1.0000 0.86369  0.49899  0.28161  Biso   1.000  C
  C68      1.0000 0.86367  0.49899  0.28156  Biso   1.000  C
  N41      1.0000 0.05460  0.60090  0.30279  Biso   1.000  N
  H64      1.0000 0.01838  0.54918  0.38078  Biso   1.000  H
  N42      1.0000 0.05459  0.60090  0.30274  Biso   1.000  N
  O21      1.0000 0.17999  0.64851  0.26619  Biso   1.000  O
  O22      1.0000 0.72709  0.46522  0.15238  Biso   1.000  O
  N43      1.0000 0.81730  0.54442  0.22647  Biso   1.000  N
  H65      1.0000 0.68998  0.66971  0.18260  Biso   1.000  H
  C69      1.0000 0.81837  0.61682  0.23550  Biso   1.000  C
  H66      1.0000 0.68996  0.66971  0.18254  Biso   1.000  H
  C70      1.0000 0.81835  0.61682  0.23545  Biso   1.000  C
  C71      1.0000 0.89266  0.68903  0.17097  Biso   1.000  C
  H67      1.0000 0.83416  0.45350  0.27138  Biso   1.000  H
  H68      1.0000 0.85109  0.51501  0.32527  Biso   1.000  H
  C72      1.0000 0.98940  0.65800  0.28867  Biso   1.000  C
  N44      1.0000 0.90849  0.64862  0.22938  Biso   1.000  N
  H69      1.0000 0.80219  0.63031  0.27927  Biso   1.000  H
  O23      1.0000 0.95331  0.72391  0.15570  Biso   1.000  O
  O24      1.0000 0.95329  0.72391  0.15565  Biso   1.000  O
  H70      1.0000 0.96500  0.66651  0.32989  Biso   1.000  H
  H71      1.0000 0.96498  0.66651  0.32984  Biso   1.000  H
  H72      1.0000 0.02586  0.69871  0.28140  Biso   1.000  H
  H73      1.0000 0.02584  0.69871  0.28135  Biso   1.000  H
  N45      1.0000 0.09144  0.35138  0.77055  Biso   1.000  N
  C73      1.0000 0.01053  0.34200  0.71126  Biso   1.000  C
  C74      1.0000 0.18158  0.38323  0.76448  Biso   1.000  C
  C75      1.0000 0.10729  0.31102  0.82902  Biso   1.000  C
  C76      1.0000 0.01055  0.34200  0.71131  Biso   1.000  C
  C77      1.0000 0.10720  0.31102  0.82896  Biso   1.000  C
  H74      1.0000 0.03495  0.33349  0.67009  Biso   1.000  H
  N46      1.0000 0.09146  0.35138  0.77061  Biso   1.000  N
  N47      1.0000 0.94534  0.39910  0.69719  Biso   1.000  N
  H75      1.0000 0.97409  0.30129  0.71858  Biso   1.000  H
  H76      1.0000 0.97402  0.30129  0.71858  Biso   1.000  H
  N48      1.0000 0.18265  0.45558  0.77351  Biso   1.000  N
  C78      1.0000 0.25857  0.35782  0.83011  Biso   1.000  C
  H77      1.0000 0.19776  0.36969  0.72071  Biso   1.000  H
  N49      1.0000 0.18263  0.45558  0.77346  Biso   1.000  N
  C79      1.0000 0.25855  0.35782  0.83005  Biso   1.000  C
  H78      1.0000 0.19774  0.36969  0.72066  Biso   1.000  H
  O25      1.0000 0.04664  0.27614  0.84428  Biso   1.000  O
  N50      1.0000 0.20296  0.31741  0.86541  Biso   1.000  N
  N51      1.0000 0.20295  0.31741  0.86536  Biso   1.000  N
  C80      1.0000 0.85553  0.39818  0.70731  Biso   1.000  C
  C81      1.0000 0.96393  0.46050  0.66339  Biso   1.000  C
  C82      1.0000 0.85551  0.39818  0.70726  Biso   1.000  C
  C83      1.0000 0.13626  0.50101  0.71837  Biso   1.000  C
  C84      1.0000 0.25154  0.47581  0.83000  Biso   1.000  C
  C85      1.0000 0.25152  0.47581  0.82995  Biso   1.000  C
  H79      1.0000 0.30997  0.33029  0.81739  Biso   1.000  H
  N52      1.0000 0.29687  0.41938  0.86401  Biso   1.000  N
  N53      1.0000 0.29685  0.41938  0.86396  Biso   1.000  N
  C86      1.0000 0.24652  0.26889  0.91951  Biso   1.000  C
  C87      1.0000 0.24650  0.26889  0.91946  Biso   1.000  C
  O26      1.0000 0.81996  0.35149  0.73379  Biso   1.000  O
  N54      1.0000 0.81007  0.45710  0.68322  Biso   1.000  N
  O27      1.0000 0.81994  0.35149  0.73374  Biso   1.000  O
  N55      1.0000 0.81005  0.45710  0.68317  Biso   1.000  N
  N56      1.0000 0.03244  0.50659  0.70820  Biso   1.000  N
  H80      1.0000 0.98157  0.45082  0.61921  Biso   1.000  H
  C88      1.0000 0.86660  0.49990  0.65041  Biso   1.000  C
  C89      1.0000 0.86651  0.49990  0.65036  Biso   1.000  C
  H81      1.0000 0.16579  0.54650  0.72860  Biso   1.000  H
  H82      1.0000 0.14886  0.48499  0.67471  Biso   1.000  H
  H83      1.0000 0.16572  0.54650  0.72860  Biso   1.000  H
  H84      1.0000 0.14884  0.48499  0.67466  Biso   1.000  H
  O28      1.0000 0.27286  0.53478  0.84760  Biso   1.000  O
  O29      1.0000 0.27284  0.53478  0.84755  Biso   1.000  O
  C90      1.0000 0.38705  0.42283  0.91822  Biso   1.000  C
  C91      1.0000 0.38704  0.42283  0.91816  Biso   1.000  C
  N57      1.0000 0.28493  0.29972  0.98639  Biso   1.000  N
  H85      1.0000 0.19724  0.23492  0.92279  Biso   1.000  H
  H86      1.0000 0.29955  0.24480  0.90612  Biso   1.000  H
  H87      1.0000 0.29953  0.24480  0.90607  Biso   1.000  H
  C92      1.0000 0.70743  0.46902  0.67549  Biso   1.000  C
  C93      1.0000 0.99044  0.56789  0.71469  Biso   1.000  C
  N58      1.0000 0.89369  0.56348  0.68421  Biso   1.000  N
  H88      1.0000 0.83478  0.50578  0.59968  Biso   1.000  H
  N59      1.0000 0.89367  0.56348  0.68416  Biso   1.000  N
  N60      1.0000 0.37915  0.40062  0.98488  Biso   1.000  N
  H89      1.0000 0.41076  0.47019  0.92221  Biso   1.000  H
  H90      1.0000 0.43592  0.39438  0.90451  Biso   1.000  H
  H91      1.0000 0.41074  0.47019  0.92216  Biso   1.000  H
  H92      1.0000 0.43590  0.39438  0.90446  Biso   1.000  H
  C94      1.0000 0.26380  0.27370  0.04329  Biso   1.000  C
  C95      1.0000 0.38051  0.33029  0.00477  Biso   1.000  C
  N61      1.0000 0.68975  0.52251  0.72029  Biso   1.000  N
  H93      1.0000 0.67749  0.42653  0.68618  Biso   1.000  H
  H94      1.0000 0.67574  0.48109  0.62658  Biso   1.000  H
  H95      1.0000 0.67742  0.42653  0.68618  Biso   1.000  H
  O30      1.0000 0.03403  0.61911  0.74309  Biso   1.000  O
  C96      1.0000 0.83384  0.62423  0.66910  Biso   1.000  C
  C97      1.0000 0.40010  0.44382  0.04168  Biso   1.000  C
  O31      1.0000 0.19450  0.23522  0.04251  Biso   1.000  O
  N62      1.0000 0.32940  0.29652  0.10067  Biso   1.000  N
  O32      1.0000 0.19449  0.23522  0.04246  Biso   1.000  O
  H96      1.0000 0.42857  0.30321  0.98779  Biso   1.000  H
  H97      1.0000 0.42850  0.30321  0.98779  Biso   1.000  H
  C98      1.0000 0.40612  0.33328  0.08488  Biso   1.000  C
  C99      1.0000 0.64006  0.50852  0.76749  Biso   1.000  C
  C100     1.0000 0.67713  0.59269  0.69719  Biso   1.000  C
  N63      1.0000 0.76547  0.63143  0.70929  Biso   1.000  N
  H98      1.0000 0.79805  0.62372  0.61931  Biso   1.000  H
  H99      1.0000 0.87686  0.66438  0.67710  Biso   1.000  H
  H100     1.0000 0.79803  0.62372  0.61926  Biso   1.000  H
  O33      1.0000 0.40857  0.50522  0.03987  Biso   1.000  O
  N64      1.0000 0.40842  0.40559  0.09999  Biso   1.000  N
  C101     1.0000 0.33037  0.27472  0.16998  Biso   1.000  C
  H101     1.0000 0.47028  0.31158  0.10627  Biso   1.000  H
  O34      1.0000 0.63076  0.45178  0.79101  Biso   1.000  O
  N65      1.0000 0.60375  0.56718  0.78582  Biso   1.000  N
  O35      1.0000 0.63074  0.45178  0.79096  Biso   1.000  O
  N66      1.0000 0.60373  0.56718  0.78577  Biso   1.000  N
  H102     1.0000 0.63737  0.59629  0.64781  Biso   1.000  H
  C102     1.0000 0.62408  0.62392  0.74828  Biso   1.000  C
  H103     1.0000 0.63735  0.59629  0.64776  Biso   1.000  H
  C103     1.0000 0.77333  0.67939  0.76059  Biso   1.000  C
  C104     1.0000 0.45732  0.43048  0.16801  Biso   1.000  C
  C105     1.0000 0.45730  0.43048  0.16795  Biso   1.000  C
  N67      1.0000 0.30522  0.32781  0.21219  Biso   1.000  N
  H104     1.0000 0.28409  0.23669  0.16650  Biso   1.000  H
  H105     1.0000 0.39578  0.25738  0.19360  Biso   1.000  H
  N68      1.0000 0.30520  0.32781  0.21214  Biso   1.000  N
  H106     1.0000 0.28407  0.23669  0.16645  Biso   1.000  H
  H107     1.0000 0.39576  0.25738  0.19355  Biso   1.000  H
  C106     1.0000 0.54263  0.56952  0.83198  Biso   1.000  C
  N69      1.0000 0.69473  0.67219  0.78779  Biso   1.000  N
  H108     1.0000 0.56306  0.64740  0.72258  Biso   1.000  H
  O36      1.0000 0.83609  0.72249  0.77730  Biso   1.000  O
  O37      1.0000 0.83600  0.72249  0.77725  Biso   1.000  O
  N70      1.0000 0.39620  0.43282  0.21416  Biso   1.000  N
  H109     1.0000 0.48221  0.47663  0.16359  Biso   1.000  H
  H110     1.0000 0.51363  0.40092  0.18841  Biso   1.000  H
  H111     1.0000 0.48219  0.47663  0.16354  Biso   1.000  H
  H112     1.0000 0.51361  0.40092  0.18836  Biso   1.000  H
  C107     1.0000 0.22662  0.32061  0.23940  Biso   1.000  C
  C108     1.0000 0.37587  0.37613  0.25170  Biso   1.000  C
  C109     1.0000 0.22660  0.32061  0.23935  Biso   1.000  C
  C110     1.0000 0.37585  0.37613  0.25165  Biso   1.000  C
  N71      1.0000 0.59153  0.59441  0.89999  Biso   1.000  N
  H113     1.0000 0.51774  0.52343  0.83639  Biso   1.000  H
  H114     1.0000 0.48632  0.59913  0.81157  Biso   1.000  H
  C111     1.0000 0.66958  0.72533  0.83000  Biso   1.000  C
  C112     1.0000 0.66956  0.72533  0.82995  Biso   1.000  C
  C113     1.0000 0.35989  0.49148  0.23249  Biso   1.000  C
  C114     1.0000 0.35987  0.49148  0.23244  Biso   1.000  C
  O38      1.0000 0.16386  0.27751  0.22268  Biso   1.000  O
  N72      1.0000 0.23448  0.36862  0.29069  Biso   1.000  N
  N73      1.0000 0.23446  0.36862  0.29064  Biso   1.000  N
  C115     1.0000 0.32282  0.40731  0.30279  Biso   1.000  C
  H115     1.0000 0.43689  0.35260  0.27740  Biso   1.000  H
  C116     1.0000 0.32273  0.40731  0.30274  Biso   1.000  C
  H116     1.0000 0.43687  0.35260  0.27735  Biso   1.000  H
  C117     1.0000 0.59985  0.55618  0.95830  Biso   1.000  C
  C118     1.0000 0.59382  0.66672  0.91510  Biso   1.000  C
  C119     1.0000 0.59983  0.55618  0.95825  Biso   1.000  C
  C120     1.0000 0.59381  0.66672  0.91505  Biso   1.000  C
  N74      1.0000 0.67055  0.70353  0.89932  Biso   1.000  N
  H117     1.0000 0.71586  0.76331  0.83348  Biso   1.000  H
  H118     1.0000 0.60417  0.74262  0.80638  Biso   1.000  H
  N75      1.0000 0.67053  0.70353  0.89927  Biso   1.000  N
  O39      1.0000 0.36919  0.54822  0.20897  Biso   1.000  O
  N76      1.0000 0.31020  0.47749  0.27969  Biso   1.000  N
  C121     1.0000 0.16610  0.37582  0.33088  Biso   1.000  C
  H119     1.0000 0.36258  0.40371  0.35217  Biso   1.000  H
  O40      1.0000 0.59137  0.49483  0.96012  Biso   1.000  O
  O41      1.0000 0.59136  0.49483  0.96006  Biso   1.000  O
  N77      1.0000 0.62080  0.59938  0.01510  Biso   1.000  N
  N78      1.0000 0.62078  0.59938  0.01505  Biso   1.000  N
  H120     1.0000 0.52967  0.68842  0.89371  Biso   1.000  H
  C122     1.0000 0.61944  0.66971  0.99521  Biso   1.000  C
  H121     1.0000 0.52965  0.68842  0.89366  Biso   1.000  H
  C123     1.0000 0.61942  0.66971  0.99516  Biso   1.000  C
  C124     1.0000 0.73614  0.72630  0.95669  Biso   1.000  C
  C125     1.0000 0.29251  0.53098  0.32449  Biso   1.000  C
  C126     1.0000 0.29250  0.53098  0.32444  Biso   1.000  C
  N79      1.0000 0.10625  0.43652  0.31577  Biso   1.000  N
  H122     1.0000 0.20190  0.37628  0.38067  Biso   1.000  H
  H123     1.0000 0.12309  0.33562  0.32289  Biso   1.000  H
  C127     1.0000 0.61289  0.57722  0.08177  Biso   1.000  C
  N80      1.0000 0.71502  0.70028  0.01359  Biso   1.000  N
  H124     1.0000 0.57138  0.69679  0.01219  Biso   1.000  H
  O42      1.0000 0.80544  0.76483  0.95747  Biso   1.000  O
  N81      1.0000 0.18988  0.54290  0.31676  Biso   1.000  N
  H125     1.0000 0.32246  0.57352  0.31380  Biso   1.000  H
  H126     1.0000 0.32421  0.51891  0.37340  Biso   1.000  H
  H127     1.0000 0.32244  0.57352  0.31375  Biso   1.000  H
  H128     1.0000 0.32419  0.51891  0.37335  Biso   1.000  H
  C128     1.0000 0.00951  0.43211  0.28529  Biso   1.000  C
  C129     1.0000 0.13335  0.50010  0.34957  Biso   1.000  C
  C130     1.0000 0.00949  0.43211  0.28524  Biso   1.000  C
  N82      1.0000 0.70307  0.58062  0.13597  Biso   1.000  N
  H129     1.0000 0.58919  0.52981  0.07777  Biso   1.000  H
  H130     1.0000 0.56403  0.60562  0.09547  Biso   1.000  H
  H131     1.0000 0.56396  0.60562  0.09547  Biso   1.000  H
  C131     1.0000 0.75343  0.73111  0.08047  Biso   1.000  C
  C132     1.0000 0.75336  0.73111  0.08047  Biso   1.000  C
  C133     1.0000 0.14442  0.60182  0.29267  Biso   1.000  C
  C134     1.0000 0.14435  0.60182  0.29267  Biso   1.000  C
  O43      1.0000 0.96592  0.38089  0.25689  Biso   1.000  O
  N83      1.0000 0.96751  0.49341  0.29178  Biso   1.000  N
  O44      1.0000 0.96583  0.38089  0.25684  Biso   1.000  O
  C135     1.0000 0.03602  0.53950  0.33659  Biso   1.000  C
  H132     1.0000 0.16516  0.49422  0.40030  Biso   1.000  H
  C136     1.0000 0.03593  0.53950  0.33654  Biso   1.000  C
  H133     1.0000 0.16514  0.49422  0.40025  Biso   1.000  H
  C137     1.0000 0.74841  0.52419  0.16998  Biso   1.000  C
  C138     1.0000 0.74138  0.64223  0.16988  Biso   1.000  C
  N84      1.0000 0.79698  0.68259  0.13457  Biso   1.000  N
  H134     1.0000 0.70039  0.75520  0.09386  Biso   1.000  H
  H135     1.0000 0.80271  0.76508  0.07720  Biso   1.000  H
  H136     1.0000 0.80269  0.76508  0.07715  Biso   1.000  H
  O45      1.0000 0.17999  0.64851  0.26619  Biso   1.000  O
  N85      1.0000 0.05460  0.60090  0.30279  Biso   1.000  N
  N86      1.0000 0.05459  0.60090  0.30274  Biso   1.000  N
  C139     1.0000 0.86369  0.49899  0.28161  Biso   1.000  C
  C140     1.0000 0.86367  0.49899  0.28156  Biso   1.000  C
  H137     1.0000 0.01838  0.54918  0.38078  Biso   1.000  H
  O46      1.0000 0.72709  0.46522  0.15238  Biso   1.000  O
  N87      1.0000 0.81730  0.54442  0.22647  Biso   1.000  N
  H138     1.0000 0.68998  0.66971  0.18260  Biso   1.000  H
  C141     1.0000 0.81837  0.61682  0.23550  Biso   1.000  C
  H139     1.0000 0.68996  0.66971  0.18254  Biso   1.000  H
  C142     1.0000 0.81835  0.61682  0.23545  Biso   1.000  C
  C143     1.0000 0.89266  0.68903  0.17097  Biso   1.000  C
  C144     1.0000 0.98940  0.65800  0.28867  Biso   1.000  C
  H140     1.0000 0.83416  0.45350  0.27138  Biso   1.000  H
  H141     1.0000 0.85109  0.51501  0.32527  Biso   1.000  H
  N88      1.0000 0.90849  0.64862  0.22938  Biso   1.000  N
  H142     1.0000 0.80219  0.63031  0.27927  Biso   1.000  H
  O47      1.0000 0.95331  0.72391  0.15570  Biso   1.000  O
  O48      1.0000 0.95329  0.72391  0.15565  Biso   1.000  O
  H143     1.0000 0.96500  0.66651  0.32989  Biso   1.000  H
  H144     1.0000 0.96498  0.66651  0.32984  Biso   1.000  H
  H145     1.0000 0.02586  0.69871  0.28140  Biso   1.000  H
  H146     1.0000 0.02584  0.69871  0.28135  Biso   1.000  H
  N89      1.0000 0.09144  0.35138  0.77055  Biso   1.000  N
  C145     1.0000 0.18158  0.38323  0.76448  Biso   1.000  C
  C146     1.0000 0.10729  0.31102  0.82902  Biso   1.000  C
  C147     1.0000 0.01055  0.34200  0.71131  Biso   1.000  C
  C148     1.0000 0.10720  0.31102  0.82896  Biso   1.000  C
  C149     1.0000 0.01053  0.34200  0.71126  Biso   1.000  C
  N90      1.0000 0.09146  0.35138  0.77061  Biso   1.000  N
  N91      1.0000 0.18265  0.45558  0.77351  Biso   1.000  N
  C150     1.0000 0.25857  0.35782  0.83011  Biso   1.000  C
  H147     1.0000 0.19776  0.36969  0.72071  Biso   1.000  H
  N92      1.0000 0.18263  0.45558  0.77346  Biso   1.000  N
  C151     1.0000 0.25855  0.35782  0.83005  Biso   1.000  C
  H148     1.0000 0.19774  0.36969  0.72066  Biso   1.000  H
  N93      1.0000 0.20296  0.31741  0.86541  Biso   1.000  N
  N94      1.0000 0.20295  0.31741  0.86536  Biso   1.000  N
  O49      1.0000 0.04664  0.27614  0.84428  Biso   1.000  O
  H149     1.0000 0.03495  0.33349  0.67009  Biso   1.000  H
  N95      1.0000 0.94534  0.39910  0.69719  Biso   1.000  N
  H150     1.0000 0.97409  0.30129  0.71858  Biso   1.000  H
  H151     1.0000 0.97402  0.30129  0.71858  Biso   1.000  H
  C152     1.0000 0.13626  0.50101  0.71837  Biso   1.000  C
  C153     1.0000 0.25154  0.47581  0.83000  Biso   1.000  C
  C154     1.0000 0.25152  0.47581  0.82995  Biso   1.000  C
  H152     1.0000 0.30997  0.33029  0.81739  Biso   1.000  H
  N96      1.0000 0.29687  0.41938  0.86401  Biso   1.000  N
  N97      1.0000 0.29685  0.41938  0.86396  Biso   1.000  N
  C155     1.0000 0.24652  0.26889  0.91951  Biso   1.000  C
  C156     1.0000 0.24650  0.26889  0.91946  Biso   1.000  C
  C157     1.0000 0.85553  0.39818  0.70731  Biso   1.000  C
  C158     1.0000 0.96393  0.46050  0.66339  Biso   1.000  C
  C159     1.0000 0.85551  0.39818  0.70726  Biso   1.000  C
  N98      1.0000 0.03244  0.50659  0.70820  Biso   1.000  N
  H153     1.0000 0.16579  0.54650  0.72860  Biso   1.000  H
  H154     1.0000 0.14886  0.48499  0.67471  Biso   1.000  H
  H155     1.0000 0.16572  0.54650  0.72860  Biso   1.000  H
  H156     1.0000 0.14884  0.48499  0.67466  Biso   1.000  H
  O50      1.0000 0.27286  0.53478  0.84760  Biso   1.000  O
  O51      1.0000 0.27284  0.53478  0.84755  Biso   1.000  O
  C160     1.0000 0.38705  0.42283  0.91822  Biso   1.000  C
  C161     1.0000 0.38704  0.42283  0.91816  Biso   1.000  C
  N99      1.0000 0.28493  0.29972  0.98639  Biso   1.000  N
  H157     1.0000 0.19724  0.23492  0.92279  Biso   1.000  H
  H158     1.0000 0.29955  0.24480  0.90612  Biso   1.000  H
  H159     1.0000 0.29953  0.24480  0.90607  Biso   1.000  H
  O52      1.0000 0.81996  0.35149  0.73379  Biso   1.000  O
  N100     1.0000 0.81007  0.45710  0.68322  Biso   1.000  N
  O53      1.0000 0.81994  0.35149  0.73374  Biso   1.000  O
  N101     1.0000 0.81005  0.45710  0.68317  Biso   1.000  N
  H160     1.0000 0.98157  0.45082  0.61921  Biso   1.000  H
  C162     1.0000 0.86660  0.49990  0.65041  Biso   1.000  C
  C163     1.0000 0.86651  0.49990  0.65036  Biso   1.000  C
  C164     1.0000 0.99044  0.56789  0.71469  Biso   1.000  C
  N102     1.0000 0.37915  0.40062  0.98488  Biso   1.000  N
  H161     1.0000 0.41076  0.47019  0.92221  Biso   1.000  H
  H162     1.0000 0.43592  0.39438  0.90451  Biso   1.000  H
  H163     1.0000 0.41074  0.47019  0.92216  Biso   1.000  H
  H164     1.0000 0.43590  0.39438  0.90446  Biso   1.000  H
  C165     1.0000 0.26380  0.27370  0.04329  Biso   1.000  C
  C166     1.0000 0.38051  0.33029  0.00477  Biso   1.000  C
  C167     1.0000 0.70743  0.46902  0.67549  Biso   1.000  C
  N103     1.0000 0.89369  0.56348  0.68421  Biso   1.000  N
  N104     1.0000 0.89367  0.56348  0.68416  Biso   1.000  N
  H165     1.0000 0.83478  0.50578  0.59968  Biso   1.000  H
  O54      1.0000 0.03403  0.61911  0.74309  Biso   1.000  O
  C168     1.0000 0.40010  0.44382  0.04168  Biso   1.000  C
  O55      1.0000 0.19450  0.23522  0.04251  Biso   1.000  O
  N105     1.0000 0.32940  0.29652  0.10067  Biso   1.000  N
  O56      1.0000 0.19449  0.23522  0.04246  Biso   1.000  O
  H166     1.0000 0.42857  0.30321  0.98779  Biso   1.000  H
  H167     1.0000 0.42850  0.30321  0.98779  Biso   1.000  H
  C169     1.0000 0.40612  0.33328  0.08488  Biso   1.000  C
  N106     1.0000 0.68975  0.52251  0.72029  Biso   1.000  N
  H168     1.0000 0.67749  0.42653  0.68618  Biso   1.000  H
  H169     1.0000 0.67574  0.48109  0.62658  Biso   1.000  H
  H170     1.0000 0.67742  0.42653  0.68618  Biso   1.000  H
  C170     1.0000 0.83384  0.62423  0.66910  Biso   1.000  C
  O57      1.0000 0.40857  0.50522  0.03987  Biso   1.000  O
  N107     1.0000 0.40842  0.40559  0.09999  Biso   1.000  N
  C171     1.0000 0.33037  0.27472  0.16998  Biso   1.000  C
  H171     1.0000 0.47028  0.31158  0.10627  Biso   1.000  H
  C172     1.0000 0.64006  0.50852  0.76749  Biso   1.000  C
  C173     1.0000 0.67713  0.59269  0.69719  Biso   1.000  C
  N108     1.0000 0.76547  0.63143  0.70929  Biso   1.000  N
  H172     1.0000 0.79805  0.62372  0.61931  Biso   1.000  H
  H173     1.0000 0.87686  0.66438  0.67710  Biso   1.000  H
  H174     1.0000 0.79803  0.62372  0.61926  Biso   1.000  H
  C174     1.0000 0.45732  0.43048  0.16801  Biso   1.000  C
  C175     1.0000 0.45730  0.43048  0.16795  Biso   1.000  C
  N109     1.0000 0.30522  0.32781  0.21219  Biso   1.000  N
  H175     1.0000 0.28409  0.23669  0.16650  Biso   1.000  H
  H176     1.0000 0.39578  0.25738  0.19360  Biso   1.000  H
  N110     1.0000 0.30520  0.32781  0.21214  Biso   1.000  N
  H177     1.0000 0.28407  0.23669  0.16645  Biso   1.000  H
  H178     1.0000 0.39576  0.25738  0.19355  Biso   1.000  H
  O58      1.0000 0.63076  0.45178  0.79101  Biso   1.000  O
  N111     1.0000 0.60375  0.56718  0.78582  Biso   1.000  N
  O59      1.0000 0.63074  0.45178  0.79096  Biso   1.000  O
  N112     1.0000 0.60373  0.56718  0.78577  Biso   1.000  N
  H179     1.0000 0.63737  0.59629  0.64781  Biso   1.000  H
  C176     1.0000 0.62408  0.62392  0.74828  Biso   1.000  C
  H180     1.0000 0.63735  0.59629  0.64776  Biso   1.000  H
  C177     1.0000 0.77333  0.67939  0.76059  Biso   1.000  C
  N113     1.0000 0.39620  0.43282  0.21416  Biso   1.000  N
  H181     1.0000 0.48221  0.47663  0.16359  Biso   1.000  H
  H182     1.0000 0.51363  0.40092  0.18841  Biso   1.000  H
  H183     1.0000 0.48219  0.47663  0.16354  Biso   1.000  H
  H184     1.0000 0.51361  0.40092  0.18836  Biso   1.000  H
  C178     1.0000 0.22662  0.32061  0.23940  Biso   1.000  C
  C179     1.0000 0.37587  0.37613  0.25170  Biso   1.000  C
  C180     1.0000 0.22660  0.32061  0.23935  Biso   1.000  C
  C181     1.0000 0.37585  0.37613  0.25165  Biso   1.000  C
  C182     1.0000 0.54263  0.56952  0.83198  Biso   1.000  C
  N114     1.0000 0.69473  0.67219  0.78779  Biso   1.000  N
  H185     1.0000 0.56306  0.64740  0.72258  Biso   1.000  H
  O60      1.0000 0.83609  0.72249  0.77730  Biso   1.000  O
  O61      1.0000 0.83600  0.72249  0.77725  Biso   1.000  O
  C183     1.0000 0.35989  0.49148  0.23249  Biso   1.000  C
  C184     1.0000 0.35987  0.49148  0.23244  Biso   1.000  C
  O62      1.0000 0.16386  0.27751  0.22268  Biso   1.000  O
  N115     1.0000 0.23448  0.36862  0.29069  Biso   1.000  N
  N116     1.0000 0.23446  0.36862  0.29064  Biso   1.000  N
  C185     1.0000 0.32282  0.40731  0.30279  Biso   1.000  C
  H186     1.0000 0.43689  0.35260  0.27740  Biso   1.000  H
  C186     1.0000 0.32273  0.40731  0.30274  Biso   1.000  C
  H187     1.0000 0.43687  0.35260  0.27735  Biso   1.000  H
  N117     1.0000 0.59153  0.59441  0.89999  Biso   1.000  N
  H188     1.0000 0.51774  0.52343  0.83639  Biso   1.000  H
  H189     1.0000 0.48632  0.59913  0.81157  Biso   1.000  H
  C187     1.0000 0.66958  0.72533  0.83000  Biso   1.000  C
  C188     1.0000 0.66956  0.72533  0.82995  Biso   1.000  C
  O63      1.0000 0.36919  0.54822  0.20897  Biso   1.000  O
  N118     1.0000 0.31020  0.47749  0.27969  Biso   1.000  N
  C189     1.0000 0.16610  0.37582  0.33088  Biso   1.000  C
  H190     1.0000 0.36258  0.40371  0.35217  Biso   1.000  H
  C190     1.0000 0.59985  0.55618  0.95830  Biso   1.000  C
  C191     1.0000 0.59382  0.66672  0.91510  Biso   1.000  C
  C192     1.0000 0.59983  0.55618  0.95825  Biso   1.000  C
  C193     1.0000 0.59381  0.66672  0.91505  Biso   1.000  C
  N119     1.0000 0.67055  0.70353  0.89932  Biso   1.000  N
  H191     1.0000 0.71586  0.76331  0.83348  Biso   1.000  H
  H192     1.0000 0.60417  0.74262  0.80638  Biso   1.000  H
  N120     1.0000 0.67053  0.70353  0.89927  Biso   1.000  N
  C194     1.0000 0.29251  0.53098  0.32449  Biso   1.000  C
  C195     1.0000 0.29250  0.53098  0.32444  Biso   1.000  C
  N121     1.0000 0.10625  0.43652  0.31577  Biso   1.000  N
  H193     1.0000 0.20190  0.37628  0.38067  Biso   1.000  H
  H194     1.0000 0.12309  0.33562  0.32289  Biso   1.000  H
  O64      1.0000 0.59137  0.49483  0.96012  Biso   1.000  O
  O65      1.0000 0.59136  0.49483  0.96006  Biso   1.000  O
  N122     1.0000 0.62080  0.59938  0.01510  Biso   1.000  N
  N123     1.0000 0.62078  0.59938  0.01505  Biso   1.000  N
  H195     1.0000 0.52967  0.68842  0.89371  Biso   1.000  H
  C196     1.0000 0.61944  0.66971  0.99521  Biso   1.000  C
  H196     1.0000 0.52965  0.68842  0.89366  Biso   1.000  H
  C197     1.0000 0.61942  0.66971  0.99516  Biso   1.000  C
  C198     1.0000 0.73614  0.72630  0.95669  Biso   1.000  C
  N124     1.0000 0.18988  0.54290  0.31676  Biso   1.000  N
  H197     1.0000 0.32246  0.57352  0.31380  Biso   1.000  H
  H198     1.0000 0.32421  0.51891  0.37340  Biso   1.000  H
  H199     1.0000 0.32244  0.57352  0.31375  Biso   1.000  H
  H200     1.0000 0.32419  0.51891  0.37335  Biso   1.000  H
  C199     1.0000 0.00951  0.43211  0.28529  Biso   1.000  C
  C200     1.0000 0.13335  0.50010  0.34957  Biso   1.000  C
  C201     1.0000 0.00949  0.43211  0.28524  Biso   1.000  C
  C202     1.0000 0.61289  0.57722  0.08177  Biso   1.000  C
  N125     1.0000 0.71502  0.70028  0.01359  Biso   1.000  N
  H201     1.0000 0.57138  0.69679  0.01219  Biso   1.000  H
  O66      1.0000 0.80544  0.76483  0.95747  Biso   1.000  O
  C203     1.0000 0.14442  0.60182  0.29267  Biso   1.000  C
  C204     1.0000 0.14435  0.60182  0.29267  Biso   1.000  C
  O67      1.0000 0.96592  0.38089  0.25689  Biso   1.000  O
  N126     1.0000 0.96751  0.49341  0.29178  Biso   1.000  N
  O68      1.0000 0.96583  0.38089  0.25684  Biso   1.000  O
  C205     1.0000 0.03602  0.53950  0.33659  Biso   1.000  C
  H202     1.0000 0.16516  0.49422  0.40030  Biso   1.000  H
  C206     1.0000 0.03593  0.53950  0.33654  Biso   1.000  C
  H203     1.0000 0.16514  0.49422  0.40025  Biso   1.000  H
  N127     1.0000 0.70307  0.58062  0.13597  Biso   1.000  N
  H204     1.0000 0.58919  0.52981  0.07777  Biso   1.000  H
  H205     1.0000 0.56403  0.60562  0.09547  Biso   1.000  H
  H206     1.0000 0.56396  0.60562  0.09547  Biso   1.000  H
  C207     1.0000 0.75343  0.73111  0.08047  Biso   1.000  C
  C208     1.0000 0.75336  0.73111  0.08047  Biso   1.000  C
  O69      1.0000 0.17999  0.64851  0.26619  Biso   1.000  O
  N128     1.0000 0.05460  0.60090  0.30279  Biso   1.000  N
  N129     1.0000 0.05459  0.60090  0.30274  Biso   1.000  N
  C209     1.0000 0.86369  0.49899  0.28161  Biso   1.000  C
  C210     1.0000 0.86367  0.49899  0.28156  Biso   1.000  C
  H207     1.0000 0.01838  0.54918  0.38078  Biso   1.000  H
  C211     1.0000 0.74841  0.52419  0.16998  Biso   1.000  C
  C212     1.0000 0.74138  0.64223  0.16988  Biso   1.000  C
  N130     1.0000 0.79698  0.68259  0.13457  Biso   1.000  N
  H208     1.0000 0.70039  0.75520  0.09386  Biso   1.000  H
  H209     1.0000 0.80271  0.76508  0.07720  Biso   1.000  H
  H210     1.0000 0.80269  0.76508  0.07715  Biso   1.000  H
  C213     1.0000 0.98940  0.65800  0.28867  Biso   1.000  C
  N131     1.0000 0.81730  0.54442  0.22647  Biso   1.000  N
  H211     1.0000 0.83416  0.45350  0.27138  Biso   1.000  H
  H212     1.0000 0.85109  0.51501  0.32527  Biso   1.000  H
  O70      1.0000 0.72709  0.46522  0.15238  Biso   1.000  O
  H213     1.0000 0.68998  0.66971  0.18260  Biso   1.000  H
  C214     1.0000 0.81837  0.61682  0.23550  Biso   1.000  C
  H214     1.0000 0.68996  0.66971  0.18254  Biso   1.000  H
  C215     1.0000 0.81835  0.61682  0.23545  Biso   1.000  C
  C216     1.0000 0.89266  0.68903  0.17097  Biso   1.000  C
  N132     1.0000 0.90849  0.64862  0.22938  Biso   1.000  N
  H215     1.0000 0.96500  0.66651  0.32989  Biso   1.000  H
  H216     1.0000 0.96498  0.66651  0.32984  Biso   1.000  H
  H217     1.0000 0.02586  0.69871  0.28140  Biso   1.000  H
  H218     1.0000 0.02584  0.69871  0.28135  Biso   1.000  H
  H219     1.0000 0.80219  0.63031  0.27927  Biso   1.000  H
  O71      1.0000 0.95331  0.72391  0.15570  Biso   1.000  O
  O72      1.0000 0.95329  0.72391  0.15565  Biso   1.000  O
  N133     1.0000 0.09144  0.35138  0.77055  Biso   1.000  N
  C217     1.0000 0.18158  0.38323  0.76448  Biso   1.000  C
  C218     1.0000 0.10729  0.31102  0.82902  Biso   1.000  C
  C219     1.0000 0.01055  0.34200  0.71131  Biso   1.000  C
  C220     1.0000 0.10720  0.31102  0.82896  Biso   1.000  C
  C221     1.0000 0.01053  0.34200  0.71126  Biso   1.000  C
  N134     1.0000 0.09146  0.35138  0.77061  Biso   1.000  N
  N135     1.0000 0.18265  0.45558  0.77351  Biso   1.000  N
  C222     1.0000 0.25857  0.35782  0.83011  Biso   1.000  C
  H220     1.0000 0.19776  0.36969  0.72071  Biso   1.000  H
  N136     1.0000 0.18263  0.45558  0.77346  Biso   1.000  N
  C223     1.0000 0.25855  0.35782  0.83005  Biso   1.000  C
  H221     1.0000 0.19774  0.36969  0.72066  Biso   1.000  H
  N137     1.0000 0.20296  0.31741  0.86541  Biso   1.000  N
  N138     1.0000 0.20295  0.31741  0.86536  Biso   1.000  N
  O73      1.0000 0.04664  0.27614  0.84428  Biso   1.000  O
  H222     1.0000 0.03495  0.33349  0.67009  Biso   1.000  H
  N139     1.0000 0.94534  0.39910  0.69719  Biso   1.000  N
  H223     1.0000 0.97409  0.30129  0.71858  Biso   1.000  H
  H224     1.0000 0.97402  0.30129  0.71858  Biso   1.000  H
  C224     1.0000 0.13626  0.50101  0.71837  Biso   1.000  C
  C225     1.0000 0.25154  0.47581  0.83000  Biso   1.000  C
  C226     1.0000 0.25152  0.47581  0.82995  Biso   1.000  C
  H225     1.0000 0.30997  0.33029  0.81739  Biso   1.000  H
  N140     1.0000 0.29687  0.41938  0.86401  Biso   1.000  N
  N141     1.0000 0.29685  0.41938  0.86396  Biso   1.000  N
  C227     1.0000 0.24652  0.26889  0.91951  Biso   1.000  C
  C228     1.0000 0.24650  0.26889  0.91946  Biso   1.000  C
  C229     1.0000 0.85553  0.39818  0.70731  Biso   1.000  C
  C230     1.0000 0.96393  0.46050  0.66339  Biso   1.000  C
  C231     1.0000 0.85551  0.39818  0.70726  Biso   1.000  C
  N142     1.0000 0.03244  0.50659  0.70820  Biso   1.000  N
  H226     1.0000 0.16579  0.54650  0.72860  Biso   1.000  H
  H227     1.0000 0.14886  0.48499  0.67471  Biso   1.000  H
  H228     1.0000 0.16572  0.54650  0.72860  Biso   1.000  H
  H229     1.0000 0.14884  0.48499  0.67466  Biso   1.000  H
  O74      1.0000 0.27286  0.53478  0.84760  Biso   1.000  O
  O75      1.0000 0.27284  0.53478  0.84755  Biso   1.000  O
  C232     1.0000 0.38705  0.42283  0.91822  Biso   1.000  C
  C233     1.0000 0.38704  0.42283  0.91816  Biso   1.000  C
  N143     1.0000 0.28493  0.29972  0.98639  Biso   1.000  N
  H230     1.0000 0.19724  0.23492  0.92279  Biso   1.000  H
  H231     1.0000 0.29955  0.24480  0.90612  Biso   1.000  H
  H232     1.0000 0.29953  0.24480  0.90607  Biso   1.000  H
  O76      1.0000 0.81996  0.35149  0.73379  Biso   1.000  O
  N144     1.0000 0.81007  0.45710  0.68322  Biso   1.000  N
  O77      1.0000 0.81994  0.35149  0.73374  Biso   1.000  O
  N145     1.0000 0.81005  0.45710  0.68317  Biso   1.000  N
  H233     1.0000 0.98157  0.45082  0.61921  Biso   1.000  H
  C234     1.0000 0.86660  0.49990  0.65041  Biso   1.000  C
  C235     1.0000 0.86651  0.49990  0.65036  Biso   1.000  C
  C236     1.0000 0.99044  0.56789  0.71469  Biso   1.000  C
  N146     1.0000 0.37915  0.40062  0.98488  Biso   1.000  N
  H234     1.0000 0.41076  0.47019  0.92221  Biso   1.000  H
  H235     1.0000 0.43592  0.39438  0.90451  Biso   1.000  H
  H236     1.0000 0.41074  0.47019  0.92216  Biso   1.000  H
  H237     1.0000 0.43590  0.39438  0.90446  Biso   1.000  H
  C237     1.0000 0.26380  0.27370  0.04329  Biso   1.000  C
  C238     1.0000 0.38051  0.33029  0.00477  Biso   1.000  C
  C239     1.0000 0.70743  0.46902  0.67549  Biso   1.000  C
  N147     1.0000 0.89369  0.56348  0.68421  Biso   1.000  N
  N148     1.0000 0.89367  0.56348  0.68416  Biso   1.000  N
  H238     1.0000 0.83478  0.50578  0.59968  Biso   1.000  H
  O78      1.0000 0.03403  0.61911  0.74309  Biso   1.000  O
  C240     1.0000 0.40010  0.44382  0.04168  Biso   1.000  C
  O79      1.0000 0.19450  0.23522  0.04251  Biso   1.000  O
  N149     1.0000 0.32940  0.29652  0.10067  Biso   1.000  N
  O80      1.0000 0.19449  0.23522  0.04246  Biso   1.000  O
  H239     1.0000 0.42857  0.30321  0.98779  Biso   1.000  H
  H240     1.0000 0.42850  0.30321  0.98779  Biso   1.000  H
  C241     1.0000 0.40612  0.33328  0.08488  Biso   1.000  C
  N150     1.0000 0.68975  0.52251  0.72029  Biso   1.000  N
  H241     1.0000 0.67749  0.42653  0.68618  Biso   1.000  H
  H242     1.0000 0.67574  0.48109  0.62658  Biso   1.000  H
  H243     1.0000 0.67742  0.42653  0.68618  Biso   1.000  H
  C242     1.0000 0.83384  0.62423  0.66910  Biso   1.000  C
  O81      1.0000 0.40857  0.50522  0.03987  Biso   1.000  O
  N151     1.0000 0.40842  0.40559  0.09999  Biso   1.000  N
  C243     1.0000 0.33037  0.27472  0.16998  Biso   1.000  C
  H244     1.0000 0.47028  0.31158  0.10627  Biso   1.000  H
  C244     1.0000 0.64006  0.50852  0.76749  Biso   1.000  C
  C245     1.0000 0.67713  0.59269  0.69719  Biso   1.000  C
  N152     1.0000 0.76547  0.63143  0.70929  Biso   1.000  N
  H245     1.0000 0.79805  0.62372  0.61931  Biso   1.000  H
  H246     1.0000 0.87686  0.66438  0.67710  Biso   1.000  H
  H247     1.0000 0.79803  0.62372  0.61926  Biso   1.000  H
  C246     1.0000 0.45732  0.43048  0.16801  Biso   1.000  C
  C247     1.0000 0.45730  0.43048  0.16795  Biso   1.000  C
  N153     1.0000 0.30522  0.32781  0.21219  Biso   1.000  N
  H248     1.0000 0.28409  0.23669  0.16650  Biso   1.000  H
  H249     1.0000 0.39578  0.25738  0.19360  Biso   1.000  H
  N154     1.0000 0.30520  0.32781  0.21214  Biso   1.000  N
  H250     1.0000 0.28407  0.23669  0.16645  Biso   1.000  H
  H251     1.0000 0.39576  0.25738  0.19355  Biso   1.000  H
  O82      1.0000 0.63076  0.45178  0.79101  Biso   1.000  O
  N155     1.0000 0.60375  0.56718  0.78582  Biso   1.000  N
  O83      1.0000 0.63074  0.45178  0.79096  Biso   1.000  O
  N156     1.0000 0.60373  0.56718  0.78577  Biso   1.000  N
  H252     1.0000 0.63737  0.59629  0.64781  Biso   1.000  H
  C248     1.0000 0.62408  0.62392  0.74828  Biso   1.000  C
  H253     1.0000 0.63735  0.59629  0.64776  Biso   1.000  H
  C249     1.0000 0.77333  0.67939  0.76059  Biso   1.000  C
  N157     1.0000 0.39620  0.43282  0.21416  Biso   1.000  N
  H254     1.0000 0.48221  0.47663  0.16359  Biso   1.000  H
  H255     1.0000 0.51363  0.40092  0.18841  Biso   1.000  H
  H256     1.0000 0.48219  0.47663  0.16354  Biso   1.000  H
  H257     1.0000 0.51361  0.40092  0.18836  Biso   1.000  H
  C250     1.0000 0.22662  0.32061  0.23940  Biso   1.000  C
  C251     1.0000 0.37587  0.37613  0.25170  Biso   1.000  C
  C252     1.0000 0.22660  0.32061  0.23935  Biso   1.000  C
  C253     1.0000 0.37585  0.37613  0.25165  Biso   1.000  C
  C254     1.0000 0.54263  0.56952  0.83198  Biso   1.000  C
  N158     1.0000 0.69473  0.67219  0.78779  Biso   1.000  N
  H258     1.0000 0.56306  0.64740  0.72258  Biso   1.000  H
  O84      1.0000 0.83609  0.72249  0.77730  Biso   1.000  O
  O85      1.0000 0.83600  0.72249  0.77725  Biso   1.000  O
  C255     1.0000 0.35989  0.49148  0.23249  Biso   1.000  C
  C256     1.0000 0.35987  0.49148  0.23244  Biso   1.000  C
  O86      1.0000 0.16386  0.27751  0.22268  Biso   1.000  O
  N159     1.0000 0.23448  0.36862  0.29069  Biso   1.000  N
  N160     1.0000 0.23446  0.36862  0.29064  Biso   1.000  N
  C257     1.0000 0.32282  0.40731  0.30279  Biso   1.000  C
  H259     1.0000 0.43689  0.35260  0.27740  Biso   1.000  H
  C258     1.0000 0.32273  0.40731  0.30274  Biso   1.000  C
  H260     1.0000 0.43687  0.35260  0.27735  Biso   1.000  H
  N161     1.0000 0.59153  0.59441  0.89999  Biso   1.000  N
  H261     1.0000 0.51774  0.52343  0.83639  Biso   1.000  H
  H262     1.0000 0.48632  0.59913  0.81157  Biso   1.000  H
  C259     1.0000 0.66958  0.72533  0.83000  Biso   1.000  C
  C260     1.0000 0.66956  0.72533  0.82995  Biso   1.000  C
  O87      1.0000 0.36919  0.54822  0.20897  Biso   1.000  O
  N162     1.0000 0.31020  0.47749  0.27969  Biso   1.000  N
  C261     1.0000 0.16610  0.37582  0.33088  Biso   1.000  C
  H263     1.0000 0.36258  0.40371  0.35217  Biso   1.000  H
  C262     1.0000 0.59985  0.55618  0.95830  Biso   1.000  C
  C263     1.0000 0.59382  0.66672  0.91510  Biso   1.000  C
  C264     1.0000 0.59983  0.55618  0.95825  Biso   1.000  C
  C265     1.0000 0.59381  0.66672  0.91505  Biso   1.000  C
  N163     1.0000 0.67055  0.70353  0.89932  Biso   1.000  N
  H264     1.0000 0.71586  0.76331  0.83348  Biso   1.000  H
  H265     1.0000 0.60417  0.74262  0.80638  Biso   1.000  H
  N164     1.0000 0.67053  0.70353  0.89927  Biso   1.000  N
  C266     1.0000 0.29251  0.53098  0.32449  Biso   1.000  C
  C267     1.0000 0.29250  0.53098  0.32444  Biso   1.000  C
  N165     1.0000 0.10625  0.43652  0.31577  Biso   1.000  N
  H266     1.0000 0.20190  0.37628  0.38067  Biso   1.000  H
  H267     1.0000 0.12309  0.33562  0.32289  Biso   1.000  H
  O88      1.0000 0.59137  0.49483  0.96012  Biso   1.000  O
  O89      1.0000 0.59136  0.49483  0.96006  Biso   1.000  O
  N166     1.0000 0.62080  0.59938  0.01510  Biso   1.000  N
  N167     1.0000 0.62078  0.59938  0.01505  Biso   1.000  N
  H268     1.0000 0.52967  0.68842  0.89371  Biso   1.000  H
  C268     1.0000 0.61944  0.66971  0.99521  Biso   1.000  C
  H269     1.0000 0.52965  0.68842  0.89366  Biso   1.000  H
  C269     1.0000 0.61942  0.66971  0.99516  Biso   1.000  C
  C270     1.0000 0.73614  0.72630  0.95669  Biso   1.000  C
  N168     1.0000 0.18988  0.54290  0.31676  Biso   1.000  N
  H270     1.0000 0.32246  0.57352  0.31380  Biso   1.000  H
  H271     1.0000 0.32421  0.51891  0.37340  Biso   1.000  H
  H272     1.0000 0.32244  0.57352  0.31375  Biso   1.000  H
  H273     1.0000 0.32419  0.51891  0.37335  Biso   1.000  H
  C271     1.0000 0.00951  0.43211  0.28529  Biso   1.000  C
  C272     1.0000 0.13335  0.50010  0.34957  Biso   1.000  C
  C273     1.0000 0.00949  0.43211  0.28524  Biso   1.000  C
  C274     1.0000 0.61289  0.57722  0.08177  Biso   1.000  C
  N169     1.0000 0.71502  0.70028  0.01359  Biso   1.000  N
  H274     1.0000 0.57138  0.69679  0.01219  Biso   1.000  H
  O90      1.0000 0.80544  0.76483  0.95747  Biso   1.000  O
  C275     1.0000 0.14442  0.60182  0.29267  Biso   1.000  C
  C276     1.0000 0.14435  0.60182  0.29267  Biso   1.000  C
  O91      1.0000 0.96592  0.38089  0.25689  Biso   1.000  O
  N170     1.0000 0.96751  0.49341  0.29178  Biso   1.000  N
  O92      1.0000 0.96583  0.38089  0.25684  Biso   1.000  O
  C277     1.0000 0.03602  0.53950  0.33659  Biso   1.000  C
  H275     1.0000 0.16516  0.49422  0.40030  Biso   1.000  H
  C278     1.0000 0.03593  0.53950  0.33654  Biso   1.000  C
  H276     1.0000 0.16514  0.49422  0.40025  Biso   1.000  H
  N171     1.0000 0.70307  0.58062  0.13597  Biso   1.000  N
  H277     1.0000 0.58919  0.52981  0.07777  Biso   1.000  H
  H278     1.0000 0.56403  0.60562  0.09547  Biso   1.000  H
  H279     1.0000 0.56396  0.60562  0.09547  Biso   1.000  H
  C279     1.0000 0.75343  0.73111  0.08047  Biso   1.000  C
  C280     1.0000 0.75336  0.73111  0.08047  Biso   1.000  C
  O93      1.0000 0.17999  0.64851  0.26619  Biso   1.000  O
  N172     1.0000 0.05460  0.60090  0.30279  Biso   1.000  N
  N173     1.0000 0.05459  0.60090  0.30274  Biso   1.000  N
  C281     1.0000 0.86369  0.49899  0.28161  Biso   1.000  C
  C282     1.0000 0.86367  0.49899  0.28156  Biso   1.000  C
  H280     1.0000 0.01838  0.54918  0.38078  Biso   1.000  H
  C283     1.0000 0.74841  0.52419  0.16998  Biso   1.000  C
  C284     1.0000 0.74138  0.64223  0.16988  Biso   1.000  C
  N174     1.0000 0.79698  0.68259  0.13457  Biso   1.000  N
  H281     1.0000 0.70039  0.75520  0.09386  Biso   1.000  H
  H282     1.0000 0.80271  0.76508  0.07720  Biso   1.000  H
  H283     1.0000 0.80269  0.76508  0.07715  Biso   1.000  H
  C285     1.0000 0.98940  0.65800  0.28867  Biso   1.000  C
  N175     1.0000 0.81730  0.54442  0.22647  Biso   1.000  N
  H284     1.0000 0.83416  0.45350  0.27138  Biso   1.000  H
  H285     1.0000 0.85109  0.51501  0.32527  Biso   1.000  H
  O94      1.0000 0.72709  0.46522  0.15238  Biso   1.000  O
  H286     1.0000 0.68998  0.66971  0.18260  Biso   1.000  H
  C286     1.0000 0.81837  0.61682  0.23550  Biso   1.000  C
  H287     1.0000 0.68996  0.66971  0.18254  Biso   1.000  H
  C287     1.0000 0.81835  0.61682  0.23545  Biso   1.000  C
  C288     1.0000 0.89266  0.68903  0.17097  Biso   1.000  C
  N176     1.0000 0.90849  0.64862  0.22938  Biso   1.000  N
  H288     1.0000 0.96500  0.66651  0.32989  Biso   1.000  H
  H289     1.0000 0.96498  0.66651  0.32984  Biso   1.000  H
  H290     1.0000 0.02586  0.69871  0.28140  Biso   1.000  H
  H291     1.0000 0.02584  0.69871  0.28135  Biso   1.000  H
  H292     1.0000 0.80219  0.63031  0.27927  Biso   1.000  H
  O95      1.0000 0.95331  0.72391  0.15570  Biso   1.000  O
  O96      1.0000 0.95329  0.72391  0.15565  Biso   1.000  O
  O97      1.0000 0.16386  0.22249  0.72268  Biso   1.000  O
  C289     1.0000 0.22654  0.17939  0.73940  Biso   1.000  C
  N177     1.0000 0.30515  0.17219  0.71220  Biso   1.000  N
  N178     1.0000 0.23447  0.13138  0.79070  Biso   1.000  N
  N179     1.0000 0.23447  0.13143  0.79070  Biso   1.000  N
  C290     1.0000 0.33037  0.22528  0.66998  Biso   1.000  C
  C291     1.0000 0.33037  0.22533  0.66998  Biso   1.000  C
  C292     1.0000 0.37585  0.12392  0.75165  Biso   1.000  C
  C293     1.0000 0.32274  0.09269  0.80280  Biso   1.000  C
  C294     1.0000 0.16603  0.12418  0.83089  Biso   1.000  C
  C295     1.0000 0.16603  0.12423  0.83089  Biso   1.000  C
  N180     1.0000 0.32932  0.20348  0.60067  Biso   1.000  N
  N181     1.0000 0.32932  0.20353  0.60067  Biso   1.000  N
  H293     1.0000 0.28409  0.26331  0.66650  Biso   1.000  H
  H294     1.0000 0.39576  0.24262  0.69356  Biso   1.000  H
  N182     1.0000 0.39613  0.06718  0.71417  Biso   1.000  N
  N183     1.0000 0.39613  0.06723  0.71417  Biso   1.000  N
  H295     1.0000 0.43686  0.14740  0.77736  Biso   1.000  H
  N184     1.0000 0.31012  0.02251  0.77969  Biso   1.000  N
  H296     1.0000 0.36250  0.09629  0.85217  Biso   1.000  H
  N185     1.0000 0.10625  0.06348  0.81578  Biso   1.000  N
  H297     1.0000 0.20183  0.12372  0.88068  Biso   1.000  H
  H298     1.0000 0.12302  0.16438  0.82289  Biso   1.000  H
  N186     1.0000 0.10625  0.06353  0.81578  Biso   1.000  N
  H299     1.0000 0.12302  0.16444  0.82289  Biso   1.000  H
  C296     1.0000 0.26373  0.22630  0.54330  Biso   1.000  C
  C297     1.0000 0.40605  0.16672  0.58489  Biso   1.000  C
  C298     1.0000 0.45722  0.06952  0.66796  Biso   1.000  C
  C299     1.0000 0.35988  0.00852  0.73250  Biso   1.000  C
  C300     1.0000 0.29244  0.96902  0.82450  Biso   1.000  C
  C301     1.0000 0.00943  0.06789  0.78530  Biso   1.000  C
  C302     1.0000 0.13334  0.99990  0.84958  Biso   1.000  C
  N187     1.0000 0.28499  0.20028  0.48639  Biso   1.000  N
  N188     1.0000 0.28499  0.20033  0.48639  Biso   1.000  N
  O98      1.0000 0.19448  0.26478  0.54247  Biso   1.000  O
  O99      1.0000 0.19448  0.26483  0.54247  Biso   1.000  O
  C303     1.0000 0.38043  0.16971  0.50477  Biso   1.000  C
  N189     1.0000 0.40835  0.09441  0.59999  Biso   1.000  N
  H300     1.0000 0.47027  0.18842  0.60628  Biso   1.000  H
  H301     1.0000 0.48213  0.02337  0.66360  Biso   1.000  H
  H302     1.0000 0.51353  0.09908  0.68836  Biso   1.000  H
  H303     1.0000 0.48213  0.02343  0.66360  Biso   1.000  H
  H304     1.0000 0.51353  0.09913  0.68836  Biso   1.000  H
  O100     1.0000 0.36911  0.95178  0.70898  Biso   1.000  O
  N190     1.0000 0.18981  0.95710  0.81676  Biso   1.000  N
  H305     1.0000 0.32244  0.92648  0.81375  Biso   1.000  H
  H306     1.0000 0.32412  0.98109  0.87336  Biso   1.000  H
  H307     1.0000 0.32244  0.92653  0.81375  Biso   1.000  H
  O101     1.0000 0.96585  0.11911  0.75690  Biso   1.000  O
  N191     1.0000 0.96744  0.00659  0.79179  Biso   1.000  N
  H308     1.0000 0.16514  0.00578  0.90025  Biso   1.000  H
  H309     1.0000 0.16514  0.00583  0.90025  Biso   1.000  H
  C304     1.0000 0.03594  0.96050  0.83660  Biso   1.000  C
  C305     1.0000 0.24656  0.23111  0.41947  Biso   1.000  C
  N192     1.0000 0.37914  0.09938  0.48489  Biso   1.000  N
  N193     1.0000 0.37914  0.09943  0.48489  Biso   1.000  N
  H310     1.0000 0.42856  0.19679  0.48779  Biso   1.000  H
  H311     1.0000 0.42856  0.19684  0.48779  Biso   1.000  H
  C306     1.0000 0.40003  0.05618  0.54169  Biso   1.000  C
  C307     1.0000 0.40003  0.05623  0.54169  Biso   1.000  C
  C308     1.0000 0.14434  0.89818  0.79267  Biso   1.000  C
  C309     1.0000 0.86366  0.00101  0.78156  Biso   1.000  C
  N194     1.0000 0.05453  0.89910  0.80280  Biso   1.000  N
  H312     1.0000 0.01831  0.95082  0.88078  Biso   1.000  H
  N195     1.0000 0.20294  0.18259  0.36537  Biso   1.000  N
  H313     1.0000 0.29953  0.25520  0.40607  Biso   1.000  H
  H314     1.0000 0.19724  0.26508  0.42279  Biso   1.000  H
  H315     1.0000 0.19724  0.26514  0.42279  Biso   1.000  H
  C310     1.0000 0.38703  0.07722  0.41817  Biso   1.000  C
  O102     1.0000 0.40857  0.99478  0.53987  Biso   1.000  O
  O103     1.0000 0.40857  0.99483  0.53987  Biso   1.000  O
  O104     1.0000 0.17991  0.85149  0.76619  Biso   1.000  O
  N196     1.0000 0.81723  0.95558  0.72647  Biso   1.000  N
  H316     1.0000 0.85102  0.98499  0.82528  Biso   1.000  H
  N197     1.0000 0.81723  0.95563  0.72647  Biso   1.000  N
  H317     1.0000 0.83415  0.04650  0.77138  Biso   1.000  H
  C311     1.0000 0.98932  0.84200  0.78867  Biso   1.000  C
  C312     1.0000 0.25856  0.14223  0.33011  Biso   1.000  C
  C313     1.0000 0.10726  0.18898  0.32897  Biso   1.000  C
  C314     1.0000 0.25856  0.14218  0.33011  Biso   1.000  C
  C315     1.0000 0.10726  0.18903  0.32897  Biso   1.000  C
  N198     1.0000 0.29685  0.08062  0.36396  Biso   1.000  N
  H318     1.0000 0.41074  0.02981  0.42217  Biso   1.000  H
  H319     1.0000 0.43599  0.10562  0.40451  Biso   1.000  H
  C316     1.0000 0.74833  0.97581  0.66998  Biso   1.000  C
  C317     1.0000 0.81835  0.88318  0.73546  Biso   1.000  C
  C318     1.0000 0.81835  0.88323  0.73546  Biso   1.000  C
  N199     1.0000 0.90842  0.85138  0.72938  Biso   1.000  N
  H320     1.0000 0.96492  0.83349  0.82990  Biso   1.000  H
  H321     1.0000 0.02584  0.80129  0.78135  Biso   1.000  H
  H322     1.0000 0.30996  0.16971  0.31739  Biso   1.000  H
  C319     1.0000 0.18157  0.11682  0.26448  Biso   1.000  C
  N200     1.0000 0.09145  0.14862  0.27061  Biso   1.000  N
  O105     1.0000 0.04671  0.22386  0.34429  Biso   1.000  O
  O106     1.0000 0.04671  0.22391  0.34429  Biso   1.000  O
  C320     1.0000 0.25161  0.02419  0.33001  Biso   1.000  C
  N201     1.0000 0.70307  0.91938  0.63598  Biso   1.000  N
  N202     1.0000 0.70307  0.91943  0.63598  Biso   1.000  N
  O107     1.0000 0.72708  0.03478  0.65238  Biso   1.000  O
  O108     1.0000 0.72708  0.03483  0.65238  Biso   1.000  O
  C321     1.0000 0.74138  0.85782  0.66988  Biso   1.000  C
  H323     1.0000 0.80211  0.86969  0.77928  Biso   1.000  H
  C322     1.0000 0.89266  0.81102  0.67097  Biso   1.000  C
  N203     1.0000 0.18271  0.04442  0.27352  Biso   1.000  N
  H324     1.0000 0.19776  0.13031  0.22071  Biso   1.000  H
  C323     1.0000 0.01062  0.15800  0.21132  Biso   1.000  C
  O109     1.0000 0.27285  0.96522  0.34761  Biso   1.000  O
  C324     1.0000 0.61282  0.92278  0.58177  Biso   1.000  C
  C325     1.0000 0.61282  0.92283  0.58177  Biso   1.000  C
  N204     1.0000 0.79698  0.81741  0.63457  Biso   1.000  N
  H325     1.0000 0.68998  0.83029  0.68260  Biso   1.000  H
  O110     1.0000 0.95323  0.77614  0.65571  Biso   1.000  O
  C326     1.0000 0.13626  0.99899  0.21838  Biso   1.000  C
  H326     1.0000 0.03502  0.16651  0.17009  Biso   1.000  H
  N205     1.0000 0.94541  0.10090  0.19719  Biso   1.000  N
  H327     1.0000 0.97408  0.19871  0.21859  Biso   1.000  H
  N206     1.0000 0.62080  0.90062  0.51510  Biso   1.000  N
  H328     1.0000 0.58918  0.97019  0.57777  Biso   1.000  H
  H329     1.0000 0.56395  0.89438  0.59548  Biso   1.000  H
  H330     1.0000 0.56395  0.89443  0.59548  Biso   1.000  H
  C327     1.0000 0.75336  0.76889  0.58047  Biso   1.000  C
  H331     1.0000 0.14892  0.01501  0.17471  Biso   1.000  H
  N207     1.0000 0.03250  0.99341  0.20820  Biso   1.000  N
  H332     1.0000 0.16578  0.95350  0.22861  Biso   1.000  H
  C328     1.0000 0.85560  0.10182  0.20732  Biso   1.000  C
  C329     1.0000 0.96399  0.03950  0.16339  Biso   1.000  C
  C330     1.0000 0.59984  0.94382  0.45830  Biso   1.000  C
  C331     1.0000 0.61949  0.83029  0.49517  Biso   1.000  C
  N208     1.0000 0.71495  0.79972  0.51360  Biso   1.000  N
  H333     1.0000 0.70032  0.74480  0.59387  Biso   1.000  H
  H334     1.0000 0.80263  0.73492  0.57720  Biso   1.000  H
  C332     1.0000 0.99051  0.93211  0.21469  Biso   1.000  C
  O111     1.0000 0.82001  0.14851  0.23375  Biso   1.000  O
  N209     1.0000 0.81011  0.04290  0.18318  Biso   1.000  N
  H335     1.0000 0.98156  0.04918  0.11921  Biso   1.000  H
  C333     1.0000 0.86660  0.00010  0.15041  Biso   1.000  C
  H336     1.0000 0.98156  0.04923  0.11921  Biso   1.000  H
  N210     1.0000 0.59159  0.90559  0.40000  Biso   1.000  N
  O112     1.0000 0.59135  0.00522  0.46007  Biso   1.000  O
  C334     1.0000 0.59389  0.83328  0.41511  Biso   1.000  C
  C335     1.0000 0.59389  0.83333  0.41511  Biso   1.000  C
  H337     1.0000 0.57137  0.80321  0.51220  Biso   1.000  H
  C336     1.0000 0.73614  0.77370  0.45669  Biso   1.000  C
  N211     1.0000 0.89369  0.93652  0.18421  Biso   1.000  N
  O113     1.0000 0.03409  0.88089  0.24309  Biso   1.000  O
  C337     1.0000 0.70750  0.03098  0.17549  Biso   1.000  C
  C338     1.0000 0.70750  0.03103  0.17549  Biso   1.000  C
  H338     1.0000 0.83478  0.99422  0.09969  Biso   1.000  H
  C339     1.0000 0.54270  0.93048  0.33198  Biso   1.000  C
  C340     1.0000 0.54270  0.93053  0.33198  Biso   1.000  C
  N212     1.0000 0.67053  0.79652  0.39927  Biso   1.000  N
  H339     1.0000 0.52967  0.81158  0.39371  Biso   1.000  H
  H340     1.0000 0.52967  0.81163  0.39371  Biso   1.000  H
  O114     1.0000 0.80544  0.73522  0.45747  Biso   1.000  O
  C341     1.0000 0.83391  0.87582  0.16911  Biso   1.000  C
  N213     1.0000 0.68981  0.97749  0.22030  Biso   1.000  N
  H341     1.0000 0.67748  0.07352  0.18619  Biso   1.000  H
  H342     1.0000 0.67580  0.01891  0.12658  Biso   1.000  H
  N214     1.0000 0.60379  0.93282  0.28577  Biso   1.000  N
  H343     1.0000 0.51781  0.97663  0.33639  Biso   1.000  H
  H344     1.0000 0.48639  0.90092  0.31158  Biso   1.000  H
  C342     1.0000 0.66957  0.77472  0.33001  Biso   1.000  C
  H345     1.0000 0.79811  0.87628  0.11931  Biso   1.000  H
  H346     1.0000 0.87692  0.83562  0.17710  Biso   1.000  H
  N215     1.0000 0.76547  0.86862  0.20929  Biso   1.000  N
  H347     1.0000 0.79811  0.87633  0.11931  Biso   1.000  H
  C343     1.0000 0.64006  0.99148  0.26750  Biso   1.000  C
  C344     1.0000 0.67720  0.90731  0.19719  Biso   1.000  C
  C345     1.0000 0.64006  0.99153  0.26750  Biso   1.000  C
  C346     1.0000 0.62407  0.87608  0.24828  Biso   1.000  C
  C347     1.0000 0.62407  0.87613  0.24828  Biso   1.000  C
  N216     1.0000 0.69479  0.82781  0.28780  Biso   1.000  N
  H348     1.0000 0.71585  0.73669  0.33349  Biso   1.000  H
  H349     1.0000 0.60416  0.75738  0.30638  Biso   1.000  H
  H350     1.0000 0.60416  0.75743  0.30638  Biso   1.000  H
  C348     1.0000 0.77340  0.82061  0.26059  Biso   1.000  C
  O115     1.0000 0.63076  0.04822  0.29102  Biso   1.000  O
  H351     1.0000 0.63736  0.90371  0.14782  Biso   1.000  H
  H352     1.0000 0.56306  0.85260  0.22258  Biso   1.000  H
  O116     1.0000 0.83608  0.77751  0.27731  Biso   1.000  O
  O117     1.0000 0.16386  0.22249  0.72268  Biso   1.000  O
  C349     1.0000 0.22654  0.17939  0.73940  Biso   1.000  C
  N217     1.0000 0.30515  0.17219  0.71220  Biso   1.000  N
  N218     1.0000 0.23447  0.13138  0.79070  Biso   1.000  N
  N219     1.0000 0.23447  0.13143  0.79070  Biso   1.000  N
  C350     1.0000 0.33037  0.22528  0.66998  Biso   1.000  C
  C351     1.0000 0.33037  0.22533  0.66998  Biso   1.000  C
  C352     1.0000 0.37585  0.12392  0.75165  Biso   1.000  C
  C353     1.0000 0.32274  0.09269  0.80280  Biso   1.000  C
  C354     1.0000 0.16603  0.12418  0.83089  Biso   1.000  C
  C355     1.0000 0.16603  0.12423  0.83089  Biso   1.000  C
  N220     1.0000 0.32932  0.20348  0.60067  Biso   1.000  N
  N221     1.0000 0.32932  0.20353  0.60067  Biso   1.000  N
  H353     1.0000 0.28409  0.26331  0.66650  Biso   1.000  H
  H354     1.0000 0.39576  0.24262  0.69356  Biso   1.000  H
  N222     1.0000 0.39613  0.06718  0.71417  Biso   1.000  N
  N223     1.0000 0.39613  0.06723  0.71417  Biso   1.000  N
  H355     1.0000 0.43686  0.14740  0.77736  Biso   1.000  H
  N224     1.0000 0.31012  0.02251  0.77969  Biso   1.000  N
  H356     1.0000 0.36250  0.09629  0.85217  Biso   1.000  H
  H357     1.0000 0.20183  0.12372  0.88068  Biso   1.000  H
  N225     1.0000 0.10625  0.06348  0.81578  Biso   1.000  N
  H358     1.0000 0.12302  0.16438  0.82289  Biso   1.000  H
  N226     1.0000 0.10625  0.06353  0.81578  Biso   1.000  N
  H359     1.0000 0.12302  0.16444  0.82289  Biso   1.000  H
  C356     1.0000 0.26373  0.22630  0.54330  Biso   1.000  C
  C357     1.0000 0.40605  0.16672  0.58489  Biso   1.000  C
  C358     1.0000 0.45722  0.06952  0.66796  Biso   1.000  C
  C359     1.0000 0.35988  0.00852  0.73250  Biso   1.000  C
  C360     1.0000 0.29244  0.96902  0.82450  Biso   1.000  C
  C361     1.0000 0.00943  0.06789  0.78530  Biso   1.000  C
  C362     1.0000 0.13334  0.99990  0.84958  Biso   1.000  C
  N227     1.0000 0.28499  0.20028  0.48639  Biso   1.000  N
  N228     1.0000 0.28499  0.20033  0.48639  Biso   1.000  N
  O118     1.0000 0.19448  0.26478  0.54247  Biso   1.000  O
  O119     1.0000 0.19448  0.26483  0.54247  Biso   1.000  O
  C363     1.0000 0.38043  0.16971  0.50477  Biso   1.000  C
  N229     1.0000 0.40835  0.09441  0.59999  Biso   1.000  N
  H360     1.0000 0.47027  0.18842  0.60628  Biso   1.000  H
  H361     1.0000 0.48213  0.02337  0.66360  Biso   1.000  H
  H362     1.0000 0.51353  0.09908  0.68836  Biso   1.000  H
  H363     1.0000 0.48213  0.02343  0.66360  Biso   1.000  H
  H364     1.0000 0.51353  0.09913  0.68836  Biso   1.000  H
  O120     1.0000 0.36911  0.95178  0.70898  Biso   1.000  O
  N230     1.0000 0.18981  0.95710  0.81676  Biso   1.000  N
  H365     1.0000 0.32244  0.92648  0.81375  Biso   1.000  H
  H366     1.0000 0.32412  0.98109  0.87336  Biso   1.000  H
  H367     1.0000 0.32244  0.92653  0.81375  Biso   1.000  H
  O121     1.0000 0.96585  0.11911  0.75690  Biso   1.000  O
  N231     1.0000 0.96744  0.00659  0.79179  Biso   1.000  N
  H368     1.0000 0.16514  0.00578  0.90025  Biso   1.000  H
  H369     1.0000 0.16514  0.00583  0.90025  Biso   1.000  H
  C364     1.0000 0.03594  0.96050  0.83660  Biso   1.000  C
  C365     1.0000 0.24656  0.23111  0.41947  Biso   1.000  C
  N232     1.0000 0.37914  0.09938  0.48489  Biso   1.000  N
  N233     1.0000 0.37914  0.09943  0.48489  Biso   1.000  N
  H370     1.0000 0.42856  0.19679  0.48779  Biso   1.000  H
  H371     1.0000 0.42856  0.19684  0.48779  Biso   1.000  H
  C366     1.0000 0.40003  0.05618  0.54169  Biso   1.000  C
  C367     1.0000 0.40003  0.05623  0.54169  Biso   1.000  C
  C368     1.0000 0.14434  0.89818  0.79267  Biso   1.000  C
  C369     1.0000 0.86366  0.00101  0.78156  Biso   1.000  C
  N234     1.0000 0.05453  0.89910  0.80280  Biso   1.000  N
  H372     1.0000 0.01831  0.95082  0.88078  Biso   1.000  H
  N235     1.0000 0.20294  0.18259  0.36537  Biso   1.000  N
  H373     1.0000 0.29953  0.25520  0.40607  Biso   1.000  H
  H374     1.0000 0.19724  0.26508  0.42279  Biso   1.000  H
  H375     1.0000 0.19724  0.26514  0.42279  Biso   1.000  H
  C370     1.0000 0.38703  0.07722  0.41817  Biso   1.000  C
  O122     1.0000 0.40857  0.99478  0.53987  Biso   1.000  O
  O123     1.0000 0.40857  0.99483  0.53987  Biso   1.000  O
  O124     1.0000 0.17991  0.85149  0.76619  Biso   1.000  O
  N236     1.0000 0.81723  0.95558  0.72647  Biso   1.000  N
  H376     1.0000 0.85102  0.98499  0.82528  Biso   1.000  H
  N237     1.0000 0.81723  0.95563  0.72647  Biso   1.000  N
  H377     1.0000 0.83415  0.04650  0.77138  Biso   1.000  H
  C371     1.0000 0.98932  0.84200  0.78867  Biso   1.000  C
  C372     1.0000 0.25856  0.14223  0.33011  Biso   1.000  C
  C373     1.0000 0.10726  0.18898  0.32897  Biso   1.000  C
  C374     1.0000 0.25856  0.14218  0.33011  Biso   1.000  C
  C375     1.0000 0.10726  0.18903  0.32897  Biso   1.000  C
  N238     1.0000 0.29685  0.08062  0.36396  Biso   1.000  N
  H378     1.0000 0.41074  0.02981  0.42217  Biso   1.000  H
  H379     1.0000 0.43599  0.10562  0.40451  Biso   1.000  H
  C376     1.0000 0.74833  0.97581  0.66998  Biso   1.000  C
  C377     1.0000 0.81835  0.88318  0.73546  Biso   1.000  C
  C378     1.0000 0.81835  0.88323  0.73546  Biso   1.000  C
  N239     1.0000 0.90842  0.85138  0.72938  Biso   1.000  N
  H380     1.0000 0.96492  0.83349  0.82990  Biso   1.000  H
  H381     1.0000 0.02584  0.80129  0.78135  Biso   1.000  H
  H382     1.0000 0.30996  0.16971  0.31739  Biso   1.000  H
  C379     1.0000 0.18157  0.11682  0.26448  Biso   1.000  C
  N240     1.0000 0.09145  0.14862  0.27061  Biso   1.000  N
  O125     1.0000 0.04671  0.22386  0.34429  Biso   1.000  O
  O126     1.0000 0.04671  0.22391  0.34429  Biso   1.000  O
  C380     1.0000 0.25161  0.02419  0.33001  Biso   1.000  C
  N241     1.0000 0.70307  0.91938  0.63598  Biso   1.000  N
  N242     1.0000 0.70307  0.91943  0.63598  Biso   1.000  N
  O127     1.0000 0.72708  0.03478  0.65238  Biso   1.000  O
  O128     1.0000 0.72708  0.03483  0.65238  Biso   1.000  O
  C381     1.0000 0.74138  0.85782  0.66988  Biso   1.000  C
  H383     1.0000 0.80211  0.86969  0.77928  Biso   1.000  H
  C382     1.0000 0.89266  0.81102  0.67097  Biso   1.000  C
  N243     1.0000 0.18271  0.04442  0.27352  Biso   1.000  N
  H384     1.0000 0.19776  0.13031  0.22071  Biso   1.000  H
  C383     1.0000 0.01062  0.15800  0.21132  Biso   1.000  C
  O129     1.0000 0.27285  0.96522  0.34761  Biso   1.000  O
  C384     1.0000 0.61282  0.92278  0.58177  Biso   1.000  C
  C385     1.0000 0.61282  0.92283  0.58177  Biso   1.000  C
  N244     1.0000 0.79698  0.81741  0.63457  Biso   1.000  N
  H385     1.0000 0.68998  0.83029  0.68260  Biso   1.000  H
  O130     1.0000 0.95323  0.77614  0.65571  Biso   1.000  O
  C386     1.0000 0.13626  0.99899  0.21838  Biso   1.000  C
  H386     1.0000 0.03502  0.16651  0.17009  Biso   1.000  H
  N245     1.0000 0.94541  0.10090  0.19719  Biso   1.000  N
  H387     1.0000 0.97408  0.19871  0.21859  Biso   1.000  H
  N246     1.0000 0.62080  0.90062  0.51510  Biso   1.000  N
  H388     1.0000 0.58918  0.97019  0.57777  Biso   1.000  H
  H389     1.0000 0.56395  0.89438  0.59548  Biso   1.000  H
  H390     1.0000 0.56395  0.89443  0.59548  Biso   1.000  H
  C387     1.0000 0.75336  0.76889  0.58047  Biso   1.000  C
  H391     1.0000 0.14892  0.01501  0.17471  Biso   1.000  H
  N247     1.0000 0.03250  0.99341  0.20820  Biso   1.000  N
  H392     1.0000 0.16578  0.95350  0.22861  Biso   1.000  H
  C388     1.0000 0.85560  0.10182  0.20732  Biso   1.000  C
  C389     1.0000 0.96399  0.03950  0.16339  Biso   1.000  C
  C390     1.0000 0.59984  0.94382  0.45830  Biso   1.000  C
  C391     1.0000 0.61949  0.83029  0.49517  Biso   1.000  C
  N248     1.0000 0.71495  0.79972  0.51360  Biso   1.000  N
  H393     1.0000 0.70032  0.74480  0.59387  Biso   1.000  H
  H394     1.0000 0.80263  0.73492  0.57720  Biso   1.000  H
  C392     1.0000 0.99051  0.93211  0.21469  Biso   1.000  C
  O131     1.0000 0.82001  0.14851  0.23375  Biso   1.000  O
  N249     1.0000 0.81011  0.04290  0.18318  Biso   1.000  N
  H395     1.0000 0.98156  0.04918  0.11921  Biso   1.000  H
  C393     1.0000 0.86660  0.00010  0.15041  Biso   1.000  C
  H396     1.0000 0.98156  0.04923  0.11921  Biso   1.000  H
  N250     1.0000 0.59159  0.90559  0.40000  Biso   1.000  N
  O132     1.0000 0.59135  0.00522  0.46007  Biso   1.000  O
  C394     1.0000 0.59389  0.83328  0.41511  Biso   1.000  C
  C395     1.0000 0.59389  0.83333  0.41511  Biso   1.000  C
  H397     1.0000 0.57137  0.80321  0.51220  Biso   1.000  H
  C396     1.0000 0.73614  0.77370  0.45669  Biso   1.000  C
  N251     1.0000 0.89369  0.93652  0.18421  Biso   1.000  N
  O133     1.0000 0.03409  0.88089  0.24309  Biso   1.000  O
  C397     1.0000 0.70750  0.03098  0.17549  Biso   1.000  C
  C398     1.0000 0.70750  0.03103  0.17549  Biso   1.000  C
  H398     1.0000 0.83478  0.99422  0.09969  Biso   1.000  H
  C399     1.0000 0.54270  0.93048  0.33198  Biso   1.000  C
  C400     1.0000 0.54270  0.93053  0.33198  Biso   1.000  C
  N252     1.0000 0.67053  0.79652  0.39927  Biso   1.000  N
  H399     1.0000 0.52967  0.81158  0.39371  Biso   1.000  H
  H400     1.0000 0.52967  0.81163  0.39371  Biso   1.000  H
  O134     1.0000 0.80544  0.73522  0.45747  Biso   1.000  O
  C401     1.0000 0.83391  0.87582  0.16911  Biso   1.000  C
  N253     1.0000 0.68981  0.97749  0.22030  Biso   1.000  N
  H401     1.0000 0.67748  0.07352  0.18619  Biso   1.000  H
  H402     1.0000 0.67580  0.01891  0.12658  Biso   1.000  H
  N254     1.0000 0.60379  0.93282  0.28577  Biso   1.000  N
  H403     1.0000 0.51781  0.97663  0.33639  Biso   1.000  H
  H404     1.0000 0.48639  0.90092  0.31158  Biso   1.000  H
  C402     1.0000 0.66957  0.77472  0.33001  Biso   1.000  C
  H405     1.0000 0.79811  0.87628  0.11931  Biso   1.000  H
  H406     1.0000 0.87692  0.83562  0.17710  Biso   1.000  H
  N255     1.0000 0.76547  0.86862  0.20929  Biso   1.000  N
  H407     1.0000 0.79811  0.87633  0.11931  Biso   1.000  H
  C403     1.0000 0.64006  0.99148  0.26750  Biso   1.000  C
  C404     1.0000 0.67720  0.90731  0.19719  Biso   1.000  C
  C405     1.0000 0.64006  0.99153  0.26750  Biso   1.000  C
  C406     1.0000 0.62407  0.87608  0.24828  Biso   1.000  C
  C407     1.0000 0.62407  0.87613  0.24828  Biso   1.000  C
  N256     1.0000 0.69479  0.82781  0.28780  Biso   1.000  N
  H408     1.0000 0.71585  0.73669  0.33349  Biso   1.000  H
  H409     1.0000 0.60416  0.75738  0.30638  Biso   1.000  H
  H410     1.0000 0.60416  0.75743  0.30638  Biso   1.000  H
  C408     1.0000 0.77340  0.82061  0.26059  Biso   1.000  C
  O135     1.0000 0.63076  0.04822  0.29102  Biso   1.000  O
  H411     1.0000 0.63736  0.90371  0.14782  Biso   1.000  H
  H412     1.0000 0.56306  0.85260  0.22258  Biso   1.000  H
  O136     1.0000 0.83608  0.77751  0.27731  Biso   1.000  O
  O137     1.0000 0.16386  0.22249  0.72268  Biso   1.000  O
  C409     1.0000 0.22654  0.17939  0.73940  Biso   1.000  C
  N257     1.0000 0.30515  0.17219  0.71220  Biso   1.000  N
  N258     1.0000 0.23447  0.13138  0.79070  Biso   1.000  N
  N259     1.0000 0.23447  0.13143  0.79070  Biso   1.000  N
  C410     1.0000 0.33037  0.22528  0.66998  Biso   1.000  C
  C411     1.0000 0.33037  0.22533  0.66998  Biso   1.000  C
  C412     1.0000 0.37585  0.12392  0.75165  Biso   1.000  C
  C413     1.0000 0.32274  0.09269  0.80280  Biso   1.000  C
  C414     1.0000 0.16603  0.12418  0.83089  Biso   1.000  C
  C415     1.0000 0.16603  0.12423  0.83089  Biso   1.000  C
  N260     1.0000 0.32932  0.20348  0.60067  Biso   1.000  N
  N261     1.0000 0.32932  0.20353  0.60067  Biso   1.000  N
  H413     1.0000 0.28409  0.26331  0.66650  Biso   1.000  H
  H414     1.0000 0.39576  0.24262  0.69356  Biso   1.000  H
  N262     1.0000 0.39613  0.06718  0.71417  Biso   1.000  N
  N263     1.0000 0.39613  0.06723  0.71417  Biso   1.000  N
  H415     1.0000 0.43686  0.14740  0.77736  Biso   1.000  H
  N264     1.0000 0.31012  0.02251  0.77969  Biso   1.000  N
  H416     1.0000 0.36250  0.09629  0.85217  Biso   1.000  H
  H417     1.0000 0.20183  0.12372  0.88068  Biso   1.000  H
  N265     1.0000 0.10625  0.06348  0.81578  Biso   1.000  N
  H418     1.0000 0.12302  0.16438  0.82289  Biso   1.000  H
  N266     1.0000 0.10625  0.06353  0.81578  Biso   1.000  N
  H419     1.0000 0.12302  0.16444  0.82289  Biso   1.000  H
  C416     1.0000 0.26373  0.22630  0.54330  Biso   1.000  C
  C417     1.0000 0.40605  0.16672  0.58489  Biso   1.000  C
  C418     1.0000 0.45722  0.06952  0.66796  Biso   1.000  C
  C419     1.0000 0.35988  0.00852  0.73250  Biso   1.000  C
  C420     1.0000 0.29244  0.96902  0.82450  Biso   1.000  C
  C421     1.0000 0.00943  0.06789  0.78530  Biso   1.000  C
  C422     1.0000 0.13334  0.99990  0.84958  Biso   1.000  C
  N267     1.0000 0.28499  0.20028  0.48639  Biso   1.000  N
  N268     1.0000 0.28499  0.20033  0.48639  Biso   1.000  N
  O138     1.0000 0.19448  0.26478  0.54247  Biso   1.000  O
  O139     1.0000 0.19448  0.26483  0.54247  Biso   1.000  O
  C423     1.0000 0.38043  0.16971  0.50477  Biso   1.000  C
  N269     1.0000 0.40835  0.09441  0.59999  Biso   1.000  N
  H420     1.0000 0.47027  0.18842  0.60628  Biso   1.000  H
  H421     1.0000 0.48213  0.02337  0.66360  Biso   1.000  H
  H422     1.0000 0.51353  0.09908  0.68836  Biso   1.000  H
  H423     1.0000 0.48213  0.02343  0.66360  Biso   1.000  H
  H424     1.0000 0.51353  0.09913  0.68836  Biso   1.000  H
  O140     1.0000 0.36911  0.95178  0.70898  Biso   1.000  O
  N270     1.0000 0.18981  0.95710  0.81676  Biso   1.000  N
  H425     1.0000 0.32244  0.92648  0.81375  Biso   1.000  H
  H426     1.0000 0.32412  0.98109  0.87336  Biso   1.000  H
  H427     1.0000 0.32244  0.92653  0.81375  Biso   1.000  H
  O141     1.0000 0.96585  0.11911  0.75690  Biso   1.000  O
  N271     1.0000 0.96744  0.00659  0.79179  Biso   1.000  N
  C424     1.0000 0.03594  0.96050  0.83660  Biso   1.000  C
  H428     1.0000 0.16514  0.00578  0.90025  Biso   1.000  H
  H429     1.0000 0.16514  0.00583  0.90025  Biso   1.000  H
  C425     1.0000 0.24656  0.23111  0.41947  Biso   1.000  C
  N272     1.0000 0.37914  0.09938  0.48489  Biso   1.000  N
  N273     1.0000 0.37914  0.09943  0.48489  Biso   1.000  N
  H430     1.0000 0.42856  0.19679  0.48779  Biso   1.000  H
  H431     1.0000 0.42856  0.19684  0.48779  Biso   1.000  H
  C426     1.0000 0.40003  0.05618  0.54169  Biso   1.000  C
  C427     1.0000 0.40003  0.05623  0.54169  Biso   1.000  C
  C428     1.0000 0.14434  0.89818  0.79267  Biso   1.000  C
  C429     1.0000 0.86366  0.00101  0.78156  Biso   1.000  C
  N274     1.0000 0.05453  0.89910  0.80280  Biso   1.000  N
  H432     1.0000 0.01831  0.95082  0.88078  Biso   1.000  H
  N275     1.0000 0.20294  0.18259  0.36537  Biso   1.000  N
  H433     1.0000 0.29953  0.25520  0.40607  Biso   1.000  H
  H434     1.0000 0.19724  0.26508  0.42279  Biso   1.000  H
  H435     1.0000 0.19724  0.26514  0.42279  Biso   1.000  H
  C430     1.0000 0.38703  0.07722  0.41817  Biso   1.000  C
  O142     1.0000 0.40857  0.99478  0.53987  Biso   1.000  O
  O143     1.0000 0.40857  0.99483  0.53987  Biso   1.000  O
  O144     1.0000 0.17991  0.85149  0.76619  Biso   1.000  O
  N276     1.0000 0.81723  0.95558  0.72647  Biso   1.000  N
  H436     1.0000 0.85102  0.98499  0.82528  Biso   1.000  H
  N277     1.0000 0.81723  0.95563  0.72647  Biso   1.000  N
  H437     1.0000 0.83415  0.04650  0.77138  Biso   1.000  H
  C431     1.0000 0.98932  0.84200  0.78867  Biso   1.000  C
  C432     1.0000 0.25856  0.14218  0.33011  Biso   1.000  C
  C433     1.0000 0.25856  0.14223  0.33011  Biso   1.000  C
  C434     1.0000 0.10726  0.18898  0.32897  Biso   1.000  C
  C435     1.0000 0.10726  0.18903  0.32897  Biso   1.000  C
  N278     1.0000 0.29685  0.08062  0.36396  Biso   1.000  N
  H438     1.0000 0.41074  0.02981  0.42217  Biso   1.000  H
  H439     1.0000 0.43599  0.10562  0.40451  Biso   1.000  H
  C436     1.0000 0.74833  0.97581  0.66998  Biso   1.000  C
  C437     1.0000 0.81835  0.88318  0.73546  Biso   1.000  C
  C438     1.0000 0.81835  0.88323  0.73546  Biso   1.000  C
  N279     1.0000 0.90842  0.85138  0.72938  Biso   1.000  N
  H440     1.0000 0.96492  0.83349  0.82990  Biso   1.000  H
  H441     1.0000 0.02584  0.80129  0.78135  Biso   1.000  H
  C439     1.0000 0.18157  0.11682  0.26448  Biso   1.000  C
  H442     1.0000 0.30996  0.16971  0.31739  Biso   1.000  H
  N280     1.0000 0.09145  0.14862  0.27061  Biso   1.000  N
  O145     1.0000 0.04671  0.22386  0.34429  Biso   1.000  O
  O146     1.0000 0.04671  0.22391  0.34429  Biso   1.000  O
  C440     1.0000 0.25161  0.02419  0.33001  Biso   1.000  C
  N281     1.0000 0.70307  0.91938  0.63598  Biso   1.000  N
  N282     1.0000 0.70307  0.91943  0.63598  Biso   1.000  N
  O147     1.0000 0.72708  0.03478  0.65238  Biso   1.000  O
  O148     1.0000 0.72708  0.03483  0.65238  Biso   1.000  O
  C441     1.0000 0.74138  0.85782  0.66988  Biso   1.000  C
  H443     1.0000 0.80211  0.86969  0.77928  Biso   1.000  H
  C442     1.0000 0.89266  0.81102  0.67097  Biso   1.000  C
  N283     1.0000 0.18271  0.04442  0.27352  Biso   1.000  N
  H444     1.0000 0.19776  0.13031  0.22071  Biso   1.000  H
  C443     1.0000 0.01062  0.15800  0.21132  Biso   1.000  C
  O149     1.0000 0.27285  0.96522  0.34761  Biso   1.000  O
  C444     1.0000 0.61282  0.92278  0.58177  Biso   1.000  C
  C445     1.0000 0.61282  0.92283  0.58177  Biso   1.000  C
  N284     1.0000 0.79698  0.81741  0.63457  Biso   1.000  N
  H445     1.0000 0.68998  0.83029  0.68260  Biso   1.000  H
  O150     1.0000 0.95323  0.77614  0.65571  Biso   1.000  O
  C446     1.0000 0.13626  0.99899  0.21838  Biso   1.000  C
  H446     1.0000 0.03502  0.16651  0.17009  Biso   1.000  H
  N285     1.0000 0.94541  0.10090  0.19719  Biso   1.000  N
  H447     1.0000 0.97408  0.19871  0.21859  Biso   1.000  H
  N286     1.0000 0.62080  0.90062  0.51510  Biso   1.000  N
  H448     1.0000 0.58918  0.97019  0.57777  Biso   1.000  H
  H449     1.0000 0.56395  0.89438  0.59548  Biso   1.000  H
  H450     1.0000 0.56395  0.89443  0.59548  Biso   1.000  H
  C447     1.0000 0.75336  0.76889  0.58047  Biso   1.000  C
  H451     1.0000 0.14892  0.01501  0.17471  Biso   1.000  H
  N287     1.0000 0.03250  0.99341  0.20820  Biso   1.000  N
  H452     1.0000 0.16578  0.95350  0.22861  Biso   1.000  H
  C448     1.0000 0.85560  0.10182  0.20732  Biso   1.000  C
  C449     1.0000 0.96399  0.03950  0.16339  Biso   1.000  C
  C450     1.0000 0.59984  0.94382  0.45830  Biso   1.000  C
  C451     1.0000 0.61949  0.83029  0.49517  Biso   1.000  C
  N288     1.0000 0.71495  0.79972  0.51360  Biso   1.000  N
  H453     1.0000 0.70032  0.74480  0.59387  Biso   1.000  H
  H454     1.0000 0.80263  0.73492  0.57720  Biso   1.000  H
  C452     1.0000 0.99051  0.93211  0.21469  Biso   1.000  C
  O151     1.0000 0.82001  0.14851  0.23375  Biso   1.000  O
  N289     1.0000 0.81011  0.04290  0.18318  Biso   1.000  N
  H455     1.0000 0.98156  0.04918  0.11921  Biso   1.000  H
  C453     1.0000 0.86660  0.00010  0.15041  Biso   1.000  C
  H456     1.0000 0.98156  0.04923  0.11921  Biso   1.000  H
  N290     1.0000 0.59159  0.90559  0.40000  Biso   1.000  N
  O152     1.0000 0.59135  0.00522  0.46007  Biso   1.000  O
  C454     1.0000 0.59389  0.83328  0.41511  Biso   1.000  C
  C455     1.0000 0.59389  0.83333  0.41511  Biso   1.000  C
  H457     1.0000 0.57137  0.80321  0.51220  Biso   1.000  H
  C456     1.0000 0.73614  0.77370  0.45669  Biso   1.000  C
  N291     1.0000 0.89369  0.93652  0.18421  Biso   1.000  N
  O153     1.0000 0.03409  0.88089  0.24309  Biso   1.000  O
  C457     1.0000 0.70750  0.03098  0.17549  Biso   1.000  C
  C458     1.0000 0.70750  0.03103  0.17549  Biso   1.000  C
  H458     1.0000 0.83478  0.99422  0.09969  Biso   1.000  H
  C459     1.0000 0.54270  0.93048  0.33198  Biso   1.000  C
  C460     1.0000 0.54270  0.93053  0.33198  Biso   1.000  C
  N292     1.0000 0.67053  0.79652  0.39927  Biso   1.000  N
  H459     1.0000 0.52967  0.81158  0.39371  Biso   1.000  H
  H460     1.0000 0.52967  0.81163  0.39371  Biso   1.000  H
  O154     1.0000 0.80544  0.73522  0.45747  Biso   1.000  O
  C461     1.0000 0.83391  0.87582  0.16911  Biso   1.000  C
  N293     1.0000 0.68981  0.97749  0.22030  Biso   1.000  N
  H461     1.0000 0.67748  0.07352  0.18619  Biso   1.000  H
  H462     1.0000 0.67580  0.01891  0.12658  Biso   1.000  H
  N294     1.0000 0.60379  0.93282  0.28577  Biso   1.000  N
  H463     1.0000 0.51781  0.97663  0.33639  Biso   1.000  H
  H464     1.0000 0.48639  0.90092  0.31158  Biso   1.000  H
  C462     1.0000 0.66957  0.77472  0.33001  Biso   1.000  C
  H465     1.0000 0.79811  0.87628  0.11931  Biso   1.000  H
  H466     1.0000 0.87692  0.83562  0.17710  Biso   1.000  H
  N295     1.0000 0.76547  0.86862  0.20929  Biso   1.000  N
  H467     1.0000 0.79811  0.87633  0.11931  Biso   1.000  H
  C463     1.0000 0.64006  0.99148  0.26750  Biso   1.000  C
  C464     1.0000 0.67720  0.90731  0.19719  Biso   1.000  C
  C465     1.0000 0.64006  0.99153  0.26750  Biso   1.000  C
  C466     1.0000 0.62407  0.87608  0.24828  Biso   1.000  C
  C467     1.0000 0.62407  0.87613  0.24828  Biso   1.000  C
  N296     1.0000 0.69479  0.82781  0.28780  Biso   1.000  N
  H468     1.0000 0.71585  0.73669  0.33349  Biso   1.000  H
  H469     1.0000 0.60416  0.75738  0.30638  Biso   1.000  H
  H470     1.0000 0.60416  0.75743  0.30638  Biso   1.000  H
  C468     1.0000 0.77340  0.82061  0.26059  Biso   1.000  C
  O155     1.0000 0.63076  0.04822  0.29102  Biso   1.000  O
  H471     1.0000 0.63736  0.90371  0.14782  Biso   1.000  H
  H472     1.0000 0.56306  0.85260  0.22258  Biso   1.000  H
  O156     1.0000 0.83608  0.77751  0.27731  Biso   1.000  O
  O157     1.0000 0.16386  0.22249  0.72268  Biso   1.000  O
  C469     1.0000 0.22654  0.17939  0.73940  Biso   1.000  C
  N297     1.0000 0.30515  0.17219  0.71220  Biso   1.000  N
  N298     1.0000 0.23447  0.13138  0.79070  Biso   1.000  N
  N299     1.0000 0.23447  0.13143  0.79070  Biso   1.000  N
  C470     1.0000 0.33037  0.22528  0.66998  Biso   1.000  C
  C471     1.0000 0.33037  0.22533  0.66998  Biso   1.000  C
  C472     1.0000 0.37585  0.12392  0.75165  Biso   1.000  C
  C473     1.0000 0.32274  0.09269  0.80280  Biso   1.000  C
  C474     1.0000 0.16603  0.12418  0.83089  Biso   1.000  C
  C475     1.0000 0.16603  0.12423  0.83089  Biso   1.000  C
  N300     1.0000 0.32932  0.20348  0.60067  Biso   1.000  N
  N301     1.0000 0.32932  0.20353  0.60067  Biso   1.000  N
  H473     1.0000 0.28409  0.26331  0.66650  Biso   1.000  H
  H474     1.0000 0.39576  0.24262  0.69356  Biso   1.000  H
  N302     1.0000 0.39613  0.06718  0.71417  Biso   1.000  N
  N303     1.0000 0.39613  0.06723  0.71417  Biso   1.000  N
  H475     1.0000 0.43686  0.14740  0.77736  Biso   1.000  H
  N304     1.0000 0.31012  0.02251  0.77969  Biso   1.000  N
  H476     1.0000 0.36250  0.09629  0.85217  Biso   1.000  H
  H477     1.0000 0.20183  0.12372  0.88068  Biso   1.000  H
  N305     1.0000 0.10625  0.06348  0.81578  Biso   1.000  N
  H478     1.0000 0.12302  0.16438  0.82289  Biso   1.000  H
  N306     1.0000 0.10625  0.06353  0.81578  Biso   1.000  N
  H479     1.0000 0.12302  0.16444  0.82289  Biso   1.000  H
  C476     1.0000 0.26373  0.22630  0.54330  Biso   1.000  C
  C477     1.0000 0.40605  0.16672  0.58489  Biso   1.000  C
  C478     1.0000 0.45722  0.06952  0.66796  Biso   1.000  C
  C479     1.0000 0.35988  0.00852  0.73250  Biso   1.000  C
  C480     1.0000 0.29244  0.96902  0.82450  Biso   1.000  C
  C481     1.0000 0.00943  0.06789  0.78530  Biso   1.000  C
  C482     1.0000 0.13334  0.99990  0.84958  Biso   1.000  C
  N307     1.0000 0.28499  0.20028  0.48639  Biso   1.000  N
  N308     1.0000 0.28499  0.20033  0.48639  Biso   1.000  N
  O158     1.0000 0.19448  0.26478  0.54247  Biso   1.000  O
  O159     1.0000 0.19448  0.26483  0.54247  Biso   1.000  O
  C483     1.0000 0.38043  0.16971  0.50477  Biso   1.000  C
  N309     1.0000 0.40835  0.09441  0.59999  Biso   1.000  N
  H480     1.0000 0.47027  0.18842  0.60628  Biso   1.000  H
  H481     1.0000 0.48213  0.02337  0.66360  Biso   1.000  H
  H482     1.0000 0.51353  0.09908  0.68836  Biso   1.000  H
  H483     1.0000 0.48213  0.02343  0.66360  Biso   1.000  H
  H484     1.0000 0.51353  0.09913  0.68836  Biso   1.000  H
  O160     1.0000 0.36911  0.95178  0.70898  Biso   1.000  O
  N310     1.0000 0.18981  0.95710  0.81676  Biso   1.000  N
  H485     1.0000 0.32244  0.92648  0.81375  Biso   1.000  H
  H486     1.0000 0.32412  0.98109  0.87336  Biso   1.000  H
  H487     1.0000 0.32244  0.92653  0.81375  Biso   1.000  H
  O161     1.0000 0.96585  0.11911  0.75690  Biso   1.000  O
  N311     1.0000 0.96744  0.00659  0.79179  Biso   1.000  N
  C484     1.0000 0.03594  0.96050  0.83660  Biso   1.000  C
  H488     1.0000 0.16514  0.00578  0.90025  Biso   1.000  H
  H489     1.0000 0.16514  0.00583  0.90025  Biso   1.000  H
  C485     1.0000 0.24656  0.23111  0.41947  Biso   1.000  C
  N312     1.0000 0.37914  0.09938  0.48489  Biso   1.000  N
  N313     1.0000 0.37914  0.09943  0.48489  Biso   1.000  N
  H490     1.0000 0.42856  0.19679  0.48779  Biso   1.000  H
  H491     1.0000 0.42856  0.19684  0.48779  Biso   1.000  H
  C486     1.0000 0.40003  0.05618  0.54169  Biso   1.000  C
  C487     1.0000 0.40003  0.05623  0.54169  Biso   1.000  C
  C488     1.0000 0.14434  0.89818  0.79267  Biso   1.000  C
  C489     1.0000 0.86366  0.00101  0.78156  Biso   1.000  C
  N314     1.0000 0.05453  0.89910  0.80280  Biso   1.000  N
  H492     1.0000 0.01831  0.95082  0.88078  Biso   1.000  H
  N315     1.0000 0.20294  0.18259  0.36537  Biso   1.000  N
  H493     1.0000 0.29953  0.25520  0.40607  Biso   1.000  H
  H494     1.0000 0.19724  0.26508  0.42279  Biso   1.000  H
  H495     1.0000 0.19724  0.26514  0.42279  Biso   1.000  H
  C490     1.0000 0.38703  0.07722  0.41817  Biso   1.000  C
  O162     1.0000 0.40857  0.99478  0.53987  Biso   1.000  O
  O163     1.0000 0.40857  0.99483  0.53987  Biso   1.000  O
  O164     1.0000 0.17991  0.85149  0.76619  Biso   1.000  O
  N316     1.0000 0.81723  0.95558  0.72647  Biso   1.000  N
  H496     1.0000 0.85102  0.98499  0.82528  Biso   1.000  H
  N317     1.0000 0.81723  0.95563  0.72647  Biso   1.000  N
  H497     1.0000 0.83415  0.04650  0.77138  Biso   1.000  H
  C491     1.0000 0.98932  0.84200  0.78867  Biso   1.000  C
  C492     1.0000 0.25856  0.14218  0.33011  Biso   1.000  C
  C493     1.0000 0.25856  0.14223  0.33011  Biso   1.000  C
  C494     1.0000 0.10726  0.18898  0.32897  Biso   1.000  C
  C495     1.0000 0.10726  0.18903  0.32897  Biso   1.000  C
  N318     1.0000 0.29685  0.08062  0.36396  Biso   1.000  N
  H498     1.0000 0.41074  0.02981  0.42217  Biso   1.000  H
  H499     1.0000 0.43599  0.10562  0.40451  Biso   1.000  H
  C496     1.0000 0.74833  0.97581  0.66998  Biso   1.000  C
  C497     1.0000 0.81835  0.88318  0.73546  Biso   1.000  C
  C498     1.0000 0.81835  0.88323  0.73546  Biso   1.000  C
  N319     1.0000 0.90842  0.85138  0.72938  Biso   1.000  N
  H500     1.0000 0.96492  0.83349  0.82990  Biso   1.000  H
  H501     1.0000 0.02584  0.80129  0.78135  Biso   1.000  H
  C499     1.0000 0.18157  0.11682  0.26448  Biso   1.000  C
  H502     1.0000 0.30996  0.16971  0.31739  Biso   1.000  H
  N320     1.0000 0.09145  0.14862  0.27061  Biso   1.000  N
  O165     1.0000 0.04671  0.22386  0.34429  Biso   1.000  O
  O166     1.0000 0.04671  0.22391  0.34429  Biso   1.000  O
  C500     1.0000 0.25161  0.02419  0.33001  Biso   1.000  C
  N321     1.0000 0.70307  0.91938  0.63598  Biso   1.000  N
  N322     1.0000 0.70307  0.91943  0.63598  Biso   1.000  N
  O167     1.0000 0.72708  0.03478  0.65238  Biso   1.000  O
  O168     1.0000 0.72708  0.03483  0.65238  Biso   1.000  O
  C501     1.0000 0.74138  0.85782  0.66988  Biso   1.000  C
  H503     1.0000 0.80211  0.86969  0.77928  Biso   1.000  H
  C502     1.0000 0.89266  0.81102  0.67097  Biso   1.000  C
  N323     1.0000 0.18271  0.04442  0.27352  Biso   1.000  N
  H504     1.0000 0.19776  0.13031  0.22071  Biso   1.000  H
  C503     1.0000 0.01062  0.15800  0.21132  Biso   1.000  C
  O169     1.0000 0.27285  0.96522  0.34761  Biso   1.000  O
  C504     1.0000 0.61282  0.92278  0.58177  Biso   1.000  C
  C505     1.0000 0.61282  0.92283  0.58177  Biso   1.000  C
  N324     1.0000 0.79698  0.81741  0.63457  Biso   1.000  N
  H505     1.0000 0.68998  0.83029  0.68260  Biso   1.000  H
  O170     1.0000 0.95323  0.77614  0.65571  Biso   1.000  O
  C506     1.0000 0.13626  0.99899  0.21838  Biso   1.000  C
  H506     1.0000 0.03502  0.16651  0.17009  Biso   1.000  H
  N325     1.0000 0.94541  0.10090  0.19719  Biso   1.000  N
  H507     1.0000 0.97408  0.19871  0.21859  Biso   1.000  H
  N326     1.0000 0.62080  0.90062  0.51510  Biso   1.000  N
  H508     1.0000 0.58918  0.97019  0.57777  Biso   1.000  H
  H509     1.0000 0.56395  0.89438  0.59548  Biso   1.000  H
  H510     1.0000 0.56395  0.89443  0.59548  Biso   1.000  H
  C507     1.0000 0.75336  0.76889  0.58047  Biso   1.000  C
  H511     1.0000 0.14892  0.01501  0.17471  Biso   1.000  H
  N327     1.0000 0.03250  0.99341  0.20820  Biso   1.000  N
  H512     1.0000 0.16578  0.95350  0.22861  Biso   1.000  H
  C508     1.0000 0.85560  0.10182  0.20732  Biso   1.000  C
  C509     1.0000 0.96399  0.03950  0.16339  Biso   1.000  C
  C510     1.0000 0.59984  0.94382  0.45830  Biso   1.000  C
  C511     1.0000 0.61949  0.83029  0.49517  Biso   1.000  C
  N328     1.0000 0.71495  0.79972  0.51360  Biso   1.000  N
  H513     1.0000 0.70032  0.74480  0.59387  Biso   1.000  H
  H514     1.0000 0.80263  0.73492  0.57720  Biso   1.000  H
  C512     1.0000 0.99051  0.93211  0.21469  Biso   1.000  C
  O171     1.0000 0.82001  0.14851  0.23375  Biso   1.000  O
  N329     1.0000 0.81011  0.04290  0.18318  Biso   1.000  N
  H515     1.0000 0.98156  0.04918  0.11921  Biso   1.000  H
  C513     1.0000 0.86660  0.00010  0.15041  Biso   1.000  C
  H516     1.0000 0.98156  0.04923  0.11921  Biso   1.000  H
  N330     1.0000 0.59159  0.90559  0.40000  Biso   1.000  N
  O172     1.0000 0.59135  0.00522  0.46007  Biso   1.000  O
  C514     1.0000 0.59389  0.83328  0.41511  Biso   1.000  C
  C515     1.0000 0.59389  0.83333  0.41511  Biso   1.000  C
  H517     1.0000 0.57137  0.80321  0.51220  Biso   1.000  H
  C516     1.0000 0.73614  0.77370  0.45669  Biso   1.000  C
  N331     1.0000 0.89369  0.93652  0.18421  Biso   1.000  N
  O173     1.0000 0.03409  0.88089  0.24309  Biso   1.000  O
  C517     1.0000 0.70750  0.03098  0.17549  Biso   1.000  C
  C518     1.0000 0.70750  0.03103  0.17549  Biso   1.000  C
  H518     1.0000 0.83478  0.99422  0.09969  Biso   1.000  H
  C519     1.0000 0.54270  0.93048  0.33198  Biso   1.000  C
  C520     1.0000 0.54270  0.93053  0.33198  Biso   1.000  C
  N332     1.0000 0.67053  0.79652  0.39927  Biso   1.000  N
  H519     1.0000 0.52967  0.81158  0.39371  Biso   1.000  H
  H520     1.0000 0.52967  0.81163  0.39371  Biso   1.000  H
  O174     1.0000 0.80544  0.73522  0.45747  Biso   1.000  O
  C521     1.0000 0.83391  0.87582  0.16911  Biso   1.000  C
  N333     1.0000 0.68981  0.97749  0.22030  Biso   1.000  N
  H521     1.0000 0.67748  0.07352  0.18619  Biso   1.000  H
  H522     1.0000 0.67580  0.01891  0.12658  Biso   1.000  H
  N334     1.0000 0.60379  0.93282  0.28577  Biso   1.000  N
  H523     1.0000 0.51781  0.97663  0.33639  Biso   1.000  H
  H524     1.0000 0.48639  0.90092  0.31158  Biso   1.000  H
  C522     1.0000 0.66957  0.77472  0.33001  Biso   1.000  C
  H525     1.0000 0.79811  0.87628  0.11931  Biso   1.000  H
  H526     1.0000 0.87692  0.83562  0.17710  Biso   1.000  H
  N335     1.0000 0.76547  0.86862  0.20929  Biso   1.000  N
  H527     1.0000 0.79811  0.87633  0.11931  Biso   1.000  H
  C523     1.0000 0.64006  0.99148  0.26750  Biso   1.000  C
  C524     1.0000 0.67720  0.90731  0.19719  Biso   1.000  C
  C525     1.0000 0.64006  0.99153  0.26750  Biso   1.000  C
  C526     1.0000 0.62407  0.87608  0.24828  Biso   1.000  C
  C527     1.0000 0.62407  0.87613  0.24828  Biso   1.000  C
  N336     1.0000 0.69479  0.82781  0.28780  Biso   1.000  N
  H528     1.0000 0.71585  0.73669  0.33349  Biso   1.000  H
  H529     1.0000 0.60416  0.75738  0.30638  Biso   1.000  H
  H530     1.0000 0.60416  0.75743  0.30638  Biso   1.000  H
  C528     1.0000 0.77340  0.82061  0.26059  Biso   1.000  C
  O175     1.0000 0.63076  0.04822  0.29102  Biso   1.000  O
  H531     1.0000 0.63736  0.90371  0.14782  Biso   1.000  H
  H532     1.0000 0.56306  0.85260  0.22258  Biso   1.000  H
  O176     1.0000 0.83608  0.77751  0.27731  Biso   1.000  O
