data_image0
_cell_length_a       21.216
_cell_length_b       21.216
_cell_length_c       21.163
_cell_angle_alpha    90
_cell_angle_beta     90
_cell_angle_gamma    120

_symmetry_space_group_name_H-M    "P 1"
_symmetry_int_tables_number       1

loop_
  _symmetry_equiv_pos_as_xyz
  'x, y, z'

loop_
  _atom_site_label
  _atom_site_occupancy
  _atom_site_fract_x
  _atom_site_fract_y
  _atom_site_fract_z
  _atom_site_thermal_displace_type
  _atom_site_B_iso_or_equiv
  _atom_site_type_symbol
  N1       1.0000 0.37846  0.43584  0.44072  Biso   1.000  N
  C1       1.0000 0.38148  0.41445  0.37603  Biso   1.000  C
  C2       1.0000 0.31788  0.42235  0.46184  Biso   1.000  C
  C3       1.0000 0.41847  0.48042  0.33374  Biso   1.000  C
  H1       1.0000 0.33136  0.38153  0.36053  Biso   1.000  H
  H2       1.0000 0.40845  0.38751  0.37471  Biso   1.000  H
  H3       1.0000 0.27655  0.39774  0.43515  Biso   1.000  H
  C4       1.0000 0.30748  0.44265  0.52601  Biso   1.000  C
  N2       1.0000 0.37597  0.51824  0.33233  Biso   1.000  N
  H4       1.0000 0.46818  0.51394  0.34971  Biso   1.000  H
  H5       1.0000 0.42276  0.46534  0.29041  Biso   1.000  H
  C5       1.0000 0.36439  0.47764  0.56835  Biso   1.000  C
  C6       1.0000 0.23758  0.42746  0.54435  Biso   1.000  C
  C7       1.0000 0.40765  0.58453  0.34031  Biso   1.000  C
  H6       1.0000 0.41189  0.48836  0.55663  Biso   1.000  H
  C8       1.0000 0.35237  0.49745  0.62855  Biso   1.000  C
  C9       1.0000 0.22517  0.44591  0.60303  Biso   1.000  C
  H7       1.0000 0.19830  0.40395  0.51543  Biso   1.000  H
  C10      1.0000 0.36907  0.62671  0.34045  Biso   1.000  C
  H8       1.0000 0.45885  0.60973  0.34674  Biso   1.000  H
  C11      1.0000 0.28238  0.48123  0.64561  Biso   1.000  C
  C12      1.0000 0.41260  0.53626  0.67363  Biso   1.000  C
  C13      1.0000 0.15037  0.42735  0.62104  Biso   1.000  C
  C14      1.0000 0.29298  0.59134  0.34055  Biso   1.000  C
  C15      1.0000 0.40866  0.70166  0.34055  Biso   1.000  C
  H9       1.0000 0.27366  0.49435  0.68624  Biso   1.000  H
  N3       1.0000 0.47348  0.53963  0.66753  Biso   1.000  N
  H10      1.0000 0.40538  0.55972  0.70883  Biso   1.000  H
  N4       1.0000 0.13069  0.42795  0.67703  Biso   1.000  N
  H11      1.0000 0.11525  0.41424  0.58843  Biso   1.000  H
  H12      1.0000 0.26547  0.53952  0.34074  Biso   1.000  H
  C16      1.0000 0.25769  0.63096  0.34045  Biso   1.000  C
  H13      1.0000 0.46049  0.72593  0.34074  Biso   1.000  H
  C17      1.0000 0.37328  0.74232  0.34045  Biso   1.000  C
  C18      1.0000 0.52799  0.57926  0.71634  Biso   1.000  C
  C19      1.0000 0.05455  0.40803  0.68804  Biso   1.000  C
  C20      1.0000 0.29838  0.70705  0.34055  Biso   1.000  C
  C21      1.0000 0.17686  0.59232  0.34031  Biso   1.000  C
  C22      1.0000 0.41548  0.82314  0.34031  Biso   1.000  C
  H14      1.0000 0.54499  0.54736  0.73463  Biso   1.000  H
  H15      1.0000 0.50594  0.59351  0.75074  Biso   1.000  H
  C23      1.0000 0.59198  0.64653  0.68804  Biso   1.000  C
  C24      1.0000 0.05125  0.47204  0.71634  Biso   1.000  C
  H16      1.0000 0.03147  0.36601  0.71724  Biso   1.000  H
  H17      1.0000 0.02746  0.39372  0.64764  Biso   1.000  H
  H18      1.0000 0.27408  0.73453  0.34074  Biso   1.000  H
  N5       1.0000 0.14229  0.62405  0.33233  Biso   1.000  N
  H19      1.0000 0.15086  0.54116  0.34674  Biso   1.000  H
  N6       1.0000 0.48176  0.85775  0.33233  Biso   1.000  N
  H20      1.0000 0.39026  0.84915  0.34674  Biso   1.000  H
  N7       1.0000 0.57206  0.70275  0.67703  Biso   1.000  N
  H21      1.0000 0.63397  0.66547  0.71724  Biso   1.000  H
  H22      1.0000 0.60627  0.63374  0.64764  Biso   1.000  H
  N8       1.0000 0.06614  0.52652  0.66753  Biso   1.000  N
  H23      1.0000 0.00237  0.45506  0.73463  Biso   1.000  H
  H24      1.0000 0.08756  0.49402  0.75074  Biso   1.000  H
  C25      1.0000 0.06198  0.58154  0.33374  Biso   1.000  C
  C26      1.0000 0.51954  0.93803  0.33374  Biso   1.000  C
  C27      1.0000 0.57269  0.72305  0.62104  Biso   1.000  C
  C28      1.0000 0.12365  0.58742  0.67363  Biso   1.000  C
  H25      1.0000 0.04576  0.53185  0.34971  Biso   1.000  H
  H26      1.0000 0.04258  0.57724  0.29041  Biso   1.000  H
  C29      1.0000 0.03297  0.61855  0.37603  Biso   1.000  C
  H27      1.0000 0.48608  0.95425  0.34971  Biso   1.000  H
  H28      1.0000 0.53468  0.95746  0.29041  Biso   1.000  H
  C30      1.0000 0.58557  0.96704  0.37603  Biso   1.000  C
  C31      1.0000 0.55406  0.77922  0.60303  Biso   1.000  C
  H29      1.0000 0.58578  0.70106  0.58843  Biso   1.000  H
  C32      1.0000 0.14507  0.64761  0.62855  Biso   1.000  C
  H30      1.0000 0.15437  0.59466  0.70883  Biso   1.000  H
  N9       1.0000 0.05738  0.62154  0.44072  Biso   1.000  N
  H31      1.0000 0.05014  0.66862  0.36053  Biso   1.000  H
  H32      1.0000 0.97908  0.59156  0.37471  Biso   1.000  H
  N10      1.0000 0.56418  0.94266  0.44072  Biso   1.000  N
  H33      1.0000 0.61849  0.94984  0.36053  Biso   1.000  H
  H34      1.0000 0.61249  0.02098  0.37471  Biso   1.000  H
  C33      1.0000 0.51879  0.80115  0.64561  Biso   1.000  C
  C34      1.0000 0.57258  0.81013  0.54435  Biso   1.000  C
  C35      1.0000 0.11326  0.63564  0.56835  Biso   1.000  C
  C36      1.0000 0.19886  0.71766  0.64561  Biso   1.000  C
  C37      1.0000 0.10445  0.68212  0.46184  Biso   1.000  C
  C38      1.0000 0.57766  0.89552  0.46184  Biso   1.000  C
  C39      1.0000 0.50255  0.85492  0.62855  Biso   1.000  C
  H35      1.0000 0.50566  0.77932  0.68624  Biso   1.000  H
  C40      1.0000 0.55737  0.86483  0.52601  Biso   1.000  C
  H36      1.0000 0.59608  0.79435  0.51543  Biso   1.000  H
  C41      1.0000 0.13514  0.69252  0.52601  Biso   1.000  C
  H37      1.0000 0.07644  0.58813  0.55663  Biso   1.000  H
  H38      1.0000 0.22067  0.72631  0.68624  Biso   1.000  H
  C42      1.0000 0.22076  0.77486  0.60303  Biso   1.000  C
  H39      1.0000 0.12114  0.72343  0.43515  Biso   1.000  H
  H40      1.0000 0.60226  0.87882  0.43515  Biso   1.000  H
  C43      1.0000 0.52238  0.88676  0.56835  Biso   1.000  C
  C44      1.0000 0.46378  0.87637  0.67363  Biso   1.000  C
  C45      1.0000 0.18986  0.76245  0.54435  Biso   1.000  C
  C46      1.0000 0.27696  0.84964  0.62104  Biso   1.000  C
  H41      1.0000 0.51169  0.92355  0.55663  Biso   1.000  H
  N11      1.0000 0.46037  0.93384  0.66753  Biso   1.000  N
  H42      1.0000 0.44025  0.84562  0.70883  Biso   1.000  H
  H43      1.0000 0.20569  0.80175  0.51543  Biso   1.000  H
  N12      1.0000 0.29728  0.86935  0.67703  Biso   1.000  N
  H44      1.0000 0.29899  0.88475  0.58843  Biso   1.000  H
  C47      1.0000 0.42078  0.94875  0.71634  Biso   1.000  C
  C48      1.0000 0.35347  0.94543  0.68804  Biso   1.000  C
  H45      1.0000 0.45267  0.99763  0.73463  Biso   1.000  H
  H46      1.0000 0.40645  0.91245  0.75074  Biso   1.000  H
  H47      1.0000 0.33458  0.96856  0.71724  Biso   1.000  H
  H48      1.0000 0.36626  0.97254  0.64764  Biso   1.000  H
  C49      1.0000 0.37960  0.31219  0.54832  Biso   1.000  C
  C50      1.0000 0.40662  0.28563  0.49398  Biso   1.000  C
  N13      1.0000 0.39111  0.28552  0.60889  Biso   1.000  N
  H49      1.0000 0.40581  0.36601  0.54850  Biso   1.000  H
  H50      1.0000 0.32713  0.29472  0.54260  Biso   1.000  H
  N14      1.0000 0.48592  0.32100  0.49596  Biso   1.000  N
  H51      1.0000 0.38527  0.23218  0.49690  Biso   1.000  H
  H52      1.0000 0.39119  0.29689  0.45339  Biso   1.000  H
  C51      1.0000 0.43020  0.33298  0.64840  Biso   1.000  C
  C52      1.0000 0.51320  0.28253  0.50947  Biso   1.000  C
  H53      1.0000 0.45020  0.38278  0.63748  Biso   1.000  H
  C53      1.0000 0.44643  0.31453  0.71119  Biso   1.000  C
  C54      1.0000 0.59190  0.30832  0.51118  Biso   1.000  C
  H54      1.0000 0.48078  0.23278  0.51940  Biso   1.000  H
  C55      1.0000 0.42680  0.24350  0.72901  Biso   1.000  C
  C56      1.0000 0.48251  0.36999  0.75571  Biso   1.000  C
  C57      1.0000 0.64258  0.38349  0.51231  Biso   1.000  C
  C58      1.0000 0.61650  0.25912  0.51231  Biso   1.000  C
  H55      1.0000 0.40321  0.20508  0.69929  Biso   1.000  H
  C59      1.0000 0.44089  0.22832  0.78798  Biso   1.000  C
  C60      1.0000 0.49691  0.35562  0.81529  Biso   1.000  C
  H56      1.0000 0.49740  0.41892  0.74427  Biso   1.000  H
  H57      1.0000 0.62589  0.41750  0.51368  Biso   1.000  H
  C61      1.0000 0.71639  0.40809  0.51118  Biso   1.000  C
  H58      1.0000 0.58252  0.20840  0.51368  Biso   1.000  H
  C62      1.0000 0.69172  0.28361  0.51118  Biso   1.000  C
  C63      1.0000 0.47638  0.28448  0.83211  Biso   1.000  C
  C64      1.0000 0.41959  0.15272  0.80679  Biso   1.000  C
  C65      1.0000 0.53470  0.41358  0.86268  Biso   1.000  C
  C66      1.0000 0.74092  0.35742  0.51231  Biso   1.000  C
  C67      1.0000 0.76932  0.48679  0.50947  Biso   1.000  C
  C68      1.0000 0.71750  0.23071  0.50947  Biso   1.000  C
  H59      1.0000 0.48651  0.27420  0.87341  Biso   1.000  H
  N15      1.0000 0.42521  0.13568  0.86311  Biso   1.000  N
  H60      1.0000 0.40120  0.11593  0.77550  Biso   1.000  H
  N16      1.0000 0.55229  0.47949  0.84950  Biso   1.000  N
  H61      1.0000 0.54613  0.40232  0.90299  Biso   1.000  H
  H62      1.0000 0.79161  0.37412  0.51368  Biso   1.000  H
  N17      1.0000 0.83511  0.51411  0.49596  Biso   1.000  N
  H63      1.0000 0.75202  0.51922  0.51940  Biso   1.000  H
  N18      1.0000 0.67903  0.16491  0.49596  Biso   1.000  N
  H64      1.0000 0.76720  0.24802  0.51940  Biso   1.000  H
  C69      1.0000 0.40280  0.05900  0.87450  Biso   1.000  C
  C70      1.0000 0.58693  0.53283  0.90068  Biso   1.000  C
  C71      1.0000 0.87900  0.59341  0.49398  Biso   1.000  C
  C72      1.0000 0.71439  0.12099  0.49398  Biso   1.000  C
  H65      1.0000 0.38598  0.03129  0.83448  Biso   1.000  H
  H66      1.0000 0.36199  0.03761  0.90498  Biso   1.000  H
  C73      1.0000 0.46719  0.05410  0.90068  Biso   1.000  C
  C74      1.0000 0.65622  0.59722  0.87450  Biso   1.000  C
  H67      1.0000 0.59882  0.51052  0.93649  Biso   1.000  H
  H68      1.0000 0.55351  0.54943  0.91608  Biso   1.000  H
  H69      1.0000 0.84689  0.61469  0.49690  Biso   1.000  H
  H70      1.0000 0.90570  0.60881  0.45339  Biso   1.000  H
  C75      1.0000 0.93261  0.62040  0.54832  Biso   1.000  C
  H71      1.0000 0.76782  0.15310  0.49690  Biso   1.000  H
  H72      1.0000 0.70313  0.09432  0.45339  Biso   1.000  H
  C76      1.0000 0.68782  0.06738  0.54832  Biso   1.000  C
  N19      1.0000 0.52053  0.07282  0.84950  Biso   1.000  N
  H73      1.0000 0.48951  0.08828  0.93649  Biso   1.000  H
  H74      1.0000 0.45062  0.00408  0.91608  Biso   1.000  H
  N20      1.0000 0.71052  0.57479  0.86311  Biso   1.000  N
  H75      1.0000 0.64527  0.61398  0.83448  Biso   1.000  H
  H76      1.0000 0.67561  0.63798  0.90498  Biso   1.000  H
  N21      1.0000 0.89439  0.60892  0.60889  Biso   1.000  N
  H77      1.0000 0.96020  0.59422  0.54850  Biso   1.000  H
  H78      1.0000 0.96764  0.67292  0.54260  Biso   1.000  H
  N22      1.0000 0.71451  0.10559  0.60889  Biso   1.000  N
  H79      1.0000 0.63400  0.03979  0.54850  Biso   1.000  H
  H80      1.0000 0.70529  0.03238  0.54260  Biso   1.000  H
  C77      1.0000 0.58643  0.12110  0.86268  Biso   1.000  C
  C78      1.0000 0.73312  0.58040  0.80679  Biso   1.000  C
  C79      1.0000 0.90278  0.56979  0.64840  Biso   1.000  C
  C80      1.0000 0.66700  0.09720  0.64840  Biso   1.000  C
  C81      1.0000 0.64441  0.14129  0.81529  Biso   1.000  C
  H81      1.0000 0.59768  0.14379  0.90299  Biso   1.000  H
  C82      1.0000 0.78743  0.55912  0.78798  Biso   1.000  C
  H82      1.0000 0.71470  0.59879  0.77550  Biso   1.000  H
  H83      1.0000 0.93262  0.54981  0.63748  Biso   1.000  H
  C83      1.0000 0.86811  0.55362  0.71119  Biso   1.000  C
  H84      1.0000 0.61721  0.06738  0.63748  Biso   1.000  H
  C84      1.0000 0.68550  0.13193  0.71119  Biso   1.000  C
  C85      1.0000 0.63001  0.11250  0.75571  Biso   1.000  C
  C86      1.0000 0.71549  0.19191  0.83211  Biso   1.000  C
  C87      1.0000 0.81673  0.57321  0.72901  Biso   1.000  C
  C88      1.0000 0.80810  0.52363  0.83211  Biso   1.000  C
  C89      1.0000 0.88751  0.51748  0.75571  Biso   1.000  C
  C90      1.0000 0.75653  0.18331  0.72901  Biso   1.000  C
  H85      1.0000 0.58110  0.07848  0.74427  Biso   1.000  H
  C91      1.0000 0.77169  0.21259  0.78798  Biso   1.000  C
  H86      1.0000 0.72583  0.21232  0.87341  Biso   1.000  H
  H87      1.0000 0.80188  0.59678  0.69929  Biso   1.000  H
  C92      1.0000 0.85869  0.50311  0.81529  Biso   1.000  C
  H88      1.0000 0.78772  0.51351  0.87341  Biso   1.000  H
  H89      1.0000 0.92151  0.50262  0.74427  Biso   1.000  H
  H90      1.0000 0.79490  0.19811  0.69929  Biso   1.000  H
  C93      1.0000 0.84730  0.26690  0.80679  Biso   1.000  C
  C94      1.0000 0.87890  0.46529  0.86268  Biso   1.000  C
  N23      1.0000 0.86430  0.28949  0.86311  Biso   1.000  N
  H91      1.0000 0.88412  0.28530  0.77550  Biso   1.000  H
  N24      1.0000 0.92719  0.44771  0.84950  Biso   1.000  N
  H92      1.0000 0.85620  0.45391  0.90299  Biso   1.000  H
  C95      1.0000 0.94099  0.34381  0.87450  Biso   1.000  C
  C96      1.0000 0.94589  0.41309  0.90068  Biso   1.000  C
  H93      1.0000 0.96868  0.35469  0.83448  Biso   1.000  H
  H94      1.0000 0.96239  0.32438  0.90498  Biso   1.000  H
  H95      1.0000 0.91173  0.40123  0.93649  Biso   1.000  H
  H96      1.0000 0.99593  0.44651  0.91608  Biso   1.000  H
  C97      1.0000 0.20143  0.22026  0.37788  Biso   1.000  C
  C98      1.0000 0.23612  0.23648  0.31508  Biso   1.000  C
  C99      1.0000 0.15005  0.23986  0.39564  Biso   1.000  C
  C100     1.0000 0.22086  0.18418  0.42234  Biso   1.000  C
  N25      1.0000 0.22771  0.27556  0.27558  Biso   1.000  N
  H97      1.0000 0.26594  0.21645  0.30416  Biso   1.000  H
  H98      1.0000 0.13523  0.26348  0.36597  Biso   1.000  H
  C101     1.0000 0.12075  0.22576  0.45466  Biso   1.000  C
  C102     1.0000 0.19201  0.16975  0.48197  Biso   1.000  C
  H99      1.0000 0.25483  0.16926  0.41095  Biso   1.000  H
  C103     1.0000 0.26593  0.28704  0.21495  Biso   1.000  C
  C104     1.0000 0.14142  0.19027  0.49875  Biso   1.000  C
  C105     1.0000 0.06647  0.24709  0.47347  Biso   1.000  C
  C106     1.0000 0.21225  0.13198  0.52937  Biso   1.000  C
  C107     1.0000 0.21232  0.26005  0.16066  Biso   1.000  C
  H100     1.0000 0.29352  0.26086  0.21519  Biso   1.000  H
  H101     1.0000 0.30096  0.33956  0.20928  Biso   1.000  H
  H102     1.0000 0.12104  0.18015  0.54005  Biso   1.000  H
  N26      1.0000 0.04382  0.24149  0.52975  Biso   1.000  N
  H103     1.0000 0.04804  0.26549  0.44214  Biso   1.000  H
  N27      1.0000 0.26051  0.11435  0.51618  Biso   1.000  N
  H104     1.0000 0.18952  0.12055  0.56967  Biso   1.000  H
  N28      1.0000 0.16843  0.18075  0.16264  Biso   1.000  N
  H105     1.0000 0.18024  0.28138  0.16359  Biso   1.000  H
  H106     1.0000 0.23902  0.27545  0.12007  Biso   1.000  H
  C108     1.0000 0.98954  0.26386  0.54118  Biso   1.000  C
  C109     1.0000 0.27924  0.07979  0.56736  Biso   1.000  C
  C110     1.0000 0.10262  0.15348  0.17616  Biso   1.000  C
  H107     1.0000 0.00896  0.30468  0.57166  Biso   1.000  H
  H108     1.0000 0.97867  0.28067  0.50116  Biso   1.000  H
  C111     1.0000 0.92025  0.19947  0.56736  Biso   1.000  C
  C112     1.0000 0.27431  0.01045  0.54118  Biso   1.000  C
  H109     1.0000 0.24505  0.06787  0.60318  Biso   1.000  H
  H110     1.0000 0.32925  0.11315  0.58276  Biso   1.000  H
  C113     1.0000 0.04974  0.07478  0.17786  Biso   1.000  C
  H111     1.0000 0.08534  0.18586  0.18608  Biso   1.000  H
  N29      1.0000 0.88564  0.14619  0.51618  Biso   1.000  N
  H112     1.0000 0.93214  0.17716  0.60318  Biso   1.000  H
  H113     1.0000 0.88683  0.21607  0.58276  Biso   1.000  H
  H114     1.0000 0.30203  0.02139  0.50116  Biso   1.000  H
  N30      1.0000 0.19762  0.95613  0.52975  Biso   1.000  N
  H115     1.0000 0.29574  0.99107  0.57166  Biso   1.000  H
  C114     1.0000 0.07425  0.02406  0.17894  Biso   1.000  C
  C115     1.0000 0.97593  0.05018  0.17894  Biso   1.000  C
  C116     1.0000 0.86805  0.08028  0.52937  Biso   1.000  C
  C117     1.0000 0.18062  0.93355  0.47347  Biso   1.000  C
  H116     1.0000 0.12493  0.04077  0.18036  Biso   1.000  H
  C118     1.0000 0.02504  0.95025  0.17786  Biso   1.000  C
  C119     1.0000 0.92522  0.97496  0.17786  Biso   1.000  C
  H117     1.0000 0.95921  0.08414  0.18036  Biso   1.000  H
  C120     1.0000 0.83023  0.02226  0.48197  Biso   1.000  C
  H118     1.0000 0.87945  0.06896  0.56967  Biso   1.000  H
  C121     1.0000 0.10501  0.87923  0.45466  Biso   1.000  C
  H119     1.0000 0.21744  0.95194  0.44214  Biso   1.000  H
  C122     1.0000 0.94983  0.92576  0.17894  Biso   1.000  C
  C123     1.0000 0.05082  0.89735  0.17616  Biso   1.000  C
  C124     1.0000 0.84652  0.94917  0.17616  Biso   1.000  C
  C125     1.0000 0.80972  0.95118  0.49875  Biso   1.000  C
  C126     1.0000 0.81585  0.03668  0.42234  Biso   1.000  C
  C127     1.0000 0.08980  0.84995  0.39564  Biso   1.000  C
  C128     1.0000 0.04881  0.85855  0.49875  Biso   1.000  C
  H120     1.0000 0.91584  0.87504  0.18036  Biso   1.000  H
  N31      1.0000 0.01231  0.83155  0.16264  Biso   1.000  N
  H121     1.0000 0.10052  0.91466  0.18608  Biso   1.000  H
  N32      1.0000 0.81924  0.98765  0.16264  Biso   1.000  N
  H122     1.0000 0.81413  0.89948  0.18608  Biso   1.000  H
  C129     1.0000 0.77421  0.89496  0.45466  Biso   1.000  C
  H123     1.0000 0.81983  0.94084  0.54005  Biso   1.000  H
  C130     1.0000 0.77975  0.98117  0.37788  Biso   1.000  C
  H124     1.0000 0.83072  0.08556  0.41095  Biso   1.000  H
  C131     1.0000 0.01882  0.79857  0.37788  Biso   1.000  C
  H125     1.0000 0.12822  0.86475  0.36597  Biso   1.000  H
  C132     1.0000 0.97773  0.80793  0.48197  Biso   1.000  C
  H126     1.0000 0.05911  0.87896  0.54005  Biso   1.000  H
  C133     1.0000 0.04771  0.78763  0.16066  Biso   1.000  C
  C134     1.0000 0.73994  0.95227  0.16066  Biso   1.000  C
  C135     1.0000 0.76012  0.91014  0.39564  Biso   1.000  C
  C136     1.0000 0.75291  0.81936  0.47347  Biso   1.000  C
  C137     1.0000 0.76355  0.99967  0.31508  Biso   1.000  C
  C138     1.0000 0.00032  0.76385  0.31508  Biso   1.000  C
  C139     1.0000 0.96333  0.77914  0.42234  Biso   1.000  C
  C140     1.0000 0.91975  0.78774  0.52937  Biso   1.000  C
  H127     1.0000 0.10109  0.81974  0.16359  Biso   1.000  H
  H128     1.0000 0.03645  0.76096  0.12007  Biso   1.000  H
  C141     1.0000 0.02112  0.73407  0.21495  Biso   1.000  C
  H129     1.0000 0.71862  0.89888  0.16359  Biso   1.000  H
  H130     1.0000 0.72451  0.96353  0.12007  Biso   1.000  H
  C142     1.0000 0.71292  0.97883  0.21495  Biso   1.000  C
  H131     1.0000 0.73656  0.87177  0.36597  Biso   1.000  H
  N33      1.0000 0.75853  0.80233  0.52975  Biso   1.000  N
  H132     1.0000 0.73452  0.78257  0.44214  Biso   1.000  H
  N34      1.0000 0.72443  0.95216  0.27558  Biso   1.000  N
  H133     1.0000 0.78355  0.04947  0.30416  Biso   1.000  H
  N35      1.0000 0.04783  0.77223  0.27558  Biso   1.000  N
  H134     1.0000 0.95056  0.73407  0.30416  Biso   1.000  H
  H135     1.0000 0.91444  0.74518  0.41095  Biso   1.000  H
  N36      1.0000 0.85385  0.73946  0.51618  Biso   1.000  N
  H136     1.0000 0.93100  0.81043  0.56967  Biso   1.000  H
  H137     1.0000 0.96733  0.70643  0.21519  Biso   1.000  H
  H138     1.0000 0.03861  0.69902  0.20928  Biso   1.000  H
  H139     1.0000 0.66045  0.96136  0.20928  Biso   1.000  H
  H140     1.0000 0.73913  0.03266  0.21519  Biso   1.000  H
  C143     1.0000 0.73612  0.72564  0.54118  Biso   1.000  C
  C144     1.0000 0.80051  0.72074  0.56736  Biso   1.000  C
  H141     1.0000 0.71930  0.69794  0.50116  Biso   1.000  H
  H142     1.0000 0.69531  0.70425  0.57166  Biso   1.000  H
  H143     1.0000 0.82286  0.75497  0.60318  Biso   1.000  H
  H144     1.0000 0.78397  0.67078  0.58276  Biso   1.000  H
  C145     1.0000 0.53222  0.38430  0.31229  Biso   1.000  C
  C146     1.0000 0.47842  0.31431  0.29518  Biso   1.000  C
  C147     1.0000 0.55408  0.44150  0.26972  Biso   1.000  C
  H145     1.0000 0.55402  0.39301  0.35288  Biso   1.000  H
  C148     1.0000 0.44658  0.30228  0.23499  Biso   1.000  C
  C149     1.0000 0.45700  0.25411  0.34031  Biso   1.000  C
  C150     1.0000 0.52318  0.42909  0.21098  Biso   1.000  C
  C151     1.0000 0.61028  0.51628  0.28772  Biso   1.000  C
  C152     1.0000 0.46849  0.35921  0.19269  Biso   1.000  C
  H146     1.0000 0.40979  0.25482  0.22331  Biso   1.000  H
  N37      1.0000 0.39949  0.19321  0.33422  Biso   1.000  N
  H147     1.0000 0.48769  0.26130  0.37551  Biso   1.000  H
  H148     1.0000 0.53901  0.46839  0.18211  Biso   1.000  H
  N38      1.0000 0.63060  0.53599  0.34371  Biso   1.000  N
  H149     1.0000 0.63231  0.55139  0.25512  Biso   1.000  H
  C153     1.0000 0.43779  0.34882  0.12848  Biso   1.000  C
  C154     1.0000 0.38457  0.13868  0.38298  Biso   1.000  C
  C155     1.0000 0.68681  0.61213  0.35468  Biso   1.000  C
  N39      1.0000 0.39070  0.28819  0.10740  Biso   1.000  N
  H150     1.0000 0.45454  0.39013  0.10178  Biso   1.000  H
  H151     1.0000 0.33569  0.12170  0.40131  Biso   1.000  H
  H152     1.0000 0.42090  0.16072  0.41738  Biso   1.000  H
  C156     1.0000 0.38790  0.07473  0.35468  Biso   1.000  C
  C157     1.0000 0.75411  0.61539  0.38298  Biso   1.000  C
  H153     1.0000 0.66790  0.63521  0.38388  Biso   1.000  H
  H154     1.0000 0.69961  0.63923  0.31427  Biso   1.000  H
  C158     1.0000 0.36630  0.28519  0.04272  Biso   1.000  C
  N40      1.0000 0.46401  0.09459  0.34371  Biso   1.000  N
  H155     1.0000 0.36482  0.03271  0.38388  Biso   1.000  H
  H156     1.0000 0.36081  0.06041  0.31427  Biso   1.000  H
  N41      1.0000 0.79369  0.60048  0.33422  Biso   1.000  N
  H157     1.0000 0.78602  0.66432  0.40131  Biso   1.000  H
  H158     1.0000 0.73982  0.57909  0.41738  Biso   1.000  H
  C159     1.0000 0.39530  0.24818  0.00038  Biso   1.000  C
  H159     1.0000 0.38353  0.33532  0.02722  Biso   1.000  H
  H160     1.0000 0.31240  0.25820  0.04139  Biso   1.000  H
  C160     1.0000 0.48370  0.09399  0.28772  Biso   1.000  C
  C161     1.0000 0.79710  0.54301  0.34031  Biso   1.000  C
  H161     1.0000 0.37908  0.19849  0.01640  Biso   1.000  H
  N42      1.0000 0.47561  0.29069  0.99901  Biso   1.000  N
  H162     1.0000 0.37590  0.24388  0.95709  Biso   1.000  H
  C162     1.0000 0.55852  0.11261  0.26972  Biso   1.000  C
  H163     1.0000 0.44857  0.08088  0.25512  Biso   1.000  H
  C163     1.0000 0.83589  0.52162  0.29518  Biso   1.000  C
  H164     1.0000 0.77360  0.51231  0.37551  Biso   1.000  H
  C164     1.0000 0.51021  0.25901  0.00699  Biso   1.000  C
  C165     1.0000 0.61570  0.14788  0.31229  Biso   1.000  C
  C166     1.0000 0.57090  0.09410  0.21098  Biso   1.000  C
  C167     1.0000 0.85570  0.55340  0.23499  Biso   1.000  C
  C168     1.0000 0.85211  0.46779  0.31229  Biso   1.000  C
  C169     1.0000 0.59101  0.29760  0.00709  Biso   1.000  C
  H165     1.0000 0.48423  0.20780  0.01342  Biso   1.000  H
  C170     1.0000 0.68570  0.16409  0.29518  Biso   1.000  C
  H166     1.0000 0.60699  0.16099  0.35288  Biso   1.000  H
  C171     1.0000 0.64081  0.10929  0.19269  Biso   1.000  C
  H167     1.0000 0.53162  0.07059  0.18211  Biso   1.000  H
  C172     1.0000 0.89071  0.53152  0.19269  Biso   1.000  C
  H168     1.0000 0.84501  0.59019  0.22331  Biso   1.000  H
  H169     1.0000 0.83901  0.44602  0.35288  Biso   1.000  H
  C173     1.0000 0.88741  0.44591  0.26972  Biso   1.000  C
  C174     1.0000 0.63170  0.37369  0.00718  Biso   1.000  C
  C175     1.0000 0.62630  0.25798  0.00718  Biso   1.000  C
  C176     1.0000 0.69771  0.14428  0.23499  Biso   1.000  C
  C177     1.0000 0.74592  0.20290  0.34031  Biso   1.000  C
  C178     1.0000 0.65121  0.08899  0.12848  Biso   1.000  C
  C179     1.0000 0.91101  0.56222  0.12848  Biso   1.000  C
  C180     1.0000 0.90593  0.47683  0.21098  Biso   1.000  C
  C181     1.0000 0.90601  0.38969  0.28772  Biso   1.000  C
  H170     1.0000 0.60743  0.40123  0.00742  Biso   1.000  H
  C182     1.0000 0.70663  0.40901  0.00709  Biso   1.000  C
  H171     1.0000 0.59882  0.20622  0.00742  Biso   1.000  H
  C183     1.0000 0.70242  0.29341  0.00709  Biso   1.000  C
  H172     1.0000 0.74521  0.15501  0.22331  Biso   1.000  H
  N43      1.0000 0.80683  0.20633  0.33422  Biso   1.000  N
  H173     1.0000 0.73872  0.22641  0.37551  Biso   1.000  H
  N44      1.0000 0.71178  0.10248  0.10740  Biso   1.000  N
  H174     1.0000 0.60992  0.06439  0.10178  Biso   1.000  H
  N45      1.0000 0.89750  0.60930  0.10740  Biso   1.000  N
  H175     1.0000 0.93560  0.54551  0.10178  Biso   1.000  H
  H176     1.0000 0.92940  0.46099  0.18211  Biso   1.000  H
  N46      1.0000 0.90542  0.36939  0.34371  Biso   1.000  N
  H177     1.0000 0.91910  0.36770  0.25512  Biso   1.000  H
  C184     1.0000 0.74198  0.36830  0.00718  Biso   1.000  C
  C185     1.0000 0.74880  0.48978  0.00699  Biso   1.000  C
  C186     1.0000 0.74097  0.25118  0.00699  Biso   1.000  C
  C187     1.0000 0.86131  0.24590  0.38298  Biso   1.000  C
  C188     1.0000 0.71480  0.08109  0.04272  Biso   1.000  C
  C189     1.0000 0.91889  0.63368  0.04272  Biso   1.000  C
  C190     1.0000 0.92532  0.31322  0.35468  Biso   1.000  C
  H178     1.0000 0.79384  0.39263  0.00742  Biso   1.000  H
  H179     1.0000 0.72358  0.51579  0.01342  Biso   1.000  H
  N47      1.0000 0.81508  0.52439  0.99901  Biso   1.000  N
  H180     1.0000 0.79220  0.27643  0.01342  Biso   1.000  H
  N48      1.0000 0.70929  0.18488  0.99901  Biso   1.000  N
  H181     1.0000 0.87831  0.21400  0.40131  Biso   1.000  H
  H182     1.0000 0.83933  0.26021  0.41738  Biso   1.000  H
  C191     1.0000 0.75182  0.14711  0.00038  Biso   1.000  C
  H183     1.0000 0.66471  0.04822  0.02722  Biso   1.000  H
  H184     1.0000 0.74180  0.05421  0.04139  Biso   1.000  H
  C192     1.0000 0.85294  0.60473  0.00038  Biso   1.000  C
  H185     1.0000 0.95181  0.61648  0.02722  Biso   1.000  H
  H186     1.0000 0.94581  0.68762  0.04139  Biso   1.000  H
  H187     1.0000 0.96729  0.33211  0.38388  Biso   1.000  H
  H188     1.0000 0.93959  0.30038  0.31427  Biso   1.000  H
  H189     1.0000 0.80150  0.18059  0.01640  Biso   1.000  H
  H190     1.0000 0.75608  0.13198  0.95709  Biso   1.000  H
  H191     1.0000 0.81940  0.62089  0.01640  Biso   1.000  H
  H192     1.0000 0.86800  0.62410  0.95709  Biso   1.000  H
  C193     1.0000 0.18621  0.27137  0.66706  Biso   1.000  C
  N49      1.0000 0.14843  0.19109  0.66564  Biso   1.000  N
  H193     1.0000 0.15275  0.28759  0.68308  Biso   1.000  H
  H194     1.0000 0.20132  0.29074  0.62378  Biso   1.000  H
  C194     1.0000 0.25223  0.30038  0.70935  Biso   1.000  C
  C195     1.0000 0.08215  0.15647  0.67368  Biso   1.000  C
  N50      1.0000 0.23085  0.27599  0.77404  Biso   1.000  N
  H195     1.0000 0.28516  0.28318  0.69385  Biso   1.000  H
  H196     1.0000 0.27913  0.35426  0.70808  Biso   1.000  H
  C196     1.0000 0.03995  0.07565  0.67377  Biso   1.000  C
  H197     1.0000 0.05693  0.18249  0.68005  Biso   1.000  H
  C197     1.0000 0.24433  0.22886  0.79516  Biso   1.000  C
  C198     1.0000 0.07530  0.03494  0.67386  Biso   1.000  C
  C199     1.0000 0.96504  0.04038  0.67386  Biso   1.000  C
  H198     1.0000 0.26892  0.21215  0.76846  Biso   1.000  H
  C200     1.0000 0.22404  0.19816  0.85938  Biso   1.000  C
  H199     1.0000 0.12716  0.05927  0.67405  Biso   1.000  H
  C201     1.0000 0.03574  0.96005  0.67377  Biso   1.000  C
  C202     1.0000 0.92433  0.96424  0.67377  Biso   1.000  C
  H200     1.0000 0.94075  0.06787  0.67405  Biso   1.000  H
  C203     1.0000 0.18902  0.22004  0.90167  Biso   1.000  C
  C204     1.0000 0.23925  0.14347  0.87766  Biso   1.000  C
  C205     1.0000 0.95965  0.92467  0.67386  Biso   1.000  C
  C206     1.0000 0.07432  0.91787  0.67368  Biso   1.000  C
  C207     1.0000 0.84353  0.92565  0.67368  Biso   1.000  C
  H201     1.0000 0.17836  0.25689  0.88995  Biso   1.000  H
  C208     1.0000 0.16921  0.18826  0.96187  Biso   1.000  C
  C209     1.0000 0.22073  0.11255  0.93635  Biso   1.000  C
  H202     1.0000 0.26275  0.12768  0.84875  Biso   1.000  H
  H203     1.0000 0.93214  0.87286  0.67405  Biso   1.000  H
  N51      1.0000 0.04261  0.85153  0.66564  Biso   1.000  N
  H204     1.0000 0.12552  0.94307  0.68005  Biso   1.000  H
  N52      1.0000 0.80893  0.95733  0.66564  Biso   1.000  N
  H205     1.0000 0.81755  0.87444  0.68005  Biso   1.000  H
  C210     1.0000 0.18546  0.13449  0.97897  Biso   1.000  C
  C211     1.0000 0.13042  0.20965  0.00695  Biso   1.000  C
  C212     1.0000 0.23935  0.05639  0.95435  Biso   1.000  C
  C213     1.0000 0.08514  0.81375  0.66706  Biso   1.000  C
  C214     1.0000 0.72865  0.91488  0.66706  Biso   1.000  C
  H206     1.0000 0.17233  0.11266  0.01956  Biso   1.000  H
  N53      1.0000 0.12704  0.26718  0.00085  Biso   1.000  N
  H207     1.0000 0.10692  0.17895  0.04215  Biso   1.000  H
  H208     1.0000 0.25242  0.03434  0.92175  Biso   1.000  H
  N54      1.0000 0.23872  0.03608  0.01035  Biso   1.000  N
  H209     1.0000 0.13482  0.84723  0.68308  Biso   1.000  H
  H210     1.0000 0.08943  0.79868  0.62378  Biso   1.000  H
  C215     1.0000 0.04812  0.74774  0.70935  Biso   1.000  C
  H211     1.0000 0.71240  0.86513  0.68308  Biso   1.000  H
  H212     1.0000 0.70925  0.91058  0.62378  Biso   1.000  H
  C216     1.0000 0.69962  0.95183  0.70935  Biso   1.000  C
  C217     1.0000 0.08745  0.28209  0.04966  Biso   1.000  C
  C218     1.0000 0.25864  0.97986  0.02136  Biso   1.000  C
  H213     1.0000 0.99803  0.71486  0.69385  Biso   1.000  H
  N55      1.0000 0.04510  0.76913  0.77404  Biso   1.000  N
  H214     1.0000 0.07512  0.72085  0.70808  Biso   1.000  H
  N56      1.0000 0.72402  0.95483  0.77404  Biso   1.000  N
  H215     1.0000 0.64572  0.92484  0.70808  Biso   1.000  H
  H216     1.0000 0.71685  0.00196  0.69385  Biso   1.000  H
  H217     1.0000 0.11934  0.33096  0.06795  Biso   1.000  H
  H218     1.0000 0.07312  0.24579  0.08406  Biso   1.000  H
  C219     1.0000 0.02014  0.27877  0.02136  Biso   1.000  C
  H219     1.0000 0.27294  0.96707  0.98096  Biso   1.000  H
  C220     1.0000 0.19463  0.91254  0.04966  Biso   1.000  C
  H220     1.0000 0.30061  0.99875  0.05056  Biso   1.000  H
  C221     1.0000 0.98453  0.75563  0.79516  Biso   1.000  C
  C222     1.0000 0.77111  0.01546  0.79516  Biso   1.000  C
  H221     1.0000 0.03293  0.30587  0.98096  Biso   1.000  H
  N57      1.0000 0.96394  0.20268  0.01035  Biso   1.000  N
  H222     1.0000 0.00122  0.30185  0.05056  Biso   1.000  H
  N58      1.0000 0.14015  0.87297  0.00085  Biso   1.000  N
  H223     1.0000 0.21163  0.88064  0.06795  Biso   1.000  H
  H224     1.0000 0.17261  0.92685  0.08406  Biso   1.000  H
  H225     1.0000 0.94324  0.73103  0.76846  Biso   1.000  H
  C223     1.0000 0.97413  0.77593  0.85938  Biso   1.000  C
  H226     1.0000 0.78786  0.05677  0.76846  Biso   1.000  H
  C224     1.0000 0.80181  0.02585  0.85938  Biso   1.000  C
  C225     1.0000 0.94363  0.18298  0.95435  Biso   1.000  C
  C226     1.0000 0.07924  0.86954  0.00695  Biso   1.000  C
  C227     1.0000 0.90422  0.76074  0.87766  Biso   1.000  C
  C228     1.0000 0.03105  0.81098  0.90167  Biso   1.000  C
  C229     1.0000 0.77993  0.96898  0.90167  Biso   1.000  C
  C230     1.0000 0.85653  0.09579  0.87766  Biso   1.000  C
  C231     1.0000 0.88745  0.10814  0.93635  Biso   1.000  C
  H227     1.0000 0.96566  0.21808  0.92175  Biso   1.000  H
  C232     1.0000 0.01902  0.83074  0.96187  Biso   1.000  C
  H228     1.0000 0.07205  0.89305  0.04215  Biso   1.000  H
  C233     1.0000 0.89184  0.77925  0.93635  Biso   1.000  C
  H229     1.0000 0.86494  0.73723  0.84875  Biso   1.000  H
  H230     1.0000 0.07853  0.82165  0.88995  Biso   1.000  H
  H231     1.0000 0.74311  0.92146  0.88995  Biso   1.000  H
  C234     1.0000 0.81174  0.98095  0.96187  Biso   1.000  C
  H232     1.0000 0.87236  0.13509  0.84875  Biso   1.000  H
  C235     1.0000 0.86554  0.05094  0.97897  Biso   1.000  C
  C236     1.0000 0.94905  0.81457  0.97897  Biso   1.000  C
  C237     1.0000 0.81702  0.76063  0.95435  Biso   1.000  C
  C238     1.0000 0.79032  0.92076  0.00695  Biso   1.000  C
  H233     1.0000 0.88734  0.05965  0.01956  Biso   1.000  H
  H234     1.0000 0.94031  0.82763  0.01956  Biso   1.000  H
  H235     1.0000 0.78192  0.74757  0.92175  Biso   1.000  H
  N59      1.0000 0.79733  0.76123  0.01035  Biso   1.000  N
  N60      1.0000 0.73281  0.85985  0.00085  Biso   1.000  N
  H236     1.0000 0.82101  0.92794  0.04215  Biso   1.000  H
  C239     1.0000 0.72122  0.74137  0.02136  Biso   1.000  C
  C240     1.0000 0.71792  0.80537  0.04966  Biso   1.000  C
  H237     1.0000 0.69413  0.72705  0.98096  Biso   1.000  H
  H238     1.0000 0.69814  0.69935  0.05056  Biso   1.000  H
  H239     1.0000 0.66901  0.78834  0.06795  Biso   1.000  H
  H240     1.0000 0.75423  0.82736  0.08406  Biso   1.000  H
  C241     1.0000 0.25306  0.45446  0.19605  Biso   1.000  C
  N61      1.0000 0.18718  0.40613  0.18282  Biso   1.000  N
  C242     1.0000 0.31109  0.47465  0.14861  Biso   1.000  C
  H241     1.0000 0.26436  0.47715  0.23631  Biso   1.000  H
  C243     1.0000 0.13387  0.38746  0.23404  Biso   1.000  C
  C244     1.0000 0.38216  0.52526  0.16543  Biso   1.000  C
  C245     1.0000 0.29669  0.44586  0.08902  Biso   1.000  C
  C246     1.0000 0.06948  0.39236  0.20782  Biso   1.000  C
  H242     1.0000 0.15619  0.42164  0.26981  Biso   1.000  H
  H243     1.0000 0.11725  0.33744  0.24944  Biso   1.000  H
  C247     1.0000 0.43837  0.54595  0.12134  Biso   1.000  C
  H244     1.0000 0.39248  0.54562  0.20673  Biso   1.000  H
  C248     1.0000 0.35215  0.46523  0.04451  Biso   1.000  C
  H245     1.0000 0.24778  0.41184  0.07764  Biso   1.000  H
  N62      1.0000 0.09189  0.46904  0.19643  Biso   1.000  N
  H246     1.0000 0.05266  0.36465  0.16784  Biso   1.000  H
  H247     1.0000 0.02864  0.37091  0.23834  Biso   1.000  H
  C249     1.0000 0.42316  0.51667  0.06233  Biso   1.000  C
  C250     1.0000 0.51398  0.60026  0.14015  Biso   1.000  C
  C251     1.0000 0.33368  0.43056  0.98171  Biso   1.000  C
  C252     1.0000 0.08624  0.48602  0.14015  Biso   1.000  C
  H248     1.0000 0.46155  0.53141  0.03265  Biso   1.000  H
  N63      1.0000 0.53098  0.62285  0.19643  Biso   1.000  N
  H249     1.0000 0.55080  0.61866  0.10882  Biso   1.000  H
  N64      1.0000 0.38119  0.43895  0.94221  Biso   1.000  N
  H250     1.0000 0.28389  0.40074  0.97085  Biso   1.000  H
  C253     1.0000 0.10755  0.56162  0.12134  Biso   1.000  C
  H251     1.0000 0.06785  0.44923  0.10882  Biso   1.000  H
  C254     1.0000 0.60765  0.67711  0.20782  Biso   1.000  C
  C255     1.0000 0.35445  0.40074  0.88163  Biso   1.000  C
  C256     1.0000 0.09348  0.57686  0.06233  Biso   1.000  C
  C257     1.0000 0.14306  0.61784  0.16543  Biso   1.000  C
  H252     1.0000 0.63536  0.68805  0.16784  Biso   1.000  H
  H253     1.0000 0.62907  0.65774  0.23834  Biso   1.000  H
  C258     1.0000 0.61257  0.74645  0.23404  Biso   1.000  C
  C259     1.0000 0.38107  0.45435  0.82734  Biso   1.000  C
  H254     1.0000 0.30068  0.37314  0.88182  Biso   1.000  H
  H255     1.0000 0.37197  0.36574  0.87592  Biso   1.000  H
  C260     1.0000 0.11308  0.64783  0.04451  Biso   1.000  C
  H256     1.0000 0.06989  0.53844  0.03265  Biso   1.000  H
  H257     1.0000 0.15318  0.60756  0.20673  Biso   1.000  H
  C261     1.0000 0.16356  0.68892  0.14861  Biso   1.000  C
  N65      1.0000 0.59387  0.78107  0.18282  Biso   1.000  N
  H258     1.0000 0.57838  0.73453  0.26981  Biso   1.000  H
  H259     1.0000 0.66258  0.77981  0.24944  Biso   1.000  H
  N66      1.0000 0.34564  0.49821  0.82928  Biso   1.000  N
  H260     1.0000 0.43450  0.48646  0.83022  Biso   1.000  H
  H261     1.0000 0.36978  0.42762  0.78670  Biso   1.000  H
  C262     1.0000 0.14918  0.70335  0.08902  Biso   1.000  C
  C263     1.0000 0.09688  0.66634  0.98171  Biso   1.000  C
  C264     1.0000 0.20138  0.74694  0.19605  Biso   1.000  C
  C265     1.0000 0.54558  0.79865  0.19605  Biso   1.000  C
  C266     1.0000 0.38415  0.56402  0.84284  Biso   1.000  C
  H262     1.0000 0.16405  0.75222  0.07764  Biso   1.000  H
  N67      1.0000 0.05776  0.61882  0.94221  Biso   1.000  N
  H263     1.0000 0.11688  0.71614  0.97085  Biso   1.000  H
  N68      1.0000 0.21897  0.81285  0.18282  Biso   1.000  N
  H264     1.0000 0.21274  0.73562  0.23631  Biso   1.000  H
  C267     1.0000 0.52534  0.83642  0.14861  Biso   1.000  C
  H265     1.0000 0.52285  0.78722  0.23631  Biso   1.000  H
  C268     1.0000 0.35837  0.61692  0.84454  Biso   1.000  C
  H266     1.0000 0.43386  0.58132  0.85271  Biso   1.000  H
  C269     1.0000 0.04628  0.64555  0.88163  Biso   1.000  C
  C270     1.0000 0.25358  0.86613  0.23404  Biso   1.000  C
  C271     1.0000 0.47475  0.85694  0.16543  Biso   1.000  C
  C272     1.0000 0.55419  0.85084  0.08902  Biso   1.000  C
  C273     1.0000 0.28316  0.59243  0.84563  Biso   1.000  C
  C274     1.0000 0.40758  0.69072  0.84563  Biso   1.000  C
  H267     1.0000 0.99378  0.62802  0.87592  Biso   1.000  H
  C275     1.0000 0.07328  0.61893  0.82734  Biso   1.000  C
  H268     1.0000 0.07246  0.69932  0.88182  Biso   1.000  H
  C276     1.0000 0.32287  0.93052  0.20782  Biso   1.000  C
  H269     1.0000 0.26547  0.84382  0.26981  Biso   1.000  H
  H270     1.0000 0.22017  0.88273  0.24944  Biso   1.000  H
  C277     1.0000 0.45408  0.89242  0.12134  Biso   1.000  C
  H271     1.0000 0.45440  0.84687  0.20673  Biso   1.000  H
  C278     1.0000 0.53476  0.88692  0.04451  Biso   1.000  C
  H272     1.0000 0.58817  0.83593  0.07764  Biso   1.000  H
  H273     1.0000 0.24920  0.54176  0.84704  Biso   1.000  H
  C279     1.0000 0.25855  0.64163  0.84454  Biso   1.000  C
  H274     1.0000 0.45826  0.70743  0.84704  Biso   1.000  H
  C280     1.0000 0.38307  0.74144  0.84454  Biso   1.000  C
  N69      1.0000 0.15260  0.65436  0.82928  Biso   1.000  N
  H275     1.0000 0.05195  0.56554  0.83022  Biso   1.000  H
  H276     1.0000 0.05787  0.63025  0.78670  Biso   1.000  H
  N70      1.0000 0.37715  0.90815  0.19643  Biso   1.000  N
  H277     1.0000 0.31195  0.94734  0.16784  Biso   1.000  H
  H278     1.0000 0.34229  0.97134  0.23834  Biso   1.000  H
  C281     1.0000 0.39980  0.91376  0.14015  Biso   1.000  C
  C282     1.0000 0.48338  0.90652  0.06233  Biso   1.000  C
  C283     1.0000 0.56945  0.90314  0.98171  Biso   1.000  C
  C284     1.0000 0.17985  0.61583  0.84284  Biso   1.000  C
  C285     1.0000 0.30926  0.71684  0.84563  Biso   1.000  C
  C286     1.0000 0.43595  0.82014  0.84284  Biso   1.000  C
  H279     1.0000 0.38138  0.93215  0.10882  Biso   1.000  H
  H280     1.0000 0.46856  0.93014  0.03265  Biso   1.000  H
  N71      1.0000 0.56104  0.94222  0.94221  Biso   1.000  N
  H281     1.0000 0.59927  0.88312  0.97085  Biso   1.000  H
  H282     1.0000 0.14746  0.56614  0.85271  Biso   1.000  H
  H283     1.0000 0.29257  0.75086  0.84704  Biso   1.000  H
  N72      1.0000 0.50179  0.84747  0.82928  Biso   1.000  N
  H284     1.0000 0.41868  0.85253  0.85271  Biso   1.000  H
  C287     1.0000 0.59929  0.95376  0.88163  Biso   1.000  C
  C288     1.0000 0.54568  0.92676  0.82734  Biso   1.000  C
  H285     1.0000 0.62685  0.92753  0.88182  Biso   1.000  H
  H286     1.0000 0.63432  0.00628  0.87592  Biso   1.000  H
  H287     1.0000 0.51357  0.94805  0.83022  Biso   1.000  H
  H288     1.0000 0.57238  0.94217  0.78670  Biso   1.000  H
