data_image0
_cell_length_a       21.216
_cell_length_b       21.216
_cell_length_c       21.163
_cell_angle_alpha    90
_cell_angle_beta     90
_cell_angle_gamma    120

_symmetry_space_group_name_H-M    "P 1"
_symmetry_int_tables_number       1

loop_
  _symmetry_equiv_pos_as_xyz
  'x, y, z'

loop_
  _atom_site_label
  _atom_site_occupancy
  _atom_site_fract_x
  _atom_site_fract_y
  _atom_site_fract_z
  _atom_site_thermal_displace_type
  _atom_site_B_iso_or_equiv
  _atom_site_type_symbol
  C1       1.0000 0.22517  0.44591  0.60303  Biso   1.000  C
  C2       1.0000 0.23758  0.42746  0.54435  Biso   1.000  C
  C3       1.0000 0.28238  0.48123  0.64561  Biso   1.000  C
  C4       1.0000 0.15037  0.42735  0.62104  Biso   1.000  C
  C5       1.0000 0.30748  0.44265  0.52601  Biso   1.000  C
  H1       1.0000 0.19830  0.40395  0.51543  Biso   1.000  H
  C6       1.0000 0.35237  0.49745  0.62855  Biso   1.000  C
  H2       1.0000 0.27366  0.49435  0.68624  Biso   1.000  H
  N1       1.0000 0.13069  0.42795  0.67703  Biso   1.000  N
  H3       1.0000 0.11525  0.41424  0.58843  Biso   1.000  H
  C7       1.0000 0.31788  0.42235  0.46184  Biso   1.000  C
  C8       1.0000 0.36439  0.47764  0.56835  Biso   1.000  C
  C9       1.0000 0.41260  0.53626  0.67363  Biso   1.000  C
  C10      1.0000 0.05455  0.40803  0.68804  Biso   1.000  C
  N2       1.0000 0.37846  0.43584  0.44072  Biso   1.000  N
  H4       1.0000 0.27655  0.39774  0.43515  Biso   1.000  H
  H5       1.0000 0.41189  0.48836  0.55663  Biso   1.000  H
  N3       1.0000 0.47348  0.53963  0.66753  Biso   1.000  N
  H6       1.0000 0.40538  0.55972  0.70883  Biso   1.000  H
  C11      1.0000 0.05125  0.47204  0.71634  Biso   1.000  C
  H7       1.0000 0.03147  0.36601  0.71724  Biso   1.000  H
  H8       1.0000 0.02746  0.39372  0.64764  Biso   1.000  H
  C12      1.0000 0.38148  0.41445  0.37603  Biso   1.000  C
  C13      1.0000 0.52799  0.57926  0.71634  Biso   1.000  C
  N4       1.0000 0.06614  0.52652  0.66753  Biso   1.000  N
  H9       1.0000 0.00237  0.45506  0.73463  Biso   1.000  H
  H10      1.0000 0.08756  0.49402  0.75074  Biso   1.000  H
  C14      1.0000 0.41847  0.48042  0.33374  Biso   1.000  C
  H11      1.0000 0.33136  0.38153  0.36053  Biso   1.000  H
  H12      1.0000 0.40845  0.38751  0.37471  Biso   1.000  H
  H13      1.0000 0.54499  0.54736  0.73463  Biso   1.000  H
  H14      1.0000 0.50594  0.59351  0.75074  Biso   1.000  H
  C15      1.0000 0.59198  0.64653  0.68804  Biso   1.000  C
  C16      1.0000 0.12365  0.58742  0.67363  Biso   1.000  C
  N5       1.0000 0.37597  0.51824  0.33233  Biso   1.000  N
  H15      1.0000 0.46818  0.51394  0.34971  Biso   1.000  H
  H16      1.0000 0.42276  0.46534  0.29041  Biso   1.000  H
  N6       1.0000 0.57206  0.70275  0.67703  Biso   1.000  N
  H17      1.0000 0.63397  0.66547  0.71724  Biso   1.000  H
  H18      1.0000 0.60627  0.63374  0.64764  Biso   1.000  H
  C17      1.0000 0.14507  0.64761  0.62855  Biso   1.000  C
  H19      1.0000 0.15437  0.59466  0.70883  Biso   1.000  H
  C18      1.0000 0.40765  0.58453  0.34031  Biso   1.000  C
  C19      1.0000 0.57269  0.72305  0.62104  Biso   1.000  C
  C20      1.0000 0.11326  0.63564  0.56835  Biso   1.000  C
  C21      1.0000 0.19886  0.71766  0.64561  Biso   1.000  C
  C22      1.0000 0.36907  0.62671  0.34045  Biso   1.000  C
  H20      1.0000 0.45885  0.60973  0.34674  Biso   1.000  H
  C23      1.0000 0.55406  0.77922  0.60303  Biso   1.000  C
  H21      1.0000 0.58578  0.70106  0.58843  Biso   1.000  H
  C24      1.0000 0.13514  0.69252  0.52601  Biso   1.000  C
  H22      1.0000 0.07644  0.58813  0.55663  Biso   1.000  H
  H23      1.0000 0.22067  0.72631  0.68624  Biso   1.000  H
  C25      1.0000 0.22076  0.77486  0.60303  Biso   1.000  C
  C26      1.0000 0.29298  0.59134  0.34055  Biso   1.000  C
  C27      1.0000 0.40866  0.70166  0.34055  Biso   1.000  C
  C28      1.0000 0.51879  0.80115  0.64561  Biso   1.000  C
  C29      1.0000 0.57258  0.81013  0.54435  Biso   1.000  C
  C30      1.0000 0.10445  0.68212  0.46184  Biso   1.000  C
  C31      1.0000 0.18986  0.76245  0.54435  Biso   1.000  C
  C32      1.0000 0.27696  0.84964  0.62104  Biso   1.000  C
  H24      1.0000 0.26547  0.53952  0.34074  Biso   1.000  H
  C33      1.0000 0.25769  0.63096  0.34045  Biso   1.000  C
  C34      1.0000 0.37328  0.74232  0.34045  Biso   1.000  C
  H25      1.0000 0.46049  0.72593  0.34074  Biso   1.000  H
  C35      1.0000 0.50255  0.85492  0.62855  Biso   1.000  C
  H26      1.0000 0.50566  0.77932  0.68624  Biso   1.000  H
  C36      1.0000 0.55737  0.86483  0.52601  Biso   1.000  C
  H27      1.0000 0.59608  0.79435  0.51543  Biso   1.000  H
  N7       1.0000 0.05738  0.62154  0.44072  Biso   1.000  N
  H28      1.0000 0.12114  0.72343  0.43515  Biso   1.000  H
  H29      1.0000 0.20569  0.80175  0.51543  Biso   1.000  H
  N8       1.0000 0.29728  0.86935  0.67703  Biso   1.000  N
  H30      1.0000 0.29899  0.88475  0.58843  Biso   1.000  H
  C37      1.0000 0.29838  0.70705  0.34055  Biso   1.000  C
  C38      1.0000 0.17686  0.59232  0.34031  Biso   1.000  C
  C39      1.0000 0.41548  0.82314  0.34031  Biso   1.000  C
  C40      1.0000 0.52238  0.88676  0.56835  Biso   1.000  C
  C41      1.0000 0.46378  0.87637  0.67363  Biso   1.000  C
  C42      1.0000 0.57766  0.89552  0.46184  Biso   1.000  C
  C43      1.0000 0.03297  0.61855  0.37603  Biso   1.000  C
  C44      1.0000 0.35347  0.94543  0.68804  Biso   1.000  C
  H31      1.0000 0.27408  0.73453  0.34074  Biso   1.000  H
  N9       1.0000 0.14229  0.62405  0.33233  Biso   1.000  N
  H32      1.0000 0.15086  0.54116  0.34674  Biso   1.000  H
  N10      1.0000 0.48176  0.85775  0.33233  Biso   1.000  N
  H33      1.0000 0.39026  0.84915  0.34674  Biso   1.000  H
  H34      1.0000 0.51169  0.92355  0.55663  Biso   1.000  H
  N11      1.0000 0.46037  0.93384  0.66753  Biso   1.000  N
  H35      1.0000 0.44025  0.84562  0.70883  Biso   1.000  H
  N12      1.0000 0.56418  0.94266  0.44072  Biso   1.000  N
  H36      1.0000 0.60226  0.87882  0.43515  Biso   1.000  H
  C45      1.0000 0.06198  0.58154  0.33374  Biso   1.000  C
  H37      1.0000 0.05014  0.66862  0.36053  Biso   1.000  H
  H38      1.0000 0.97908  0.59156  0.37471  Biso   1.000  H
  C46      1.0000 0.42078  0.94875  0.71634  Biso   1.000  C
  H39      1.0000 0.33458  0.96856  0.71724  Biso   1.000  H
  H40      1.0000 0.36626  0.97254  0.64764  Biso   1.000  H
  C47      1.0000 0.51954  0.93803  0.33374  Biso   1.000  C
  C48      1.0000 0.58557  0.96704  0.37603  Biso   1.000  C
  H41      1.0000 0.04576  0.53185  0.34971  Biso   1.000  H
  H42      1.0000 0.04258  0.57724  0.29041  Biso   1.000  H
  H43      1.0000 0.45267  0.99763  0.73463  Biso   1.000  H
  H44      1.0000 0.40645  0.91245  0.75074  Biso   1.000  H
  H45      1.0000 0.48608  0.95425  0.34971  Biso   1.000  H
  H46      1.0000 0.53468  0.95746  0.29041  Biso   1.000  H
  H47      1.0000 0.61849  0.94984  0.36053  Biso   1.000  H
  H48      1.0000 0.61246  0.02092  0.37471  Biso   1.000  H
  C49      1.0000 0.98954  0.26386  0.54118  Biso   1.000  C
  N13      1.0000 0.04387  0.24149  0.52975  Biso   1.000  N
  N14      1.0000 0.04384  0.24143  0.52975  Biso   1.000  N
  C50      1.0000 0.92025  0.19947  0.56736  Biso   1.000  C
  H49      1.0000 0.97867  0.28067  0.50116  Biso   1.000  H
  H50      1.0000 0.00896  0.30468  0.57166  Biso   1.000  H
  H51      1.0000 0.00891  0.30468  0.57166  Biso   1.000  H
  C51      1.0000 0.06647  0.24709  0.47347  Biso   1.000  C
  C52      1.0000 0.06644  0.24704  0.47347  Biso   1.000  C
  H52      1.0000 0.93214  0.17716  0.60318  Biso   1.000  H
  H53      1.0000 0.88683  0.21607  0.58276  Biso   1.000  H
  N15      1.0000 0.88561  0.14613  0.51618  Biso   1.000  N
  C53      1.0000 0.12075  0.22576  0.45466  Biso   1.000  C
  C54      1.0000 0.12070  0.22576  0.45466  Biso   1.000  C
  H54      1.0000 0.04804  0.26549  0.44214  Biso   1.000  H
  H55      1.0000 0.04802  0.26544  0.44214  Biso   1.000  H
  C55      1.0000 0.86805  0.08028  0.52937  Biso   1.000  C
  C56      1.0000 0.15005  0.23986  0.39564  Biso   1.000  C
  C57      1.0000 0.14142  0.19027  0.49875  Biso   1.000  C
  C58      1.0000 0.14147  0.19027  0.49875  Biso   1.000  C
  C59      1.0000 0.83023  0.02226  0.48197  Biso   1.000  C
  H56      1.0000 0.87945  0.06896  0.56967  Biso   1.000  H
  C60      1.0000 0.20143  0.22026  0.37788  Biso   1.000  C
  H57      1.0000 0.13523  0.26348  0.36597  Biso   1.000  H
  C61      1.0000 0.19206  0.16975  0.48197  Biso   1.000  C
  H58      1.0000 0.12104  0.18015  0.54005  Biso   1.000  H
  C62      1.0000 0.80972  0.95118  0.49875  Biso   1.000  C
  C63      1.0000 0.81585  0.03668  0.42234  Biso   1.000  C
  C64      1.0000 0.81583  0.03663  0.42234  Biso   1.000  C
  C65      1.0000 0.23617  0.23648  0.31508  Biso   1.000  C
  C66      1.0000 0.22086  0.18418  0.42234  Biso   1.000  C
  C67      1.0000 0.22081  0.18418  0.42234  Biso   1.000  C
  C68      1.0000 0.21222  0.13193  0.52937  Biso   1.000  C
  C69      1.0000 0.77421  0.89496  0.45466  Biso   1.000  C
  H59      1.0000 0.81983  0.94084  0.54005  Biso   1.000  H
  C70      1.0000 0.77975  0.98117  0.37788  Biso   1.000  C
  C71      1.0000 0.77971  0.98117  0.37788  Biso   1.000  C
  H60      1.0000 0.83072  0.08556  0.41095  Biso   1.000  H
  N16      1.0000 0.22771  0.27556  0.27558  Biso   1.000  N
  N17      1.0000 0.22776  0.27556  0.27558  Biso   1.000  N
  H61      1.0000 0.26594  0.21645  0.30416  Biso   1.000  H
  H62      1.0000 0.25483  0.16926  0.41095  Biso   1.000  H
  H63      1.0000 0.18952  0.12055  0.56967  Biso   1.000  H
  N18      1.0000 0.26051  0.11435  0.51618  Biso   1.000  N
  N19      1.0000 0.26056  0.11435  0.51618  Biso   1.000  N
  C72      1.0000 0.76012  0.91014  0.39564  Biso   1.000  C
  C73      1.0000 0.75296  0.81936  0.47347  Biso   1.000  C
  C74      1.0000 0.76355  0.99967  0.31508  Biso   1.000  C
  C75      1.0000 0.26593  0.28704  0.21495  Biso   1.000  C
  C76      1.0000 0.27921  0.07973  0.56736  Biso   1.000  C
  H64      1.0000 0.73656  0.87177  0.36597  Biso   1.000  H
  H65      1.0000 0.73651  0.87177  0.36597  Biso   1.000  H
  N20      1.0000 0.75856  0.80238  0.52975  Biso   1.000  N
  N21      1.0000 0.75849  0.80233  0.52975  Biso   1.000  N
  H66      1.0000 0.73456  0.78257  0.44214  Biso   1.000  H
  N22      1.0000 0.75853  0.80233  0.52975  Biso   1.000  N
  N23      1.0000 0.72443  0.95216  0.27558  Biso   1.000  N
  H67      1.0000 0.78355  0.04947  0.30416  Biso   1.000  H
  C77      1.0000 0.21232  0.26005  0.16066  Biso   1.000  C
  H68      1.0000 0.30091  0.33956  0.20928  Biso   1.000  H
  H69      1.0000 0.29356  0.26086  0.21519  Biso   1.000  H
  C78      1.0000 0.27431  0.01045  0.54118  Biso   1.000  C
  H70      1.0000 0.24505  0.06787  0.60318  Biso   1.000  H
  H71      1.0000 0.32925  0.11315  0.58276  Biso   1.000  H
  H72      1.0000 0.32920  0.11315  0.58276  Biso   1.000  H
  C79      1.0000 0.73612  0.72564  0.54118  Biso   1.000  C
  C80      1.0000 0.71295  0.97888  0.21495  Biso   1.000  C
  C81      1.0000 0.71292  0.97883  0.21495  Biso   1.000  C
  N24      1.0000 0.16843  0.18075  0.16264  Biso   1.000  N
  H73      1.0000 0.18024  0.28138  0.16359  Biso   1.000  H
  H74      1.0000 0.23902  0.27545  0.12007  Biso   1.000  H
  N25      1.0000 0.19764  0.95619  0.52975  Biso   1.000  N
  H75      1.0000 0.29574  0.99107  0.57166  Biso   1.000  H
  N26      1.0000 0.19762  0.95613  0.52975  Biso   1.000  N
  H76      1.0000 0.30203  0.02139  0.50116  Biso   1.000  H
  H77      1.0000 0.30200  0.02133  0.50116  Biso   1.000  H
  H78      1.0000 0.30208  0.02139  0.50116  Biso   1.000  H
  C82      1.0000 0.80051  0.72074  0.56736  Biso   1.000  C
  H79      1.0000 0.69531  0.70425  0.57166  Biso   1.000  H
  H80      1.0000 0.71930  0.69794  0.50116  Biso   1.000  H
  H81      1.0000 0.71938  0.69799  0.50116  Biso   1.000  H
  C83      1.0000 0.73994  0.95227  0.16066  Biso   1.000  C
  H82      1.0000 0.66045  0.96136  0.20928  Biso   1.000  H
  H83      1.0000 0.66040  0.96136  0.20928  Biso   1.000  H
  H84      1.0000 0.73913  0.03266  0.21519  Biso   1.000  H
  C84      1.0000 0.10262  0.15348  0.17616  Biso   1.000  C
  C85      1.0000 0.10266  0.15348  0.17616  Biso   1.000  C
  C86      1.0000 0.18062  0.93355  0.47347  Biso   1.000  C
  N27      1.0000 0.85385  0.73946  0.51618  Biso   1.000  N
  H85      1.0000 0.78392  0.67078  0.58276  Biso   1.000  H
  H86      1.0000 0.82281  0.75497  0.60318  Biso   1.000  H
  H87      1.0000 0.78397  0.67078  0.58276  Biso   1.000  H
  N28      1.0000 0.81924  0.98765  0.16264  Biso   1.000  N
  H88      1.0000 0.71862  0.89888  0.16359  Biso   1.000  H
  H89      1.0000 0.72454  0.96359  0.12007  Biso   1.000  H
  H90      1.0000 0.72451  0.96353  0.12007  Biso   1.000  H
  H91      1.0000 0.71867  0.89888  0.16359  Biso   1.000  H
  C87      1.0000 0.04974  0.07478  0.17786  Biso   1.000  C
  H92      1.0000 0.08534  0.18586  0.18608  Biso   1.000  H
  H93      1.0000 0.21744  0.95194  0.44214  Biso   1.000  H
  C88      1.0000 0.10501  0.87923  0.45466  Biso   1.000  C
  C89      1.0000 0.91970  0.78774  0.52937  Biso   1.000  C
  C90      1.0000 0.91975  0.78774  0.52937  Biso   1.000  C
  C91      1.0000 0.84652  0.94917  0.17616  Biso   1.000  C
  C92      1.0000 0.07425  0.02406  0.17894  Biso   1.000  C
  C93      1.0000 0.97593  0.05018  0.17894  Biso   1.000  C
  C94      1.0000 0.08980  0.84995  0.39564  Biso   1.000  C
  C95      1.0000 0.08985  0.84995  0.39564  Biso   1.000  C
  C96      1.0000 0.04885  0.85855  0.49875  Biso   1.000  C
  C97      1.0000 0.97773  0.80793  0.48197  Biso   1.000  C
  H94      1.0000 0.93100  0.81043  0.56967  Biso   1.000  H
  H95      1.0000 0.93107  0.81049  0.56967  Biso   1.000  H
  C98      1.0000 0.92522  0.97496  0.17786  Biso   1.000  C
  H96      1.0000 0.81413  0.89948  0.18608  Biso   1.000  H
  H97      1.0000 0.12493  0.04077  0.18036  Biso   1.000  H
  C99      1.0000 0.02504  0.95025  0.17786  Biso   1.000  C
  H98      1.0000 0.95921  0.08414  0.18036  Biso   1.000  H
  C100     1.0000 0.01886  0.79857  0.37788  Biso   1.000  C
  H99      1.0000 0.12822  0.86475  0.36597  Biso   1.000  H
  H100     1.0000 0.05915  0.87896  0.54005  Biso   1.000  H
  H101     1.0000 0.05911  0.87896  0.54005  Biso   1.000  H
  C101     1.0000 0.96333  0.77914  0.42234  Biso   1.000  C
  C102     1.0000 0.94983  0.92576  0.17894  Biso   1.000  C
  C103     1.0000 0.05082  0.89735  0.17616  Biso   1.000  C
  C104     1.0000 0.00032  0.76385  0.31508  Biso   1.000  C
  H102     1.0000 0.91444  0.74518  0.41095  Biso   1.000  H
  H103     1.0000 0.91584  0.87504  0.18036  Biso   1.000  H
  H104     1.0000 0.10052  0.91466  0.18608  Biso   1.000  H
  N29      1.0000 0.01235  0.83155  0.16264  Biso   1.000  N
  N30      1.0000 0.04783  0.77223  0.27558  Biso   1.000  N
  H105     1.0000 0.95056  0.73407  0.30416  Biso   1.000  H
  H106     1.0000 0.95051  0.73407  0.30416  Biso   1.000  H
  C105     1.0000 0.04774  0.78768  0.16066  Biso   1.000  C
  C106     1.0000 0.04771  0.78763  0.16066  Biso   1.000  C
  C107     1.0000 0.02117  0.73407  0.21495  Biso   1.000  C
  H107     1.0000 0.03645  0.76096  0.12007  Biso   1.000  H
  H108     1.0000 0.10109  0.81974  0.16359  Biso   1.000  H
  H109     1.0000 0.96735  0.70648  0.21519  Biso   1.000  H
  H110     1.0000 0.96733  0.70643  0.21519  Biso   1.000  H
  H111     1.0000 0.03864  0.69908  0.20928  Biso   1.000  H
  H112     1.0000 0.03861  0.69902  0.20928  Biso   1.000  H
  C108     1.0000 0.37960  0.31219  0.54832  Biso   1.000  C
  C109     1.0000 0.40662  0.28563  0.49398  Biso   1.000  C
  N31      1.0000 0.39111  0.28552  0.60889  Biso   1.000  N
  H113     1.0000 0.40581  0.36601  0.54850  Biso   1.000  H
  H114     1.0000 0.32713  0.29472  0.54260  Biso   1.000  H
  N32      1.0000 0.48592  0.32100  0.49596  Biso   1.000  N
  H115     1.0000 0.38527  0.23218  0.49690  Biso   1.000  H
  H116     1.0000 0.39119  0.29689  0.45339  Biso   1.000  H
  C110     1.0000 0.43020  0.33298  0.64840  Biso   1.000  C
  C111     1.0000 0.51320  0.28253  0.50947  Biso   1.000  C
  H117     1.0000 0.45020  0.38278  0.63748  Biso   1.000  H
  C112     1.0000 0.44643  0.31453  0.71119  Biso   1.000  C
  C113     1.0000 0.59190  0.30832  0.51118  Biso   1.000  C
  H118     1.0000 0.48078  0.23278  0.51940  Biso   1.000  H
  C114     1.0000 0.42680  0.24350  0.72901  Biso   1.000  C
  C115     1.0000 0.48251  0.36999  0.75571  Biso   1.000  C
  C116     1.0000 0.64258  0.38349  0.51231  Biso   1.000  C
  C117     1.0000 0.61650  0.25912  0.51231  Biso   1.000  C
  H119     1.0000 0.40321  0.20508  0.69929  Biso   1.000  H
  C118     1.0000 0.44089  0.22832  0.78798  Biso   1.000  C
  C119     1.0000 0.49691  0.35562  0.81529  Biso   1.000  C
  H120     1.0000 0.49740  0.41892  0.74427  Biso   1.000  H
  H121     1.0000 0.62589  0.41750  0.51368  Biso   1.000  H
  C120     1.0000 0.71639  0.40809  0.51118  Biso   1.000  C
  H122     1.0000 0.58252  0.20840  0.51368  Biso   1.000  H
  C121     1.0000 0.69172  0.28361  0.51118  Biso   1.000  C
  C122     1.0000 0.47638  0.28448  0.83211  Biso   1.000  C
  C123     1.0000 0.41959  0.15272  0.80679  Biso   1.000  C
  C124     1.0000 0.53470  0.41358  0.86268  Biso   1.000  C
  C125     1.0000 0.76932  0.48679  0.50947  Biso   1.000  C
  C126     1.0000 0.74092  0.35742  0.51231  Biso   1.000  C
  C127     1.0000 0.71750  0.23071  0.50947  Biso   1.000  C
  H123     1.0000 0.48651  0.27420  0.87341  Biso   1.000  H
  N33      1.0000 0.42521  0.13568  0.86311  Biso   1.000  N
  H124     1.0000 0.40120  0.11593  0.77550  Biso   1.000  H
  N34      1.0000 0.55229  0.47949  0.84950  Biso   1.000  N
  H125     1.0000 0.54613  0.40232  0.90299  Biso   1.000  H
  N35      1.0000 0.83511  0.51411  0.49596  Biso   1.000  N
  H126     1.0000 0.75202  0.51922  0.51940  Biso   1.000  H
  H127     1.0000 0.79161  0.37412  0.51368  Biso   1.000  H
  N36      1.0000 0.67903  0.16491  0.49596  Biso   1.000  N
  H128     1.0000 0.76720  0.24802  0.51940  Biso   1.000  H
  C128     1.0000 0.40280  0.05900  0.87450  Biso   1.000  C
  C129     1.0000 0.58693  0.53283  0.90068  Biso   1.000  C
  C130     1.0000 0.87900  0.59341  0.49398  Biso   1.000  C
  C131     1.0000 0.71439  0.12099  0.49398  Biso   1.000  C
  H129     1.0000 0.38598  0.03129  0.83448  Biso   1.000  H
  H130     1.0000 0.36199  0.03761  0.90498  Biso   1.000  H
  C132     1.0000 0.46719  0.05410  0.90068  Biso   1.000  C
  C133     1.0000 0.65622  0.59722  0.87450  Biso   1.000  C
  H131     1.0000 0.59882  0.51052  0.93649  Biso   1.000  H
  H132     1.0000 0.55351  0.54943  0.91608  Biso   1.000  H
  H133     1.0000 0.84689  0.61469  0.49690  Biso   1.000  H
  H134     1.0000 0.90570  0.60881  0.45339  Biso   1.000  H
  C134     1.0000 0.93261  0.62040  0.54832  Biso   1.000  C
  H135     1.0000 0.76782  0.15310  0.49690  Biso   1.000  H
  H136     1.0000 0.70313  0.09432  0.45339  Biso   1.000  H
  C135     1.0000 0.68782  0.06738  0.54832  Biso   1.000  C
  N37      1.0000 0.52053  0.07282  0.84950  Biso   1.000  N
  H137     1.0000 0.48951  0.08828  0.93649  Biso   1.000  H
  H138     1.0000 0.45062  0.00408  0.91608  Biso   1.000  H
  N38      1.0000 0.71052  0.57479  0.86311  Biso   1.000  N
  H139     1.0000 0.64527  0.61398  0.83448  Biso   1.000  H
  H140     1.0000 0.67561  0.63798  0.90498  Biso   1.000  H
  N39      1.0000 0.89439  0.60892  0.60889  Biso   1.000  N
  H141     1.0000 0.96020  0.59422  0.54850  Biso   1.000  H
  H142     1.0000 0.96764  0.67292  0.54260  Biso   1.000  H
  N40      1.0000 0.71451  0.10559  0.60889  Biso   1.000  N
  H143     1.0000 0.63400  0.03979  0.54850  Biso   1.000  H
  H144     1.0000 0.70529  0.03238  0.54260  Biso   1.000  H
  C136     1.0000 0.58643  0.12110  0.86268  Biso   1.000  C
  C137     1.0000 0.73312  0.58040  0.80679  Biso   1.000  C
  C138     1.0000 0.90278  0.56979  0.64840  Biso   1.000  C
  C139     1.0000 0.66700  0.09720  0.64840  Biso   1.000  C
  C140     1.0000 0.64441  0.14129  0.81529  Biso   1.000  C
  H145     1.0000 0.59768  0.14379  0.90299  Biso   1.000  H
  C141     1.0000 0.78743  0.55912  0.78798  Biso   1.000  C
  H146     1.0000 0.71470  0.59879  0.77550  Biso   1.000  H
  H147     1.0000 0.93262  0.54981  0.63748  Biso   1.000  H
  C142     1.0000 0.86811  0.55362  0.71119  Biso   1.000  C
  H148     1.0000 0.61721  0.06738  0.63748  Biso   1.000  H
  C143     1.0000 0.68550  0.13193  0.71119  Biso   1.000  C
  C144     1.0000 0.63001  0.11250  0.75571  Biso   1.000  C
  C145     1.0000 0.71549  0.19191  0.83211  Biso   1.000  C
  C146     1.0000 0.81673  0.57321  0.72901  Biso   1.000  C
  C147     1.0000 0.80810  0.52363  0.83211  Biso   1.000  C
  C148     1.0000 0.88751  0.51748  0.75571  Biso   1.000  C
  C149     1.0000 0.75653  0.18331  0.72901  Biso   1.000  C
  H149     1.0000 0.58110  0.07848  0.74427  Biso   1.000  H
  C150     1.0000 0.77169  0.21259  0.78798  Biso   1.000  C
  H150     1.0000 0.72583  0.21232  0.87341  Biso   1.000  H
  H151     1.0000 0.80188  0.59678  0.69929  Biso   1.000  H
  C151     1.0000 0.85869  0.50311  0.81529  Biso   1.000  C
  H152     1.0000 0.78772  0.51351  0.87341  Biso   1.000  H
  H153     1.0000 0.92151  0.50262  0.74427  Biso   1.000  H
  H154     1.0000 0.79490  0.19811  0.69929  Biso   1.000  H
  C152     1.0000 0.84730  0.26690  0.80679  Biso   1.000  C
  C153     1.0000 0.87890  0.46529  0.86268  Biso   1.000  C
  N41      1.0000 0.86430  0.28949  0.86311  Biso   1.000  N
  H155     1.0000 0.88412  0.28530  0.77550  Biso   1.000  H
  N42      1.0000 0.92719  0.44771  0.84950  Biso   1.000  N
  H156     1.0000 0.85620  0.45391  0.90299  Biso   1.000  H
  C154     1.0000 0.94099  0.34381  0.87450  Biso   1.000  C
  C155     1.0000 0.94589  0.41309  0.90068  Biso   1.000  C
  H157     1.0000 0.96868  0.35469  0.83448  Biso   1.000  H
  H158     1.0000 0.96239  0.32438  0.90498  Biso   1.000  H
  H159     1.0000 0.91173  0.40123  0.93649  Biso   1.000  H
  H160     1.0000 0.99593  0.44651  0.91608  Biso   1.000  H
  C156     1.0000 0.13387  0.38746  0.23404  Biso   1.000  C
  N43      1.0000 0.18718  0.40613  0.18282  Biso   1.000  N
  C157     1.0000 0.06948  0.39236  0.20782  Biso   1.000  C
  H161     1.0000 0.15619  0.42164  0.26981  Biso   1.000  H
  H162     1.0000 0.11725  0.33744  0.24944  Biso   1.000  H
  C158     1.0000 0.25306  0.45446  0.19605  Biso   1.000  C
  N44      1.0000 0.09189  0.46904  0.19643  Biso   1.000  N
  H163     1.0000 0.05266  0.36465  0.16784  Biso   1.000  H
  H164     1.0000 0.02864  0.37091  0.23834  Biso   1.000  H
  C159     1.0000 0.31109  0.47465  0.14861  Biso   1.000  C
  H165     1.0000 0.26436  0.47715  0.23631  Biso   1.000  H
  C160     1.0000 0.08624  0.48602  0.14015  Biso   1.000  C
  C161     1.0000 0.38216  0.52526  0.16543  Biso   1.000  C
  C162     1.0000 0.29669  0.44586  0.08902  Biso   1.000  C
  C163     1.0000 0.10755  0.56162  0.12134  Biso   1.000  C
  H166     1.0000 0.06785  0.44923  0.10882  Biso   1.000  H
  C164     1.0000 0.43837  0.54595  0.12134  Biso   1.000  C
  H167     1.0000 0.39248  0.54562  0.20673  Biso   1.000  H
  C165     1.0000 0.35215  0.46523  0.04451  Biso   1.000  C
  H168     1.0000 0.24778  0.41184  0.07764  Biso   1.000  H
  C166     1.0000 0.09348  0.57686  0.06233  Biso   1.000  C
  C167     1.0000 0.14306  0.61784  0.16543  Biso   1.000  C
  C168     1.0000 0.42316  0.51667  0.06233  Biso   1.000  C
  C169     1.0000 0.51398  0.60026  0.14015  Biso   1.000  C
  C170     1.0000 0.33368  0.43056  0.98171  Biso   1.000  C
  C171     1.0000 0.11308  0.64783  0.04451  Biso   1.000  C
  H169     1.0000 0.06989  0.53844  0.03265  Biso   1.000  H
  H170     1.0000 0.15318  0.60756  0.20673  Biso   1.000  H
  C172     1.0000 0.16356  0.68892  0.14861  Biso   1.000  C
  H171     1.0000 0.46155  0.53141  0.03265  Biso   1.000  H
  N45      1.0000 0.53098  0.62285  0.19643  Biso   1.000  N
  H172     1.0000 0.55080  0.61866  0.10882  Biso   1.000  H
  N46      1.0000 0.38119  0.43895  0.94221  Biso   1.000  N
  H173     1.0000 0.28389  0.40074  0.97085  Biso   1.000  H
  C173     1.0000 0.14918  0.70335  0.08902  Biso   1.000  C
  C174     1.0000 0.09688  0.66634  0.98171  Biso   1.000  C
  C175     1.0000 0.20138  0.74694  0.19605  Biso   1.000  C
  C176     1.0000 0.60765  0.67711  0.20782  Biso   1.000  C
  C177     1.0000 0.35445  0.40074  0.88163  Biso   1.000  C
  H174     1.0000 0.16405  0.75222  0.07764  Biso   1.000  H
  N47      1.0000 0.05776  0.61882  0.94221  Biso   1.000  N
  H175     1.0000 0.11688  0.71614  0.97085  Biso   1.000  H
  N48      1.0000 0.21897  0.81285  0.18282  Biso   1.000  N
  H176     1.0000 0.21274  0.73562  0.23631  Biso   1.000  H
  H177     1.0000 0.63536  0.68805  0.16784  Biso   1.000  H
  H178     1.0000 0.62907  0.65774  0.23834  Biso   1.000  H
  C178     1.0000 0.61257  0.74645  0.23404  Biso   1.000  C
  C179     1.0000 0.38107  0.45435  0.82734  Biso   1.000  C
  H179     1.0000 0.30068  0.37314  0.88182  Biso   1.000  H
  H180     1.0000 0.37197  0.36574  0.87592  Biso   1.000  H
  C180     1.0000 0.04628  0.64555  0.88163  Biso   1.000  C
  C181     1.0000 0.25358  0.86613  0.23404  Biso   1.000  C
  N49      1.0000 0.59387  0.78107  0.18282  Biso   1.000  N
  H181     1.0000 0.57838  0.73453  0.26981  Biso   1.000  H
  H182     1.0000 0.66258  0.77981  0.24944  Biso   1.000  H
  N50      1.0000 0.34564  0.49821  0.82932  Biso   1.000  N
  H183     1.0000 0.43450  0.48646  0.83022  Biso   1.000  H
  H184     1.0000 0.36978  0.42762  0.78675  Biso   1.000  H
  H185     1.0000 0.99378  0.62802  0.87592  Biso   1.000  H
  C182     1.0000 0.07328  0.61893  0.82734  Biso   1.000  C
  H186     1.0000 0.07246  0.69932  0.88182  Biso   1.000  H
  C183     1.0000 0.32287  0.93052  0.20782  Biso   1.000  C
  H187     1.0000 0.26547  0.84382  0.26981  Biso   1.000  H
  H188     1.0000 0.22017  0.88273  0.24944  Biso   1.000  H
  C184     1.0000 0.54558  0.79865  0.19605  Biso   1.000  C
  C185     1.0000 0.38415  0.56402  0.84284  Biso   1.000  C
  N51      1.0000 0.15260  0.65436  0.82932  Biso   1.000  N
  H189     1.0000 0.05195  0.56554  0.83022  Biso   1.000  H
  H190     1.0000 0.05787  0.63025  0.78675  Biso   1.000  H
  N52      1.0000 0.37715  0.90815  0.19643  Biso   1.000  N
  H191     1.0000 0.31195  0.94734  0.16784  Biso   1.000  H
  H192     1.0000 0.34229  0.97134  0.23834  Biso   1.000  H
  C186     1.0000 0.52534  0.83642  0.14861  Biso   1.000  C
  H193     1.0000 0.52285  0.78722  0.23631  Biso   1.000  H
  C187     1.0000 0.35837  0.61692  0.84454  Biso   1.000  C
  H194     1.0000 0.43386  0.58132  0.85271  Biso   1.000  H
  C188     1.0000 0.17985  0.61583  0.84284  Biso   1.000  C
  C189     1.0000 0.39980  0.91376  0.14015  Biso   1.000  C
  C190     1.0000 0.47475  0.85694  0.16543  Biso   1.000  C
  C191     1.0000 0.55419  0.85084  0.08902  Biso   1.000  C
  C192     1.0000 0.28316  0.59243  0.84563  Biso   1.000  C
  C193     1.0000 0.40758  0.69072  0.84563  Biso   1.000  C
  C194     1.0000 0.25855  0.64163  0.84454  Biso   1.000  C
  H195     1.0000 0.14746  0.56614  0.85271  Biso   1.000  H
  C195     1.0000 0.45408  0.89242  0.12134  Biso   1.000  C
  H196     1.0000 0.38138  0.93215  0.10882  Biso   1.000  H
  H197     1.0000 0.45440  0.84687  0.20673  Biso   1.000  H
  C196     1.0000 0.53476  0.88692  0.04451  Biso   1.000  C
  H198     1.0000 0.58817  0.83593  0.07764  Biso   1.000  H
  H199     1.0000 0.24920  0.54176  0.84704  Biso   1.000  H
  C197     1.0000 0.38307  0.74144  0.84454  Biso   1.000  C
  H200     1.0000 0.45826  0.70743  0.84704  Biso   1.000  H
  C198     1.0000 0.30926  0.71684  0.84563  Biso   1.000  C
  C199     1.0000 0.48338  0.90652  0.06233  Biso   1.000  C
  C200     1.0000 0.56945  0.90314  0.98171  Biso   1.000  C
  C201     1.0000 0.43595  0.82014  0.84284  Biso   1.000  C
  H201     1.0000 0.29257  0.75086  0.84704  Biso   1.000  H
  H202     1.0000 0.46856  0.93014  0.03265  Biso   1.000  H
  N53      1.0000 0.56104  0.94222  0.94221  Biso   1.000  N
  H203     1.0000 0.59927  0.88312  0.97085  Biso   1.000  H
  N54      1.0000 0.50179  0.84747  0.82932  Biso   1.000  N
  H204     1.0000 0.41868  0.85253  0.85271  Biso   1.000  H
  C202     1.0000 0.59929  0.95376  0.88163  Biso   1.000  C
  C203     1.0000 0.54568  0.92676  0.82734  Biso   1.000  C
  H205     1.0000 0.62685  0.92753  0.88182  Biso   1.000  H
  H206     1.0000 0.63429  0.00623  0.87592  Biso   1.000  H
  H207     1.0000 0.51357  0.94805  0.83022  Biso   1.000  H
  H208     1.0000 0.57238  0.94217  0.78675  Biso   1.000  H
  C204     1.0000 0.08515  0.81378  0.66706  Biso   1.000  C
  H209     1.0000 0.07513  0.72087  0.70808  Biso   1.000  H
  H210     1.0000 0.99804  0.71488  0.69385  Biso   1.000  H
  N55      1.0000 0.04511  0.76915  0.77404  Biso   1.000  N
  H211     1.0000 0.08944  0.79870  0.62378  Biso   1.000  H
  C205     1.0000 0.04816  0.74781  0.70935  Biso   1.000  C
  N56      1.0000 0.04262  0.85155  0.66564  Biso   1.000  N
  H212     1.0000 0.13483  0.84725  0.68308  Biso   1.000  H
  C206     1.0000 0.98454  0.75565  0.79516  Biso   1.000  C
  C207     1.0000 0.07438  0.91789  0.67368  Biso   1.000  C
  H213     1.0000 0.94320  0.73105  0.76846  Biso   1.000  H
  C208     1.0000 0.97414  0.77595  0.85938  Biso   1.000  C
  H214     1.0000 0.94325  0.73105  0.76846  Biso   1.000  H
  C209     1.0000 0.03575  0.96007  0.67377  Biso   1.000  C
  H215     1.0000 0.12553  0.94309  0.68005  Biso   1.000  H
  C210     1.0000 0.03107  0.81100  0.90167  Biso   1.000  C
  C211     1.0000 0.90423  0.76077  0.87766  Biso   1.000  C
  C212     1.0000 0.95966  0.92470  0.67386  Biso   1.000  C
  C213     1.0000 0.07536  0.03496  0.67386  Biso   1.000  C
  H216     1.0000 0.07854  0.82167  0.88995  Biso   1.000  H
  C214     1.0000 0.01905  0.83081  0.96187  Biso   1.000  C
  C215     1.0000 0.01903  0.83076  0.96187  Biso   1.000  C
  C216     1.0000 0.89185  0.77927  0.93635  Biso   1.000  C
  H217     1.0000 0.86498  0.73731  0.84875  Biso   1.000  H
  H218     1.0000 0.86495  0.73725  0.84875  Biso   1.000  H
  H219     1.0000 0.93215  0.87288  0.67405  Biso   1.000  H
  C217     1.0000 0.92435  0.96426  0.67377  Biso   1.000  C
  C218     1.0000 0.03991  0.07567  0.67377  Biso   1.000  C
  H220     1.0000 0.12712  0.05929  0.67405  Biso   1.000  H
  C219     1.0000 0.94906  0.81459  0.97897  Biso   1.000  C
  C220     1.0000 0.07925  0.86956  0.00695  Biso   1.000  C
  C221     1.0000 0.81703  0.76066  0.95435  Biso   1.000  C
  C222     1.0000 0.84354  0.92568  0.67368  Biso   1.000  C
  C223     1.0000 0.96506  0.04041  0.67386  Biso   1.000  C
  C224     1.0000 0.96503  0.04035  0.67386  Biso   1.000  C
  C225     1.0000 0.08216  0.15650  0.67368  Biso   1.000  C
  H221     1.0000 0.94032  0.82766  0.01956  Biso   1.000  H
  N57      1.0000 0.14016  0.87299  0.00085  Biso   1.000  N
  H222     1.0000 0.07206  0.89308  0.04215  Biso   1.000  H
  H223     1.0000 0.78193  0.74759  0.92175  Biso   1.000  H
  N58      1.0000 0.79734  0.76126  0.01035  Biso   1.000  N
  N59      1.0000 0.80897  0.95741  0.66564  Biso   1.000  N
  N60      1.0000 0.80890  0.95735  0.66564  Biso   1.000  N
  H224     1.0000 0.81756  0.87446  0.68005  Biso   1.000  H
  N61      1.0000 0.80895  0.95735  0.66564  Biso   1.000  N
  H225     1.0000 0.94076  0.06789  0.67405  Biso   1.000  H
  N62      1.0000 0.14844  0.19111  0.66564  Biso   1.000  N
  H226     1.0000 0.05694  0.18251  0.68005  Biso   1.000  H
  N63      1.0000 0.14841  0.19106  0.66564  Biso   1.000  N
  H227     1.0000 0.05692  0.18246  0.68005  Biso   1.000  H
  N64      1.0000 0.14849  0.19111  0.66564  Biso   1.000  N
  C226     1.0000 0.19466  0.91261  0.04966  Biso   1.000  C
  C227     1.0000 0.19464  0.91256  0.04966  Biso   1.000  C
  C228     1.0000 0.72123  0.74139  0.02136  Biso   1.000  C
  C229     1.0000 0.72866  0.91490  0.66706  Biso   1.000  C
  C230     1.0000 0.18627  0.27139  0.66706  Biso   1.000  C
  H228     1.0000 0.21164  0.88067  0.06795  Biso   1.000  H
  H229     1.0000 0.17262  0.92687  0.08406  Biso   1.000  H
  C231     1.0000 0.25865  0.97988  0.02136  Biso   1.000  C
  H230     1.0000 0.17267  0.92687  0.08406  Biso   1.000  H
  H231     1.0000 0.69414  0.72708  0.98096  Biso   1.000  H
  C232     1.0000 0.71793  0.80539  0.04966  Biso   1.000  C
  H232     1.0000 0.69815  0.69937  0.05056  Biso   1.000  H
  C233     1.0000 0.71798  0.80539  0.04966  Biso   1.000  C
  H233     1.0000 0.70926  0.91060  0.62378  Biso   1.000  H
  H234     1.0000 0.71241  0.86515  0.68308  Biso   1.000  H
  C234     1.0000 0.69963  0.95186  0.70935  Biso   1.000  C
  H235     1.0000 0.15276  0.28761  0.68308  Biso   1.000  H
  H236     1.0000 0.20133  0.29077  0.62378  Biso   1.000  H
  C235     1.0000 0.25225  0.30040  0.70935  Biso   1.000  C
  H237     1.0000 0.15273  0.28755  0.68308  Biso   1.000  H
  H238     1.0000 0.27295  0.96709  0.98096  Biso   1.000  H
  H239     1.0000 0.30067  0.99877  0.05056  Biso   1.000  H
  N65      1.0000 0.23871  0.03605  0.01035  Biso   1.000  N
  N66      1.0000 0.23876  0.03605  0.01035  Biso   1.000  N
  N67      1.0000 0.73282  0.85988  0.00085  Biso   1.000  N
  H240     1.0000 0.66902  0.78836  0.06795  Biso   1.000  H
  H241     1.0000 0.75424  0.82738  0.08406  Biso   1.000  H
  N68      1.0000 0.72406  0.95490  0.77404  Biso   1.000  N
  H242     1.0000 0.64576  0.92491  0.70808  Biso   1.000  H
  N69      1.0000 0.72403  0.95485  0.77404  Biso   1.000  N
  H243     1.0000 0.64573  0.92486  0.70808  Biso   1.000  H
  H244     1.0000 0.71682  0.00198  0.69385  Biso   1.000  H
  H245     1.0000 0.71687  0.00198  0.69385  Biso   1.000  H
  N70      1.0000 0.23086  0.27602  0.77404  Biso   1.000  N
  H246     1.0000 0.27914  0.35428  0.70808  Biso   1.000  H
  N71      1.0000 0.23084  0.27596  0.77404  Biso   1.000  N
  H247     1.0000 0.28512  0.28320  0.69385  Biso   1.000  H
  C236     1.0000 0.23937  0.05641  0.95435  Biso   1.000  C
  C237     1.0000 0.23934  0.05635  0.95435  Biso   1.000  C
  C238     1.0000 0.79033  0.92078  0.00695  Biso   1.000  C
  C239     1.0000 0.77113  0.01548  0.79516  Biso   1.000  C
  C240     1.0000 0.24434  0.22888  0.79516  Biso   1.000  C
  C241     1.0000 0.22074  0.11257  0.93635  Biso   1.000  C
  H248     1.0000 0.25243  0.03436  0.92175  Biso   1.000  H
  C242     1.0000 0.81175  0.98097  0.96187  Biso   1.000  C
  H249     1.0000 0.82102  0.92796  0.04215  Biso   1.000  H
  C243     1.0000 0.80182  0.02587  0.85938  Biso   1.000  C
  H250     1.0000 0.78787  0.05679  0.76846  Biso   1.000  H
  H251     1.0000 0.26894  0.21217  0.76846  Biso   1.000  H
  C244     1.0000 0.22405  0.19819  0.85938  Biso   1.000  C
  C245     1.0000 0.23926  0.14349  0.87766  Biso   1.000  C
  C246     1.0000 0.18544  0.13445  0.97897  Biso   1.000  C
  C247     1.0000 0.77994  0.96900  0.90167  Biso   1.000  C
  C248     1.0000 0.86551  0.05096  0.97897  Biso   1.000  C
  C249     1.0000 0.86556  0.05096  0.97897  Biso   1.000  C
  C250     1.0000 0.85654  0.09581  0.87766  Biso   1.000  C
  C251     1.0000 0.85651  0.09576  0.87766  Biso   1.000  C
  C252     1.0000 0.18903  0.22007  0.90167  Biso   1.000  C
  H252     1.0000 0.26273  0.12765  0.84875  Biso   1.000  H
  C253     1.0000 0.16923  0.18828  0.96187  Biso   1.000  C
  C254     1.0000 0.16927  0.18828  0.96187  Biso   1.000  C
  H253     1.0000 0.17234  0.11268  0.01956  Biso   1.000  H
  H254     1.0000 0.74317  0.92149  0.88995  Biso   1.000  H
  C255     1.0000 0.88746  0.10817  0.93635  Biso   1.000  C
  H255     1.0000 0.88735  0.05967  0.01956  Biso   1.000  H
  H256     1.0000 0.87237  0.13511  0.84875  Biso   1.000  H
  H257     1.0000 0.87234  0.13505  0.84875  Biso   1.000  H
  H258     1.0000 0.17837  0.25691  0.88995  Biso   1.000  H
  H259     1.0000 0.17834  0.25686  0.88995  Biso   1.000  H
  C256     1.0000 0.13043  0.20967  0.00695  Biso   1.000  C
  C257     1.0000 0.94364  0.18300  0.95435  Biso   1.000  C
  N72      1.0000 0.12705  0.26720  0.00085  Biso   1.000  N
  H260     1.0000 0.10693  0.17897  0.04215  Biso   1.000  H
  H261     1.0000 0.96567  0.21811  0.92175  Biso   1.000  H
  H262     1.0000 0.96564  0.21805  0.92175  Biso   1.000  H
  N73      1.0000 0.96396  0.20270  0.01035  Biso   1.000  N
  C258     1.0000 0.08744  0.28206  0.04966  Biso   1.000  C
  C259     1.0000 0.02015  0.27879  0.02136  Biso   1.000  C
  H263     1.0000 0.11935  0.33099  0.06795  Biso   1.000  H
  H264     1.0000 0.07318  0.24581  0.08406  Biso   1.000  H
  H265     1.0000 0.07315  0.24576  0.08406  Biso   1.000  H
  H266     1.0000 0.03294  0.30590  0.98096  Biso   1.000  H
  H267     1.0000 0.00124  0.30187  0.05056  Biso   1.000  H
  N74      1.0000 0.63060  0.53599  0.34371  Biso   1.000  N
  C260     1.0000 0.61028  0.51628  0.28772  Biso   1.000  C
  C261     1.0000 0.68681  0.61213  0.35468  Biso   1.000  C
  C262     1.0000 0.55408  0.44150  0.26972  Biso   1.000  C
  H268     1.0000 0.63231  0.55139  0.25512  Biso   1.000  H
  C263     1.0000 0.75411  0.61539  0.38298  Biso   1.000  C
  H269     1.0000 0.66790  0.63521  0.38388  Biso   1.000  H
  H270     1.0000 0.69961  0.63923  0.31427  Biso   1.000  H
  C264     1.0000 0.52318  0.42909  0.21098  Biso   1.000  C
  C265     1.0000 0.53222  0.38430  0.31229  Biso   1.000  C
  N75      1.0000 0.79369  0.60048  0.33422  Biso   1.000  N
  H271     1.0000 0.78602  0.66432  0.40131  Biso   1.000  H
  H272     1.0000 0.73982  0.57909  0.41738  Biso   1.000  H
  C266     1.0000 0.46849  0.35921  0.19269  Biso   1.000  C
  H273     1.0000 0.53901  0.46839  0.18211  Biso   1.000  H
  C267     1.0000 0.47842  0.31431  0.29518  Biso   1.000  C
  H274     1.0000 0.55402  0.39301  0.35288  Biso   1.000  H
  C268     1.0000 0.79710  0.54301  0.34031  Biso   1.000  C
  C269     1.0000 0.44658  0.30228  0.23499  Biso   1.000  C
  C270     1.0000 0.43779  0.34882  0.12848  Biso   1.000  C
  C271     1.0000 0.45700  0.25411  0.34031  Biso   1.000  C
  C272     1.0000 0.83589  0.52162  0.29518  Biso   1.000  C
  H275     1.0000 0.77360  0.51231  0.37551  Biso   1.000  H
  H276     1.0000 0.40979  0.25482  0.22331  Biso   1.000  H
  N76      1.0000 0.39070  0.28819  0.10740  Biso   1.000  N
  H277     1.0000 0.45454  0.39013  0.10178  Biso   1.000  H
  N77      1.0000 0.39949  0.19321  0.33422  Biso   1.000  N
  H278     1.0000 0.48769  0.26130  0.37551  Biso   1.000  H
  C273     1.0000 0.85570  0.55340  0.23499  Biso   1.000  C
  C274     1.0000 0.85211  0.46779  0.31229  Biso   1.000  C
  C275     1.0000 0.36630  0.28519  0.04272  Biso   1.000  C
  C276     1.0000 0.38457  0.13868  0.38298  Biso   1.000  C
  C277     1.0000 0.89071  0.53152  0.19269  Biso   1.000  C
  H279     1.0000 0.84501  0.59019  0.22331  Biso   1.000  H
  H280     1.0000 0.83901  0.44602  0.35288  Biso   1.000  H
  C278     1.0000 0.88741  0.44591  0.26972  Biso   1.000  C
  C279     1.0000 0.39530  0.24818  0.00038  Biso   1.000  C
  H281     1.0000 0.38353  0.33532  0.02722  Biso   1.000  H
  H282     1.0000 0.31240  0.25820  0.04139  Biso   1.000  H
  H283     1.0000 0.33569  0.12170  0.40131  Biso   1.000  H
  H284     1.0000 0.42090  0.16072  0.41738  Biso   1.000  H
  C280     1.0000 0.38790  0.07473  0.35468  Biso   1.000  C
  C281     1.0000 0.91101  0.56222  0.12848  Biso   1.000  C
  C282     1.0000 0.90593  0.47683  0.21098  Biso   1.000  C
  C283     1.0000 0.90601  0.38969  0.28772  Biso   1.000  C
  H285     1.0000 0.37908  0.19849  0.01640  Biso   1.000  H
  N78      1.0000 0.47561  0.29069  0.99901  Biso   1.000  N
  H286     1.0000 0.37590  0.24388  0.95709  Biso   1.000  H
  N79      1.0000 0.46401  0.09459  0.34371  Biso   1.000  N
  H287     1.0000 0.36482  0.03271  0.38388  Biso   1.000  H
  H288     1.0000 0.36081  0.06041  0.31427  Biso   1.000  H
  N80      1.0000 0.89750  0.60930  0.10740  Biso   1.000  N
  H289     1.0000 0.93560  0.54551  0.10178  Biso   1.000  H
  H290     1.0000 0.92940  0.46099  0.18211  Biso   1.000  H
  N81      1.0000 0.90542  0.36939  0.34371  Biso   1.000  N
  H291     1.0000 0.91910  0.36770  0.25512  Biso   1.000  H
  C284     1.0000 0.51021  0.25901  0.00699  Biso   1.000  C
  C285     1.0000 0.48370  0.09399  0.28772  Biso   1.000  C
  C286     1.0000 0.91889  0.63368  0.04272  Biso   1.000  C
  C287     1.0000 0.92532  0.31322  0.35468  Biso   1.000  C
  C288     1.0000 0.59101  0.29760  0.00709  Biso   1.000  C
  H292     1.0000 0.48423  0.20780  0.01342  Biso   1.000  H
  C289     1.0000 0.55852  0.11261  0.26972  Biso   1.000  C
  H293     1.0000 0.44857  0.08088  0.25512  Biso   1.000  H
  C290     1.0000 0.85294  0.60473  0.00038  Biso   1.000  C
  H294     1.0000 0.95181  0.61648  0.02722  Biso   1.000  H
  H295     1.0000 0.94581  0.68762  0.04139  Biso   1.000  H
  C291     1.0000 0.86131  0.24590  0.38298  Biso   1.000  C
  H296     1.0000 0.96729  0.33211  0.38388  Biso   1.000  H
  H297     1.0000 0.93959  0.30038  0.31427  Biso   1.000  H
  C292     1.0000 0.63170  0.37369  0.00718  Biso   1.000  C
  C293     1.0000 0.62630  0.25798  0.00718  Biso   1.000  C
  C294     1.0000 0.61570  0.14788  0.31229  Biso   1.000  C
  C295     1.0000 0.57090  0.09410  0.21098  Biso   1.000  C
  N82      1.0000 0.81508  0.52439  0.99901  Biso   1.000  N
  H298     1.0000 0.81940  0.62089  0.01640  Biso   1.000  H
  H299     1.0000 0.86800  0.62410  0.95709  Biso   1.000  H
  N83      1.0000 0.80683  0.20633  0.33422  Biso   1.000  N
  H300     1.0000 0.87831  0.21400  0.40131  Biso   1.000  H
  H301     1.0000 0.83933  0.26021  0.41738  Biso   1.000  H
  H302     1.0000 0.60743  0.40123  0.00742  Biso   1.000  H
  C296     1.0000 0.70663  0.40901  0.00709  Biso   1.000  C
  H303     1.0000 0.59882  0.20622  0.00742  Biso   1.000  H
  C297     1.0000 0.70242  0.29341  0.00709  Biso   1.000  C
  C298     1.0000 0.68570  0.16409  0.29518  Biso   1.000  C
  H304     1.0000 0.60699  0.16099  0.35288  Biso   1.000  H
  C299     1.0000 0.64081  0.10929  0.19269  Biso   1.000  C
  H305     1.0000 0.53162  0.07059  0.18211  Biso   1.000  H
  C300     1.0000 0.74880  0.48978  0.00699  Biso   1.000  C
  C301     1.0000 0.74592  0.20290  0.34031  Biso   1.000  C
  C302     1.0000 0.74198  0.36830  0.00718  Biso   1.000  C
  C303     1.0000 0.74097  0.25118  0.00699  Biso   1.000  C
  C304     1.0000 0.69771  0.14428  0.23499  Biso   1.000  C
  C305     1.0000 0.65121  0.08899  0.12848  Biso   1.000  C
  H306     1.0000 0.72358  0.51579  0.01342  Biso   1.000  H
  H307     1.0000 0.73872  0.22641  0.37551  Biso   1.000  H
  H308     1.0000 0.79384  0.39263  0.00742  Biso   1.000  H
  H309     1.0000 0.79220  0.27643  0.01342  Biso   1.000  H
  N84      1.0000 0.70929  0.18488  0.99901  Biso   1.000  N
  H310     1.0000 0.74521  0.15501  0.22331  Biso   1.000  H
  N85      1.0000 0.71178  0.10248  0.10740  Biso   1.000  N
  H311     1.0000 0.60992  0.06439  0.10178  Biso   1.000  H
  C306     1.0000 0.75182  0.14711  0.00038  Biso   1.000  C
  C307     1.0000 0.71480  0.08109  0.04272  Biso   1.000  C
  H312     1.0000 0.80150  0.18059  0.01640  Biso   1.000  H
  H313     1.0000 0.75608  0.13198  0.95709  Biso   1.000  H
  H314     1.0000 0.66471  0.04822  0.02722  Biso   1.000  H
  H315     1.0000 0.74180  0.05421  0.04139  Biso   1.000  H
  Ne1      1.0000 0.00287  0.00621  0.38248  Biso   1.000  Ne
  He1      1.0000 1.00000  0.99998  0.50497  Biso   1.000  He
  He2      1.0000 0.97831  0.11279  0.33377  Biso   1.000  He
  He3      1.0000 0.13884  0.02243  0.33232  Biso   1.000  He
  He4      1.0000 0.89052  0.86946  0.33510  Biso   1.000  He
  Ar1      1.0000 1.00000  0.99998  0.37813  Biso   1.000  Ar
  Ne2      1.0000 0.66667  0.33333  0.19297  Biso   1.000  Ne
  He5      1.0000 0.66668  0.33331  0.31845  Biso   1.000  He
  He6      1.0000 0.70430  0.52504  0.15328  Biso   1.000  He
  He7      1.0000 0.81928  0.29645  0.15361  Biso   1.000  He
  He8      1.0000 0.47616  0.18004  0.15345  Biso   1.000  He
  Ar2      1.0000 0.66679  0.33327  0.19805  Biso   1.000  Ar
  Ne3      1.0000 0.33334  0.66667  0.52631  Biso   1.000  Ne
  He9      1.0000 0.33333  0.66668  0.65177  Biso   1.000  He
  He10     1.0000 0.37098  0.85840  0.48658  Biso   1.000  He
  He11     1.0000 0.48595  0.62979  0.48693  Biso   1.000  He
  He12     1.0000 0.14278  0.51338  0.48678  Biso   1.000  He
  Ar3      1.0000 0.33333  0.66668  0.53142  Biso   1.000  Ar
  Ne4      1.0000 0.33334  0.66667  0.03917  Biso   1.000  Ne
  He13     1.0000 0.33331  0.66668  0.17165  Biso   1.000  He
  He14     1.0000 0.31164  0.77945  0.00045  Biso   1.000  He
  He15     1.0000 0.47219  0.68912  0.99899  Biso   1.000  He
  He16     1.0000 0.22387  0.53618  0.00179  Biso   1.000  He
  Ar4      1.0000 0.33336  0.66671  0.04478  Biso   1.000  Ar
  Ne5      1.0000 0.66667  0.33334  0.70583  Biso   1.000  Ne
  He17     1.0000 0.66666  0.33336  0.83833  Biso   1.000  He
  He18     1.0000 0.64498  0.44611  0.66714  Biso   1.000  He
  He19     1.0000 0.80555  0.35576  0.66565  Biso   1.000  He
  He20     1.0000 0.55720  0.20282  0.66846  Biso   1.000  He
  Ar5      1.0000 0.66747  0.33348  0.71144  Biso   1.000  Ar
  Ne6      1.0000 0.00150  0.00834  0.85580  Biso   1.000  Ne
  He21     1.0000 0.00001  0.00001  0.98513  Biso   1.000  He
  He22     1.0000 0.03766  0.19174  0.81993  Biso   1.000  He
  He23     1.0000 0.15264  0.96311  0.82028  Biso   1.000  He
  He24     1.0000 0.80947  0.84674  0.82013  Biso   1.000  He
  Ar6      1.0000 0.00002  0.00001  0.86474  Biso   1.000  Ar
