data_image0
_cell_length_a       18.13
_cell_length_b       17.264
_cell_length_c       23.01
_cell_angle_alpha    90
_cell_angle_beta     99.01
_cell_angle_gamma    90

_symmetry_space_group_name_H-M    "P 1"
_symmetry_int_tables_number       1

loop_
  _symmetry_equiv_pos_as_xyz
  'x, y, z'

loop_
  _atom_site_label
  _atom_site_occupancy
  _atom_site_fract_x
  _atom_site_fract_y
  _atom_site_fract_z
  _atom_site_thermal_displace_type
  _atom_site_B_iso_or_equiv
  _atom_site_type_symbol
  N1       1.0000 0.55191  0.46142  0.42101  Biso   1.000  N
  C1       1.0000 0.53952  0.39800  0.38700  Biso   1.000  C
  N2       1.0000 0.52121  0.52838  0.40117  Biso   1.000  N
  C2       1.0000 0.49618  0.39608  0.33209  Biso   1.000  C
  S1       1.0000 0.57967  0.31244  0.42194  Biso   1.000  S
  C3       1.0000 0.47871  0.52867  0.34801  Biso   1.000  C
  C4       1.0000 0.48179  0.33370  0.28469  Biso   1.000  C
  C5       1.0000 0.46561  0.32901  0.29460  Biso   1.000  C
  C6       1.0000 0.46479  0.46548  0.31070  Biso   1.000  C
  O1       1.0000 0.58888  0.25811  0.37670  Biso   1.000  O
  O2       1.0000 0.53699  0.29182  0.46612  Biso   1.000  O
  C7       1.0000 0.67170  0.33590  0.45789  Biso   1.000  C
  S2       1.0000 0.43451  0.62008  0.33015  Biso   1.000  S
  C8       1.0000 0.41299  0.36550  0.24738  Biso   1.000  C
  H1       1.0000 0.44818  0.29443  0.29539  Biso   1.000  H
  H2       1.0000 0.52812  0.30931  0.27858  Biso   1.000  H
  C9       1.0000 0.44619  0.37772  0.22960  Biso   1.000  C
  H3       1.0000 0.50489  0.30178  0.27880  Biso   1.000  H
  H4       1.0000 0.44008  0.29257  0.31682  Biso   1.000  H
  C10      1.0000 0.42812  0.45789  0.24720  Biso   1.000  C
  C11      1.0000 0.41058  0.45401  0.25552  Biso   1.000  C
  C12      1.0000 0.68528  0.32391  0.51760  Biso   1.000  C
  C13      1.0000 0.73042  0.34830  0.42669  Biso   1.000  C
  O3       1.0000 0.41039  0.62552  0.26815  Biso   1.000  O
  O4       1.0000 0.38053  0.62737  0.36852  Biso   1.000  O
  C14      1.0000 0.50369  0.69358  0.35131  Biso   1.000  C
  H5       1.0000 0.40111  0.35148  0.21152  Biso   1.000  H
  H6       1.0000 0.36349  0.34430  0.24729  Biso   1.000  H
  H7       1.0000 0.42800  0.35392  0.20972  Biso   1.000  H
  H8       1.0000 0.48061  0.37958  0.20131  Biso   1.000  H
  H9       1.0000 0.37452  0.46490  0.24368  Biso   1.000  H
  H10      1.0000 0.44781  0.49600  0.22278  Biso   1.000  H
  H11      1.0000 0.42648  0.48089  0.22261  Biso   1.000  H
  H12      1.0000 0.36102  0.47133  0.26010  Biso   1.000  H
  C15      1.0000 0.75750  0.32148  0.54792  Biso   1.000  C
  H13      1.0000 0.64533  0.31719  0.53802  Biso   1.000  H
  C16      1.0000 0.80320  0.34557  0.45648  Biso   1.000  C
  C17      1.0000 0.71538  0.36521  0.35989  Biso   1.000  C
  C18      1.0000 0.56357  0.70829  0.32179  Biso   1.000  C
  C19      1.0000 0.48699  0.74351  0.39439  Biso   1.000  C
  C20      1.0000 0.81682  0.33243  0.51751  Biso   1.000  C
  C21      1.0000 0.76542  0.29709  0.61190  Biso   1.000  C
  H14      1.0000 0.84298  0.35258  0.43602  Biso   1.000  H
  O5       1.0000 0.75810  0.32408  0.33257  Biso   1.000  O
  O6       1.0000 0.67309  0.41358  0.33970  Biso   1.000  O
  C22      1.0000 0.60359  0.77728  0.33499  Biso   1.000  C
  C23      1.0000 0.58449  0.65472  0.27581  Biso   1.000  C
  C24      1.0000 0.52830  0.81070  0.40852  Biso   1.000  C
  H15      1.0000 0.44748  0.73199  0.41428  Biso   1.000  H
  S3       1.0000 0.91008  0.31348  0.55135  Biso   1.000  S
  O7       1.0000 0.79551  0.35189  0.64758  Biso   1.000  O
  O8       1.0000 0.74062  0.23529  0.62479  Biso   1.000  O
  C25      1.0000 0.75722  0.34581  0.27039  Biso   1.000  C
  H16      1.0000 0.64271  0.78939  0.31479  Biso   1.000  H
  C26      1.0000 0.58601  0.82750  0.37750  Biso   1.000  C
  O9       1.0000 0.56303  0.58920  0.27022  Biso   1.000  O
  O10      1.0000 0.62739  0.68762  0.24272  Biso   1.000  O
  C27      1.0000 0.50372  0.85878  0.45692  Biso   1.000  C
  O11      1.0000 0.90782  0.24902  0.58989  Biso   1.000  O
  O12      1.0000 0.95512  0.30937  0.50572  Biso   1.000  O
  C28      1.0000 0.93921  0.39608  0.59522  Biso   1.000  C
  C29      1.0000 0.79231  0.33590  0.71002  Biso   1.000  C
  H17      1.0000 0.75007  0.40130  0.26608  Biso   1.000  H
  H18      1.0000 0.80491  0.33301  0.25891  Biso   1.000  H
  C30      1.0000 0.69748  0.30561  0.23180  Biso   1.000  C
  S4       1.0000 0.62656  0.92151  0.37868  Biso   1.000  S
  C31      1.0000 0.65329  0.63751  0.19709  Biso   1.000  C
  O13      1.0000 0.43968  0.87158  0.45965  Biso   1.000  O
  O14      1.0000 0.56140  0.88010  0.49595  Biso   1.000  O
  N3       1.0000 0.92429  0.46218  0.56565  Biso   1.000  N
  C32      1.0000 0.97829  0.39018  0.65141  Biso   1.000  C
  H19      1.0000 0.74448  0.31348  0.71442  Biso   1.000  H
  H20      1.0000 0.83152  0.29987  0.72582  Biso   1.000  H
  C33      1.0000 0.80248  0.40883  0.74012  Biso   1.000  C
  H21      1.0000 0.70398  0.31279  0.19150  Biso   1.000  H
  H22      1.0000 0.65001  0.32640  0.23748  Biso   1.000  H
  H23      1.0000 0.69920  0.25139  0.24100  Biso   1.000  H
  O15      1.0000 0.66839  0.92678  0.33134  Biso   1.000  O
  O16      1.0000 0.56830  0.97677  0.38278  Biso   1.000  O
  C34      1.0000 0.69279  0.92852  0.44381  Biso   1.000  C
  H24      1.0000 0.67301  0.66989  0.16862  Biso   1.000  H
  H25      1.0000 0.61131  0.60872  0.17649  Biso   1.000  H
  C35      1.0000 0.71242  0.58219  0.22402  Biso   1.000  C
  C36      1.0000 0.55237  0.92702  0.54739  Biso   1.000  C
  C37      1.0000 0.53241  0.90622  0.55100  Biso   1.000  C
  N4       1.0000 0.94809  0.52850  0.59161  Biso   1.000  N
  C38      1.0000 0.99341  0.32408  0.69449  Biso   1.000  C
  C39      1.0000 0.00278  0.45922  0.67860  Biso   1.000  C
  C40      1.0000 0.01460  0.32090  0.68811  Biso   1.000  C
  H26      1.0000 0.76280  0.44329  0.72472  Biso   1.000  H
  H27      1.0000 0.84952  0.43090  0.73449  Biso   1.000  H
  H28      1.0000 0.80219  0.40078  0.78139  Biso   1.000  H
  N5       1.0000 0.71810  0.86098  0.46766  Biso   1.000  N
  C41      1.0000 0.71659  0.00081  0.46502  Biso   1.000  C
  H29      1.0000 0.73432  0.55729  0.19348  Biso   1.000  H
  H30      1.0000 0.69059  0.54379  0.24628  Biso   1.000  H
  H31      1.0000 0.75027  0.60988  0.24958  Biso   1.000  H
  C42      1.0000 0.57891  0.88189  0.59931  Biso   1.000  C
  H32      1.0000 0.58099  0.97451  0.54761  Biso   1.000  H
  H33      1.0000 0.50030  0.94040  0.54651  Biso   1.000  H
  H34      1.0000 0.49938  0.95047  0.54299  Biso   1.000  H
  C43      1.0000 0.60339  0.92788  0.59232  Biso   1.000  C
  H35      1.0000 0.50603  0.86469  0.56732  Biso   1.000  H
  C44      1.0000 0.98531  0.52618  0.64569  Biso   1.000  C
  H36      1.0000 0.94738  0.29738  0.69849  Biso   1.000  H
  H37      1.0000 0.97698  0.28748  0.70060  Biso   1.000  H
  C45      1.0000 0.02668  0.36011  0.75138  Biso   1.000  C
  H38      1.0000 0.02781  0.28730  0.68160  Biso   1.000  H
  C46      1.0000 0.06162  0.36110  0.74100  Biso   1.000  C
  C47      1.0000 0.03300  0.44741  0.74241  Biso   1.000  C
  C48      1.0000 0.05441  0.44462  0.73550  Biso   1.000  C
  H39      1.0000 0.04580  0.29060  0.66611  Biso   1.000  H
  N6       1.0000 0.76877  0.86237  0.51668  Biso   1.000  N
  C49      1.0000 0.77088  0.00261  0.51452  Biso   1.000  C
  C50      1.0000 0.69871  0.08167  0.43919  Biso   1.000  C
  C51      1.0000 0.68972  0.08098  0.45278  Biso   1.000  C
  H40      1.0000 0.62842  0.86342  0.59729  Biso   1.000  H
  H41      1.0000 0.54617  0.83862  0.60138  Biso   1.000  H
  H42      1.0000 0.57982  0.91358  0.63359  Biso   1.000  H
  H43      1.0000 0.62759  0.88178  0.60890  Biso   1.000  H
  H44      1.0000 0.63640  0.95540  0.57080  Biso   1.000  H
  H45      1.0000 0.59101  0.96032  0.62329  Biso   1.000  H
  S5       1.0000 0.02262  0.61672  0.67381  Biso   1.000  S
  H46      1.0000 0.99539  0.34980  0.78100  Biso   1.000  H
  H47      1.0000 0.07569  0.33828  0.76458  Biso   1.000  H
  H48      1.0000 0.04502  0.34430  0.77708  Biso   1.000  H
  H49      1.0000 0.11359  0.34650  0.74298  Biso   1.000  H
  H50      1.0000 0.00367  0.47567  0.76718  Biso   1.000  H
  H51      1.0000 0.08461  0.46420  0.75121  Biso   1.000  H
  H52      1.0000 0.03359  0.46600  0.76841  Biso   1.000  H
  H53      1.0000 0.10282  0.46820  0.73462  Biso   1.000  H
  C52      1.0000 0.79298  0.93090  0.53859  Biso   1.000  C
  C53      1.0000 0.79782  0.08463  0.52710  Biso   1.000  C
  C54      1.0000 0.78419  0.08301  0.53762  Biso   1.000  C
  H54      1.0000 0.70002  0.08272  0.39721  Biso   1.000  H
  H55      1.0000 0.65030  0.09957  0.44649  Biso   1.000  H
  C55      1.0000 0.76130  0.12952  0.47272  Biso   1.000  C
  C56      1.0000 0.74091  0.13178  0.49472  Biso   1.000  C
  H56      1.0000 0.63838  0.08689  0.45952  Biso   1.000  H
  H57      1.0000 0.69221  0.09557  0.41230  Biso   1.000  H
  C57      1.0000 0.96209  0.69300  0.64402  Biso   1.000  C
  O17      1.0000 0.08950  0.62558  0.65009  Biso   1.000  O
  O18      1.0000 0.02512  0.61759  0.73607  Biso   1.000  O
  S6       1.0000 0.85352  0.92655  0.60728  Biso   1.000  S
  H58      1.0000 0.85192  0.08752  0.53150  Biso   1.000  H
  H59      1.0000 0.78168  0.10432  0.56248  Biso   1.000  H
  H60      1.0000 0.83681  0.09592  0.54180  Biso   1.000  H
  H61      1.0000 0.76791  0.08810  0.57559  Biso   1.000  H
  H62      1.0000 0.74168  0.17817  0.48469  Biso   1.000  H
  H63      1.0000 0.79817  0.14081  0.44759  Biso   1.000  H
  H64      1.0000 0.77380  0.16103  0.47342  Biso   1.000  H
  H65      1.0000 0.71192  0.16810  0.51399  Biso   1.000  H
  C58      1.0000 0.99111  0.74398  0.60741  Biso   1.000  C
  C59      1.0000 0.89509  0.70963  0.66571  Biso   1.000  C
  O19      1.0000 0.91459  0.97932  0.60596  Biso   1.000  O
  O20      1.0000 0.80558  0.93588  0.65079  Biso   1.000  O
  C60      1.0000 0.89127  0.83098  0.61379  Biso   1.000  C
  C61      1.0000 0.95527  0.81198  0.59029  Biso   1.000  C
  H66      1.0000 0.03563  0.73199  0.59412  Biso   1.000  H
  C62      1.0000 0.86131  0.78111  0.65062  Biso   1.000  C
  C63      1.0000 0.86013  0.65089  0.69990  Biso   1.000  C
  C64      1.0000 0.98872  0.86000  0.54629  Biso   1.000  C
  H67      1.0000 0.81837  0.79512  0.66549  Biso   1.000  H
  O21      1.0000 0.86478  0.58248  0.69141  Biso   1.000  O
  O22      1.0000 0.82310  0.68240  0.73924  Biso   1.000  O
  O23      1.0000 0.93810  0.87749  0.50000  Biso   1.000  O
  O24      1.0000 0.05371  0.87459  0.55135  Biso   1.000  O
  C65      1.0000 0.78522  0.62622  0.77369  Biso   1.000  C
  C66      1.0000 0.96698  0.91201  0.44940  Biso   1.000  C
  H68      1.0000 0.74558  0.65222  0.78989  Biso   1.000  H
  H69      1.0000 0.76290  0.58509  0.74800  Biso   1.000  H
  C67      1.0000 0.83870  0.59279  0.82161  Biso   1.000  C
  H70      1.0000 0.99282  0.96009  0.46119  Biso   1.000  H
  C68      1.0000 0.90418  0.92690  0.40289  Biso   1.000  C
  H71      1.0000 0.00198  0.87691  0.43540  Biso   1.000  H
  H72      1.0000 0.87808  0.56748  0.80551  Biso   1.000  H
  H73      1.0000 0.81369  0.55590  0.84282  Biso   1.000  H
  H74      1.0000 0.85941  0.63328  0.84779  Biso   1.000  H
  H75      1.0000 0.92230  0.94793  0.36918  Biso   1.000  H
  H76      1.0000 0.87073  0.96328  0.41661  Biso   1.000  H
  H77      1.0000 0.87812  0.87929  0.39219  Biso   1.000  H
  N7       1.0000 0.44812  0.53858  0.57898  Biso   1.000  N
  C69      1.0000 0.46050  0.60200  0.61300  Biso   1.000  C
  N8       1.0000 0.47882  0.47162  0.59887  Biso   1.000  N
  S7       1.0000 0.42030  0.68756  0.57806  Biso   1.000  S
  C70      1.0000 0.50380  0.60392  0.66791  Biso   1.000  C
  C71      1.0000 0.52131  0.47133  0.65198  Biso   1.000  C
  C72      1.0000 0.32832  0.66410  0.54211  Biso   1.000  C
  O25      1.0000 0.41109  0.74189  0.62329  Biso   1.000  O
  O26      1.0000 0.46298  0.70818  0.53388  Biso   1.000  O
  C73      1.0000 0.51818  0.66630  0.71530  Biso   1.000  C
  C74      1.0000 0.53518  0.53452  0.68930  Biso   1.000  C
  C75      1.0000 0.53441  0.67099  0.70540  Biso   1.000  C
  S8       1.0000 0.56546  0.37992  0.66985  Biso   1.000  S
  C76      1.0000 0.31469  0.67609  0.48240  Biso   1.000  C
  C77      1.0000 0.26960  0.65170  0.57331  Biso   1.000  C
  H78      1.0000 0.55180  0.70557  0.70461  Biso   1.000  H
  H79      1.0000 0.47191  0.69069  0.72142  Biso   1.000  H
  C78      1.0000 0.55379  0.62228  0.77039  Biso   1.000  C
  H80      1.0000 0.49508  0.69822  0.72120  Biso   1.000  H
  C79      1.0000 0.58699  0.63450  0.75262  Biso   1.000  C
  C80      1.0000 0.57191  0.54211  0.75279  Biso   1.000  C
  C81      1.0000 0.58940  0.54599  0.74452  Biso   1.000  C
  H81      1.0000 0.55989  0.70743  0.68318  Biso   1.000  H
  C82      1.0000 0.49628  0.30642  0.64868  Biso   1.000  C
  O27      1.0000 0.58959  0.37448  0.73185  Biso   1.000  O
  O28      1.0000 0.61951  0.37263  0.63152  Biso   1.000  O
  C83      1.0000 0.24248  0.67852  0.45208  Biso   1.000  C
  H82      1.0000 0.35470  0.68281  0.46198  Biso   1.000  H
  C84      1.0000 0.19678  0.65443  0.54352  Biso   1.000  C
  C85      1.0000 0.28459  0.63479  0.64010  Biso   1.000  C
  H83      1.0000 0.51942  0.62042  0.79869  Biso   1.000  H
  H84      1.0000 0.59892  0.64852  0.78852  Biso   1.000  H
  H85      1.0000 0.57197  0.64608  0.79028  Biso   1.000  H
  H86      1.0000 0.63648  0.65570  0.75270  Biso   1.000  H
  H87      1.0000 0.62550  0.53510  0.75631  Biso   1.000  H
  H88      1.0000 0.55222  0.50400  0.77721  Biso   1.000  H
  H89      1.0000 0.57349  0.51911  0.77739  Biso   1.000  H
  H90      1.0000 0.63901  0.52867  0.73990  Biso   1.000  H
  C86      1.0000 0.43640  0.29171  0.67821  Biso   1.000  C
  C87      1.0000 0.51298  0.25649  0.60560  Biso   1.000  C
  C88      1.0000 0.18321  0.66757  0.48249  Biso   1.000  C
  C89      1.0000 0.23461  0.70291  0.38810  Biso   1.000  C
  H91      1.0000 0.15700  0.64742  0.56402  Biso   1.000  H
  O29      1.0000 0.24192  0.67592  0.66743  Biso   1.000  O
  O30      1.0000 0.32688  0.58642  0.66030  Biso   1.000  O
  C90      1.0000 0.39638  0.22272  0.66501  Biso   1.000  C
  C91      1.0000 0.41548  0.34528  0.72419  Biso   1.000  C
  C92      1.0000 0.47167  0.18930  0.59148  Biso   1.000  C
  H92      1.0000 0.55249  0.26801  0.58571  Biso   1.000  H
  S9       1.0000 0.08990  0.68652  0.44869  Biso   1.000  S
  O31      1.0000 0.20452  0.64811  0.35241  Biso   1.000  O
  O32      1.0000 0.25941  0.76471  0.37521  Biso   1.000  O
  C93      1.0000 0.24281  0.65419  0.72960  Biso   1.000  C
  C94      1.0000 0.41402  0.17250  0.62250  Biso   1.000  C
  H93      1.0000 0.35732  0.21061  0.68520  Biso   1.000  H
  O33      1.0000 0.43700  0.41080  0.72978  Biso   1.000  O
  O34      1.0000 0.37258  0.31238  0.75728  Biso   1.000  O
  C95      1.0000 0.49631  0.14122  0.54312  Biso   1.000  C
  C96      1.0000 0.06083  0.60392  0.40482  Biso   1.000  C
  O35      1.0000 0.09221  0.75098  0.41010  Biso   1.000  O
  O36      1.0000 0.04491  0.69063  0.49432  Biso   1.000  O
  C97      1.0000 0.20773  0.66410  0.29002  Biso   1.000  C
  H94      1.0000 0.24990  0.59870  0.73391  Biso   1.000  H
  H95      1.0000 0.19512  0.66699  0.74109  Biso   1.000  H
  C98      1.0000 0.30249  0.69439  0.76819  Biso   1.000  C
  S10      1.0000 0.37346  0.07849  0.62131  Biso   1.000  S
  C99      1.0000 0.34668  0.36249  0.80291  Biso   1.000  C
  O37      1.0000 0.56030  0.12842  0.54035  Biso   1.000  O
  O38      1.0000 0.43857  0.11990  0.50405  Biso   1.000  O
  N9       1.0000 0.07569  0.53782  0.43435  Biso   1.000  N
  C100     1.0000 0.02168  0.60982  0.34859  Biso   1.000  C
  H96      1.0000 0.25550  0.68652  0.28562  Biso   1.000  H
  H97      1.0000 0.16851  0.70013  0.27418  Biso   1.000  H
  C101     1.0000 0.19750  0.59117  0.25992  Biso   1.000  C
  H98      1.0000 0.29600  0.68721  0.80850  Biso   1.000  H
  H99      1.0000 0.35001  0.67360  0.76252  Biso   1.000  H
  H100     1.0000 0.30078  0.74861  0.75900  Biso   1.000  H
  C102     1.0000 0.30718  0.07148  0.55619  Biso   1.000  C
  O39      1.0000 0.33158  0.07322  0.66866  Biso   1.000  O
  O40      1.0000 0.43172  0.02323  0.61722  Biso   1.000  O
  H101     1.0000 0.32702  0.33011  0.83138  Biso   1.000  H
  H102     1.0000 0.38872  0.39128  0.82350  Biso   1.000  H
  C103     1.0000 0.28760  0.41781  0.77598  Biso   1.000  C
  C104     1.0000 0.44760  0.07298  0.45261  Biso   1.000  C
  C105     1.0000 0.46762  0.09378  0.44900  Biso   1.000  C
  N10      1.0000 0.05188  0.47150  0.40839  Biso   1.000  N
  C106     1.0000 0.99720  0.54078  0.32139  Biso   1.000  C
  C107     1.0000 0.00661  0.67592  0.30551  Biso   1.000  C
  C108     1.0000 0.98538  0.67910  0.31189  Biso   1.000  C
  H103     1.0000 0.23717  0.55671  0.27528  Biso   1.000  H
  H104     1.0000 0.15051  0.56910  0.26551  Biso   1.000  H
  H105     1.0000 0.19778  0.59922  0.21860  Biso   1.000  H
  N11      1.0000 0.28187  0.13902  0.53234  Biso   1.000  N
  C109     1.0000 0.28339  0.99919  0.53498  Biso   1.000  C
  H106     1.0000 0.26571  0.44271  0.80652  Biso   1.000  H
  H107     1.0000 0.30938  0.45621  0.75372  Biso   1.000  H
  H108     1.0000 0.24970  0.39012  0.75042  Biso   1.000  H
  C110     1.0000 0.42112  0.11811  0.40069  Biso   1.000  C
  H109     1.0000 0.41898  0.02549  0.45239  Biso   1.000  H
  H110     1.0000 0.49968  0.05960  0.45349  Biso   1.000  H
  H111     1.0000 0.50060  0.04953  0.45701  Biso   1.000  H
  C111     1.0000 0.39659  0.07212  0.40768  Biso   1.000  C
  H112     1.0000 0.49401  0.13531  0.43272  Biso   1.000  H
  C112     1.0000 0.01471  0.47382  0.35431  Biso   1.000  C
  C113     1.0000 0.96697  0.55259  0.25759  Biso   1.000  C
  C114     1.0000 0.94562  0.55538  0.26450  Biso   1.000  C
  C115     1.0000 0.97330  0.63989  0.24861  Biso   1.000  C
  C116     1.0000 0.93841  0.63890  0.25900  Biso   1.000  C
  H113     1.0000 0.05259  0.70262  0.30150  Biso   1.000  H
  H114     1.0000 0.02299  0.71252  0.29939  Biso   1.000  H
  H115     1.0000 0.97222  0.71270  0.31840  Biso   1.000  H
  H116     1.0000 0.95417  0.70940  0.33389  Biso   1.000  H
  N12      1.0000 0.23120  0.13763  0.48332  Biso   1.000  N
  C117     1.0000 0.22910  0.99739  0.48552  Biso   1.000  C
  C118     1.0000 0.30132  0.91833  0.56081  Biso   1.000  C
  C119     1.0000 0.31031  0.91902  0.54721  Biso   1.000  C
  H117     1.0000 0.37160  0.13658  0.40271  Biso   1.000  H
  H118     1.0000 0.45380  0.16138  0.39862  Biso   1.000  H
  H119     1.0000 0.42021  0.08642  0.36641  Biso   1.000  H
  H120     1.0000 0.37238  0.11822  0.39109  Biso   1.000  H
  H121     1.0000 0.36358  0.04460  0.42920  Biso   1.000  H
  H122     1.0000 0.40902  0.03968  0.37670  Biso   1.000  H
  S11      1.0000 0.97741  0.38328  0.32619  Biso   1.000  S
  H123     1.0000 0.99630  0.52433  0.23282  Biso   1.000  H
  H124     1.0000 0.91542  0.53580  0.24879  Biso   1.000  H
  H125     1.0000 0.96638  0.53400  0.23158  Biso   1.000  H
  H126     1.0000 0.89721  0.53180  0.26542  Biso   1.000  H
  H127     1.0000 0.00459  0.65020  0.21900  Biso   1.000  H
  H128     1.0000 0.92429  0.66172  0.23541  Biso   1.000  H
  H129     1.0000 0.95501  0.65570  0.22292  Biso   1.000  H
  H130     1.0000 0.88639  0.65350  0.25702  Biso   1.000  H
  C120     1.0000 0.20699  0.06910  0.46141  Biso   1.000  C
  C121     1.0000 0.20221  0.91537  0.47289  Biso   1.000  C
  C122     1.0000 0.21579  0.91699  0.46242  Biso   1.000  C
  C123     1.0000 0.23867  0.87048  0.52728  Biso   1.000  C
  C124     1.0000 0.25912  0.86822  0.50528  Biso   1.000  C
  H131     1.0000 0.30001  0.91728  0.60279  Biso   1.000  H
  H132     1.0000 0.34973  0.90043  0.55351  Biso   1.000  H
  H133     1.0000 0.36159  0.91311  0.54048  Biso   1.000  H
  H134     1.0000 0.30782  0.90443  0.58769  Biso   1.000  H
  C125     1.0000 0.03788  0.30700  0.35598  Biso   1.000  C
  O41      1.0000 0.91047  0.37442  0.34991  Biso   1.000  O
  O42      1.0000 0.97491  0.38241  0.26393  Biso   1.000  O
  S12      1.0000 0.14651  0.07345  0.39272  Biso   1.000  S
  H135     1.0000 0.14811  0.91248  0.46849  Biso   1.000  H
  H136     1.0000 0.21829  0.89568  0.43751  Biso   1.000  H
  H137     1.0000 0.16322  0.90408  0.45820  Biso   1.000  H
  H138     1.0000 0.23212  0.91190  0.42440  Biso   1.000  H
  H139     1.0000 0.25830  0.82183  0.51531  Biso   1.000  H
  H140     1.0000 0.20180  0.85919  0.55240  Biso   1.000  H
  H141     1.0000 0.22618  0.83897  0.52662  Biso   1.000  H
  H142     1.0000 0.28810  0.83190  0.48601  Biso   1.000  H
  C126     1.0000 0.10489  0.29037  0.33429  Biso   1.000  C
  C127     1.0000 0.00892  0.25602  0.39259  Biso   1.000  C
  C128     1.0000 0.10870  0.16902  0.38621  Biso   1.000  C
  O43      1.0000 0.08538  0.02068  0.39404  Biso   1.000  O
  O44      1.0000 0.19439  0.06412  0.34920  Biso   1.000  O
  C129     1.0000 0.13990  0.34911  0.30010  Biso   1.000  C
  C130     1.0000 0.13872  0.21889  0.34938  Biso   1.000  C
  C131     1.0000 0.04470  0.18802  0.40971  Biso   1.000  C
  H143     1.0000 0.96441  0.26801  0.40592  Biso   1.000  H
  O45      1.0000 0.17688  0.31760  0.26080  Biso   1.000  O
  O46      1.0000 0.13519  0.41752  0.30859  Biso   1.000  O
  H144     1.0000 0.18160  0.20488  0.33451  Biso   1.000  H
  C132     1.0000 0.01130  0.14000  0.45371  Biso   1.000  C
  C133     1.0000 0.21481  0.37378  0.22630  Biso   1.000  C
  O47      1.0000 0.06187  0.12251  0.50000  Biso   1.000  O
  O48      1.0000 0.94632  0.12541  0.44865  Biso   1.000  O
  H145     1.0000 0.25439  0.34778  0.21011  Biso   1.000  H
  H146     1.0000 0.23713  0.41491  0.25200  Biso   1.000  H
  C134     1.0000 0.16132  0.40721  0.17839  Biso   1.000  C
  C135     1.0000 0.03299  0.08799  0.55060  Biso   1.000  C
  H147     1.0000 0.12189  0.43252  0.19449  Biso   1.000  H
  H148     1.0000 0.18630  0.44410  0.15722  Biso   1.000  H
  H149     1.0000 0.14062  0.36672  0.15220  Biso   1.000  H
  H150     1.0000 0.00720  0.03991  0.53881  Biso   1.000  H
  C136     1.0000 0.09579  0.07310  0.59711  Biso   1.000  C
  H151     1.0000 0.99799  0.12309  0.56459  Biso   1.000  H
  H152     1.0000 0.07773  0.05207  0.63082  Biso   1.000  H
  H153     1.0000 0.12930  0.03672  0.58338  Biso   1.000  H
  H154     1.0000 0.12191  0.12071  0.60780  Biso   1.000  H
  C137     1.0000 0.59581  0.42690  0.09711  Biso   1.000  C
  C138     1.0000 0.53300  0.41201  0.05060  Biso   1.000  C
  H155     1.0000 0.57768  0.44793  0.13082  Biso   1.000  H
  H156     1.0000 0.62931  0.46328  0.08338  Biso   1.000  H
  H157     1.0000 0.62192  0.37929  0.10781  Biso   1.000  H
  O49      1.0000 0.56189  0.37749  0.00000  Biso   1.000  O
  H158     1.0000 0.50722  0.46009  0.03881  Biso   1.000  H
  H159     1.0000 0.49800  0.37691  0.06460  Biso   1.000  H
  C139     1.0000 0.51132  0.36000  0.95371  Biso   1.000  C
  O50      1.0000 0.44627  0.37459  0.94865  Biso   1.000  O
  C140     1.0000 0.54471  0.31198  0.90971  Biso   1.000  C
  C141     1.0000 0.60871  0.33098  0.88621  Biso   1.000  C
  C142     1.0000 0.50888  0.24398  0.89259  Biso   1.000  C
  S13      1.0000 0.64647  0.42655  0.89272  Biso   1.000  S
  C143     1.0000 0.63868  0.28111  0.84938  Biso   1.000  C
  H160     1.0000 0.46441  0.23199  0.90588  Biso   1.000  H
  C144     1.0000 0.53789  0.19300  0.85598  Biso   1.000  C
  O51      1.0000 0.58539  0.47932  0.89404  Biso   1.000  O
  O52      1.0000 0.69441  0.43588  0.84920  Biso   1.000  O
  C145     1.0000 0.70700  0.43090  0.96141  Biso   1.000  C
  C146     1.0000 0.60490  0.20963  0.83429  Biso   1.000  C
  H161     1.0000 0.68161  0.29512  0.83451  Biso   1.000  H
  S14      1.0000 0.47742  0.11672  0.82619  Biso   1.000  S
  N13      1.0000 0.73121  0.36237  0.98332  Biso   1.000  N
  C147     1.0000 0.72911  0.50261  0.98548  Biso   1.000  C
  C148     1.0000 0.63991  0.15089  0.80010  Biso   1.000  C
  O53      1.0000 0.41049  0.12558  0.84991  Biso   1.000  O
  O54      1.0000 0.47492  0.11759  0.76393  Biso   1.000  O
  C149     1.0000 0.51473  0.02618  0.85431  Biso   1.000  C
  N14      1.0000 0.78188  0.36098  0.03234  Biso   1.000  N
  C150     1.0000 0.78340  0.50081  0.03498  Biso   1.000  C
  C151     1.0000 0.70222  0.58463  0.97289  Biso   1.000  C
  C152     1.0000 0.71581  0.58301  0.96242  Biso   1.000  C
  O55      1.0000 0.63520  0.08248  0.80859  Biso   1.000  O
  O56      1.0000 0.67688  0.18240  0.76076  Biso   1.000  O
  C153     1.0000 0.49721  0.95922  0.82139  Biso   1.000  C
  N15      1.0000 0.55190  0.02850  0.90839  Biso   1.000  N
  C154     1.0000 0.80720  0.42852  0.05619  Biso   1.000  C
  C155     1.0000 0.80128  0.58167  0.06081  Biso   1.000  C
  C156     1.0000 0.81032  0.58098  0.04721  Biso   1.000  C
  C157     1.0000 0.73868  0.62952  0.02728  Biso   1.000  C
  C158     1.0000 0.75914  0.63178  0.00532  Biso   1.000  C
  H162     1.0000 0.64812  0.58752  0.96849  Biso   1.000  H
  H163     1.0000 0.71830  0.60432  0.93752  Biso   1.000  H
  H164     1.0000 0.66323  0.59592  0.95820  Biso   1.000  H
  H165     1.0000 0.73213  0.58810  0.92440  Biso   1.000  H
  C159     1.0000 0.71482  0.12622  0.72631  Biso   1.000  C
  C160     1.0000 0.52170  0.89018  0.84859  Biso   1.000  C
  C161     1.0000 0.46699  0.94741  0.75759  Biso   1.000  C
  C162     1.0000 0.44564  0.94462  0.76450  Biso   1.000  C
  N16      1.0000 0.57570  0.96218  0.93435  Biso   1.000  N
  S15      1.0000 0.87342  0.42151  0.12131  Biso   1.000  S
  H166     1.0000 0.80002  0.58272  0.10279  Biso   1.000  H
  H167     1.0000 0.84969  0.59957  0.05351  Biso   1.000  H
  H168     1.0000 0.86160  0.58689  0.04048  Biso   1.000  H
  H169     1.0000 0.80783  0.59557  0.08770  Biso   1.000  H
  H170     1.0000 0.75831  0.67817  0.01531  Biso   1.000  H
  H171     1.0000 0.70181  0.64081  0.05241  Biso   1.000  H
  H172     1.0000 0.72625  0.66103  0.02662  Biso   1.000  H
  H173     1.0000 0.78812  0.66810  0.98601  Biso   1.000  H
  H174     1.0000 0.75441  0.15222  0.71011  Biso   1.000  H
  H175     1.0000 0.73708  0.08509  0.75200  Biso   1.000  H
  C163     1.0000 0.66128  0.09279  0.67839  Biso   1.000  C
  C164     1.0000 0.56078  0.89608  0.90478  Biso   1.000  C
  C165     1.0000 0.50663  0.82408  0.80551  Biso   1.000  C
  C166     1.0000 0.48545  0.82090  0.81189  Biso   1.000  C
  H176     1.0000 0.49632  0.97567  0.73282  Biso   1.000  H
  H177     1.0000 0.41538  0.96420  0.74879  Biso   1.000  H
  C167     1.0000 0.47331  0.86011  0.74861  Biso   1.000  C
  C168     1.0000 0.43842  0.86110  0.75900  Biso   1.000  C
  H178     1.0000 0.46640  0.96600  0.73159  Biso   1.000  H
  H179     1.0000 0.39723  0.96820  0.76542  Biso   1.000  H
  O57      1.0000 0.83159  0.42678  0.16866  Biso   1.000  O
  O58      1.0000 0.93168  0.47677  0.11722  Biso   1.000  O
  C169     1.0000 0.91398  0.32750  0.12250  Biso   1.000  C
  H180     1.0000 0.62190  0.06748  0.69449  Biso   1.000  H
  H181     1.0000 0.68630  0.05590  0.65718  Biso   1.000  H
  H182     1.0000 0.64058  0.13328  0.65221  Biso   1.000  H
  S16      1.0000 0.58990  0.81348  0.94865  Biso   1.000  S
  H183     1.0000 0.55260  0.79738  0.80151  Biso   1.000  H
  H184     1.0000 0.47218  0.78730  0.81840  Biso   1.000  H
  H185     1.0000 0.52301  0.78748  0.79939  Biso   1.000  H
  H186     1.0000 0.45424  0.79060  0.83389  Biso   1.000  H
  H187     1.0000 0.42430  0.83828  0.73541  Biso   1.000  H
  H188     1.0000 0.50460  0.84980  0.71900  Biso   1.000  H
  H189     1.0000 0.45502  0.84430  0.72292  Biso   1.000  H
  H190     1.0000 0.38645  0.84650  0.75702  Biso   1.000  H
  C170     1.0000 0.89639  0.27728  0.16501  Biso   1.000  C
  C171     1.0000 0.97169  0.31070  0.09148  Biso   1.000  C
  O59      1.0000 0.59223  0.74902  0.91010  Biso   1.000  O
  O60      1.0000 0.54492  0.80937  0.99428  Biso   1.000  O
  C172     1.0000 0.68317  0.83243  0.98249  Biso   1.000  C
  C173     1.0000 0.93641  0.20829  0.17821  Biso   1.000  C
  H191     1.0000 0.85727  0.28939  0.18521  Biso   1.000  H
  C174     1.0000 0.99632  0.35878  0.04308  Biso   1.000  C
  C175     1.0000 0.01299  0.24351  0.10561  Biso   1.000  C
  C176     1.0000 0.74249  0.82148  0.95208  Biso   1.000  C
  C177     1.0000 0.69679  0.84557  0.04352  Biso   1.000  C
  C178     1.0000 0.99629  0.19358  0.14868  Biso   1.000  C
  C179     1.0000 0.91549  0.15472  0.22419  Biso   1.000  C
  O61      1.0000 0.93859  0.38010  0.00405  Biso   1.000  O
  O62      1.0000 0.06031  0.37158  0.04035  Biso   1.000  O
  H192     1.0000 0.05250  0.23199  0.08572  Biso   1.000  H
  C180     1.0000 0.81470  0.82391  0.98240  Biso   1.000  C
  C181     1.0000 0.73463  0.79709  0.88810  Biso   1.000  C
  C182     1.0000 0.76962  0.84830  0.07331  Biso   1.000  C
  H193     1.0000 0.65701  0.85258  0.06398  Biso   1.000  H
  S17      1.0000 0.06547  0.12008  0.16985  Biso   1.000  S
  O63      1.0000 0.93701  0.08920  0.22978  Biso   1.000  O
  O64      1.0000 0.87259  0.18762  0.25728  Biso   1.000  O
  C183     1.0000 0.94761  0.42702  0.95261  Biso   1.000  C
  C184     1.0000 0.96764  0.40622  0.94900  Biso   1.000  C
  H194     1.0000 0.85472  0.81719  0.96198  Biso   1.000  H
  C185     1.0000 0.82828  0.83590  0.04211  Biso   1.000  C
  O65      1.0000 0.70448  0.85189  0.85242  Biso   1.000  O
  O66      1.0000 0.75942  0.73529  0.87521  Biso   1.000  O
  C186     1.0000 0.78460  0.86521  0.14010  Biso   1.000  C
  O67      1.0000 0.08960  0.12552  0.23185  Biso   1.000  O
  O68      1.0000 0.11951  0.12737  0.13148  Biso   1.000  O
  C187     1.0000 0.02127  0.02867  0.15198  Biso   1.000  C
  C188     1.0000 0.84669  0.13751  0.30291  Biso   1.000  C
  C189     1.0000 0.92108  0.38189  0.90069  Biso   1.000  C
  H195     1.0000 0.91900  0.47451  0.95239  Biso   1.000  H
  H196     1.0000 0.99969  0.44040  0.95349  Biso   1.000  H
  C190     1.0000 0.89660  0.42788  0.90768  Biso   1.000  C
  H197     1.0000 0.00061  0.45047  0.95701  Biso   1.000  H
  H198     1.0000 0.99402  0.36469  0.93272  Biso   1.000  H
  S18      1.0000 0.92031  0.81244  0.07806  Biso   1.000  S
  C191     1.0000 0.70769  0.83590  0.79002  Biso   1.000  C
  O69      1.0000 0.74188  0.82408  0.16743  Biso   1.000  O
  O70      1.0000 0.82690  0.91358  0.16030  Biso   1.000  O
  N17      1.0000 0.97877  0.02838  0.09883  Biso   1.000  N
  C192     1.0000 0.03520  0.96548  0.18930  Biso   1.000  C
  H199     1.0000 0.82698  0.16989  0.33138  Biso   1.000  H
  H200     1.0000 0.88868  0.10872  0.32350  Biso   1.000  H
  C193     1.0000 0.78762  0.08219  0.27598  Biso   1.000  C
  H201     1.0000 0.87162  0.36342  0.90271  Biso   1.000  H
  H202     1.0000 0.95382  0.33862  0.89862  Biso   1.000  H
  H203     1.0000 0.92022  0.41358  0.86641  Biso   1.000  H
  H204     1.0000 0.87245  0.38178  0.89109  Biso   1.000  H
  H205     1.0000 0.86364  0.45540  0.92920  Biso   1.000  H
  H206     1.0000 0.90903  0.46032  0.87671  Biso   1.000  H
  O71      1.0000 0.91110  0.75811  0.12329  Biso   1.000  O
  O72      1.0000 0.96299  0.79182  0.03388  Biso   1.000  O
  C194     1.0000 0.96052  0.89800  0.11300  Biso   1.000  C
  H207     1.0000 0.75551  0.81348  0.78562  Biso   1.000  H
  H208     1.0000 0.66852  0.79987  0.77418  Biso   1.000  H
  C195     1.0000 0.69750  0.90883  0.75988  Biso   1.000  C
  C196     1.0000 0.74282  0.84581  0.22960  Biso   1.000  C
  N18      1.0000 0.94808  0.96142  0.07898  Biso   1.000  N
  C197     1.0000 0.00381  0.89608  0.16791  Biso   1.000  C
  C198     1.0000 0.07192  0.95789  0.25279  Biso   1.000  C
  C199     1.0000 0.08942  0.95401  0.24452  Biso   1.000  C
  H209     1.0000 0.76572  0.05729  0.30652  Biso   1.000  H
  H210     1.0000 0.80939  0.04379  0.25372  Biso   1.000  H
  H211     1.0000 0.74972  0.10988  0.25042  Biso   1.000  H
  H212     1.0000 0.73719  0.94329  0.77528  Biso   1.000  H
  H213     1.0000 0.65052  0.93090  0.76551  Biso   1.000  H
  H214     1.0000 0.69779  0.90078  0.71861  Biso   1.000  H
  H215     1.0000 0.74991  0.90130  0.23392  Biso   1.000  H
  H216     1.0000 0.69508  0.83301  0.24109  Biso   1.000  H
  C200     1.0000 0.80251  0.80561  0.26819  Biso   1.000  C
  C201     1.0000 0.01819  0.83370  0.21530  Biso   1.000  C
  C202     1.0000 0.03443  0.82901  0.20540  Biso   1.000  C
  C203     1.0000 0.05380  0.87772  0.27039  Biso   1.000  C
  H217     1.0000 0.12552  0.96490  0.25631  Biso   1.000  H
  H218     1.0000 0.05218  0.99600  0.27721  Biso   1.000  H
  C204     1.0000 0.08706  0.86550  0.25262  Biso   1.000  C
  H219     1.0000 0.07350  0.98089  0.27739  Biso   1.000  H
  H220     1.0000 0.13902  0.97133  0.23990  Biso   1.000  H
  H221     1.0000 0.79601  0.81279  0.30850  Biso   1.000  H
  H222     1.0000 0.85003  0.82640  0.26252  Biso   1.000  H
  H223     1.0000 0.80079  0.75139  0.25900  Biso   1.000  H
  H224     1.0000 0.97192  0.80931  0.22142  Biso   1.000  H
  H225     1.0000 0.99515  0.80178  0.22120  Biso   1.000  H
  H226     1.0000 0.05181  0.79443  0.20461  Biso   1.000  H
  H227     1.0000 0.05991  0.79257  0.18318  Biso   1.000  H
  H228     1.0000 0.01938  0.87958  0.29869  Biso   1.000  H
  H229     1.0000 0.09887  0.85148  0.28848  Biso   1.000  H
  H230     1.0000 0.07204  0.85392  0.29028  Biso   1.000  H
  H231     1.0000 0.13655  0.84430  0.25271  Biso   1.000  H
  C205     1.0000 0.40422  0.57310  0.90288  Biso   1.000  C
  C206     1.0000 0.46702  0.58799  0.94939  Biso   1.000  C
  H232     1.0000 0.42230  0.55207  0.86922  Biso   1.000  H
  H233     1.0000 0.37071  0.53672  0.91661  Biso   1.000  H
  H234     1.0000 0.37810  0.62071  0.89219  Biso   1.000  H
  O73      1.0000 0.43809  0.62251  1.00000  Biso   1.000  O
  H235     1.0000 0.49281  0.53991  0.96119  Biso   1.000  H
  H236     1.0000 0.50203  0.62309  0.93540  Biso   1.000  H
  C207     1.0000 0.48871  0.64000  0.04629  Biso   1.000  C
  C208     1.0000 0.45532  0.68802  0.09029  Biso   1.000  C
  O74      1.0000 0.55370  0.62541  0.05135  Biso   1.000  O
  C209     1.0000 0.39132  0.66902  0.11379  Biso   1.000  C
  C210     1.0000 0.49110  0.75602  0.10741  Biso   1.000  C
  S19      1.0000 0.35351  0.57345  0.10727  Biso   1.000  S
  C211     1.0000 0.36129  0.71889  0.15062  Biso   1.000  C
  H237     1.0000 0.53561  0.76801  0.09412  Biso   1.000  H
  C212     1.0000 0.46208  0.80700  0.14402  Biso   1.000  C
  C213     1.0000 0.29297  0.56910  0.03859  Biso   1.000  C
  O75      1.0000 0.41458  0.52068  0.10595  Biso   1.000  O
  O76      1.0000 0.30562  0.56412  0.15079  Biso   1.000  O
  C214     1.0000 0.39513  0.79037  0.16571  Biso   1.000  C
  H238     1.0000 0.31842  0.70488  0.16549  Biso   1.000  H
  S20      1.0000 0.52261  0.88328  0.17381  Biso   1.000  S
  N19      1.0000 0.26881  0.63763  0.01667  Biso   1.000  N
  C215     1.0000 0.27092  0.49739  0.01452  Biso   1.000  C
  C216     1.0000 0.36011  0.84911  0.19990  Biso   1.000  C
  O77      1.0000 0.58949  0.87442  0.15009  Biso   1.000  O
  O78      1.0000 0.52511  0.88241  0.23607  Biso   1.000  O
  C217     1.0000 0.48530  0.97382  0.14569  Biso   1.000  C
  N20      1.0000 0.21809  0.63902  0.96765  Biso   1.000  N
  C218     1.0000 0.21663  0.49919  0.96501  Biso   1.000  C
  C219     1.0000 0.29780  0.41537  0.02710  Biso   1.000  C
  C220     1.0000 0.28417  0.41699  0.03762  Biso   1.000  C
  O79      1.0000 0.36482  0.91752  0.19141  Biso   1.000  O
  O80      1.0000 0.32309  0.81760  0.23924  Biso   1.000  O
  N21      1.0000 0.44808  0.97150  0.09161  Biso   1.000  N
  C221     1.0000 0.50282  0.04078  0.17860  Biso   1.000  C
  C222     1.0000 0.19278  0.57148  0.94381  Biso   1.000  C
  C223     1.0000 0.19870  0.41833  0.93919  Biso   1.000  C
  C224     1.0000 0.18965  0.41902  0.95278  Biso   1.000  C
  C225     1.0000 0.26129  0.37048  0.97272  Biso   1.000  C
  C226     1.0000 0.24090  0.36822  0.99472  Biso   1.000  C
  H239     1.0000 0.35191  0.41248  0.03150  Biso   1.000  H
  H240     1.0000 0.28167  0.39568  0.06248  Biso   1.000  H
  H241     1.0000 0.33680  0.40408  0.04180  Biso   1.000  H
  H242     1.0000 0.26789  0.41190  0.07559  Biso   1.000  H
  C227     1.0000 0.28521  0.87378  0.27369  Biso   1.000  C
  N22      1.0000 0.42428  0.03782  0.06569  Biso   1.000  N
  C228     1.0000 0.47828  0.10982  0.15141  Biso   1.000  C
  C229     1.0000 0.53299  0.05259  0.24241  Biso   1.000  C
  C230     1.0000 0.55439  0.05538  0.23550  Biso   1.000  C
  S21      1.0000 0.12655  0.57849  0.87868  Biso   1.000  S
  H243     1.0000 0.20001  0.41728  0.89721  Biso   1.000  H
  H244     1.0000 0.15029  0.40043  0.94649  Biso   1.000  H
  H245     1.0000 0.13837  0.41311  0.95951  Biso   1.000  H
  H246     1.0000 0.19219  0.40443  0.91230  Biso   1.000  H
  H247     1.0000 0.24172  0.32183  0.98468  Biso   1.000  H
  H248     1.0000 0.29822  0.35919  0.94759  Biso   1.000  H
  H249     1.0000 0.27378  0.33897  0.97338  Biso   1.000  H
  H250     1.0000 0.21186  0.33190  0.01399  Biso   1.000  H
  H251     1.0000 0.24562  0.84778  0.28988  Biso   1.000  H
  H252     1.0000 0.26289  0.91491  0.24799  Biso   1.000  H
  C231     1.0000 0.33869  0.90721  0.32161  Biso   1.000  C
  C232     1.0000 0.43920  0.10392  0.09522  Biso   1.000  C
  C233     1.0000 0.49340  0.17592  0.19449  Biso   1.000  C
  C234     1.0000 0.51458  0.17910  0.18811  Biso   1.000  C
  H253     1.0000 0.50371  0.02433  0.26718  Biso   1.000  H
  H254     1.0000 0.58460  0.03580  0.25121  Biso   1.000  H
  C235     1.0000 0.52672  0.13989  0.25138  Biso   1.000  C
  C236     1.0000 0.56155  0.13890  0.24100  Biso   1.000  C
  H255     1.0000 0.53358  0.03400  0.26841  Biso   1.000  H
  H256     1.0000 0.60276  0.03180  0.23462  Biso   1.000  H
  O81      1.0000 0.16838  0.57322  0.83134  Biso   1.000  O
  O82      1.0000 0.06829  0.52323  0.88277  Biso   1.000  O
  C237     1.0000 0.08599  0.67250  0.87749  Biso   1.000  C
  H257     1.0000 0.37813  0.93252  0.30550  Biso   1.000  H
  H258     1.0000 0.31373  0.94410  0.34282  Biso   1.000  H
  H259     1.0000 0.35939  0.86672  0.34779  Biso   1.000  H
  S22      1.0000 0.41007  0.18652  0.05135  Biso   1.000  S
  H260     1.0000 0.44742  0.20262  0.19849  Biso   1.000  H
  H261     1.0000 0.52779  0.21270  0.18159  Biso   1.000  H
  H262     1.0000 0.47697  0.21252  0.20060  Biso   1.000  H
  H263     1.0000 0.54579  0.20940  0.16611  Biso   1.000  H
  H264     1.0000 0.57567  0.16172  0.26458  Biso   1.000  H
  H265     1.0000 0.49537  0.15020  0.28100  Biso   1.000  H
  H266     1.0000 0.54495  0.15570  0.27708  Biso   1.000  H
  H267     1.0000 0.61357  0.15350  0.24298  Biso   1.000  H
  C238     1.0000 0.10358  0.72272  0.83499  Biso   1.000  C
  C239     1.0000 0.02829  0.68930  0.90852  Biso   1.000  C
  C240     1.0000 0.31680  0.16757  0.01751  Biso   1.000  C
  O83      1.0000 0.40780  0.25098  0.08989  Biso   1.000  O
  O84      1.0000 0.45511  0.19063  0.00572  Biso   1.000  O
  C241     1.0000 0.06361  0.79171  0.82179  Biso   1.000  C
  H268     1.0000 0.14270  0.71061  0.81479  Biso   1.000  H
  C242     1.0000 0.00371  0.64122  0.95692  Biso   1.000  C
  C243     1.0000 0.98698  0.75649  0.89439  Biso   1.000  C
  C244     1.0000 0.30318  0.15443  0.95648  Biso   1.000  C
  C245     1.0000 0.25748  0.17852  0.04791  Biso   1.000  C
  C246     1.0000 0.00368  0.80642  0.85131  Biso   1.000  C
  C247     1.0000 0.08448  0.84528  0.77580  Biso   1.000  C
  O85      1.0000 0.06139  0.61990  0.99595  Biso   1.000  O
  O86      1.0000 0.93972  0.62842  0.95965  Biso   1.000  O
  H269     1.0000 0.94747  0.76801  0.91428  Biso   1.000  H
  C248     1.0000 0.23041  0.15170  0.92669  Biso   1.000  C
  H270     1.0000 0.34302  0.14742  0.93602  Biso   1.000  H
  C249     1.0000 0.18532  0.17609  0.01760  Biso   1.000  C
  C250     1.0000 0.26540  0.20291  0.11189  Biso   1.000  C
  S23      1.0000 0.93451  0.87992  0.83019  Biso   1.000  S
  O87      1.0000 0.06302  0.91080  0.77022  Biso   1.000  O
  O88      1.0000 0.12738  0.81238  0.74271  Biso   1.000  O
  C251     1.0000 0.05241  0.57298  0.04739  Biso   1.000  C
  C252     1.0000 0.03239  0.59378  0.05100  Biso   1.000  C
  C253     1.0000 0.17169  0.16410  0.95789  Biso   1.000  C
  C254     1.0000 0.21542  0.13479  0.85989  Biso   1.000  C
  H271     1.0000 0.14531  0.18281  0.03801  Biso   1.000  H
  O89      1.0000 0.29550  0.14811  0.14758  Biso   1.000  O
  O90      1.0000 0.24061  0.26471  0.12479  Biso   1.000  O
  O91      1.0000 0.91043  0.87448  0.76815  Biso   1.000  O
  O92      1.0000 0.88051  0.87263  0.86852  Biso   1.000  O
  C255     1.0000 0.97870  0.97133  0.84801  Biso   1.000  C
  C256     1.0000 0.15328  0.86249  0.69708  Biso   1.000  C
  H272     1.0000 0.99936  0.54953  0.04299  Biso   1.000  H
  C257     1.0000 0.07890  0.61811  0.09931  Biso   1.000  C
  H273     1.0000 0.08097  0.52549  0.04761  Biso   1.000  H
  H274     1.0000 0.00028  0.55960  0.04651  Biso   1.000  H
  C258     1.0000 0.10337  0.57212  0.09231  Biso   1.000  C
  H275     1.0000 0.00595  0.63531  0.06728  Biso   1.000  H
  S24      1.0000 0.07972  0.18756  0.92198  Biso   1.000  S
  O93      1.0000 0.25809  0.17592  0.83257  Biso   1.000  O
  O94      1.0000 0.17308  0.08642  0.83970  Biso   1.000  O
  C259     1.0000 0.29230  0.16410  0.21002  Biso   1.000  C
  N23      1.0000 0.02120  0.97162  0.90117  Biso   1.000  N
  C260     1.0000 0.96478  0.03452  0.81070  Biso   1.000  C
  H276     1.0000 0.17299  0.83011  0.66862  Biso   1.000  H
  H277     1.0000 0.11129  0.89128  0.67649  Biso   1.000  H
  C261     1.0000 0.21241  0.91781  0.72401  Biso   1.000  C
  H278     1.0000 0.12841  0.63658  0.09729  Biso   1.000  H
  H279     1.0000 0.04622  0.66138  0.10142  Biso   1.000  H
  H280     1.0000 0.07981  0.58642  0.13359  Biso   1.000  H
  H281     1.0000 0.12758  0.61822  0.10890  Biso   1.000  H
  H282     1.0000 0.13638  0.54460  0.07080  Biso   1.000  H
  H283     1.0000 0.09100  0.53968  0.12329  Biso   1.000  H
  C262     1.0000 0.03951  0.10200  0.88700  Biso   1.000  C
  O95      1.0000 0.08893  0.24189  0.87670  Biso   1.000  O
  O96      1.0000 0.03698  0.20818  0.96611  Biso   1.000  O
  C263     1.0000 0.25721  0.15419  0.77039  Biso   1.000  C
  H284     1.0000 0.24452  0.18652  0.21442  Biso   1.000  H
  H285     1.0000 0.33151  0.20013  0.22582  Biso   1.000  H
  C264     1.0000 0.30253  0.09117  0.24012  Biso   1.000  C
  N24      1.0000 0.05190  0.03858  0.92101  Biso   1.000  N
  C265     1.0000 0.99622  0.10392  0.83208  Biso   1.000  C
  C266     1.0000 0.92811  0.04211  0.74720  Biso   1.000  C
  C267     1.0000 0.91056  0.04599  0.75548  Biso   1.000  C
  H286     1.0000 0.23431  0.94271  0.69352  Biso   1.000  H
  H287     1.0000 0.19058  0.95621  0.74628  Biso   1.000  H
  H288     1.0000 0.25031  0.89012  0.74958  Biso   1.000  H
  H289     1.0000 0.25012  0.09870  0.76608  Biso   1.000  H
  H290     1.0000 0.30489  0.16699  0.75891  Biso   1.000  H
  C268     1.0000 0.19752  0.19439  0.73180  Biso   1.000  C
  H291     1.0000 0.26279  0.05671  0.22472  Biso   1.000  H
  H292     1.0000 0.34950  0.06910  0.23448  Biso   1.000  H
  H293     1.0000 0.30218  0.09922  0.28139  Biso   1.000  H
  C269     1.0000 0.98178  0.16630  0.78469  Biso   1.000  C
  C270     1.0000 0.96555  0.17099  0.79459  Biso   1.000  C
  C271     1.0000 0.94617  0.12228  0.72960  Biso   1.000  C
  H294     1.0000 0.87451  0.03510  0.74368  Biso   1.000  H
  H295     1.0000 0.94780  0.00400  0.72278  Biso   1.000  H
  C272     1.0000 0.91297  0.13450  0.74738  Biso   1.000  C
  H296     1.0000 0.92647  0.01911  0.72261  Biso   1.000  H
  H297     1.0000 0.86095  0.02867  0.76010  Biso   1.000  H
  H298     1.0000 0.20402  0.18721  0.69150  Biso   1.000  H
  H299     1.0000 0.15000  0.17360  0.73748  Biso   1.000  H
  H300     1.0000 0.19918  0.24861  0.74100  Biso   1.000  H
  H301     1.0000 0.94822  0.20557  0.79539  Biso   1.000  H
  H302     1.0000 0.02812  0.19069  0.77862  Biso   1.000  H
  H303     1.0000 0.00488  0.19822  0.77880  Biso   1.000  H
  H304     1.0000 0.94007  0.20743  0.81681  Biso   1.000  H
  H305     1.0000 0.98059  0.12042  0.70131  Biso   1.000  H
  H306     1.0000 0.90110  0.14852  0.71152  Biso   1.000  H
  H307     1.0000 0.92799  0.14608  0.70971  Biso   1.000  H
  H308     1.0000 0.86348  0.15570  0.74729  Biso   1.000  H
