data_image0
_cell_length_a       23.113
_cell_length_b       23.113
_cell_length_c       52.322
_cell_angle_alpha    90
_cell_angle_beta     90
_cell_angle_gamma    120

_symmetry_space_group_name_H-M    "P 1"
_symmetry_int_tables_number       1

loop_
  _symmetry_equiv_pos_as_xyz
  'x, y, z'

loop_
  _atom_site_label
  _atom_site_occupancy
  _atom_site_fract_x
  _atom_site_fract_y
  _atom_site_fract_z
  _atom_site_thermal_displace_type
  _atom_site_B_iso_or_equiv
  _atom_site_type_symbol
  C1       1.0000 0.02664  0.88088  0.23202  Biso   1.000  C
  C2       1.0000 0.00195  0.84351  0.25729  Biso   1.000  C
  C3       1.0000 0.00192  0.84346  0.25729  Biso   1.000  C
  H1       1.0000 0.07485  0.90201  0.23086  Biso   1.000  H
  H2       1.0000 0.01443  0.91530  0.23067  Biso   1.000  H
  H3       1.0000 0.07483  0.90196  0.23086  Biso   1.000  H
  H4       1.0000 0.01448  0.91530  0.23067  Biso   1.000  H
  C4       1.0000 0.99314  0.82857  0.21037  Biso   1.000  C
  C5       1.0000 0.02260  0.88637  0.28082  Biso   1.000  C
  C6       1.0000 0.02264  0.88637  0.28082  Biso   1.000  C
  H5       1.0000 0.01803  0.81208  0.25876  Biso   1.000  H
  C7       1.0000 0.02660  0.88088  0.23202  Biso   1.000  C
  H6       1.0000 0.95347  0.81768  0.25687  Biso   1.000  H
  H7       1.0000 0.95342  0.81768  0.25687  Biso   1.000  H
  H8       1.0000 0.01532  0.80249  0.20886  Biso   1.000  H
  H9       1.0000 0.01536  0.80249  0.20886  Biso   1.000  H
  H10      1.0000 0.99837  0.85150  0.19426  Biso   1.000  H
  C8       1.0000 0.91338  0.77861  0.21607  Biso   1.000  C
  H11      1.0000 0.99833  0.85150  0.19426  Biso   1.000  H
  C9       1.0000 0.91331  0.77856  0.21607  Biso   1.000  C
  C10      1.0000 0.91334  0.77861  0.21607  Biso   1.000  C
  C11      1.0000 0.91336  0.77856  0.21607  Biso   1.000  C
  C12      1.0000 0.09802  0.92819  0.28055  Biso   1.000  C
  C13      1.0000 0.09807  0.92819  0.28055  Biso   1.000  C
  C14      1.0000 0.00643  0.94272  0.28011  Biso   1.000  C
  C15      1.0000 0.00647  0.94272  0.28011  Biso   1.000  C
  C16      1.0000 0.99749  0.84351  0.30580  Biso   1.000  C
  C17      1.0000 0.99742  0.84346  0.30580  Biso   1.000  C
  C18      1.0000 0.99746  0.84346  0.30580  Biso   1.000  C
  H12      1.0000 0.90816  0.75588  0.23197  Biso   1.000  H
  H13      1.0000 0.89416  0.74639  0.20257  Biso   1.000  H
  H14      1.0000 0.89117  0.80419  0.21696  Biso   1.000  H
  H15      1.0000 0.90812  0.75588  0.23197  Biso   1.000  H
  H16      1.0000 0.89113  0.80419  0.21696  Biso   1.000  H
  C19      1.0000 0.14195  0.90121  0.28155  Biso   1.000  C
  C20      1.0000 0.14192  0.90116  0.28155  Biso   1.000  C
  C21      1.0000 0.12383  0.99538  0.28051  Biso   1.000  C
  C22      1.0000 0.06401  0.00752  0.27940  Biso   1.000  C
  C23      1.0000 0.06396  0.00752  0.27940  Biso   1.000  C
  C24      1.0000 0.94357  0.93598  0.27940  Biso   1.000  C
  C25      1.0000 0.94352  0.93598  0.27940  Biso   1.000  C
  H17      1.0000 0.01900  0.81678  0.30696  Biso   1.000  H
  C26      1.0000 0.00850  0.87998  0.33047  Biso   1.000  C
  H18      1.0000 0.01904  0.81678  0.30696  Biso   1.000  H
  C27      1.0000 0.00854  0.87998  0.33047  Biso   1.000  C
  H19      1.0000 0.94998  0.81278  0.30396  Biso   1.000  H
  H20      1.0000 0.94994  0.81278  0.30396  Biso   1.000  H
  C28      1.0000 0.20905  0.94387  0.28137  Biso   1.000  C
  C29      1.0000 0.20910  0.94387  0.28137  Biso   1.000  C
  H21      1.0000 0.12474  0.85520  0.28227  Biso   1.000  H
  H22      1.0000 0.12478  0.85520  0.28227  Biso   1.000  H
  C30      1.0000 0.19261  0.03975  0.28063  Biso   1.000  C
  C31      1.0000 0.05728  0.06373  0.28011  Biso   1.000  C
  C32      1.0000 0.93628  0.99358  0.28011  Biso   1.000  C
  C33      1.0000 0.87157  0.87618  0.28051  Biso   1.000  C
  C34      1.0000 0.93624  0.99358  0.28011  Biso   1.000  C
  C35      1.0000 0.87153  0.87618  0.28051  Biso   1.000  C
  H23      1.0000 0.05615  0.90830  0.33307  Biso   1.000  H
  H24      1.0000 0.98916  0.90870  0.32917  Biso   1.000  H
  C36      1.0000 0.97999  0.83671  0.35266  Biso   1.000  C
  C37      1.0000 0.97992  0.83666  0.35266  Biso   1.000  C
  C38      1.0000 0.97994  0.83671  0.35266  Biso   1.000  C
  C39      1.0000 0.25611  0.91780  0.28208  Biso   1.000  C
  C40      1.0000 0.25615  0.91780  0.28208  Biso   1.000  C
  C41      1.0000 0.23245  0.01307  0.28065  Biso   1.000  C
  C42      1.0000 0.23242  0.01302  0.28065  Biso   1.000  C
  H25      1.0000 0.20999  0.08576  0.28067  Biso   1.000  H
  H26      1.0000 0.21008  0.08576  0.28067  Biso   1.000  H
  C43      1.0000 0.99246  0.05643  0.27940  Biso   1.000  C
  C44      1.0000 0.11363  0.13627  0.28082  Biso   1.000  C
  C45      1.0000 0.11360  0.13622  0.28082  Biso   1.000  C
  C46      1.0000 0.86377  0.97740  0.28082  Biso   1.000  C
  C47      1.0000 0.86373  0.97740  0.28082  Biso   1.000  C
  C48      1.0000 0.84717  0.80739  0.28063  Biso   1.000  C
  C49      1.0000 0.83018  0.90201  0.28055  Biso   1.000  C
  C50      1.0000 0.84712  0.80739  0.28063  Biso   1.000  C
  C51      1.0000 0.83014  0.90201  0.28055  Biso   1.000  C
  H27      1.0000 0.00044  0.80908  0.35427  Biso   1.000  H
  H28      1.0000 0.93265  0.80719  0.34966  Biso   1.000  H
  C52      1.0000 0.98814  0.87128  0.37672  Biso   1.000  C
  N1       1.0000 0.31702  0.95576  0.28669  Biso   1.000  N
  H29      1.0000 0.24022  0.87268  0.27906  Biso   1.000  H
  H30      1.0000 0.24026  0.87268  0.27906  Biso   1.000  H
  H31      1.0000 0.27843  0.04204  0.28017  Biso   1.000  H
  H32      1.0000 0.27847  0.04204  0.28017  Biso   1.000  H
  C53      1.0000 0.00461  0.12842  0.28051  Biso   1.000  C
  C54      1.0000 0.07187  0.16984  0.28055  Biso   1.000  C
  C55      1.0000 0.15648  0.15395  0.30580  Biso   1.000  C
  C56      1.0000 0.15652  0.15845  0.25729  Biso   1.000  C
  C57      1.0000 0.15656  0.15395  0.30580  Biso   1.000  C
  C58      1.0000 0.07179  0.16984  0.28055  Biso   1.000  C
  C59      1.0000 0.15647  0.15845  0.25729  Biso   1.000  C
  C60      1.0000 0.84157  0.99808  0.25729  Biso   1.000  C
  C61      1.0000 0.84153  0.99808  0.25729  Biso   1.000  C
  C62      1.0000 0.84596  0.00253  0.30580  Biso   1.000  C
  C63      1.0000 0.84600  0.00253  0.30580  Biso   1.000  C
  H33      1.0000 0.87577  0.79000  0.28067  Biso   1.000  H
  C64      1.0000 0.78066  0.76757  0.28065  Biso   1.000  C
  H34      1.0000 0.87573  0.79000  0.28067  Biso   1.000  H
  C65      1.0000 0.78062  0.76757  0.28065  Biso   1.000  C
  C66      1.0000 0.75925  0.85809  0.28155  Biso   1.000  C
  H35      1.0000 0.03494  0.90041  0.38007  Biso   1.000  H
  H36      1.0000 0.03492  0.90036  0.38007  Biso   1.000  H
  H37      1.0000 0.03496  0.90036  0.38007  Biso   1.000  H
  H38      1.0000 0.96887  0.83931  0.39028  Biso   1.000  H
  H39      1.0000 0.96637  0.89731  0.37577  Biso   1.000  H
  H40      1.0000 0.96880  0.83926  0.39028  Biso   1.000  H
  H41      1.0000 0.96631  0.89726  0.37577  Biso   1.000  H
  H42      1.0000 0.96884  0.83926  0.39028  Biso   1.000  H
  H43      1.0000 0.96635  0.89726  0.37577  Biso   1.000  H
  C67      1.0000 0.35783  0.92429  0.28808  Biso   1.000  C
  C68      1.0000 0.96024  0.15285  0.28063  Biso   1.000  C
  C69      1.0000 0.09880  0.24073  0.28155  Biso   1.000  C
  H44      1.0000 0.18720  0.13716  0.30396  Biso   1.000  H
  H45      1.0000 0.18323  0.20226  0.30696  Biso   1.000  H
  C70      1.0000 0.12001  0.12852  0.33047  Biso   1.000  C
  H46      1.0000 0.18726  0.13711  0.30396  Biso   1.000  H
  H47      1.0000 0.18728  0.13716  0.30396  Biso   1.000  H
  H48      1.0000 0.18717  0.13711  0.30396  Biso   1.000  H
  H49      1.0000 0.18230  0.13577  0.25687  Biso   1.000  H
  H50      1.0000 0.18789  0.20596  0.25876  Biso   1.000  H
  C71      1.0000 0.11911  0.14576  0.23202  Biso   1.000  C
  H51      1.0000 0.18232  0.13572  0.25687  Biso   1.000  H
  H52      1.0000 0.18797  0.20596  0.25876  Biso   1.000  H
  H53      1.0000 0.18234  0.13577  0.25687  Biso   1.000  H
  H54      1.0000 0.18227  0.13572  0.25687  Biso   1.000  H
  H55      1.0000 0.79407  0.98199  0.25876  Biso   1.000  H
  C72      1.0000 0.85429  0.97340  0.23202  Biso   1.000  C
  H56      1.0000 0.79403  0.98199  0.25876  Biso   1.000  H
  C73      1.0000 0.85424  0.97340  0.23202  Biso   1.000  C
  H57      1.0000 0.86425  0.04654  0.25687  Biso   1.000  H
  H58      1.0000 0.79777  0.98099  0.30696  Biso   1.000  H
  C74      1.0000 0.87146  0.99148  0.33047  Biso   1.000  C
  H59      1.0000 0.79773  0.98099  0.30696  Biso   1.000  H
  C75      1.0000 0.87142  0.99148  0.33047  Biso   1.000  C
  H60      1.0000 0.86279  0.05004  0.30396  Biso   1.000  H
  H61      1.0000 0.86284  0.05004  0.30396  Biso   1.000  H
  C76      1.0000 0.73481  0.79095  0.28137  Biso   1.000  C
  H62      1.0000 0.76369  0.72161  0.28017  Biso   1.000  H
  H63      1.0000 0.76363  0.72156  0.28017  Biso   1.000  H
  H64      1.0000 0.76365  0.72161  0.28017  Biso   1.000  H
  H65      1.0000 0.73046  0.87528  0.28227  Biso   1.000  H
  H66      1.0000 0.73042  0.87528  0.28227  Biso   1.000  H
  C77      1.0000 0.41634  0.95771  0.26996  Biso   1.000  C
  C78      1.0000 0.41631  0.95766  0.26996  Biso   1.000  C
  C79      1.0000 0.41638  0.95771  0.26996  Biso   1.000  C
  C80      1.0000 0.41636  0.95766  0.26996  Biso   1.000  C
  C81      1.0000 0.38222  0.92729  0.31503  Biso   1.000  C
  H67      1.0000 0.33035  0.87728  0.28307  Biso   1.000  H
  C82      1.0000 0.38226  0.92729  0.31503  Biso   1.000  C
  H68      1.0000 0.91421  0.12423  0.28067  Biso   1.000  H
  C83      1.0000 0.98695  0.21935  0.28065  Biso   1.000  C
  C84      1.0000 0.05609  0.26521  0.28137  Biso   1.000  C
  H69      1.0000 0.14479  0.26956  0.28227  Biso   1.000  H
  C85      1.0000 0.05618  0.26521  0.28137  Biso   1.000  C
  H70      1.0000 0.14488  0.26956  0.28227  Biso   1.000  H
  H71      1.0000 0.09169  0.14786  0.33307  Biso   1.000  H
  H72      1.0000 0.09131  0.08046  0.32917  Biso   1.000  H
  C86      1.0000 0.16329  0.14326  0.35266  Biso   1.000  C
  H73      1.0000 0.09173  0.14786  0.33307  Biso   1.000  H
  H74      1.0000 0.09128  0.08041  0.32917  Biso   1.000  H
  C87      1.0000 0.16333  0.14326  0.35266  Biso   1.000  C
  H75      1.0000 0.09799  0.17284  0.23086  Biso   1.000  H
  H76      1.0000 0.08468  0.09915  0.23067  Biso   1.000  H
  C88      1.0000 0.17146  0.16454  0.21037  Biso   1.000  C
  H77      1.0000 0.08477  0.09915  0.23067  Biso   1.000  H
  H78      1.0000 0.09808  0.17284  0.23086  Biso   1.000  H
  C89      1.0000 0.17142  0.16454  0.21037  Biso   1.000  C
  H79      1.0000 0.82715  0.92519  0.23086  Biso   1.000  H
  H80      1.0000 0.90088  0.98559  0.23067  Biso   1.000  H
  H81      1.0000 0.90083  0.98559  0.23067  Biso   1.000  H
  C90      1.0000 0.83539  0.00682  0.21037  Biso   1.000  C
  C91      1.0000 0.83548  0.00682  0.21037  Biso   1.000  C
  H82      1.0000 0.85216  0.94387  0.33307  Biso   1.000  H
  H83      1.0000 0.85211  0.94387  0.33307  Biso   1.000  H
  H84      1.0000 0.91957  0.01087  0.32917  Biso   1.000  H
  C92      1.0000 0.85672  0.02006  0.35266  Biso   1.000  C
  H85      1.0000 0.91955  0.01082  0.32917  Biso   1.000  H
  C93      1.0000 0.85669  0.02001  0.35266  Biso   1.000  C
  C94      1.0000 0.66165  0.74389  0.28208  Biso   1.000  C
  N2       1.0000 0.39215  0.95052  0.24324  Biso   1.000  N
  N3       1.0000 0.39212  0.95047  0.24324  Biso   1.000  N
  N4       1.0000 0.39216  0.95047  0.24324  Biso   1.000  N
  C95      1.0000 0.45884  0.92339  0.27157  Biso   1.000  C
  C96      1.0000 0.45888  0.92339  0.27157  Biso   1.000  C
  H86      1.0000 0.44394  0.00512  0.27426  Biso   1.000  H
  H87      1.0000 0.40784  0.97360  0.32027  Biso   1.000  H
  H88      1.0000 0.34382  0.90501  0.32627  Biso   1.000  H
  C97      1.0000 0.42444  0.89551  0.31799  Biso   1.000  C
  H89      1.0000 0.34386  0.90501  0.32627  Biso   1.000  H
  C98      1.0000 0.42441  0.89546  0.31799  Biso   1.000  C
  C99      1.0000 0.42448  0.89551  0.31799  Biso   1.000  C
  H90      1.0000 0.40788  0.97360  0.32027  Biso   1.000  H
  C100     1.0000 0.42445  0.89546  0.31799  Biso   1.000  C
  H91      1.0000 0.95789  0.23633  0.28017  Biso   1.000  H
  H92      1.0000 0.95798  0.23633  0.28017  Biso   1.000  H
  C101     1.0000 0.08223  0.33835  0.28208  Biso   1.000  C
  H93      1.0000 0.19279  0.12542  0.34966  Biso   1.000  H
  H94      1.0000 0.19098  0.19137  0.35427  Biso   1.000  H
  C102     1.0000 0.12874  0.11683  0.37672  Biso   1.000  C
  H95      1.0000 0.19095  0.19132  0.35427  Biso   1.000  H
  H96      1.0000 0.19091  0.19132  0.35427  Biso   1.000  H
  H97      1.0000 0.19757  0.21285  0.20886  Biso   1.000  H
  H98      1.0000 0.14856  0.14686  0.19426  Biso   1.000  H
  C103     1.0000 0.22147  0.13477  0.21607  Biso   1.000  C
  C104     1.0000 0.22145  0.13472  0.21607  Biso   1.000  C
  H99      1.0000 0.19752  0.21285  0.20886  Biso   1.000  H
  C105     1.0000 0.22136  0.13472  0.21607  Biso   1.000  C
  H100     1.0000 0.78716  0.98469  0.20886  Biso   1.000  H
  H101     1.0000 0.78711  0.98469  0.20886  Biso   1.000  H
  H102     1.0000 0.85313  0.00163  0.19426  Biso   1.000  H
  C106     1.0000 0.86527  0.08666  0.21607  Biso   1.000  C
  H103     1.0000 0.80866  0.99958  0.35427  Biso   1.000  H
  H104     1.0000 0.80862  0.99958  0.35427  Biso   1.000  H
  H105     1.0000 0.87451  0.06732  0.34966  Biso   1.000  H
  C107     1.0000 0.88312  0.01187  0.37672  Biso   1.000  C
  C108     1.0000 0.88310  0.01182  0.37672  Biso   1.000  C
  N5       1.0000 0.63873  0.68299  0.28669  Biso   1.000  N
  H106     1.0000 0.63247  0.75978  0.27906  Biso   1.000  H
  H107     1.0000 0.63243  0.75978  0.27906  Biso   1.000  H
  C109     1.0000 0.41064  0.00402  0.23044  Biso   1.000  C
  C110     1.0000 0.41068  0.00402  0.23044  Biso   1.000  C
  C111     1.0000 0.48314  0.92699  0.29957  Biso   1.000  C
  H108     1.0000 0.49702  0.94557  0.26027  Biso   1.000  H
  H109     1.0000 0.43231  0.87708  0.26627  Biso   1.000  H
  H110     1.0000 0.43235  0.87708  0.26627  Biso   1.000  H
  H111     1.0000 0.49706  0.94557  0.26027  Biso   1.000  H
  C112     1.0000 0.48318  0.92699  0.29957  Biso   1.000  C
  H112     1.0000 0.39783  0.84800  0.31457  Biso   1.000  H
  H113     1.0000 0.44083  0.90131  0.33537  Biso   1.000  H
  H114     1.0000 0.39787  0.84800  0.31457  Biso   1.000  H
  H115     1.0000 0.44081  0.90126  0.33537  Biso   1.000  H
  H116     1.0000 0.44088  0.90131  0.33537  Biso   1.000  H
  H117     1.0000 0.44085  0.90126  0.33537  Biso   1.000  H
  N6       1.0000 0.04425  0.36128  0.28669  Biso   1.000  N
  H118     1.0000 0.12735  0.36758  0.27906  Biso   1.000  H
  N7       1.0000 0.04422  0.36123  0.28669  Biso   1.000  N
  H119     1.0000 0.12732  0.36753  0.27906  Biso   1.000  H
  H120     1.0000 0.09962  0.13457  0.38007  Biso   1.000  H
  H121     1.0000 0.16077  0.12957  0.39028  Biso   1.000  H
  H122     1.0000 0.10272  0.06902  0.37577  Biso   1.000  H
  H123     1.0000 0.09960  0.13452  0.38007  Biso   1.000  H
  H124     1.0000 0.16075  0.12952  0.39028  Biso   1.000  H
  H125     1.0000 0.10276  0.06902  0.37577  Biso   1.000  H
  H126     1.0000 0.16070  0.12952  0.39028  Biso   1.000  H
  H127     1.0000 0.24415  0.15225  0.23197  Biso   1.000  H
  H128     1.0000 0.25363  0.14776  0.20257  Biso   1.000  H
  H129     1.0000 0.19579  0.08696  0.21696  Biso   1.000  H
  H130     1.0000 0.19588  0.08696  0.21696  Biso   1.000  H
  H131     1.0000 0.84775  0.09185  0.23197  Biso   1.000  H
  H132     1.0000 0.85223  0.10584  0.20257  Biso   1.000  H
  H133     1.0000 0.91301  0.10884  0.21696  Biso   1.000  H
  H134     1.0000 0.86545  0.96511  0.38007  Biso   1.000  H
  H135     1.0000 0.87040  0.03115  0.39028  Biso   1.000  H
  H136     1.0000 0.93096  0.03365  0.37577  Biso   1.000  H
  H137     1.0000 0.87044  0.03115  0.39028  Biso   1.000  H
  C113     1.0000 0.56651  0.64222  0.28808  Biso   1.000  C
  C114     1.0000 0.56645  0.64217  0.28808  Biso   1.000  C
  C115     1.0000 0.56647  0.64222  0.28808  Biso   1.000  C
  C116     1.0000 0.38689  0.00342  0.20403  Biso   1.000  C
  C117     1.0000 0.38697  0.00342  0.20403  Biso   1.000  C
  H138     1.0000 0.43991  0.04484  0.23797  Biso   1.000  H
  H139     1.0000 0.50832  0.90381  0.30077  Biso   1.000  H
  H140     1.0000 0.51252  0.97330  0.30427  Biso   1.000  H
  H141     1.0000 0.50837  0.90381  0.30077  Biso   1.000  H
  H142     1.0000 0.51257  0.97330  0.30427  Biso   1.000  H
  C118     1.0000 0.07574  0.43352  0.28808  Biso   1.000  C
  C119     1.0000 0.54508  0.61779  0.31503  Biso   1.000  C
  H143     1.0000 0.54698  0.66970  0.28307  Biso   1.000  H
  C120     1.0000 0.54135  0.58367  0.26996  Biso   1.000  C
  C121     1.0000 0.54504  0.61779  0.31503  Biso   1.000  C
  H144     1.0000 0.54694  0.66970  0.28307  Biso   1.000  H
  C122     1.0000 0.54131  0.58367  0.26996  Biso   1.000  C
  C123     1.0000 0.33861  0.94547  0.19304  Biso   1.000  C
  C124     1.0000 0.33866  0.94547  0.19304  Biso   1.000  C
  C125     1.0000 0.41213  0.06283  0.19034  Biso   1.000  C
  C126     1.0000 0.41217  0.06283  0.19034  Biso   1.000  C
  C127     1.0000 0.07274  0.45495  0.31503  Biso   1.000  C
  H145     1.0000 0.12271  0.45306  0.28307  Biso   1.000  H
  C128     1.0000 0.04231  0.45865  0.26996  Biso   1.000  C
  C129     1.0000 0.04227  0.45865  0.26996  Biso   1.000  C
  H146     1.0000 0.56576  0.59216  0.32027  Biso   1.000  H
  H147     1.0000 0.56118  0.65621  0.32627  Biso   1.000  H
  C130     1.0000 0.47106  0.57558  0.31799  Biso   1.000  C
  H148     1.0000 0.56571  0.59216  0.32027  Biso   1.000  H
  H149     1.0000 0.56111  0.65616  0.32627  Biso   1.000  H
  C131     1.0000 0.47102  0.57558  0.31799  Biso   1.000  C
  H150     1.0000 0.56113  0.65621  0.32627  Biso   1.000  H
  H151     1.0000 0.56115  0.65616  0.32627  Biso   1.000  H
  N8       1.0000 0.55835  0.60790  0.24324  Biso   1.000  N
  H152     1.0000 0.56126  0.55609  0.27426  Biso   1.000  H
  C132     1.0000 0.46456  0.54120  0.27157  Biso   1.000  C
  H153     1.0000 0.56122  0.55609  0.27426  Biso   1.000  H
  C133     1.0000 0.46449  0.54116  0.27157  Biso   1.000  C
  C134     1.0000 0.46454  0.54116  0.27157  Biso   1.000  C
  C135     1.0000 0.31302  0.94647  0.16828  Biso   1.000  C
  C136     1.0000 0.31307  0.94647  0.16828  Biso   1.000  C
  H154     1.0000 0.32242  0.90531  0.20177  Biso   1.000  H
  H155     1.0000 0.32247  0.90531  0.20177  Biso   1.000  H
  C137     1.0000 0.38988  0.06522  0.16664  Biso   1.000  C
  C138     1.0000 0.38997  0.06522  0.16664  Biso   1.000  C
  H156     1.0000 0.44524  0.10214  0.19766  Biso   1.000  H
  H157     1.0000 0.02644  0.43427  0.32027  Biso   1.000  H
  H158     1.0000 0.09507  0.43887  0.32627  Biso   1.000  H
  C139     1.0000 0.10450  0.52894  0.31799  Biso   1.000  C
  H159     1.0000 0.02646  0.43422  0.32027  Biso   1.000  H
  H160     1.0000 0.09504  0.43882  0.32627  Biso   1.000  H
  H161     1.0000 0.02649  0.43427  0.32027  Biso   1.000  H
  H162     1.0000 0.02642  0.43422  0.32027  Biso   1.000  H
  H163     1.0000 0.09500  0.43882  0.32627  Biso   1.000  H
  H164     1.0000 0.99481  0.43877  0.27426  Biso   1.000  H
  H165     1.0000 0.99479  0.43872  0.27426  Biso   1.000  H
  H166     1.0000 0.99487  0.43872  0.27426  Biso   1.000  H
  N9       1.0000 0.04957  0.44166  0.24324  Biso   1.000  N
  C140     1.0000 0.07664  0.53544  0.27157  Biso   1.000  C
  N10      1.0000 0.04948  0.44166  0.24324  Biso   1.000  N
  H167     1.0000 0.45015  0.60220  0.31457  Biso   1.000  H
  H168     1.0000 0.46045  0.55919  0.33537  Biso   1.000  H
  C141     1.0000 0.44387  0.51687  0.29957  Biso   1.000  C
  H169     1.0000 0.45013  0.60215  0.31457  Biso   1.000  H
  C142     1.0000 0.44383  0.51687  0.29957  Biso   1.000  C
  C143     1.0000 0.59343  0.58937  0.23044  Biso   1.000  C
  H170     1.0000 0.44857  0.50299  0.26027  Biso   1.000  H
  H171     1.0000 0.44475  0.56768  0.26627  Biso   1.000  H
  H172     1.0000 0.44853  0.50299  0.26027  Biso   1.000  H
  C144     1.0000 0.26001  0.88977  0.15479  Biso   1.000  C
  C145     1.0000 0.26005  0.88977  0.15479  Biso   1.000  C
  C146     1.0000 0.33838  0.00592  0.15479  Biso   1.000  C
  C147     1.0000 0.33842  0.00592  0.15479  Biso   1.000  C
  H173     1.0000 0.40837  0.10584  0.15796  Biso   1.000  H
  H174     1.0000 0.40833  0.10584  0.15796  Biso   1.000  H
  H175     1.0000 0.15200  0.54988  0.31457  Biso   1.000  H
  H176     1.0000 0.09867  0.53953  0.33537  Biso   1.000  H
  C148     1.0000 0.07303  0.55617  0.29957  Biso   1.000  C
  H177     1.0000 0.15206  0.54983  0.31457  Biso   1.000  H
  H178     1.0000 0.09876  0.53953  0.33537  Biso   1.000  H
  C149     1.0000 0.07300  0.55612  0.29957  Biso   1.000  C
  H179     1.0000 0.15208  0.54988  0.31457  Biso   1.000  H
  H180     1.0000 0.15197  0.54983  0.31457  Biso   1.000  H
  C150     1.0000 0.07296  0.55612  0.29957  Biso   1.000  C
  C151     1.0000 0.99592  0.40654  0.23044  Biso   1.000  C
  H181     1.0000 0.05441  0.55147  0.26027  Biso   1.000  H
  H182     1.0000 0.12290  0.55527  0.26627  Biso   1.000  H
  H183     1.0000 0.05439  0.55142  0.26027  Biso   1.000  H
  H184     1.0000 0.12291  0.55522  0.26627  Biso   1.000  H
  H185     1.0000 0.12294  0.55527  0.26627  Biso   1.000  H
  H186     1.0000 0.12287  0.55522  0.26627  Biso   1.000  H
  H187     1.0000 0.39546  0.49170  0.30077  Biso   1.000  H
  H188     1.0000 0.46077  0.48750  0.30427  Biso   1.000  H
  H189     1.0000 0.39542  0.49170  0.30077  Biso   1.000  H
  H190     1.0000 0.46073  0.48750  0.30427  Biso   1.000  H
  C152     1.0000 0.61655  0.61310  0.20403  Biso   1.000  C
  H191     1.0000 0.60497  0.56009  0.23797  Biso   1.000  H
  H192     1.0000 0.60493  0.56009  0.23797  Biso   1.000  H
  C153     1.0000 0.28434  0.83961  0.14984  Biso   1.000  C
  C154     1.0000 0.28431  0.83956  0.14984  Biso   1.000  C
  C155     1.0000 0.28436  0.83956  0.14984  Biso   1.000  C
  C156     1.0000 0.25524  0.92289  0.13065  Biso   1.000  C
  C157     1.0000 0.19333  0.86119  0.17106  Biso   1.000  C
  C158     1.0000 0.19337  0.86119  0.17106  Biso   1.000  C
  C159     1.0000 0.30241  0.99438  0.13040  Biso   1.000  C
  C160     1.0000 0.30245  0.99438  0.13040  Biso   1.000  C
  H193     1.0000 0.09617  0.60453  0.30077  Biso   1.000  H
  H194     1.0000 0.02670  0.53923  0.30427  Biso   1.000  H
  H195     1.0000 0.09621  0.60453  0.30077  Biso   1.000  H
  H196     1.0000 0.02666  0.53923  0.30427  Biso   1.000  H
  C161     1.0000 0.99649  0.38346  0.20403  Biso   1.000  C
  C162     1.0000 0.99658  0.38346  0.20403  Biso   1.000  C
  H197     1.0000 0.95509  0.39505  0.23797  Biso   1.000  H
  H198     1.0000 0.95513  0.39505  0.23797  Biso   1.000  H
  C163     1.0000 0.60687  0.66141  0.19304  Biso   1.000  C
  C164     1.0000 0.60680  0.66136  0.19304  Biso   1.000  C
  C165     1.0000 0.60682  0.66141  0.19304  Biso   1.000  C
  C166     1.0000 0.60684  0.66136  0.19304  Biso   1.000  C
  C167     1.0000 0.65075  0.58787  0.19034  Biso   1.000  C
  C168     1.0000 0.65070  0.58787  0.19034  Biso   1.000  C
  C169     1.0000 0.33155  0.85000  0.13157  Biso   1.000  C
  H199     1.0000 0.30133  0.83361  0.16597  Biso   1.000  H
  H200     1.0000 0.24505  0.79719  0.14587  Biso   1.000  H
  H201     1.0000 0.30135  0.83356  0.16597  Biso   1.000  H
  H202     1.0000 0.30137  0.83361  0.16597  Biso   1.000  H
  C170     1.0000 0.21425  0.89421  0.10969  Biso   1.000  C
  C171     1.0000 0.21423  0.89416  0.10969  Biso   1.000  C
  H203     1.0000 0.19942  0.84371  0.18707  Biso   1.000  H
  H204     1.0000 0.15760  0.82417  0.16177  Biso   1.000  H
  C172     1.0000 0.17022  0.91640  0.17736  Biso   1.000  C
  H205     1.0000 0.19944  0.84366  0.18707  Biso   1.000  H
  H206     1.0000 0.15764  0.82417  0.16177  Biso   1.000  H
  H207     1.0000 0.19947  0.84371  0.18707  Biso   1.000  H
  C173     1.0000 0.17027  0.91640  0.17736  Biso   1.000  C
  C174     1.0000 0.30301  0.03105  0.10913  Biso   1.000  C
  C175     1.0000 0.30309  0.03105  0.10913  Biso   1.000  C
  C176     1.0000 0.05456  0.39315  0.19304  Biso   1.000  C
  C177     1.0000 0.05447  0.39315  0.19304  Biso   1.000  C
  C178     1.0000 0.93711  0.34924  0.19034  Biso   1.000  C
  C179     1.0000 0.63346  0.68699  0.16828  Biso   1.000  C
  C180     1.0000 0.63342  0.68699  0.16828  Biso   1.000  C
  H208     1.0000 0.58286  0.67759  0.20177  Biso   1.000  H
  H209     1.0000 0.58281  0.67759  0.20177  Biso   1.000  H
  C181     1.0000 0.67536  0.61010  0.16664  Biso   1.000  C
  C182     1.0000 0.67532  0.61010  0.16664  Biso   1.000  C
  H210     1.0000 0.65697  0.55479  0.19766  Biso   1.000  H
  H211     1.0000 0.65692  0.55479  0.19766  Biso   1.000  H
  C183     1.0000 0.32685  0.78176  0.13107  Biso   1.000  C
  H212     1.0000 0.37563  0.88487  0.13667  Biso   1.000  H
  H213     1.0000 0.32022  0.86109  0.11517  Biso   1.000  H
  C184     1.0000 0.32683  0.78181  0.13107  Biso   1.000  C
  H214     1.0000 0.32026  0.86109  0.11517  Biso   1.000  H
  C185     1.0000 0.32687  0.78181  0.13107  Biso   1.000  C
  C186     1.0000 0.16340  0.82357  0.10282  Biso   1.000  C
  C187     1.0000 0.21573  0.93568  0.08851  Biso   1.000  C
  C188     1.0000 0.16344  0.82357  0.10282  Biso   1.000  C
  C189     1.0000 0.21577  0.93568  0.08851  Biso   1.000  C
  H215     1.0000 0.20754  0.95452  0.18547  Biso   1.000  H
  H216     1.0000 0.16212  0.93178  0.16127  Biso   1.000  H
  C190     1.0000 0.11702  0.89731  0.19197  Biso   1.000  C
  H217     1.0000 0.20751  0.95447  0.18547  Biso   1.000  H
  C191     1.0000 0.11704  0.89726  0.19197  Biso   1.000  C
  C192     1.0000 0.11707  0.89731  0.19197  Biso   1.000  C
  H218     1.0000 0.20756  0.95447  0.18547  Biso   1.000  H
  H219     1.0000 0.16217  0.93178  0.16127  Biso   1.000  H
  C193     1.0000 0.25913  0.00223  0.08910  Biso   1.000  C
  C194     1.0000 0.35225  0.10454  0.10605  Biso   1.000  C
  C195     1.0000 0.05349  0.36653  0.16828  Biso   1.000  C
  H220     1.0000 0.09471  0.41713  0.20177  Biso   1.000  H
  C196     1.0000 0.93473  0.32466  0.16664  Biso   1.000  C
  H221     1.0000 0.89780  0.34305  0.19766  Biso   1.000  H
  H222     1.0000 0.89789  0.34305  0.19766  Biso   1.000  H
  C197     1.0000 0.66758  0.66161  0.15479  Biso   1.000  C
  C198     1.0000 0.66751  0.66156  0.15479  Biso   1.000  C
  C199     1.0000 0.66754  0.66161  0.15479  Biso   1.000  C
  C200     1.0000 0.62976  0.73999  0.15479  Biso   1.000  C
  C201     1.0000 0.62972  0.73999  0.15479  Biso   1.000  C
  H223     1.0000 0.69755  0.59166  0.15796  Biso   1.000  H
  H224     1.0000 0.69751  0.59166  0.15796  Biso   1.000  H
  H225     1.0000 0.28044  0.74649  0.13046  Biso   1.000  H
  H226     1.0000 0.34722  0.77561  0.14627  Biso   1.000  H
  C202     1.0000 0.36443  0.78001  0.10667  Biso   1.000  C
  H227     1.0000 0.34724  0.77556  0.14627  Biso   1.000  H
  C203     1.0000 0.36441  0.77996  0.10667  Biso   1.000  C
  H228     1.0000 0.34727  0.77561  0.14627  Biso   1.000  H
  C204     1.0000 0.36448  0.78001  0.10667  Biso   1.000  C
  C205     1.0000 0.36445  0.77996  0.10667  Biso   1.000  C
  C206     1.0000 0.14391  0.82387  0.07781  Biso   1.000  C
  C207     1.0000 0.14034  0.76317  0.11531  Biso   1.000  C
  C208     1.0000 0.14395  0.82387  0.07781  Biso   1.000  C
  C209     1.0000 0.16654  0.89302  0.06695  Biso   1.000  C
  C210     1.0000 0.16651  0.89297  0.06695  Biso   1.000  C
  C211     1.0000 0.16658  0.89302  0.06695  Biso   1.000  C
  C212     1.0000 0.16655  0.89297  0.06695  Biso   1.000  C
  H229     1.0000 0.12460  0.88547  0.20886  Biso   1.000  H
  H230     1.0000 0.07843  0.85889  0.18457  Biso   1.000  H
  C213     1.0000 0.10494  0.96271  0.19326  Biso   1.000  C
  H231     1.0000 0.12465  0.88547  0.20886  Biso   1.000  H
  C214     1.0000 0.10492  0.96266  0.19326  Biso   1.000  C
  H232     1.0000 0.07848  0.85889  0.18457  Biso   1.000  H
  C215     1.0000 0.10496  0.96266  0.19326  Biso   1.000  C
  C216     1.0000 0.27705  0.05953  0.07022  Biso   1.000  C
  C217     1.0000 0.27696  0.05953  0.07022  Biso   1.000  C
  C218     1.0000 0.32896  0.11593  0.08041  Biso   1.000  C
  C219     1.0000 0.42670  0.12113  0.10336  Biso   1.000  C
  C220     1.0000 0.34753  0.15195  0.12484  Biso   1.000  C
  C221     1.0000 0.34758  0.15195  0.12484  Biso   1.000  C
  C222     1.0000 0.32887  0.11593  0.08041  Biso   1.000  C
  C223     1.0000 0.11027  0.37027  0.15479  Biso   1.000  C
  C224     1.0000 0.11024  0.37022  0.15479  Biso   1.000  C
  C225     1.0000 0.99401  0.33245  0.15479  Biso   1.000  C
  C226     1.0000 0.99405  0.33245  0.15479  Biso   1.000  C
  H233     1.0000 0.89415  0.30243  0.15796  Biso   1.000  H
  C227     1.0000 0.69197  0.69758  0.13040  Biso   1.000  C
  C228     1.0000 0.69193  0.69758  0.13040  Biso   1.000  C
  C229     1.0000 0.66768  0.74479  0.13065  Biso   1.000  C
  C230     1.0000 0.66764  0.74479  0.13065  Biso   1.000  C
  C231     1.0000 0.55528  0.71571  0.14984  Biso   1.000  C
  C232     1.0000 0.66787  0.80669  0.17106  Biso   1.000  C
  C233     1.0000 0.55521  0.71566  0.14984  Biso   1.000  C
  C234     1.0000 0.66783  0.80669  0.17106  Biso   1.000  C
  C235     1.0000 0.55523  0.71571  0.14984  Biso   1.000  C
  C236     1.0000 0.55525  0.71566  0.14984  Biso   1.000  C
  H234     1.0000 0.33944  0.77831  0.09176  Biso   1.000  H
  H235     1.0000 0.36943  0.74119  0.10716  Biso   1.000  H
  H236     1.0000 0.40783  0.81948  0.10607  Biso   1.000  H
  H237     1.0000 0.33942  0.77826  0.09176  Biso   1.000  H
  H238     1.0000 0.36947  0.74119  0.10716  Biso   1.000  H
  H239     1.0000 0.33946  0.77826  0.09176  Biso   1.000  H
  C237     1.0000 0.09788  0.76297  0.06571  Biso   1.000  C
  C238     1.0000 0.09790  0.76292  0.06571  Biso   1.000  C
  C239     1.0000 0.09792  0.76297  0.06571  Biso   1.000  C
  C240     1.0000 0.09772  0.70407  0.10261  Biso   1.000  C
  H240     1.0000 0.15334  0.76217  0.13207  Biso   1.000  H
  C241     1.0000 0.09776  0.70407  0.10261  Biso   1.000  C
  C242     1.0000 0.20332  0.90031  0.04126  Biso   1.000  C
  C243     1.0000 0.10854  0.90441  0.06372  Biso   1.000  C
  C244     1.0000 0.20334  0.90026  0.04126  Biso   1.000  C
  C245     1.0000 0.20337  0.90031  0.04126  Biso   1.000  C
  H241     1.0000 0.06963  0.95362  0.20496  Biso   1.000  H
  H242     1.0000 0.09353  0.97120  0.17656  Biso   1.000  H
  H243     1.0000 0.06961  0.95357  0.20496  Biso   1.000  H
  H244     1.0000 0.06965  0.95357  0.20496  Biso   1.000  H
  H245     1.0000 0.09357  0.97120  0.17656  Biso   1.000  H
  H246     1.0000 0.14533  0.00143  0.19896  Biso   1.000  H
  H247     1.0000 0.14537  0.00143  0.19896  Biso   1.000  H
  C246     1.0000 0.24714  0.06228  0.04765  Biso   1.000  C
  C247     1.0000 0.24712  0.06223  0.04765  Biso   1.000  C
  C248     1.0000 0.35714  0.17783  0.06678  Biso   1.000  C
  H248     1.0000 0.43959  0.10884  0.11917  Biso   1.000  H
  H249     1.0000 0.45469  0.16914  0.10147  Biso   1.000  H
  C249     1.0000 0.44288  0.08556  0.08006  Biso   1.000  C
  H250     1.0000 0.43968  0.10884  0.11917  Biso   1.000  H
  H251     1.0000 0.45473  0.16914  0.10147  Biso   1.000  H
  C250     1.0000 0.44279  0.08556  0.08006  Biso   1.000  C
  H252     1.0000 0.36334  0.14696  0.14147  Biso   1.000  H
  H253     1.0000 0.37657  0.19757  0.11917  Biso   1.000  H
  C251     1.0000 0.28046  0.14016  0.12737  Biso   1.000  C
  H254     1.0000 0.36338  0.14696  0.14147  Biso   1.000  H
  H255     1.0000 0.37655  0.19752  0.11917  Biso   1.000  H
  C252     1.0000 0.28044  0.14011  0.12737  Biso   1.000  C
  H256     1.0000 0.37646  0.19752  0.11917  Biso   1.000  H
  C253     1.0000 0.07716  0.33235  0.13065  Biso   1.000  C
  C254     1.0000 0.07707  0.33235  0.13065  Biso   1.000  C
  C255     1.0000 0.16040  0.44476  0.14984  Biso   1.000  C
  C256     1.0000 0.13880  0.33215  0.17106  Biso   1.000  C
  C257     1.0000 0.16045  0.44476  0.14984  Biso   1.000  C
  C258     1.0000 0.13888  0.33215  0.17106  Biso   1.000  C
  C259     1.0000 0.00566  0.30807  0.13040  Biso   1.000  C
  C260     1.0000 0.00563  0.30802  0.13040  Biso   1.000  C
  C261     1.0000 0.72806  0.69698  0.10913  Biso   1.000  C
  C262     1.0000 0.72802  0.69698  0.10913  Biso   1.000  C
  C263     1.0000 0.67997  0.78580  0.10969  Biso   1.000  C
  C264     1.0000 0.67993  0.78580  0.10969  Biso   1.000  C
  H257     1.0000 0.53227  0.69868  0.16597  Biso   1.000  H
  H258     1.0000 0.55215  0.75498  0.14587  Biso   1.000  H
  C265     1.0000 0.51848  0.66850  0.13157  Biso   1.000  C
  H259     1.0000 0.53222  0.69868  0.16597  Biso   1.000  H
  H260     1.0000 0.55211  0.75498  0.14587  Biso   1.000  H
  C266     1.0000 0.51843  0.66850  0.13157  Biso   1.000  C
  H261     1.0000 0.64427  0.80059  0.18707  Biso   1.000  H
  H262     1.0000 0.66656  0.84241  0.16177  Biso   1.000  H
  C267     1.0000 0.74617  0.82977  0.17736  Biso   1.000  C
  H263     1.0000 0.64423  0.80059  0.18707  Biso   1.000  H
  H264     1.0000 0.66650  0.84236  0.16177  Biso   1.000  H
  C268     1.0000 0.74613  0.82977  0.17736  Biso   1.000  C
  H265     1.0000 0.66654  0.84236  0.16177  Biso   1.000  H
  H266     1.0000 0.08260  0.76357  0.04937  Biso   1.000  H
  C269     1.0000 0.07649  0.70497  0.07765  Biso   1.000  C
  H267     1.0000 0.08265  0.76357  0.04937  Biso   1.000  H
  C270     1.0000 0.07654  0.70497  0.07765  Biso   1.000  C
  H268     1.0000 0.08314  0.66340  0.11087  Biso   1.000  H
  H269     1.0000 0.08312  0.66335  0.11087  Biso   1.000  H
  H270     1.0000 0.08316  0.66335  0.11087  Biso   1.000  H
  H271     1.0000 0.17124  0.87058  0.02876  Biso   1.000  H
  H272     1.0000 0.22142  0.94567  0.03507  Biso   1.000  H
  C271     1.0000 0.25904  0.88497  0.04321  Biso   1.000  C
  H273     1.0000 0.22146  0.94567  0.03507  Biso   1.000  H
  H274     1.0000 0.12582  0.94987  0.05776  Biso   1.000  H
  H275     1.0000 0.08020  0.87498  0.05027  Biso   1.000  H
  C272     1.0000 0.06643  0.89451  0.08597  Biso   1.000  C
  H276     1.0000 0.08025  0.87498  0.05027  Biso   1.000  H
  C273     1.0000 0.06641  0.89446  0.08597  Biso   1.000  C
  C274     1.0000 0.06648  0.89451  0.08597  Biso   1.000  C
  H277     1.0000 0.12587  0.94987  0.05776  Biso   1.000  H
  C275     1.0000 0.06645  0.89446  0.08597  Biso   1.000  C
  H278     1.0000 0.20934  0.02466  0.04147  Biso   1.000  H
  C276     1.0000 0.27459  0.12193  0.03456  Biso   1.000  C
  C277     1.0000 0.27467  0.12193  0.03456  Biso   1.000  C
  C278     1.0000 0.33052  0.18048  0.04430  Biso   1.000  C
  H279     1.0000 0.39359  0.21595  0.07347  Biso   1.000  H
  C279     1.0000 0.33056  0.18048  0.04430  Biso   1.000  C
  H280     1.0000 0.39364  0.21595  0.07347  Biso   1.000  H
  H281     1.0000 0.41372  0.03755  0.08067  Biso   1.000  H
  H282     1.0000 0.43714  0.10194  0.06376  Biso   1.000  H
  C280     1.0000 0.51375  0.10364  0.08387  Biso   1.000  C
  H283     1.0000 0.41368  0.03755  0.08067  Biso   1.000  H
  C281     1.0000 0.27270  0.19317  0.14438  Biso   1.000  C
  H284     1.0000 0.25292  0.09615  0.13476  Biso   1.000  H
  H285     1.0000 0.26311  0.13956  0.11047  Biso   1.000  H
  C282     1.0000 0.27276  0.19312  0.14438  Biso   1.000  C
  H286     1.0000 0.26309  0.13951  0.11047  Biso   1.000  H
  C283     1.0000 0.27278  0.19317  0.14438  Biso   1.000  C
  C284     1.0000 0.27267  0.19312  0.14438  Biso   1.000  C
  C285     1.0000 0.10584  0.32006  0.10969  Biso   1.000  C
  C286     1.0000 0.10582  0.32001  0.10969  Biso   1.000  C
  H287     1.0000 0.16640  0.46774  0.16597  Biso   1.000  H
  H288     1.0000 0.20284  0.44786  0.14587  Biso   1.000  H
  C287     1.0000 0.14997  0.48153  0.13157  Biso   1.000  C
  H289     1.0000 0.20288  0.44786  0.14587  Biso   1.000  H
  C288     1.0000 0.15006  0.48153  0.13157  Biso   1.000  C
  H290     1.0000 0.15630  0.35574  0.18707  Biso   1.000  H
  H291     1.0000 0.17579  0.33345  0.16177  Biso   1.000  H
  C289     1.0000 0.08365  0.25387  0.17736  Biso   1.000  C
  H292     1.0000 0.17588  0.33345  0.16177  Biso   1.000  H
  C290     1.0000 0.08362  0.25382  0.17736  Biso   1.000  C
  C291     1.0000 0.08369  0.25387  0.17736  Biso   1.000  C
  C292     1.0000 0.96891  0.27195  0.10913  Biso   1.000  C
  C293     1.0000 0.96899  0.27195  0.10913  Biso   1.000  C
  C294     1.0000 0.75234  0.64777  0.10605  Biso   1.000  C
  C295     1.0000 0.74318  0.74089  0.08910  Biso   1.000  C
  C296     1.0000 0.74314  0.74089  0.08910  Biso   1.000  C
  C297     1.0000 0.71998  0.78431  0.08851  Biso   1.000  C
  C298     1.0000 0.71993  0.78431  0.08851  Biso   1.000  C
  C299     1.0000 0.66016  0.83661  0.10282  Biso   1.000  C
  C300     1.0000 0.66014  0.83656  0.10282  Biso   1.000  C
  H293     1.0000 0.50927  0.62439  0.13667  Biso   1.000  H
  H294     1.0000 0.54086  0.67979  0.11517  Biso   1.000  H
  C301     1.0000 0.45497  0.67320  0.13107  Biso   1.000  C
  H295     1.0000 0.50923  0.62439  0.13667  Biso   1.000  H
  H296     1.0000 0.54082  0.67979  0.11517  Biso   1.000  H
  C302     1.0000 0.45493  0.67320  0.13107  Biso   1.000  C
  H297     1.0000 0.74696  0.79250  0.18547  Biso   1.000  H
  H298     1.0000 0.76967  0.83791  0.16127  Biso   1.000  H
  C303     1.0000 0.78026  0.88297  0.19197  Biso   1.000  C
  H299     1.0000 0.74692  0.79250  0.18547  Biso   1.000  H
  H300     1.0000 0.76960  0.83786  0.16127  Biso   1.000  H
  C304     1.0000 0.78021  0.88297  0.19197  Biso   1.000  C
  H301     1.0000 0.76964  0.83786  0.16127  Biso   1.000  H
  C305     1.0000 0.03100  0.63788  0.06577  Biso   1.000  C
  C306     1.0000 0.03105  0.63788  0.06577  Biso   1.000  C
  C307     1.0000 0.29263  0.89142  0.01741  Biso   1.000  C
  H302     1.0000 0.24153  0.83991  0.04967  Biso   1.000  H
  H303     1.0000 0.29203  0.91540  0.05527  Biso   1.000  H
  C308     1.0000 0.29261  0.89137  0.01741  Biso   1.000  C
  H304     1.0000 0.24155  0.83986  0.04967  Biso   1.000  H
  C309     1.0000 0.29268  0.89142  0.01741  Biso   1.000  C
  H305     1.0000 0.24157  0.83991  0.04967  Biso   1.000  H
  C310     1.0000 0.29265  0.89137  0.01741  Biso   1.000  C
  H306     1.0000 0.29208  0.91540  0.05527  Biso   1.000  H
  C311     1.0000 0.00396  0.89901  0.08146  Biso   1.000  C
  H307     1.0000 0.09321  0.92739  0.09877  Biso   1.000  H
  H308     1.0000 0.05293  0.85080  0.09306  Biso   1.000  H
  C312     1.0000 0.00393  0.89896  0.08146  Biso   1.000  C
  H309     1.0000 0.09325  0.92739  0.09877  Biso   1.000  H
  H310     1.0000 0.05297  0.85080  0.09306  Biso   1.000  H
  H311     1.0000 0.25625  0.12393  0.01896  Biso   1.000  H
  H312     1.0000 0.25620  0.12393  0.01896  Biso   1.000  H
  C313     1.0000 0.35798  0.24138  0.03024  Biso   1.000  C
  C314     1.0000 0.35802  0.24138  0.03024  Biso   1.000  C
  H313     1.0000 0.52984  0.12622  0.06766  Biso   1.000  H
  H314     1.0000 0.52481  0.13996  0.09577  Biso   1.000  H
  C315     1.0000 0.57100  0.09675  0.08937  Biso   1.000  C
  H315     1.0000 0.52479  0.13991  0.09577  Biso   1.000  H
  C316     1.0000 0.57105  0.09675  0.08937  Biso   1.000  C
  H316     1.0000 0.52490  0.13996  0.09577  Biso   1.000  H
  H317     1.0000 0.22639  0.17653  0.14887  Biso   1.000  H
  H318     1.0000 0.29904  0.20336  0.15988  Biso   1.000  H
  C317     1.0000 0.29890  0.25457  0.12717  Biso   1.000  C
  C318     1.0000 0.29896  0.25452  0.12717  Biso   1.000  C
  H319     1.0000 0.22644  0.17653  0.14887  Biso   1.000  H
  C319     1.0000 0.29898  0.25457  0.12717  Biso   1.000  C
  C320     1.0000 0.29887  0.25452  0.12717  Biso   1.000  C
  C321     1.0000 0.17644  0.33985  0.10282  Biso   1.000  C
  C322     1.0000 0.17648  0.33985  0.10282  Biso   1.000  C
  C323     1.0000 0.06433  0.28005  0.08851  Biso   1.000  C
  H320     1.0000 0.11509  0.49077  0.13667  Biso   1.000  H
  H321     1.0000 0.13891  0.45915  0.11517  Biso   1.000  H
  C324     1.0000 0.21819  0.54503  0.13107  Biso   1.000  C
  H322     1.0000 0.11515  0.49072  0.13667  Biso   1.000  H
  H323     1.0000 0.11518  0.49077  0.13667  Biso   1.000  H
  H324     1.0000 0.11507  0.49072  0.13667  Biso   1.000  H
  H325     1.0000 0.04556  0.25307  0.18547  Biso   1.000  H
  H326     1.0000 0.06820  0.23034  0.16127  Biso   1.000  H
  C325     1.0000 0.10271  0.21975  0.19197  Biso   1.000  C
  H327     1.0000 0.04554  0.25302  0.18547  Biso   1.000  H
  C326     1.0000 0.10267  0.21975  0.19197  Biso   1.000  C
  C327     1.0000 0.99771  0.25687  0.08910  Biso   1.000  C
  C328     1.0000 0.99768  0.25682  0.08910  Biso   1.000  C
  C329     1.0000 0.99777  0.25682  0.08910  Biso   1.000  C
  C330     1.0000 0.89543  0.24762  0.10605  Biso   1.000  C
  C331     1.0000 0.89548  0.24762  0.10605  Biso   1.000  C
  C332     1.0000 0.78707  0.67110  0.08041  Biso   1.000  C
  C333     1.0000 0.78703  0.67110  0.08041  Biso   1.000  C
  C334     1.0000 0.69446  0.57328  0.10336  Biso   1.000  C
  C335     1.0000 0.80445  0.65246  0.12484  Biso   1.000  C
  C336     1.0000 0.69442  0.57328  0.10336  Biso   1.000  C
  C337     1.0000 0.80440  0.65246  0.12484  Biso   1.000  C
  C338     1.0000 0.78256  0.72301  0.07022  Biso   1.000  C
  C339     1.0000 0.78250  0.72296  0.07022  Biso   1.000  C
  C340     1.0000 0.78254  0.72296  0.07022  Biso   1.000  C
  C341     1.0000 0.72650  0.83351  0.06695  Biso   1.000  C
  C342     1.0000 0.72643  0.83346  0.06695  Biso   1.000  C
  C343     1.0000 0.72645  0.83351  0.06695  Biso   1.000  C
  C344     1.0000 0.67998  0.85610  0.07781  Biso   1.000  C
  C345     1.0000 0.67994  0.85610  0.07781  Biso   1.000  C
  C346     1.0000 0.62285  0.85969  0.11531  Biso   1.000  C
  C347     1.0000 0.62281  0.85969  0.11531  Biso   1.000  C
  H328     1.0000 0.46606  0.71961  0.13046  Biso   1.000  H
  H329     1.0000 0.42838  0.65281  0.14627  Biso   1.000  H
  C348     1.0000 0.41557  0.63558  0.10667  Biso   1.000  C
  H330     1.0000 0.46600  0.71956  0.13046  Biso   1.000  H
  H331     1.0000 0.42832  0.65276  0.14627  Biso   1.000  H
  C349     1.0000 0.41553  0.63558  0.10667  Biso   1.000  C
  H332     1.0000 0.46602  0.71961  0.13046  Biso   1.000  H
  H333     1.0000 0.42834  0.65281  0.14627  Biso   1.000  H
  H334     1.0000 0.46604  0.71956  0.13046  Biso   1.000  H
  H335     1.0000 0.76084  0.87538  0.20886  Biso   1.000  H
  H336     1.0000 0.78044  0.92159  0.18457  Biso   1.000  H
  C350     1.0000 0.85776  0.89511  0.19326  Biso   1.000  C
  C351     1.0000 0.85773  0.89506  0.19326  Biso   1.000  C
  N11      1.0000 0.01622  0.63158  0.04241  Biso   1.000  N
  H337     1.0000 0.01332  0.60001  0.07597  Biso   1.000  H
  N12      1.0000 0.01626  0.63158  0.04241  Biso   1.000  N
  H338     1.0000 0.01334  0.59996  0.07597  Biso   1.000  H
  H339     1.0000 0.01337  0.60001  0.07597  Biso   1.000  H
  H340     1.0000 0.25913  0.86179  0.00528  Biso   1.000  H
  H341     1.0000 0.31073  0.93678  0.01116  Biso   1.000  H
  C352     1.0000 0.34665  0.87518  0.01844  Biso   1.000  C
  H342     1.0000 0.25917  0.86179  0.00528  Biso   1.000  H
  H343     1.0000 0.31077  0.93678  0.01116  Biso   1.000  H
  H344     1.0000 0.25946  0.86349  0.00487  Biso   1.000  H
  H345     1.0000 0.32502  0.87658  0.01886  Biso   1.000  H
  C353     1.0000 0.32787  0.96621  0.00856  Biso   1.000  C
  H346     1.0000 0.01620  0.94168  0.07366  Biso   1.000  H
  H347     1.0000 0.01625  0.94168  0.07366  Biso   1.000  H
  H348     1.0000 0.00764  0.93848  0.08956  Biso   1.000  H
  C354     1.0000 0.00067  0.90351  0.04956  Biso   1.000  C
  H349     1.0000 0.97486  0.86409  0.06976  Biso   1.000  H
  C355     1.0000 0.96478  0.89162  0.10747  Biso   1.000  C
  C356     1.0000 0.96471  0.89157  0.10747  Biso   1.000  C
  C357     1.0000 0.96474  0.89162  0.10747  Biso   1.000  C
  C358     1.0000 0.96476  0.89157  0.10747  Biso   1.000  C
  H350     1.0000 0.96475  0.85979  0.08807  Biso   1.000  H
  N13      1.0000 0.41457  0.29329  0.03532  Biso   1.000  N
  H351     1.0000 0.33353  0.24363  0.01657  Biso   1.000  H
  N14      1.0000 0.41454  0.29324  0.03532  Biso   1.000  N
  H352     1.0000 0.33358  0.24363  0.01657  Biso   1.000  H
  H353     1.0000 0.56236  0.05333  0.08396  Biso   1.000  H
  H354     1.0000 0.57972  0.10164  0.10737  Biso   1.000  H
  H355     1.0000 0.60916  0.13057  0.08037  Biso   1.000  H
  H356     1.0000 0.60913  0.13052  0.08037  Biso   1.000  H
  H357     1.0000 0.56232  0.05333  0.08396  Biso   1.000  H
  H358     1.0000 0.57968  0.10164  0.10737  Biso   1.000  H
  H359     1.0000 0.29648  0.28954  0.13618  Biso   1.000  H
  H360     1.0000 0.27229  0.24333  0.11196  Biso   1.000  H
  H361     1.0000 0.34455  0.26956  0.12266  Biso   1.000  H
  H362     1.0000 0.29652  0.28954  0.13618  Biso   1.000  H
  C359     1.0000 0.17615  0.32006  0.07781  Biso   1.000  C
  C360     1.0000 0.17612  0.32001  0.07781  Biso   1.000  C
  C361     1.0000 0.23685  0.37717  0.11531  Biso   1.000  C
  C362     1.0000 0.23682  0.37712  0.11531  Biso   1.000  C
  C363     1.0000 0.10699  0.27355  0.06695  Biso   1.000  C
  C364     1.0000 0.10707  0.27355  0.06695  Biso   1.000  C
  H363     1.0000 0.25354  0.53394  0.13046  Biso   1.000  H
  H364     1.0000 0.22441  0.57166  0.14627  Biso   1.000  H
  C365     1.0000 0.21999  0.58445  0.10667  Biso   1.000  C
  C366     1.0000 0.22003  0.58445  0.10667  Biso   1.000  C
  H365     1.0000 0.11448  0.23913  0.20886  Biso   1.000  H
  H366     1.0000 0.14112  0.21955  0.18457  Biso   1.000  H
  C367     1.0000 0.03732  0.14226  0.19326  Biso   1.000  C
  H367     1.0000 0.11457  0.23913  0.20886  Biso   1.000  H
  C368     1.0000 0.94040  0.21745  0.07022  Biso   1.000  C
  C369     1.0000 0.94049  0.21745  0.07022  Biso   1.000  C
  C370     1.0000 0.88403  0.21295  0.08041  Biso   1.000  C
  C371     1.0000 0.87878  0.30553  0.10336  Biso   1.000  C
  C372     1.0000 0.84803  0.19557  0.12484  Biso   1.000  C
  C373     1.0000 0.84805  0.19552  0.12484  Biso   1.000  C
  C374     1.0000 0.84808  0.19557  0.12484  Biso   1.000  C
  C375     1.0000 0.87887  0.30553  0.10336  Biso   1.000  C
  C376     1.0000 0.82077  0.64287  0.06678  Biso   1.000  C
  C377     1.0000 0.82072  0.64287  0.06678  Biso   1.000  C
  H368     1.0000 0.66928  0.56039  0.11917  Biso   1.000  H
  H369     1.0000 0.71448  0.54530  0.10147  Biso   1.000  H
  C378     1.0000 0.64276  0.55719  0.08006  Biso   1.000  C
  H370     1.0000 0.66924  0.56039  0.11917  Biso   1.000  H
  H371     1.0000 0.71441  0.54525  0.10147  Biso   1.000  H
  C379     1.0000 0.64272  0.55719  0.08006  Biso   1.000  C
  H372     1.0000 0.71444  0.54530  0.10147  Biso   1.000  H
  H373     1.0000 0.71446  0.54525  0.10147  Biso   1.000  H
  H374     1.0000 0.78366  0.63668  0.14147  Biso   1.000  H
  H375     1.0000 0.82107  0.62349  0.11917  Biso   1.000  H
  C380     1.0000 0.85978  0.71961  0.12737  Biso   1.000  C
  H376     1.0000 0.78362  0.63668  0.14147  Biso   1.000  H
  H377     1.0000 0.82102  0.62349  0.11917  Biso   1.000  H
  C381     1.0000 0.85971  0.71956  0.12737  Biso   1.000  C
  C382     1.0000 0.85974  0.71961  0.12737  Biso   1.000  C
  C383     1.0000 0.85976  0.71956  0.12737  Biso   1.000  C
  C384     1.0000 0.81515  0.75288  0.04765  Biso   1.000  C
  C385     1.0000 0.69697  0.79669  0.04126  Biso   1.000  C
  C386     1.0000 0.79586  0.89152  0.06372  Biso   1.000  C
  C387     1.0000 0.69692  0.79669  0.04126  Biso   1.000  C
  C388     1.0000 0.79584  0.89147  0.06372  Biso   1.000  C
  C389     1.0000 0.66505  0.90211  0.06571  Biso   1.000  C
  C390     1.0000 0.66500  0.90211  0.06571  Biso   1.000  C
  C391     1.0000 0.60635  0.90231  0.10261  Biso   1.000  C
  H378     1.0000 0.60888  0.84670  0.13207  Biso   1.000  H
  C392     1.0000 0.60632  0.90226  0.10261  Biso   1.000  C
  H379     1.0000 0.60883  0.84670  0.13207  Biso   1.000  H
  H380     1.0000 0.43886  0.66061  0.09176  Biso   1.000  H
  H381     1.0000 0.37175  0.63058  0.10716  Biso   1.000  H
  H382     1.0000 0.41164  0.59216  0.10607  Biso   1.000  H
  H383     1.0000 0.43883  0.66056  0.09176  Biso   1.000  H
  H384     1.0000 0.37171  0.63058  0.10716  Biso   1.000  H
  H385     1.0000 0.41160  0.59216  0.10607  Biso   1.000  H
  H386     1.0000 0.85615  0.85470  0.19896  Biso   1.000  H
  H387     1.0000 0.88396  0.93038  0.20496  Biso   1.000  H
  H388     1.0000 0.87769  0.90650  0.17656  Biso   1.000  H
  H389     1.0000 0.88392  0.93038  0.20496  Biso   1.000  H
  H390     1.0000 0.87765  0.90650  0.17656  Biso   1.000  H
  C393     1.0000 0.97120  0.56379  0.03371  Biso   1.000  C
  C394     1.0000 0.97116  0.56379  0.03371  Biso   1.000  C
  H391     1.0000 0.32840  0.82917  0.02307  Biso   1.000  H
  H392     1.0000 0.37913  0.90311  0.03096  Biso   1.000  H
  H393     1.0000 0.36763  0.88287  0.00197  Biso   1.000  H
  H394     1.0000 0.32844  0.82917  0.02307  Biso   1.000  H
  H395     1.0000 0.37915  0.90306  0.03096  Biso   1.000  H
  H396     1.0000 0.37917  0.90311  0.03096  Biso   1.000  H
  H397     1.0000 0.36767  0.88287  0.00197  Biso   1.000  H
  H398     1.0000 0.36222  0.99338  0.02078  Biso   1.000  H
  H399     1.0000 0.29613  0.98079  0.00747  Biso   1.000  H
  H400     1.0000 0.34834  0.97020  0.99216  Biso   1.000  H
  H401     1.0000 0.03985  0.94267  0.04356  Biso   1.000  H
  H402     1.0000 0.96166  0.90571  0.04476  Biso   1.000  H
  H403     1.0000 0.99856  0.86459  0.04197  Biso   1.000  H
  H404     1.0000 0.99586  0.91829  0.12047  Biso   1.000  H
  H405     1.0000 0.94156  0.84560  0.11267  Biso   1.000  H
  H406     1.0000 0.93297  0.90630  0.10477  Biso   1.000  H
  H407     1.0000 0.93293  0.90630  0.10477  Biso   1.000  H
  C395     1.0000 0.43817  0.35139  0.01902  Biso   1.000  C
  C396     1.0000 0.43808  0.35139  0.01902  Biso   1.000  C
  C397     1.0000 0.23707  0.33495  0.06571  Biso   1.000  C
  C398     1.0000 0.23711  0.33495  0.06571  Biso   1.000  C
  C399     1.0000 0.29597  0.39365  0.10261  Biso   1.000  C
  C400     1.0000 0.29588  0.39365  0.10261  Biso   1.000  C
  H408     1.0000 0.23787  0.39116  0.13207  Biso   1.000  H
  H409     1.0000 0.23778  0.39116  0.13207  Biso   1.000  H
  C401     1.0000 0.09970  0.30303  0.04126  Biso   1.000  C
  C402     1.0000 0.09561  0.20416  0.06372  Biso   1.000  C
  C403     1.0000 0.09966  0.30303  0.04126  Biso   1.000  C
  H410     1.0000 0.22176  0.56117  0.09176  Biso   1.000  H
  H411     1.0000 0.25882  0.62826  0.10716  Biso   1.000  H
  H412     1.0000 0.18049  0.58834  0.10607  Biso   1.000  H
  H413     1.0000 0.18058  0.58834  0.10607  Biso   1.000  H
  H414     1.0000 0.22168  0.56117  0.09176  Biso   1.000  H
  H415     1.0000 0.99849  0.14386  0.19896  Biso   1.000  H
  H416     1.0000 0.99857  0.14386  0.19896  Biso   1.000  H
  H417     1.0000 0.04640  0.11603  0.20496  Biso   1.000  H
  H418     1.0000 0.02878  0.12233  0.17656  Biso   1.000  H
  H419     1.0000 0.02887  0.12233  0.17656  Biso   1.000  H
  C404     1.0000 0.93767  0.18483  0.04765  Biso   1.000  C
  C405     1.0000 0.93772  0.18483  0.04765  Biso   1.000  C
  C406     1.0000 0.82213  0.17923  0.06678  Biso   1.000  C
  C407     1.0000 0.82217  0.17923  0.06678  Biso   1.000  C
  H420     1.0000 0.89114  0.33076  0.11917  Biso   1.000  H
  H421     1.0000 0.83080  0.28554  0.10147  Biso   1.000  H
  C408     1.0000 0.91442  0.35723  0.08006  Biso   1.000  C
  H422     1.0000 0.85306  0.21635  0.14147  Biso   1.000  H
  H423     1.0000 0.80238  0.17893  0.11917  Biso   1.000  H
  C409     1.0000 0.85980  0.14026  0.12737  Biso   1.000  C
  H424     1.0000 0.80242  0.17893  0.11917  Biso   1.000  H
  C410     1.0000 0.85986  0.14021  0.12737  Biso   1.000  C
  C411     1.0000 0.85988  0.14026  0.12737  Biso   1.000  C
  C412     1.0000 0.84998  0.66945  0.04430  Biso   1.000  C
  C413     1.0000 0.84993  0.66945  0.04430  Biso   1.000  C
  H425     1.0000 0.82239  0.60640  0.07347  Biso   1.000  H
  H426     1.0000 0.82235  0.60640  0.07347  Biso   1.000  H
  H427     1.0000 0.62386  0.58627  0.08067  Biso   1.000  H
  H428     1.0000 0.66486  0.56289  0.06376  Biso   1.000  H
  C414     1.0000 0.58997  0.48630  0.08387  Biso   1.000  C
  H429     1.0000 0.62381  0.58627  0.08067  Biso   1.000  H
  H430     1.0000 0.66482  0.56289  0.06376  Biso   1.000  H
  C415     1.0000 0.58990  0.48625  0.08387  Biso   1.000  C
  C416     1.0000 0.58992  0.48630  0.08387  Biso   1.000  C
  C417     1.0000 0.58994  0.48625  0.08387  Biso   1.000  C
  C418     1.0000 0.92048  0.72730  0.14438  Biso   1.000  C
  H431     1.0000 0.84328  0.74709  0.13476  Biso   1.000  H
  H432     1.0000 0.87647  0.73689  0.11047  Biso   1.000  H
  C419     1.0000 0.92044  0.72730  0.14438  Biso   1.000  C
  H433     1.0000 0.84324  0.74709  0.13476  Biso   1.000  H
  H434     1.0000 0.87643  0.73689  0.11047  Biso   1.000  H
  C420     1.0000 0.84736  0.72540  0.03456  Biso   1.000  C
  H435     1.0000 0.81537  0.79070  0.04147  Biso   1.000  H
  H436     1.0000 0.81533  0.79070  0.04147  Biso   1.000  H
  H437     1.0000 0.69933  0.82877  0.02876  Biso   1.000  H
  H438     1.0000 0.72427  0.77861  0.03507  Biso   1.000  H
  C421     1.0000 0.62598  0.74099  0.04321  Biso   1.000  C
  H439     1.0000 0.72420  0.77856  0.03507  Biso   1.000  H
  C422     1.0000 0.62594  0.74099  0.04321  Biso   1.000  C
  H440     1.0000 0.72424  0.77856  0.03507  Biso   1.000  H
  H441     1.0000 0.82406  0.87418  0.05776  Biso   1.000  H
  H442     1.0000 0.79477  0.91979  0.05027  Biso   1.000  H
  C423     1.0000 0.82806  0.93358  0.08597  Biso   1.000  C
  H443     1.0000 0.82402  0.87418  0.05776  Biso   1.000  H
  H444     1.0000 0.79473  0.91979  0.05027  Biso   1.000  H
  C424     1.0000 0.82802  0.93358  0.08597  Biso   1.000  C
  H445     1.0000 0.68095  0.91740  0.04937  Biso   1.000  H
  C425     1.0000 0.62847  0.92354  0.07765  Biso   1.000  C
  C426     1.0000 0.62840  0.92349  0.07765  Biso   1.000  C
  C427     1.0000 0.62843  0.92354  0.07765  Biso   1.000  C
  C428     1.0000 0.62845  0.92349  0.07765  Biso   1.000  C
  H446     1.0000 0.58028  0.91690  0.11087  Biso   1.000  H
  H447     1.0000 0.58024  0.91690  0.11087  Biso   1.000  H
  C429     1.0000 0.00752  0.53951  0.01724  Biso   1.000  C
  C430     1.0000 0.00749  0.53946  0.01724  Biso   1.000  C
  H448     1.0000 0.95336  0.53451  0.04866  Biso   1.000  H
  C431     1.0000 0.91332  0.56189  0.01902  Biso   1.000  C
  H449     1.0000 0.95334  0.53446  0.04866  Biso   1.000  H
  C432     1.0000 0.91327  0.56189  0.01902  Biso   1.000  C
  C433     1.0000 0.43627  0.40739  0.03371  Biso   1.000  C
  H450     1.0000 0.40863  0.33965  0.00417  Biso   1.000  H
  C434     1.0000 0.50864  0.37422  0.00986  Biso   1.000  C
  C435     1.0000 0.43618  0.40739  0.03371  Biso   1.000  C
  C436     1.0000 0.29510  0.37157  0.07765  Biso   1.000  C
  C437     1.0000 0.29507  0.37152  0.07765  Biso   1.000  C
  H451     1.0000 0.23639  0.31907  0.04937  Biso   1.000  H
  H452     1.0000 0.23646  0.31902  0.04937  Biso   1.000  H
  H453     1.0000 0.23648  0.31907  0.04937  Biso   1.000  H
  H454     1.0000 0.23637  0.31902  0.04937  Biso   1.000  H
  H455     1.0000 0.33661  0.41973  0.11087  Biso   1.000  H
  H456     1.0000 0.12940  0.30063  0.02876  Biso   1.000  H
  H457     1.0000 0.05431  0.27575  0.03507  Biso   1.000  H
  C438     1.0000 0.11506  0.37407  0.04321  Biso   1.000  C
  C439     1.0000 0.11504  0.37402  0.04321  Biso   1.000  C
  H458     1.0000 0.05013  0.17593  0.05776  Biso   1.000  H
  H459     1.0000 0.12502  0.20526  0.05027  Biso   1.000  H
  C440     1.0000 0.10555  0.17194  0.08597  Biso   1.000  C
  H460     1.0000 0.12498  0.20526  0.05027  Biso   1.000  H
  H461     1.0000 0.97530  0.18463  0.04147  Biso   1.000  H
  C441     1.0000 0.87802  0.15265  0.03456  Biso   1.000  C
  C442     1.0000 0.81952  0.15005  0.04430  Biso   1.000  C
  H462     1.0000 0.78399  0.17763  0.07347  Biso   1.000  H
  H463     1.0000 0.78403  0.17763  0.07347  Biso   1.000  H
  H464     1.0000 0.96239  0.37617  0.08067  Biso   1.000  H
  H465     1.0000 0.89801  0.33515  0.06376  Biso   1.000  H
  C443     1.0000 0.89630  0.41004  0.08387  Biso   1.000  C
  H466     1.0000 0.96245  0.37612  0.08067  Biso   1.000  H
  H467     1.0000 0.96248  0.37617  0.08067  Biso   1.000  H
  C444     1.0000 0.89634  0.41004  0.08387  Biso   1.000  C
  C445     1.0000 0.80682  0.07956  0.14438  Biso   1.000  C
  H468     1.0000 0.90382  0.15675  0.13476  Biso   1.000  H
  H469     1.0000 0.86043  0.12353  0.11047  Biso   1.000  H
  C446     1.0000 0.80679  0.07951  0.14438  Biso   1.000  C
  H470     1.0000 0.86047  0.12353  0.11047  Biso   1.000  H
  C447     1.0000 0.88340  0.64197  0.03024  Biso   1.000  C
  H471     1.0000 0.59644  0.47016  0.06766  Biso   1.000  H
  H472     1.0000 0.61518  0.47521  0.09577  Biso   1.000  H
  C448     1.0000 0.52575  0.42900  0.08937  Biso   1.000  C
  H473     1.0000 0.61512  0.47516  0.09577  Biso   1.000  H
  H474     1.0000 0.61514  0.47521  0.09577  Biso   1.000  H
  H475     1.0000 0.95017  0.77361  0.14887  Biso   1.000  H
  H476     1.0000 0.90437  0.70097  0.15988  Biso   1.000  H
  C449     1.0000 0.95565  0.70107  0.12717  Biso   1.000  C
  H477     1.0000 0.95014  0.77356  0.14887  Biso   1.000  H
  H478     1.0000 0.90433  0.70097  0.15988  Biso   1.000  H
  H479     1.0000 0.86776  0.74379  0.01896  Biso   1.000  H
  H480     1.0000 0.86772  0.74379  0.01896  Biso   1.000  H
  C450     1.0000 0.59874  0.70737  0.01741  Biso   1.000  C
  H481     1.0000 0.59834  0.75848  0.04967  Biso   1.000  H
  H482     1.0000 0.62336  0.70797  0.05527  Biso   1.000  H
  H483     1.0000 0.62331  0.70797  0.05527  Biso   1.000  H
  C451     1.0000 0.89505  0.99608  0.08146  Biso   1.000  C
  H484     1.0000 0.83418  0.90680  0.09877  Biso   1.000  H
  H485     1.0000 0.79786  0.94707  0.09306  Biso   1.000  H
  H486     1.0000 0.83414  0.90680  0.09877  Biso   1.000  H
  H487     1.0000 0.79781  0.94707  0.09306  Biso   1.000  H
  C452     1.0000 0.60686  0.96900  0.06577  Biso   1.000  C
  H488     1.0000 0.04356  0.54011  0.02697  Biso   1.000  H
  H489     1.0000 0.02681  0.56908  0.00268  Biso   1.000  H
  H490     1.0000 0.04353  0.54006  0.02697  Biso   1.000  H
  H491     1.0000 0.02685  0.56908  0.00268  Biso   1.000  H
  C453     1.0000 0.95979  0.46777  0.00766  Biso   1.000  C
  C454     1.0000 0.95975  0.46777  0.00766  Biso   1.000  C
  N15      1.0000 0.87877  0.58547  0.03532  Biso   1.000  N
  H492     1.0000 0.93104  0.59136  0.00417  Biso   1.000  H
  C455     1.0000 0.86565  0.49140  0.00986  Biso   1.000  C
  C456     1.0000 0.86561  0.49140  0.00986  Biso   1.000  C
  N16      1.0000 0.36840  0.38466  0.04241  Biso   1.000  N
  H493     1.0000 0.46548  0.41883  0.04866  Biso   1.000  H
  C457     1.0000 0.46054  0.46804  0.01724  Biso   1.000  C
  H494     1.0000 0.46557  0.41883  0.04866  Biso   1.000  H
  C458     1.0000 0.46051  0.46799  0.01724  Biso   1.000  C
  N17      1.0000 0.36844  0.38466  0.04241  Biso   1.000  N
  C459     1.0000 0.46047  0.46799  0.01724  Biso   1.000  C
  C460     1.0000 0.53480  0.43667  0.99314  Biso   1.000  C
  C461     1.0000 0.53486  0.43662  0.99314  Biso   1.000  C
  C462     1.0000 0.53489  0.43667  0.99314  Biso   1.000  C
  C463     1.0000 0.53478  0.43662  0.99314  Biso   1.000  C
  H495     1.0000 0.50890  0.33865  0.00017  Biso   1.000  H
  H496     1.0000 0.53787  0.38396  0.02446  Biso   1.000  H
  H497     1.0000 0.50894  0.33865  0.00017  Biso   1.000  H
  H498     1.0000 0.53783  0.38396  0.02446  Biso   1.000  H
  C464     1.0000 0.36209  0.39315  0.06577  Biso   1.000  C
  C465     1.0000 0.36218  0.39315  0.06577  Biso   1.000  C
  C466     1.0000 0.10866  0.40125  0.01741  Biso   1.000  C
  H499     1.0000 0.16009  0.40165  0.04967  Biso   1.000  H
  H500     1.0000 0.08460  0.37667  0.05527  Biso   1.000  H
  H501     1.0000 0.16018  0.40165  0.04967  Biso   1.000  H
  H502     1.0000 0.08458  0.37662  0.05527  Biso   1.000  H
  H503     1.0000 0.08465  0.37667  0.05527  Biso   1.000  H
  C467     1.0000 0.10858  0.40125  0.01741  Biso   1.000  C
  C468     1.0000 0.10104  0.10494  0.08146  Biso   1.000  C
  H504     1.0000 0.07265  0.16584  0.09877  Biso   1.000  H
  H505     1.0000 0.14921  0.20216  0.09306  Biso   1.000  H
  H506     1.0000 0.87605  0.13227  0.01896  Biso   1.000  H
  H507     1.0000 0.87602  0.13222  0.01896  Biso   1.000  H
  C469     1.0000 0.75852  0.11658  0.03024  Biso   1.000  C
  C470     1.0000 0.75861  0.11658  0.03024  Biso   1.000  C
  H508     1.0000 0.87371  0.40355  0.06766  Biso   1.000  H
  H509     1.0000 0.86004  0.38486  0.09577  Biso   1.000  H
  C471     1.0000 0.90322  0.47424  0.08937  Biso   1.000  C
  C472     1.0000 0.90326  0.47424  0.08937  Biso   1.000  C
  H510     1.0000 0.86009  0.38486  0.09577  Biso   1.000  H
  H511     1.0000 0.82345  0.04984  0.14887  Biso   1.000  H
  H512     1.0000 0.79660  0.09565  0.15988  Biso   1.000  H
  C473     1.0000 0.74542  0.04434  0.12717  Biso   1.000  C
  H513     1.0000 0.79669  0.09565  0.15988  Biso   1.000  H
  H514     1.0000 0.91016  0.66650  0.01657  Biso   1.000  H
  H515     1.0000 0.49107  0.43769  0.08396  Biso   1.000  H
  H516     1.0000 0.52197  0.42030  0.10737  Biso   1.000  H
  H517     1.0000 0.52145  0.39088  0.08037  Biso   1.000  H
  H518     1.0000 0.49103  0.43769  0.08396  Biso   1.000  H
  H519     1.0000 0.52190  0.42025  0.10737  Biso   1.000  H
  H520     1.0000 0.52192  0.42030  0.10737  Biso   1.000  H
  H521     1.0000 0.52194  0.42025  0.10737  Biso   1.000  H
  H522     1.0000 0.99306  0.70347  0.13618  Biso   1.000  H
  H523     1.0000 0.97108  0.72770  0.11196  Biso   1.000  H
  H524     1.0000 0.92508  0.65551  0.12266  Biso   1.000  H
  H525     1.0000 0.99302  0.70347  0.13618  Biso   1.000  H
  H526     1.0000 0.97104  0.72770  0.11196  Biso   1.000  H
  H527     1.0000 0.92501  0.65546  0.12266  Biso   1.000  H
  H528     1.0000 0.92504  0.65551  0.12266  Biso   1.000  H
  H529     1.0000 0.92506  0.65546  0.12266  Biso   1.000  H
  H530     1.0000 0.60265  0.74089  0.00528  Biso   1.000  H
  H531     1.0000 0.62604  0.68928  0.01116  Biso   1.000  H
  C474     1.0000 0.52858  0.65341  0.01844  Biso   1.000  C
  C475     1.0000 0.52852  0.65336  0.01844  Biso   1.000  C
  C476     1.0000 0.52854  0.65341  0.01844  Biso   1.000  C
  H532     1.0000 0.60406  0.74059  0.00487  Biso   1.000  H
  H533     1.0000 0.55153  0.67499  0.01886  Biso   1.000  H
  C477     1.0000 0.63835  0.67220  0.00856  Biso   1.000  C
  H534     1.0000 0.92546  0.98379  0.07366  Biso   1.000  H
  H535     1.0000 0.92542  0.98379  0.07366  Biso   1.000  H
  H536     1.0000 0.93084  0.99238  0.08956  Biso   1.000  H
  C478     1.0000 0.90284  0.99938  0.04956  Biso   1.000  C
  H537     1.0000 0.88921  0.02516  0.06976  Biso   1.000  H
  C479     1.0000 0.92683  0.03525  0.10747  Biso   1.000  C
  H538     1.0000 0.88929  0.02516  0.06976  Biso   1.000  H
  H539     1.0000 0.89507  0.03525  0.08807  Biso   1.000  H
  N18      1.0000 0.61538  0.98379  0.04241  Biso   1.000  N
  H540     1.0000 0.58667  0.98669  0.07597  Biso   1.000  H
  N19      1.0000 0.61533  0.98379  0.04241  Biso   1.000  N
  H541     1.0000 0.58663  0.98669  0.07597  Biso   1.000  H
  H542     1.0000 0.98397  0.45348  0.99656  Biso   1.000  H
  C480     1.0000 0.90186  0.46517  0.99314  Biso   1.000  C
  H543     1.0000 0.98393  0.45348  0.99656  Biso   1.000  H
  C481     1.0000 0.90182  0.46517  0.99314  Biso   1.000  C
  H544     1.0000 0.94297  0.43749  0.02207  Biso   1.000  H
  H545     1.0000 0.94293  0.43749  0.02207  Biso   1.000  H
  H546     1.0000 0.82976  0.49110  0.00017  Biso   1.000  H
  H547     1.0000 0.84615  0.46217  0.02446  Biso   1.000  H
  H548     1.0000 0.82972  0.49110  0.00017  Biso   1.000  H
  H549     1.0000 0.84611  0.46217  0.02446  Biso   1.000  H
  H550     1.0000 0.45990  0.50346  0.02697  Biso   1.000  H
  H551     1.0000 0.43095  0.45775  0.00268  Biso   1.000  H
  C482     1.0000 0.53221  0.49197  0.00766  Biso   1.000  C
  H552     1.0000 0.45995  0.50346  0.02697  Biso   1.000  H
  H553     1.0000 0.58057  0.45136  0.98807  Biso   1.000  H
  H554     1.0000 0.50790  0.42613  0.97777  Biso   1.000  H
  H555     1.0000 0.58048  0.45136  0.98807  Biso   1.000  H
  H556     1.0000 0.40000  0.41334  0.07597  Biso   1.000  H
  H557     1.0000 0.13821  0.39735  0.00528  Biso   1.000  H
  H558     1.0000 0.06327  0.37397  0.01116  Biso   1.000  H
  C483     1.0000 0.12481  0.47144  0.01844  Biso   1.000  C
  H559     1.0000 0.06324  0.37392  0.01116  Biso   1.000  H
  H560     1.0000 0.06316  0.37392  0.01116  Biso   1.000  H
  H561     1.0000 0.13656  0.39595  0.00487  Biso   1.000  H
  H562     1.0000 0.12344  0.44846  0.01886  Biso   1.000  H
  C484     1.0000 0.03382  0.36163  0.00856  Biso   1.000  C
  H563     1.0000 0.13595  0.11074  0.06976  Biso   1.000  H
  H564     1.0000 0.05838  0.07457  0.07366  Biso   1.000  H
  C485     1.0000 0.10843  0.07317  0.10747  Biso   1.000  C
  H565     1.0000 0.05835  0.07452  0.07366  Biso   1.000  H
  C486     1.0000 0.10840  0.07312  0.10747  Biso   1.000  C
  H566     1.0000 0.13591  0.11074  0.06976  Biso   1.000  H
  H567     1.0000 0.05831  0.07452  0.07366  Biso   1.000  H
  H568     1.0000 0.06149  0.06912  0.08956  Biso   1.000  H
  H569     1.0000 0.14024  0.10494  0.08807  Biso   1.000  H
  C487     1.0000 0.09653  0.09715  0.04956  Biso   1.000  C
  N20      1.0000 0.70672  0.12123  0.03532  Biso   1.000  N
  H570     1.0000 0.75632  0.08985  0.01657  Biso   1.000  H
  N21      1.0000 0.70677  0.12123  0.03532  Biso   1.000  N
  H571     1.0000 0.94662  0.50896  0.08396  Biso   1.000  H
  H572     1.0000 0.89832  0.47803  0.10737  Biso   1.000  H
  H573     1.0000 0.86941  0.47853  0.08037  Biso   1.000  H
  H574     1.0000 0.89836  0.47803  0.10737  Biso   1.000  H
  H575     1.0000 0.71044  0.00692  0.13618  Biso   1.000  H
  H576     1.0000 0.75659  0.02895  0.11196  Biso   1.000  H
  H577     1.0000 0.73040  0.07497  0.12266  Biso   1.000  H
  H578     1.0000 0.75668  0.02895  0.11196  Biso   1.000  H
  H579     1.0000 0.73038  0.07492  0.12266  Biso   1.000  H
  H580     1.0000 0.73047  0.07492  0.12266  Biso   1.000  H
  H581     1.0000 0.50077  0.67160  0.02307  Biso   1.000  H
  H582     1.0000 0.52396  0.62089  0.03096  Biso   1.000  H
  H583     1.0000 0.51526  0.63238  0.00197  Biso   1.000  H
  H584     1.0000 0.50073  0.67160  0.02307  Biso   1.000  H
  H585     1.0000 0.52392  0.62089  0.03096  Biso   1.000  H
  H586     1.0000 0.51521  0.63238  0.00197  Biso   1.000  H
  H587     1.0000 0.62186  0.65166  0.99216  Biso   1.000  H
  H588     1.0000 0.63114  0.63778  0.02078  Biso   1.000  H
  H589     1.0000 0.68465  0.70387  0.00747  Biso   1.000  H
  H590     1.0000 0.90283  0.96016  0.04356  Biso   1.000  H
  H591     1.0000 0.94404  0.03835  0.04476  Biso   1.000  H
  H592     1.0000 0.86605  0.00143  0.04197  Biso   1.000  H
  H593     1.0000 0.92239  0.00412  0.12047  Biso   1.000  H
  H594     1.0000 0.90403  0.05843  0.11267  Biso   1.000  H
  H595     1.0000 0.97335  0.06702  0.10477  Biso   1.000  H
  H596     1.0000 0.92247  0.00412  0.12047  Biso   1.000  H
  C488     1.0000 0.59258  0.02880  0.03371  Biso   1.000  C
  C489     1.0000 0.59263  0.02880  0.03371  Biso   1.000  C
  H597     1.0000 0.87090  0.41951  0.98807  Biso   1.000  H
  H598     1.0000 0.91827  0.49210  0.97777  Biso   1.000  H
  H599     1.0000 0.87083  0.41946  0.98807  Biso   1.000  H
  H600     1.0000 0.91822  0.49210  0.97777  Biso   1.000  H
  H601     1.0000 0.87085  0.41951  0.98807  Biso   1.000  H
  H602     1.0000 0.54656  0.53044  0.99656  Biso   1.000  H
  H603     1.0000 0.54647  0.53044  0.99656  Biso   1.000  H
  H604     1.0000 0.56254  0.50546  0.02207  Biso   1.000  H
  H605     1.0000 0.17087  0.49927  0.02307  Biso   1.000  H
  H606     1.0000 0.09691  0.47604  0.03096  Biso   1.000  H
  H607     1.0000 0.11713  0.48473  0.00197  Biso   1.000  H
  H608     1.0000 0.17078  0.49927  0.02307  Biso   1.000  H
  H609     1.0000 0.09686  0.47604  0.03096  Biso   1.000  H
  H610     1.0000 0.02980  0.37817  0.99216  Biso   1.000  H
  H611     1.0000 0.00664  0.36887  0.02078  Biso   1.000  H
  H612     1.0000 0.01921  0.31537  0.00747  Biso   1.000  H
  H613     1.0000 0.08177  0.07756  0.12047  Biso   1.000  H
  H614     1.0000 0.15439  0.09595  0.11267  Biso   1.000  H
  H615     1.0000 0.09374  0.02666  0.10477  Biso   1.000  H
  H616     1.0000 0.08174  0.07751  0.12047  Biso   1.000  H
  H617     1.0000 0.15447  0.09595  0.11267  Biso   1.000  H
  H618     1.0000 0.09378  0.02666  0.10477  Biso   1.000  H
  H619     1.0000 0.08165  0.07751  0.12047  Biso   1.000  H
  H620     1.0000 0.09431  0.05593  0.04476  Biso   1.000  H
  H621     1.0000 0.13541  0.13397  0.04197  Biso   1.000  H
  H622     1.0000 0.05734  0.09715  0.04356  Biso   1.000  H
  C490     1.0000 0.64862  0.08671  0.01902  Biso   1.000  C
  C491     1.0000 0.53200  0.99253  0.01724  Biso   1.000  C
  C492     1.0000 0.53196  0.99253  0.01724  Biso   1.000  C
  H623     1.0000 0.58112  0.04664  0.04866  Biso   1.000  H
  H624     1.0000 0.58117  0.04664  0.04866  Biso   1.000  H
  H625     1.0000 0.66032  0.06892  0.00417  Biso   1.000  H
  C493     1.0000 0.62577  0.13437  0.00986  Biso   1.000  C
  H626     1.0000 0.66036  0.06892  0.00417  Biso   1.000  H
  H627     1.0000 0.49656  0.95651  0.02697  Biso   1.000  H
  H628     1.0000 0.54228  0.97320  0.00268  Biso   1.000  H
  H629     1.0000 0.49653  0.95646  0.02697  Biso   1.000  H
  H630     1.0000 0.54224  0.97320  0.00268  Biso   1.000  H
  C494     1.0000 0.50801  0.04024  0.00766  Biso   1.000  C
  C495     1.0000 0.50803  0.04019  0.00766  Biso   1.000  C
  C496     1.0000 0.50805  0.04024  0.00766  Biso   1.000  C
  C497     1.0000 0.56331  0.09815  0.99314  Biso   1.000  C
  H631     1.0000 0.66131  0.17024  0.00017  Biso   1.000  H
  H632     1.0000 0.61604  0.15385  0.02446  Biso   1.000  H
  H633     1.0000 0.46953  0.01606  0.99656  Biso   1.000  H
  H634     1.0000 0.46950  0.01601  0.99656  Biso   1.000  H
  H635     1.0000 0.49451  0.05703  0.02207  Biso   1.000  H
  H636     1.0000 0.49455  0.05703  0.02207  Biso   1.000  H
  H637     1.0000 0.54862  0.12917  0.98807  Biso   1.000  H
  H638     1.0000 0.57381  0.08176  0.97777  Biso   1.000  H
  H639     1.0000 0.54860  0.12912  0.98807  Biso   1.000  H
  H640     1.0000 0.57378  0.08171  0.97777  Biso   1.000  H
  H641     1.0000 0.57382  0.08171  0.97777  Biso   1.000  H
  C498     1.0000 0.02664  0.88088  0.23202  Biso   1.000  C
  C499     1.0000 0.00195  0.84351  0.25729  Biso   1.000  C
  C500     1.0000 0.00192  0.84346  0.25729  Biso   1.000  C
  H642     1.0000 0.01443  0.91530  0.23067  Biso   1.000  H
  H643     1.0000 0.07485  0.90201  0.23086  Biso   1.000  H
  H644     1.0000 0.07483  0.90196  0.23086  Biso   1.000  H
  C501     1.0000 0.99314  0.82857  0.21037  Biso   1.000  C
  H645     1.0000 0.01448  0.91530  0.23067  Biso   1.000  H
  C502     1.0000 0.02264  0.88637  0.28082  Biso   1.000  C
  C503     1.0000 0.02260  0.88637  0.28082  Biso   1.000  C
  H646     1.0000 0.01803  0.81208  0.25876  Biso   1.000  H
  H647     1.0000 0.95347  0.81768  0.25687  Biso   1.000  H
  H648     1.0000 0.95342  0.81768  0.25687  Biso   1.000  H
  C504     1.0000 0.02660  0.88088  0.23202  Biso   1.000  C
  H649     1.0000 0.01536  0.80249  0.20886  Biso   1.000  H
  H650     1.0000 0.99837  0.85150  0.19426  Biso   1.000  H
  C505     1.0000 0.91338  0.77861  0.21607  Biso   1.000  C
  H651     1.0000 0.99833  0.85150  0.19426  Biso   1.000  H
  C506     1.0000 0.91331  0.77856  0.21607  Biso   1.000  C
  C507     1.0000 0.91334  0.77861  0.21607  Biso   1.000  C
  C508     1.0000 0.91336  0.77856  0.21607  Biso   1.000  C
  H652     1.0000 0.01532  0.80249  0.20886  Biso   1.000  H
  C509     1.0000 0.09802  0.92819  0.28055  Biso   1.000  C
  C510     1.0000 0.09807  0.92819  0.28055  Biso   1.000  C
  C511     1.0000 0.00643  0.94272  0.28011  Biso   1.000  C
  C512     1.0000 0.99749  0.84351  0.30580  Biso   1.000  C
  C513     1.0000 0.99742  0.84346  0.30580  Biso   1.000  C
  C514     1.0000 0.99746  0.84346  0.30580  Biso   1.000  C
  C515     1.0000 0.00647  0.94272  0.28011  Biso   1.000  C
  H653     1.0000 0.90816  0.75588  0.23197  Biso   1.000  H
  H654     1.0000 0.89416  0.74639  0.20257  Biso   1.000  H
  H655     1.0000 0.89117  0.80419  0.21696  Biso   1.000  H
  H656     1.0000 0.90812  0.75588  0.23197  Biso   1.000  H
  H657     1.0000 0.89113  0.80419  0.21696  Biso   1.000  H
  C516     1.0000 0.14195  0.90121  0.28155  Biso   1.000  C
  C517     1.0000 0.14192  0.90116  0.28155  Biso   1.000  C
  C518     1.0000 0.12383  0.99538  0.28051  Biso   1.000  C
  C519     1.0000 0.06401  0.00752  0.27940  Biso   1.000  C
  C520     1.0000 0.06396  0.00752  0.27940  Biso   1.000  C
  C521     1.0000 0.94357  0.93598  0.27940  Biso   1.000  C
  C522     1.0000 0.94352  0.93598  0.27940  Biso   1.000  C
  H658     1.0000 0.01904  0.81678  0.30696  Biso   1.000  H
  C523     1.0000 0.00854  0.87998  0.33047  Biso   1.000  C
  H659     1.0000 0.94998  0.81278  0.30396  Biso   1.000  H
  H660     1.0000 0.94994  0.81278  0.30396  Biso   1.000  H
  H661     1.0000 0.01900  0.81678  0.30696  Biso   1.000  H
  C524     1.0000 0.00850  0.87998  0.33047  Biso   1.000  C
  C525     1.0000 0.20910  0.94387  0.28137  Biso   1.000  C
  C526     1.0000 0.20905  0.94387  0.28137  Biso   1.000  C
  H662     1.0000 0.12474  0.85520  0.28227  Biso   1.000  H
  H663     1.0000 0.12478  0.85520  0.28227  Biso   1.000  H
  C527     1.0000 0.19261  0.03975  0.28063  Biso   1.000  C
  C528     1.0000 0.05728  0.06373  0.28011  Biso   1.000  C
  C529     1.0000 0.93628  0.99358  0.28011  Biso   1.000  C
  C530     1.0000 0.87157  0.87618  0.28051  Biso   1.000  C
  C531     1.0000 0.93624  0.99358  0.28011  Biso   1.000  C
  C532     1.0000 0.87153  0.87618  0.28051  Biso   1.000  C
  H664     1.0000 0.05615  0.90830  0.33307  Biso   1.000  H
  H665     1.0000 0.98916  0.90870  0.32917  Biso   1.000  H
  C533     1.0000 0.97999  0.83671  0.35266  Biso   1.000  C
  C534     1.0000 0.97992  0.83666  0.35266  Biso   1.000  C
  C535     1.0000 0.97994  0.83671  0.35266  Biso   1.000  C
  C536     1.0000 0.23245  0.01307  0.28065  Biso   1.000  C
  C537     1.0000 0.23242  0.01302  0.28065  Biso   1.000  C
  C538     1.0000 0.25611  0.91780  0.28208  Biso   1.000  C
  C539     1.0000 0.25615  0.91780  0.28208  Biso   1.000  C
  H666     1.0000 0.20999  0.08576  0.28067  Biso   1.000  H
  H667     1.0000 0.21008  0.08576  0.28067  Biso   1.000  H
  C540     1.0000 0.11360  0.13622  0.28082  Biso   1.000  C
  C541     1.0000 0.99246  0.05643  0.27940  Biso   1.000  C
  C542     1.0000 0.11363  0.13627  0.28082  Biso   1.000  C
  C543     1.0000 0.86377  0.97740  0.28082  Biso   1.000  C
  C544     1.0000 0.86373  0.97740  0.28082  Biso   1.000  C
  C545     1.0000 0.84717  0.80739  0.28063  Biso   1.000  C
  C546     1.0000 0.83018  0.90201  0.28055  Biso   1.000  C
  C547     1.0000 0.84712  0.80739  0.28063  Biso   1.000  C
  C548     1.0000 0.83014  0.90201  0.28055  Biso   1.000  C
  H668     1.0000 0.00044  0.80908  0.35427  Biso   1.000  H
  H669     1.0000 0.93265  0.80719  0.34966  Biso   1.000  H
  C549     1.0000 0.98814  0.87128  0.37672  Biso   1.000  C
  H670     1.0000 0.27843  0.04204  0.28017  Biso   1.000  H
  H671     1.0000 0.27847  0.04204  0.28017  Biso   1.000  H
  N22      1.0000 0.31702  0.95576  0.28669  Biso   1.000  N
  H672     1.0000 0.24022  0.87268  0.27906  Biso   1.000  H
  H673     1.0000 0.24026  0.87268  0.27906  Biso   1.000  H
  C550     1.0000 0.07187  0.16984  0.28055  Biso   1.000  C
  C551     1.0000 0.15648  0.15395  0.30580  Biso   1.000  C
  C552     1.0000 0.15652  0.15845  0.25729  Biso   1.000  C
  C553     1.0000 0.15656  0.15395  0.30580  Biso   1.000  C
  C554     1.0000 0.07179  0.16984  0.28055  Biso   1.000  C
  C555     1.0000 0.15647  0.15845  0.25729  Biso   1.000  C
  C556     1.0000 0.00461  0.12842  0.28051  Biso   1.000  C
  C557     1.0000 0.84157  0.99808  0.25729  Biso   1.000  C
  C558     1.0000 0.84153  0.99808  0.25729  Biso   1.000  C
  C559     1.0000 0.84596  0.00253  0.30580  Biso   1.000  C
  C560     1.0000 0.84600  0.00253  0.30580  Biso   1.000  C
  H674     1.0000 0.87577  0.79000  0.28067  Biso   1.000  H
  C561     1.0000 0.78066  0.76757  0.28065  Biso   1.000  C
  H675     1.0000 0.87573  0.79000  0.28067  Biso   1.000  H
  C562     1.0000 0.78062  0.76757  0.28065  Biso   1.000  C
  C563     1.0000 0.75925  0.85809  0.28155  Biso   1.000  C
  H676     1.0000 0.03494  0.90041  0.38007  Biso   1.000  H
  H677     1.0000 0.96887  0.83931  0.39028  Biso   1.000  H
  H678     1.0000 0.96637  0.89731  0.37577  Biso   1.000  H
  H679     1.0000 0.96880  0.83926  0.39028  Biso   1.000  H
  H680     1.0000 0.96631  0.89726  0.37577  Biso   1.000  H
  H681     1.0000 0.96884  0.83926  0.39028  Biso   1.000  H
  H682     1.0000 0.96635  0.89726  0.37577  Biso   1.000  H
  H683     1.0000 0.03492  0.90036  0.38007  Biso   1.000  H
  H684     1.0000 0.03496  0.90036  0.38007  Biso   1.000  H
  C564     1.0000 0.35783  0.92429  0.28808  Biso   1.000  C
  C565     1.0000 0.09880  0.24073  0.28155  Biso   1.000  C
  H685     1.0000 0.18323  0.20226  0.30696  Biso   1.000  H
  C566     1.0000 0.12001  0.12852  0.33047  Biso   1.000  C
  H686     1.0000 0.18720  0.13716  0.30396  Biso   1.000  H
  H687     1.0000 0.18726  0.13711  0.30396  Biso   1.000  H
  H688     1.0000 0.18728  0.13716  0.30396  Biso   1.000  H
  H689     1.0000 0.18717  0.13711  0.30396  Biso   1.000  H
  H690     1.0000 0.18230  0.13577  0.25687  Biso   1.000  H
  H691     1.0000 0.18789  0.20596  0.25876  Biso   1.000  H
  C567     1.0000 0.11911  0.14576  0.23202  Biso   1.000  C
  H692     1.0000 0.18232  0.13572  0.25687  Biso   1.000  H
  H693     1.0000 0.18797  0.20596  0.25876  Biso   1.000  H
  H694     1.0000 0.18234  0.13577  0.25687  Biso   1.000  H
  H695     1.0000 0.18227  0.13572  0.25687  Biso   1.000  H
  C568     1.0000 0.96024  0.15285  0.28063  Biso   1.000  C
  H696     1.0000 0.86425  0.04654  0.25687  Biso   1.000  H
  H697     1.0000 0.79407  0.98199  0.25876  Biso   1.000  H
  C569     1.0000 0.85429  0.97340  0.23202  Biso   1.000  C
  H698     1.0000 0.79403  0.98199  0.25876  Biso   1.000  H
  C570     1.0000 0.85424  0.97340  0.23202  Biso   1.000  C
  H699     1.0000 0.79777  0.98099  0.30696  Biso   1.000  H
  C571     1.0000 0.87146  0.99148  0.33047  Biso   1.000  C
  H700     1.0000 0.79773  0.98099  0.30696  Biso   1.000  H
  C572     1.0000 0.87142  0.99148  0.33047  Biso   1.000  C
  H701     1.0000 0.86279  0.05004  0.30396  Biso   1.000  H
  H702     1.0000 0.86284  0.05004  0.30396  Biso   1.000  H
  C573     1.0000 0.73481  0.79095  0.28137  Biso   1.000  C
  H703     1.0000 0.76369  0.72161  0.28017  Biso   1.000  H
  H704     1.0000 0.76363  0.72156  0.28017  Biso   1.000  H
  H705     1.0000 0.76365  0.72161  0.28017  Biso   1.000  H
  H706     1.0000 0.73046  0.87528  0.28227  Biso   1.000  H
  H707     1.0000 0.73042  0.87528  0.28227  Biso   1.000  H
  C574     1.0000 0.41634  0.95771  0.26996  Biso   1.000  C
  C575     1.0000 0.41631  0.95766  0.26996  Biso   1.000  C
  C576     1.0000 0.41638  0.95771  0.26996  Biso   1.000  C
  C577     1.0000 0.41636  0.95766  0.26996  Biso   1.000  C
  H708     1.0000 0.33035  0.87728  0.28307  Biso   1.000  H
  C578     1.0000 0.38226  0.92729  0.31503  Biso   1.000  C
  C579     1.0000 0.38222  0.92729  0.31503  Biso   1.000  C
  C580     1.0000 0.05609  0.26521  0.28137  Biso   1.000  C
  H709     1.0000 0.14479  0.26956  0.28227  Biso   1.000  H
  C581     1.0000 0.05618  0.26521  0.28137  Biso   1.000  C
  H710     1.0000 0.14488  0.26956  0.28227  Biso   1.000  H
  H711     1.0000 0.09169  0.14786  0.33307  Biso   1.000  H
  H712     1.0000 0.09131  0.08046  0.32917  Biso   1.000  H
  C582     1.0000 0.16329  0.14326  0.35266  Biso   1.000  C
  H713     1.0000 0.09173  0.14786  0.33307  Biso   1.000  H
  H714     1.0000 0.09128  0.08041  0.32917  Biso   1.000  H
  C583     1.0000 0.16333  0.14326  0.35266  Biso   1.000  C
  H715     1.0000 0.09799  0.17284  0.23086  Biso   1.000  H
  H716     1.0000 0.08468  0.09915  0.23067  Biso   1.000  H
  C584     1.0000 0.17146  0.16454  0.21037  Biso   1.000  C
  H717     1.0000 0.08477  0.09915  0.23067  Biso   1.000  H
  H718     1.0000 0.09808  0.17284  0.23086  Biso   1.000  H
  C585     1.0000 0.17142  0.16454  0.21037  Biso   1.000  C
  C586     1.0000 0.98695  0.21935  0.28065  Biso   1.000  C
  H719     1.0000 0.91421  0.12423  0.28067  Biso   1.000  H
  H720     1.0000 0.82715  0.92519  0.23086  Biso   1.000  H
  H721     1.0000 0.90088  0.98559  0.23067  Biso   1.000  H
  H722     1.0000 0.90083  0.98559  0.23067  Biso   1.000  H
  C587     1.0000 0.83539  0.00682  0.21037  Biso   1.000  C
  C588     1.0000 0.83548  0.00682  0.21037  Biso   1.000  C
  H723     1.0000 0.85216  0.94387  0.33307  Biso   1.000  H
  H724     1.0000 0.85211  0.94387  0.33307  Biso   1.000  H
  H725     1.0000 0.91957  0.01087  0.32917  Biso   1.000  H
  C589     1.0000 0.85672  0.02006  0.35266  Biso   1.000  C
  H726     1.0000 0.91955  0.01082  0.32917  Biso   1.000  H
  C590     1.0000 0.85669  0.02001  0.35266  Biso   1.000  C
  C591     1.0000 0.66165  0.74389  0.28208  Biso   1.000  C
  N23      1.0000 0.39215  0.95052  0.24324  Biso   1.000  N
  N24      1.0000 0.39212  0.95047  0.24324  Biso   1.000  N
  N25      1.0000 0.39216  0.95047  0.24324  Biso   1.000  N
  C592     1.0000 0.45884  0.92339  0.27157  Biso   1.000  C
  C593     1.0000 0.45888  0.92339  0.27157  Biso   1.000  C
  H727     1.0000 0.44394  0.00512  0.27426  Biso   1.000  H
  H728     1.0000 0.40784  0.97360  0.32027  Biso   1.000  H
  H729     1.0000 0.34386  0.90501  0.32627  Biso   1.000  H
  H730     1.0000 0.34382  0.90501  0.32627  Biso   1.000  H
  C594     1.0000 0.42444  0.89551  0.31799  Biso   1.000  C
  C595     1.0000 0.42441  0.89546  0.31799  Biso   1.000  C
  C596     1.0000 0.42448  0.89551  0.31799  Biso   1.000  C
  H731     1.0000 0.40788  0.97360  0.32027  Biso   1.000  H
  C597     1.0000 0.42445  0.89546  0.31799  Biso   1.000  C
  C598     1.0000 0.08223  0.33835  0.28208  Biso   1.000  C
  H732     1.0000 0.19279  0.12542  0.34966  Biso   1.000  H
  H733     1.0000 0.19098  0.19137  0.35427  Biso   1.000  H
  C599     1.0000 0.12874  0.11683  0.37672  Biso   1.000  C
  H734     1.0000 0.19095  0.19132  0.35427  Biso   1.000  H
  H735     1.0000 0.19091  0.19132  0.35427  Biso   1.000  H
  H736     1.0000 0.19757  0.21285  0.20886  Biso   1.000  H
  H737     1.0000 0.14856  0.14686  0.19426  Biso   1.000  H
  C600     1.0000 0.22147  0.13477  0.21607  Biso   1.000  C
  C601     1.0000 0.22145  0.13472  0.21607  Biso   1.000  C
  H738     1.0000 0.19752  0.21285  0.20886  Biso   1.000  H
  C602     1.0000 0.22136  0.13472  0.21607  Biso   1.000  C
  H739     1.0000 0.95789  0.23633  0.28017  Biso   1.000  H
  H740     1.0000 0.95798  0.23633  0.28017  Biso   1.000  H
  H741     1.0000 0.85313  0.00163  0.19426  Biso   1.000  H
  H742     1.0000 0.78716  0.98469  0.20886  Biso   1.000  H
  H743     1.0000 0.78711  0.98469  0.20886  Biso   1.000  H
  C603     1.0000 0.86527  0.08666  0.21607  Biso   1.000  C
  H744     1.0000 0.80866  0.99958  0.35427  Biso   1.000  H
  H745     1.0000 0.80862  0.99958  0.35427  Biso   1.000  H
  H746     1.0000 0.87451  0.06732  0.34966  Biso   1.000  H
  C604     1.0000 0.88312  0.01187  0.37672  Biso   1.000  C
  C605     1.0000 0.88310  0.01182  0.37672  Biso   1.000  C
  N26      1.0000 0.63873  0.68299  0.28669  Biso   1.000  N
  H747     1.0000 0.63247  0.75978  0.27906  Biso   1.000  H
  H748     1.0000 0.63243  0.75978  0.27906  Biso   1.000  H
  C606     1.0000 0.41064  0.00402  0.23044  Biso   1.000  C
  C607     1.0000 0.41068  0.00402  0.23044  Biso   1.000  C
  C608     1.0000 0.48314  0.92699  0.29957  Biso   1.000  C
  H749     1.0000 0.49702  0.94557  0.26027  Biso   1.000  H
  H750     1.0000 0.43235  0.87708  0.26627  Biso   1.000  H
  H751     1.0000 0.49706  0.94557  0.26027  Biso   1.000  H
  H752     1.0000 0.43231  0.87708  0.26627  Biso   1.000  H
  C609     1.0000 0.48318  0.92699  0.29957  Biso   1.000  C
  H753     1.0000 0.39787  0.84800  0.31457  Biso   1.000  H
  H754     1.0000 0.39783  0.84800  0.31457  Biso   1.000  H
  H755     1.0000 0.44083  0.90131  0.33537  Biso   1.000  H
  H756     1.0000 0.44081  0.90126  0.33537  Biso   1.000  H
  H757     1.0000 0.44088  0.90131  0.33537  Biso   1.000  H
  H758     1.0000 0.44085  0.90126  0.33537  Biso   1.000  H
  H759     1.0000 0.12735  0.36758  0.27906  Biso   1.000  H
  H760     1.0000 0.12732  0.36753  0.27906  Biso   1.000  H
  N27      1.0000 0.04425  0.36128  0.28669  Biso   1.000  N
  N28      1.0000 0.04422  0.36123  0.28669  Biso   1.000  N
  H761     1.0000 0.09960  0.13452  0.38007  Biso   1.000  H
  H762     1.0000 0.09962  0.13457  0.38007  Biso   1.000  H
  H763     1.0000 0.16077  0.12957  0.39028  Biso   1.000  H
  H764     1.0000 0.10272  0.06902  0.37577  Biso   1.000  H
  H765     1.0000 0.16075  0.12952  0.39028  Biso   1.000  H
  H766     1.0000 0.10276  0.06902  0.37577  Biso   1.000  H
  H767     1.0000 0.16070  0.12952  0.39028  Biso   1.000  H
  H768     1.0000 0.25363  0.14776  0.20257  Biso   1.000  H
  H769     1.0000 0.24415  0.15225  0.23197  Biso   1.000  H
  H770     1.0000 0.19579  0.08696  0.21696  Biso   1.000  H
  H771     1.0000 0.19588  0.08696  0.21696  Biso   1.000  H
  H772     1.0000 0.85223  0.10584  0.20257  Biso   1.000  H
  H773     1.0000 0.84775  0.09185  0.23197  Biso   1.000  H
  H774     1.0000 0.91301  0.10884  0.21696  Biso   1.000  H
  H775     1.0000 0.86545  0.96511  0.38007  Biso   1.000  H
  H776     1.0000 0.87040  0.03115  0.39028  Biso   1.000  H
  H777     1.0000 0.93096  0.03365  0.37577  Biso   1.000  H
  H778     1.0000 0.87044  0.03115  0.39028  Biso   1.000  H
  C610     1.0000 0.56651  0.64222  0.28808  Biso   1.000  C
  C611     1.0000 0.56645  0.64217  0.28808  Biso   1.000  C
  C612     1.0000 0.56647  0.64222  0.28808  Biso   1.000  C
  C613     1.0000 0.38689  0.00342  0.20403  Biso   1.000  C
  C614     1.0000 0.38697  0.00342  0.20403  Biso   1.000  C
  H779     1.0000 0.43991  0.04484  0.23797  Biso   1.000  H
  H780     1.0000 0.50837  0.90381  0.30077  Biso   1.000  H
  H781     1.0000 0.51257  0.97330  0.30427  Biso   1.000  H
  H782     1.0000 0.50832  0.90381  0.30077  Biso   1.000  H
  H783     1.0000 0.51252  0.97330  0.30427  Biso   1.000  H
  C615     1.0000 0.07574  0.43352  0.28808  Biso   1.000  C
  C616     1.0000 0.54508  0.61779  0.31503  Biso   1.000  C
  H784     1.0000 0.54698  0.66970  0.28307  Biso   1.000  H
  C617     1.0000 0.54135  0.58367  0.26996  Biso   1.000  C
  C618     1.0000 0.54504  0.61779  0.31503  Biso   1.000  C
  H785     1.0000 0.54694  0.66970  0.28307  Biso   1.000  H
  C619     1.0000 0.54131  0.58367  0.26996  Biso   1.000  C
  C620     1.0000 0.33861  0.94547  0.19304  Biso   1.000  C
  C621     1.0000 0.33866  0.94547  0.19304  Biso   1.000  C
  C622     1.0000 0.41213  0.06283  0.19034  Biso   1.000  C
  C623     1.0000 0.41217  0.06283  0.19034  Biso   1.000  C
  C624     1.0000 0.07274  0.45495  0.31503  Biso   1.000  C
  H786     1.0000 0.12271  0.45306  0.28307  Biso   1.000  H
  C625     1.0000 0.04231  0.45865  0.26996  Biso   1.000  C
  C626     1.0000 0.04227  0.45865  0.26996  Biso   1.000  C
  H787     1.0000 0.56576  0.59216  0.32027  Biso   1.000  H
  H788     1.0000 0.56118  0.65621  0.32627  Biso   1.000  H
  C627     1.0000 0.47106  0.57558  0.31799  Biso   1.000  C
  H789     1.0000 0.56571  0.59216  0.32027  Biso   1.000  H
  H790     1.0000 0.56111  0.65616  0.32627  Biso   1.000  H
  C628     1.0000 0.47102  0.57558  0.31799  Biso   1.000  C
  H791     1.0000 0.56113  0.65621  0.32627  Biso   1.000  H
  H792     1.0000 0.56115  0.65616  0.32627  Biso   1.000  H
  N29      1.0000 0.55835  0.60790  0.24324  Biso   1.000  N
  H793     1.0000 0.56126  0.55609  0.27426  Biso   1.000  H
  C629     1.0000 0.46456  0.54120  0.27157  Biso   1.000  C
  H794     1.0000 0.56122  0.55609  0.27426  Biso   1.000  H
  C630     1.0000 0.46449  0.54116  0.27157  Biso   1.000  C
  C631     1.0000 0.46454  0.54116  0.27157  Biso   1.000  C
  C632     1.0000 0.31302  0.94647  0.16828  Biso   1.000  C
  C633     1.0000 0.31307  0.94647  0.16828  Biso   1.000  C
  H795     1.0000 0.32247  0.90531  0.20177  Biso   1.000  H
  H796     1.0000 0.32242  0.90531  0.20177  Biso   1.000  H
  H797     1.0000 0.44524  0.10214  0.19766  Biso   1.000  H
  C634     1.0000 0.38988  0.06522  0.16664  Biso   1.000  C
  C635     1.0000 0.38997  0.06522  0.16664  Biso   1.000  C
  H798     1.0000 0.02644  0.43427  0.32027  Biso   1.000  H
  H799     1.0000 0.09507  0.43887  0.32627  Biso   1.000  H
  C636     1.0000 0.10450  0.52894  0.31799  Biso   1.000  C
  H800     1.0000 0.02646  0.43422  0.32027  Biso   1.000  H
  H801     1.0000 0.09504  0.43882  0.32627  Biso   1.000  H
  H802     1.0000 0.02649  0.43427  0.32027  Biso   1.000  H
  H803     1.0000 0.02642  0.43422  0.32027  Biso   1.000  H
  H804     1.0000 0.09500  0.43882  0.32627  Biso   1.000  H
  H805     1.0000 0.99481  0.43877  0.27426  Biso   1.000  H
  H806     1.0000 0.99479  0.43872  0.27426  Biso   1.000  H
  H807     1.0000 0.99487  0.43872  0.27426  Biso   1.000  H
  N30      1.0000 0.04957  0.44166  0.24324  Biso   1.000  N
  C637     1.0000 0.07664  0.53544  0.27157  Biso   1.000  C
  N31      1.0000 0.04948  0.44166  0.24324  Biso   1.000  N
  H808     1.0000 0.45015  0.60220  0.31457  Biso   1.000  H
  H809     1.0000 0.46045  0.55919  0.33537  Biso   1.000  H
  C638     1.0000 0.44387  0.51687  0.29957  Biso   1.000  C
  H810     1.0000 0.45013  0.60215  0.31457  Biso   1.000  H
  C639     1.0000 0.44383  0.51687  0.29957  Biso   1.000  C
  C640     1.0000 0.59343  0.58937  0.23044  Biso   1.000  C
  H811     1.0000 0.44857  0.50299  0.26027  Biso   1.000  H
  H812     1.0000 0.44475  0.56768  0.26627  Biso   1.000  H
  H813     1.0000 0.44853  0.50299  0.26027  Biso   1.000  H
  C641     1.0000 0.26001  0.88977  0.15479  Biso   1.000  C
  C642     1.0000 0.26005  0.88977  0.15479  Biso   1.000  C
  C643     1.0000 0.33838  0.00592  0.15479  Biso   1.000  C
  C644     1.0000 0.33842  0.00592  0.15479  Biso   1.000  C
  H814     1.0000 0.40837  0.10584  0.15796  Biso   1.000  H
  H815     1.0000 0.40833  0.10584  0.15796  Biso   1.000  H
  H816     1.0000 0.15200  0.54988  0.31457  Biso   1.000  H
  H817     1.0000 0.09867  0.53953  0.33537  Biso   1.000  H
  C645     1.0000 0.07303  0.55617  0.29957  Biso   1.000  C
  H818     1.0000 0.15206  0.54983  0.31457  Biso   1.000  H
  H819     1.0000 0.09876  0.53953  0.33537  Biso   1.000  H
  C646     1.0000 0.07300  0.55612  0.29957  Biso   1.000  C
  H820     1.0000 0.15208  0.54988  0.31457  Biso   1.000  H
  H821     1.0000 0.15197  0.54983  0.31457  Biso   1.000  H
  C647     1.0000 0.07296  0.55612  0.29957  Biso   1.000  C
  C648     1.0000 0.99592  0.40654  0.23044  Biso   1.000  C
  H822     1.0000 0.05441  0.55147  0.26027  Biso   1.000  H
  H823     1.0000 0.12290  0.55527  0.26627  Biso   1.000  H
  H824     1.0000 0.05439  0.55142  0.26027  Biso   1.000  H
  H825     1.0000 0.12291  0.55522  0.26627  Biso   1.000  H
  H826     1.0000 0.12294  0.55527  0.26627  Biso   1.000  H
  H827     1.0000 0.12287  0.55522  0.26627  Biso   1.000  H
  H828     1.0000 0.39546  0.49170  0.30077  Biso   1.000  H
  H829     1.0000 0.46077  0.48750  0.30427  Biso   1.000  H
  H830     1.0000 0.39542  0.49170  0.30077  Biso   1.000  H
  H831     1.0000 0.46073  0.48750  0.30427  Biso   1.000  H
  C649     1.0000 0.61655  0.61310  0.20403  Biso   1.000  C
  H832     1.0000 0.60497  0.56009  0.23797  Biso   1.000  H
  H833     1.0000 0.60493  0.56009  0.23797  Biso   1.000  H
  C650     1.0000 0.28434  0.83961  0.14984  Biso   1.000  C
  C651     1.0000 0.28431  0.83956  0.14984  Biso   1.000  C
  C652     1.0000 0.28436  0.83956  0.14984  Biso   1.000  C
  C653     1.0000 0.25524  0.92289  0.13065  Biso   1.000  C
  C654     1.0000 0.19333  0.86119  0.17106  Biso   1.000  C
  C655     1.0000 0.19337  0.86119  0.17106  Biso   1.000  C
  C656     1.0000 0.30245  0.99438  0.13040  Biso   1.000  C
  C657     1.0000 0.30241  0.99438  0.13040  Biso   1.000  C
  H834     1.0000 0.09617  0.60453  0.30077  Biso   1.000  H
  H835     1.0000 0.02670  0.53923  0.30427  Biso   1.000  H
  H836     1.0000 0.09621  0.60453  0.30077  Biso   1.000  H
  H837     1.0000 0.02666  0.53923  0.30427  Biso   1.000  H
  C658     1.0000 0.99649  0.38346  0.20403  Biso   1.000  C
  C659     1.0000 0.99658  0.38346  0.20403  Biso   1.000  C
  H838     1.0000 0.95509  0.39505  0.23797  Biso   1.000  H
  H839     1.0000 0.95513  0.39505  0.23797  Biso   1.000  H
  C660     1.0000 0.60687  0.66141  0.19304  Biso   1.000  C
  C661     1.0000 0.60680  0.66136  0.19304  Biso   1.000  C
  C662     1.0000 0.60682  0.66141  0.19304  Biso   1.000  C
  C663     1.0000 0.60684  0.66136  0.19304  Biso   1.000  C
  C664     1.0000 0.65075  0.58787  0.19034  Biso   1.000  C
  C665     1.0000 0.65070  0.58787  0.19034  Biso   1.000  C
  C666     1.0000 0.33155  0.85000  0.13157  Biso   1.000  C
  H840     1.0000 0.24505  0.79719  0.14587  Biso   1.000  H
  H841     1.0000 0.30135  0.83356  0.16597  Biso   1.000  H
  H842     1.0000 0.30133  0.83361  0.16597  Biso   1.000  H
  H843     1.0000 0.30137  0.83361  0.16597  Biso   1.000  H
  C667     1.0000 0.21425  0.89421  0.10969  Biso   1.000  C
  C668     1.0000 0.21423  0.89416  0.10969  Biso   1.000  C
  C669     1.0000 0.17022  0.91640  0.17736  Biso   1.000  C
  H844     1.0000 0.15764  0.82417  0.16177  Biso   1.000  H
  H845     1.0000 0.19944  0.84366  0.18707  Biso   1.000  H
  C670     1.0000 0.17027  0.91640  0.17736  Biso   1.000  C
  H846     1.0000 0.19942  0.84371  0.18707  Biso   1.000  H
  H847     1.0000 0.15760  0.82417  0.16177  Biso   1.000  H
  H848     1.0000 0.19947  0.84371  0.18707  Biso   1.000  H
  C671     1.0000 0.30301  0.03105  0.10913  Biso   1.000  C
  C672     1.0000 0.30309  0.03105  0.10913  Biso   1.000  C
  C673     1.0000 0.05456  0.39315  0.19304  Biso   1.000  C
  C674     1.0000 0.05447  0.39315  0.19304  Biso   1.000  C
  C675     1.0000 0.93711  0.34924  0.19034  Biso   1.000  C
  C676     1.0000 0.63346  0.68699  0.16828  Biso   1.000  C
  C677     1.0000 0.63342  0.68699  0.16828  Biso   1.000  C
  H849     1.0000 0.58286  0.67759  0.20177  Biso   1.000  H
  H850     1.0000 0.58281  0.67759  0.20177  Biso   1.000  H
  C678     1.0000 0.67536  0.61010  0.16664  Biso   1.000  C
  C679     1.0000 0.67532  0.61010  0.16664  Biso   1.000  C
  H851     1.0000 0.65697  0.55479  0.19766  Biso   1.000  H
  H852     1.0000 0.65692  0.55479  0.19766  Biso   1.000  H
  C680     1.0000 0.32685  0.78176  0.13107  Biso   1.000  C
  H853     1.0000 0.37563  0.88487  0.13667  Biso   1.000  H
  H854     1.0000 0.32026  0.86109  0.11517  Biso   1.000  H
  H855     1.0000 0.32022  0.86109  0.11517  Biso   1.000  H
  C681     1.0000 0.32683  0.78181  0.13107  Biso   1.000  C
  C682     1.0000 0.32687  0.78181  0.13107  Biso   1.000  C
  C683     1.0000 0.21573  0.93568  0.08851  Biso   1.000  C
  C684     1.0000 0.16344  0.82357  0.10282  Biso   1.000  C
  C685     1.0000 0.16340  0.82357  0.10282  Biso   1.000  C
  C686     1.0000 0.21577  0.93568  0.08851  Biso   1.000  C
  H856     1.0000 0.16212  0.93178  0.16127  Biso   1.000  H
  H857     1.0000 0.20754  0.95452  0.18547  Biso   1.000  H
  C687     1.0000 0.11704  0.89726  0.19197  Biso   1.000  C
  C688     1.0000 0.11702  0.89731  0.19197  Biso   1.000  C
  H858     1.0000 0.20751  0.95447  0.18547  Biso   1.000  H
  C689     1.0000 0.11707  0.89731  0.19197  Biso   1.000  C
  H859     1.0000 0.20756  0.95447  0.18547  Biso   1.000  H
  H860     1.0000 0.16217  0.93178  0.16127  Biso   1.000  H
  C690     1.0000 0.25913  0.00223  0.08910  Biso   1.000  C
  C691     1.0000 0.35225  0.10454  0.10605  Biso   1.000  C
  H861     1.0000 0.09471  0.41713  0.20177  Biso   1.000  H
  C692     1.0000 0.05349  0.36653  0.16828  Biso   1.000  C
  C693     1.0000 0.93473  0.32466  0.16664  Biso   1.000  C
  H862     1.0000 0.89780  0.34305  0.19766  Biso   1.000  H
  H863     1.0000 0.89789  0.34305  0.19766  Biso   1.000  H
  C694     1.0000 0.66758  0.66161  0.15479  Biso   1.000  C
  C695     1.0000 0.66751  0.66156  0.15479  Biso   1.000  C
  C696     1.0000 0.66754  0.66161  0.15479  Biso   1.000  C
  C697     1.0000 0.62976  0.73999  0.15479  Biso   1.000  C
  C698     1.0000 0.62972  0.73999  0.15479  Biso   1.000  C
  H864     1.0000 0.69755  0.59166  0.15796  Biso   1.000  H
  H865     1.0000 0.69751  0.59166  0.15796  Biso   1.000  H
  H866     1.0000 0.28044  0.74649  0.13046  Biso   1.000  H
  H867     1.0000 0.34724  0.77556  0.14627  Biso   1.000  H
  H868     1.0000 0.34722  0.77561  0.14627  Biso   1.000  H
  C699     1.0000 0.36443  0.78001  0.10667  Biso   1.000  C
  C700     1.0000 0.36441  0.77996  0.10667  Biso   1.000  C
  H869     1.0000 0.34727  0.77561  0.14627  Biso   1.000  H
  C701     1.0000 0.36448  0.78001  0.10667  Biso   1.000  C
  C702     1.0000 0.36445  0.77996  0.10667  Biso   1.000  C
  C703     1.0000 0.16654  0.89302  0.06695  Biso   1.000  C
  C704     1.0000 0.16651  0.89297  0.06695  Biso   1.000  C
  C705     1.0000 0.16658  0.89302  0.06695  Biso   1.000  C
  C706     1.0000 0.16655  0.89297  0.06695  Biso   1.000  C
  C707     1.0000 0.14034  0.76317  0.11531  Biso   1.000  C
  C708     1.0000 0.14395  0.82387  0.07781  Biso   1.000  C
  C709     1.0000 0.14391  0.82387  0.07781  Biso   1.000  C
  H870     1.0000 0.07843  0.85889  0.18457  Biso   1.000  H
  H871     1.0000 0.12465  0.88547  0.20886  Biso   1.000  H
  C710     1.0000 0.10494  0.96271  0.19326  Biso   1.000  C
  H872     1.0000 0.12460  0.88547  0.20886  Biso   1.000  H
  C711     1.0000 0.10492  0.96266  0.19326  Biso   1.000  C
  H873     1.0000 0.07848  0.85889  0.18457  Biso   1.000  H
  C712     1.0000 0.10496  0.96266  0.19326  Biso   1.000  C
  C713     1.0000 0.27705  0.05953  0.07022  Biso   1.000  C
  C714     1.0000 0.27696  0.05953  0.07022  Biso   1.000  C
  C715     1.0000 0.32896  0.11593  0.08041  Biso   1.000  C
  C716     1.0000 0.42670  0.12113  0.10336  Biso   1.000  C
  C717     1.0000 0.34753  0.15195  0.12484  Biso   1.000  C
  C718     1.0000 0.34758  0.15195  0.12484  Biso   1.000  C
  C719     1.0000 0.32887  0.11593  0.08041  Biso   1.000  C
  C720     1.0000 0.11027  0.37027  0.15479  Biso   1.000  C
  C721     1.0000 0.11024  0.37022  0.15479  Biso   1.000  C
  C722     1.0000 0.99401  0.33245  0.15479  Biso   1.000  C
  C723     1.0000 0.99405  0.33245  0.15479  Biso   1.000  C
  H874     1.0000 0.89415  0.30243  0.15796  Biso   1.000  H
  C724     1.0000 0.69197  0.69758  0.13040  Biso   1.000  C
  C725     1.0000 0.69193  0.69758  0.13040  Biso   1.000  C
  C726     1.0000 0.66768  0.74479  0.13065  Biso   1.000  C
  C727     1.0000 0.66764  0.74479  0.13065  Biso   1.000  C
  C728     1.0000 0.55528  0.71571  0.14984  Biso   1.000  C
  C729     1.0000 0.66787  0.80669  0.17106  Biso   1.000  C
  C730     1.0000 0.55521  0.71566  0.14984  Biso   1.000  C
  C731     1.0000 0.66783  0.80669  0.17106  Biso   1.000  C
  C732     1.0000 0.55523  0.71571  0.14984  Biso   1.000  C
  C733     1.0000 0.55525  0.71566  0.14984  Biso   1.000  C
  H875     1.0000 0.36943  0.74119  0.10716  Biso   1.000  H
  H876     1.0000 0.40783  0.81948  0.10607  Biso   1.000  H
  H877     1.0000 0.33944  0.77831  0.09176  Biso   1.000  H
  H878     1.0000 0.36947  0.74119  0.10716  Biso   1.000  H
  H879     1.0000 0.33942  0.77826  0.09176  Biso   1.000  H
  H880     1.0000 0.33946  0.77826  0.09176  Biso   1.000  H
  C734     1.0000 0.10854  0.90441  0.06372  Biso   1.000  C
  C735     1.0000 0.20334  0.90026  0.04126  Biso   1.000  C
  C736     1.0000 0.20332  0.90031  0.04126  Biso   1.000  C
  C737     1.0000 0.20337  0.90031  0.04126  Biso   1.000  C
  C738     1.0000 0.09772  0.70407  0.10261  Biso   1.000  C
  H881     1.0000 0.15334  0.76217  0.13207  Biso   1.000  H
  C739     1.0000 0.09776  0.70407  0.10261  Biso   1.000  C
  C740     1.0000 0.09790  0.76292  0.06571  Biso   1.000  C
  C741     1.0000 0.09788  0.76297  0.06571  Biso   1.000  C
  C742     1.0000 0.09792  0.76297  0.06571  Biso   1.000  C
  H882     1.0000 0.09353  0.97120  0.17656  Biso   1.000  H
  H883     1.0000 0.06963  0.95362  0.20496  Biso   1.000  H
  H884     1.0000 0.06961  0.95357  0.20496  Biso   1.000  H
  H885     1.0000 0.06965  0.95357  0.20496  Biso   1.000  H
  H886     1.0000 0.09357  0.97120  0.17656  Biso   1.000  H
  H887     1.0000 0.14533  0.00143  0.19896  Biso   1.000  H
  H888     1.0000 0.14537  0.00143  0.19896  Biso   1.000  H
  C743     1.0000 0.24712  0.06223  0.04765  Biso   1.000  C
  C744     1.0000 0.24714  0.06228  0.04765  Biso   1.000  C
  C745     1.0000 0.35714  0.17783  0.06678  Biso   1.000  C
  H889     1.0000 0.43959  0.10884  0.11917  Biso   1.000  H
  H890     1.0000 0.45469  0.16914  0.10147  Biso   1.000  H
  C746     1.0000 0.44288  0.08556  0.08006  Biso   1.000  C
  H891     1.0000 0.43968  0.10884  0.11917  Biso   1.000  H
  H892     1.0000 0.45473  0.16914  0.10147  Biso   1.000  H
  C747     1.0000 0.44279  0.08556  0.08006  Biso   1.000  C
  H893     1.0000 0.36334  0.14696  0.14147  Biso   1.000  H
  H894     1.0000 0.37657  0.19757  0.11917  Biso   1.000  H
  C748     1.0000 0.28046  0.14016  0.12737  Biso   1.000  C
  H895     1.0000 0.36338  0.14696  0.14147  Biso   1.000  H
  H896     1.0000 0.37655  0.19752  0.11917  Biso   1.000  H
  C749     1.0000 0.28044  0.14011  0.12737  Biso   1.000  C
  H897     1.0000 0.37646  0.19752  0.11917  Biso   1.000  H
  C750     1.0000 0.07716  0.33235  0.13065  Biso   1.000  C
  C751     1.0000 0.07707  0.33235  0.13065  Biso   1.000  C
  C752     1.0000 0.16040  0.44476  0.14984  Biso   1.000  C
  C753     1.0000 0.13880  0.33215  0.17106  Biso   1.000  C
  C754     1.0000 0.16045  0.44476  0.14984  Biso   1.000  C
  C755     1.0000 0.13888  0.33215  0.17106  Biso   1.000  C
  C756     1.0000 0.00566  0.30807  0.13040  Biso   1.000  C
  C757     1.0000 0.00563  0.30802  0.13040  Biso   1.000  C
  C758     1.0000 0.72806  0.69698  0.10913  Biso   1.000  C
  C759     1.0000 0.72802  0.69698  0.10913  Biso   1.000  C
  C760     1.0000 0.67997  0.78580  0.10969  Biso   1.000  C
  C761     1.0000 0.67993  0.78580  0.10969  Biso   1.000  C
  H898     1.0000 0.53227  0.69868  0.16597  Biso   1.000  H
  H899     1.0000 0.55215  0.75498  0.14587  Biso   1.000  H
  C762     1.0000 0.51848  0.66850  0.13157  Biso   1.000  C
  H900     1.0000 0.53222  0.69868  0.16597  Biso   1.000  H
  H901     1.0000 0.55211  0.75498  0.14587  Biso   1.000  H
  C763     1.0000 0.51843  0.66850  0.13157  Biso   1.000  C
  H902     1.0000 0.64427  0.80059  0.18707  Biso   1.000  H
  H903     1.0000 0.66656  0.84241  0.16177  Biso   1.000  H
  C764     1.0000 0.74617  0.82977  0.17736  Biso   1.000  C
  H904     1.0000 0.64423  0.80059  0.18707  Biso   1.000  H
  H905     1.0000 0.66650  0.84236  0.16177  Biso   1.000  H
  C765     1.0000 0.74613  0.82977  0.17736  Biso   1.000  C
  H906     1.0000 0.66654  0.84236  0.16177  Biso   1.000  H
  H907     1.0000 0.12582  0.94987  0.05776  Biso   1.000  H
  H908     1.0000 0.08025  0.87498  0.05027  Biso   1.000  H
  H909     1.0000 0.08020  0.87498  0.05027  Biso   1.000  H
  C766     1.0000 0.06643  0.89451  0.08597  Biso   1.000  C
  C767     1.0000 0.06641  0.89446  0.08597  Biso   1.000  C
  C768     1.0000 0.06648  0.89451  0.08597  Biso   1.000  C
  H910     1.0000 0.12587  0.94987  0.05776  Biso   1.000  H
  C769     1.0000 0.06645  0.89446  0.08597  Biso   1.000  C
  H911     1.0000 0.17124  0.87058  0.02876  Biso   1.000  H
  H912     1.0000 0.22142  0.94567  0.03507  Biso   1.000  H
  C770     1.0000 0.25904  0.88497  0.04321  Biso   1.000  C
  H913     1.0000 0.22146  0.94567  0.03507  Biso   1.000  H
  C771     1.0000 0.07654  0.70497  0.07765  Biso   1.000  C
  H914     1.0000 0.08314  0.66340  0.11087  Biso   1.000  H
  C772     1.0000 0.07649  0.70497  0.07765  Biso   1.000  C
  H915     1.0000 0.08312  0.66335  0.11087  Biso   1.000  H
  H916     1.0000 0.08316  0.66335  0.11087  Biso   1.000  H
  H917     1.0000 0.08265  0.76357  0.04937  Biso   1.000  H
  H918     1.0000 0.08260  0.76357  0.04937  Biso   1.000  H
  H919     1.0000 0.20934  0.02466  0.04147  Biso   1.000  H
  C773     1.0000 0.27459  0.12193  0.03456  Biso   1.000  C
  C774     1.0000 0.27467  0.12193  0.03456  Biso   1.000  C
  C775     1.0000 0.33052  0.18048  0.04430  Biso   1.000  C
  H920     1.0000 0.39359  0.21595  0.07347  Biso   1.000  H
  C776     1.0000 0.33056  0.18048  0.04430  Biso   1.000  C
  H921     1.0000 0.39364  0.21595  0.07347  Biso   1.000  H
  H922     1.0000 0.43714  0.10194  0.06376  Biso   1.000  H
  H923     1.0000 0.41372  0.03755  0.08067  Biso   1.000  H
  C777     1.0000 0.51375  0.10364  0.08387  Biso   1.000  C
  H924     1.0000 0.41368  0.03755  0.08067  Biso   1.000  H
  H925     1.0000 0.25292  0.09615  0.13476  Biso   1.000  H
  C778     1.0000 0.27270  0.19317  0.14438  Biso   1.000  C
  H926     1.0000 0.26311  0.13956  0.11047  Biso   1.000  H
  C779     1.0000 0.27276  0.19312  0.14438  Biso   1.000  C
  H927     1.0000 0.26309  0.13951  0.11047  Biso   1.000  H
  C780     1.0000 0.27278  0.19317  0.14438  Biso   1.000  C
  C781     1.0000 0.27267  0.19312  0.14438  Biso   1.000  C
  C782     1.0000 0.10584  0.32006  0.10969  Biso   1.000  C
  C783     1.0000 0.10582  0.32001  0.10969  Biso   1.000  C
  H928     1.0000 0.16640  0.46774  0.16597  Biso   1.000  H
  H929     1.0000 0.20284  0.44786  0.14587  Biso   1.000  H
  C784     1.0000 0.14997  0.48153  0.13157  Biso   1.000  C
  H930     1.0000 0.20288  0.44786  0.14587  Biso   1.000  H
  C785     1.0000 0.15006  0.48153  0.13157  Biso   1.000  C
  H931     1.0000 0.15630  0.35574  0.18707  Biso   1.000  H
  H932     1.0000 0.17579  0.33345  0.16177  Biso   1.000  H
  C786     1.0000 0.08365  0.25387  0.17736  Biso   1.000  C
  H933     1.0000 0.17588  0.33345  0.16177  Biso   1.000  H
  C787     1.0000 0.08362  0.25382  0.17736  Biso   1.000  C
  C788     1.0000 0.08369  0.25387  0.17736  Biso   1.000  C
  C789     1.0000 0.96891  0.27195  0.10913  Biso   1.000  C
  C790     1.0000 0.96899  0.27195  0.10913  Biso   1.000  C
  C791     1.0000 0.75234  0.64777  0.10605  Biso   1.000  C
  C792     1.0000 0.74318  0.74089  0.08910  Biso   1.000  C
  C793     1.0000 0.74314  0.74089  0.08910  Biso   1.000  C
  C794     1.0000 0.71998  0.78431  0.08851  Biso   1.000  C
  C795     1.0000 0.71993  0.78431  0.08851  Biso   1.000  C
  C796     1.0000 0.66016  0.83661  0.10282  Biso   1.000  C
  C797     1.0000 0.66014  0.83656  0.10282  Biso   1.000  C
  H934     1.0000 0.50927  0.62439  0.13667  Biso   1.000  H
  H935     1.0000 0.54086  0.67979  0.11517  Biso   1.000  H
  C798     1.0000 0.45497  0.67320  0.13107  Biso   1.000  C
  H936     1.0000 0.50923  0.62439  0.13667  Biso   1.000  H
  H937     1.0000 0.54082  0.67979  0.11517  Biso   1.000  H
  C799     1.0000 0.45493  0.67320  0.13107  Biso   1.000  C
  H938     1.0000 0.74696  0.79250  0.18547  Biso   1.000  H
  H939     1.0000 0.76967  0.83791  0.16127  Biso   1.000  H
  C800     1.0000 0.78026  0.88297  0.19197  Biso   1.000  C
  H940     1.0000 0.74692  0.79250  0.18547  Biso   1.000  H
  H941     1.0000 0.76960  0.83786  0.16127  Biso   1.000  H
  C801     1.0000 0.78021  0.88297  0.19197  Biso   1.000  C
  H942     1.0000 0.76964  0.83786  0.16127  Biso   1.000  H
  H943     1.0000 0.05293  0.85080  0.09306  Biso   1.000  H
  C802     1.0000 0.00396  0.89901  0.08146  Biso   1.000  C
  H944     1.0000 0.09325  0.92739  0.09877  Biso   1.000  H
  C803     1.0000 0.00393  0.89896  0.08146  Biso   1.000  C
  H945     1.0000 0.05297  0.85080  0.09306  Biso   1.000  H
  H946     1.0000 0.09321  0.92739  0.09877  Biso   1.000  H
  H947     1.0000 0.29203  0.91540  0.05527  Biso   1.000  H
  H948     1.0000 0.24155  0.83986  0.04967  Biso   1.000  H
  C804     1.0000 0.29263  0.89142  0.01741  Biso   1.000  C
  H949     1.0000 0.24153  0.83991  0.04967  Biso   1.000  H
  C805     1.0000 0.29261  0.89137  0.01741  Biso   1.000  C
  C806     1.0000 0.29268  0.89142  0.01741  Biso   1.000  C
  H950     1.0000 0.24157  0.83991  0.04967  Biso   1.000  H
  C807     1.0000 0.29265  0.89137  0.01741  Biso   1.000  C
  H951     1.0000 0.29208  0.91540  0.05527  Biso   1.000  H
  C808     1.0000 0.03105  0.63788  0.06577  Biso   1.000  C
  C809     1.0000 0.03100  0.63788  0.06577  Biso   1.000  C
  H952     1.0000 0.25625  0.12393  0.01896  Biso   1.000  H
  H953     1.0000 0.25620  0.12393  0.01896  Biso   1.000  H
  C810     1.0000 0.35798  0.24138  0.03024  Biso   1.000  C
  C811     1.0000 0.35802  0.24138  0.03024  Biso   1.000  C
  H954     1.0000 0.52984  0.12622  0.06766  Biso   1.000  H
  H955     1.0000 0.52481  0.13996  0.09577  Biso   1.000  H
  C812     1.0000 0.57100  0.09675  0.08937  Biso   1.000  C
  H956     1.0000 0.52479  0.13991  0.09577  Biso   1.000  H
  C813     1.0000 0.57105  0.09675  0.08937  Biso   1.000  C
  H957     1.0000 0.52490  0.13996  0.09577  Biso   1.000  H
  H958     1.0000 0.29904  0.20336  0.15988  Biso   1.000  H
  H959     1.0000 0.22639  0.17653  0.14887  Biso   1.000  H
  C814     1.0000 0.29890  0.25457  0.12717  Biso   1.000  C
  C815     1.0000 0.29896  0.25452  0.12717  Biso   1.000  C
  H960     1.0000 0.22644  0.17653  0.14887  Biso   1.000  H
  C816     1.0000 0.29898  0.25457  0.12717  Biso   1.000  C
  C817     1.0000 0.29887  0.25452  0.12717  Biso   1.000  C
  C818     1.0000 0.06433  0.28005  0.08851  Biso   1.000  C
  C819     1.0000 0.17644  0.33985  0.10282  Biso   1.000  C
  C820     1.0000 0.17648  0.33985  0.10282  Biso   1.000  C
  H961     1.0000 0.13891  0.45915  0.11517  Biso   1.000  H
  H962     1.0000 0.11509  0.49077  0.13667  Biso   1.000  H
  C821     1.0000 0.21819  0.54503  0.13107  Biso   1.000  C
  H963     1.0000 0.11515  0.49072  0.13667  Biso   1.000  H
  H964     1.0000 0.11518  0.49077  0.13667  Biso   1.000  H
  H965     1.0000 0.11507  0.49072  0.13667  Biso   1.000  H
  H966     1.0000 0.04556  0.25307  0.18547  Biso   1.000  H
  H967     1.0000 0.06820  0.23034  0.16127  Biso   1.000  H
  C822     1.0000 0.10271  0.21975  0.19197  Biso   1.000  C
  H968     1.0000 0.04554  0.25302  0.18547  Biso   1.000  H
  C823     1.0000 0.10267  0.21975  0.19197  Biso   1.000  C
  C824     1.0000 0.99771  0.25687  0.08910  Biso   1.000  C
  C825     1.0000 0.99768  0.25682  0.08910  Biso   1.000  C
  C826     1.0000 0.99777  0.25682  0.08910  Biso   1.000  C
  C827     1.0000 0.89543  0.24762  0.10605  Biso   1.000  C
  C828     1.0000 0.89548  0.24762  0.10605  Biso   1.000  C
  C829     1.0000 0.78707  0.67110  0.08041  Biso   1.000  C
  C830     1.0000 0.78703  0.67110  0.08041  Biso   1.000  C
  C831     1.0000 0.69446  0.57328  0.10336  Biso   1.000  C
  C832     1.0000 0.80445  0.65246  0.12484  Biso   1.000  C
  C833     1.0000 0.69442  0.57328  0.10336  Biso   1.000  C
  C834     1.0000 0.80440  0.65246  0.12484  Biso   1.000  C
  C835     1.0000 0.78256  0.72301  0.07022  Biso   1.000  C
  C836     1.0000 0.78250  0.72296  0.07022  Biso   1.000  C
  C837     1.0000 0.78254  0.72296  0.07022  Biso   1.000  C
  C838     1.0000 0.72650  0.83351  0.06695  Biso   1.000  C
  C839     1.0000 0.72643  0.83346  0.06695  Biso   1.000  C
  C840     1.0000 0.72645  0.83351  0.06695  Biso   1.000  C
  C841     1.0000 0.67998  0.85610  0.07781  Biso   1.000  C
  C842     1.0000 0.67994  0.85610  0.07781  Biso   1.000  C
  C843     1.0000 0.62285  0.85969  0.11531  Biso   1.000  C
  C844     1.0000 0.62281  0.85969  0.11531  Biso   1.000  C
  H969     1.0000 0.46606  0.71961  0.13046  Biso   1.000  H
  H970     1.0000 0.42838  0.65281  0.14627  Biso   1.000  H
  C845     1.0000 0.41557  0.63558  0.10667  Biso   1.000  C
  H971     1.0000 0.46600  0.71956  0.13046  Biso   1.000  H
  H972     1.0000 0.42832  0.65276  0.14627  Biso   1.000  H
  C846     1.0000 0.41553  0.63558  0.10667  Biso   1.000  C
  H973     1.0000 0.46602  0.71961  0.13046  Biso   1.000  H
  H974     1.0000 0.42834  0.65281  0.14627  Biso   1.000  H
  H975     1.0000 0.46604  0.71956  0.13046  Biso   1.000  H
  H976     1.0000 0.76084  0.87538  0.20886  Biso   1.000  H
  H977     1.0000 0.78044  0.92159  0.18457  Biso   1.000  H
  C847     1.0000 0.85776  0.89511  0.19326  Biso   1.000  C
  C848     1.0000 0.85773  0.89506  0.19326  Biso   1.000  C
  H978     1.0000 0.01625  0.94168  0.07366  Biso   1.000  H
  H979     1.0000 0.97486  0.86409  0.06976  Biso   1.000  H
  C849     1.0000 0.96478  0.89162  0.10747  Biso   1.000  C
  C850     1.0000 0.96471  0.89157  0.10747  Biso   1.000  C
  C851     1.0000 0.96474  0.89162  0.10747  Biso   1.000  C
  C852     1.0000 0.96476  0.89157  0.10747  Biso   1.000  C
  H980     1.0000 0.96475  0.85979  0.08807  Biso   1.000  H
  H981     1.0000 0.01620  0.94168  0.07366  Biso   1.000  H
  H982     1.0000 0.00764  0.93848  0.08956  Biso   1.000  H
  C853     1.0000 0.00067  0.90351  0.04956  Biso   1.000  C
  H983     1.0000 0.25913  0.86179  0.00528  Biso   1.000  H
  H984     1.0000 0.31073  0.93678  0.01116  Biso   1.000  H
  C854     1.0000 0.34665  0.87518  0.01844  Biso   1.000  C
  H985     1.0000 0.25917  0.86179  0.00528  Biso   1.000  H
  H986     1.0000 0.31077  0.93678  0.01116  Biso   1.000  H
  H987     1.0000 0.25946  0.86349  0.00487  Biso   1.000  H
  H988     1.0000 0.32502  0.87658  0.01886  Biso   1.000  H
  C855     1.0000 0.32787  0.96621  0.00856  Biso   1.000  C
  N32      1.0000 0.01626  0.63158  0.04241  Biso   1.000  N
  H989     1.0000 0.01334  0.59996  0.07597  Biso   1.000  H
  N33      1.0000 0.01622  0.63158  0.04241  Biso   1.000  N
  H990     1.0000 0.01332  0.60001  0.07597  Biso   1.000  H
  H991     1.0000 0.01337  0.60001  0.07597  Biso   1.000  H
  N34      1.0000 0.41457  0.29329  0.03532  Biso   1.000  N
  H992     1.0000 0.33353  0.24363  0.01657  Biso   1.000  H
  N35      1.0000 0.41454  0.29324  0.03532  Biso   1.000  N
  H993     1.0000 0.33358  0.24363  0.01657  Biso   1.000  H
  H994     1.0000 0.60916  0.13057  0.08037  Biso   1.000  H
  H995     1.0000 0.60913  0.13052  0.08037  Biso   1.000  H
  H996     1.0000 0.56236  0.05333  0.08396  Biso   1.000  H
  H997     1.0000 0.57972  0.10164  0.10737  Biso   1.000  H
  H998     1.0000 0.56232  0.05333  0.08396  Biso   1.000  H
  H999     1.0000 0.57968  0.10164  0.10737  Biso   1.000  H
  H1000    1.0000 0.29648  0.28954  0.13618  Biso   1.000  H
  H1001    1.0000 0.27229  0.24333  0.11196  Biso   1.000  H
  H1002    1.0000 0.34455  0.26956  0.12266  Biso   1.000  H
  H1003    1.0000 0.29652  0.28954  0.13618  Biso   1.000  H
  C856     1.0000 0.10699  0.27355  0.06695  Biso   1.000  C
  C857     1.0000 0.10707  0.27355  0.06695  Biso   1.000  C
  C858     1.0000 0.17615  0.32006  0.07781  Biso   1.000  C
  C859     1.0000 0.23685  0.37717  0.11531  Biso   1.000  C
  C860     1.0000 0.23682  0.37712  0.11531  Biso   1.000  C
  C861     1.0000 0.17612  0.32001  0.07781  Biso   1.000  C
  H1004    1.0000 0.25354  0.53394  0.13046  Biso   1.000  H
  H1005    1.0000 0.22441  0.57166  0.14627  Biso   1.000  H
  C862     1.0000 0.21999  0.58445  0.10667  Biso   1.000  C
  C863     1.0000 0.22003  0.58445  0.10667  Biso   1.000  C
  H1006    1.0000 0.14112  0.21955  0.18457  Biso   1.000  H
  C864     1.0000 0.03732  0.14226  0.19326  Biso   1.000  C
  H1007    1.0000 0.11448  0.23913  0.20886  Biso   1.000  H
  H1008    1.0000 0.11457  0.23913  0.20886  Biso   1.000  H
  C865     1.0000 0.94040  0.21745  0.07022  Biso   1.000  C
  C866     1.0000 0.94049  0.21745  0.07022  Biso   1.000  C
  C867     1.0000 0.88403  0.21295  0.08041  Biso   1.000  C
  C868     1.0000 0.87878  0.30553  0.10336  Biso   1.000  C
  C869     1.0000 0.84803  0.19557  0.12484  Biso   1.000  C
  C870     1.0000 0.84805  0.19552  0.12484  Biso   1.000  C
  C871     1.0000 0.84808  0.19557  0.12484  Biso   1.000  C
  C872     1.0000 0.87887  0.30553  0.10336  Biso   1.000  C
  C873     1.0000 0.82077  0.64287  0.06678  Biso   1.000  C
  C874     1.0000 0.82072  0.64287  0.06678  Biso   1.000  C
  H1009    1.0000 0.66928  0.56039  0.11917  Biso   1.000  H
  H1010    1.0000 0.71448  0.54530  0.10147  Biso   1.000  H
  C875     1.0000 0.64276  0.55719  0.08006  Biso   1.000  C
  H1011    1.0000 0.66924  0.56039  0.11917  Biso   1.000  H
  H1012    1.0000 0.71441  0.54525  0.10147  Biso   1.000  H
  C876     1.0000 0.64272  0.55719  0.08006  Biso   1.000  C
  H1013    1.0000 0.71444  0.54530  0.10147  Biso   1.000  H
  H1014    1.0000 0.71446  0.54525  0.10147  Biso   1.000  H
  H1015    1.0000 0.78366  0.63668  0.14147  Biso   1.000  H
  H1016    1.0000 0.82107  0.62349  0.11917  Biso   1.000  H
  C877     1.0000 0.85978  0.71961  0.12737  Biso   1.000  C
  H1017    1.0000 0.78362  0.63668  0.14147  Biso   1.000  H
  H1018    1.0000 0.82102  0.62349  0.11917  Biso   1.000  H
  C878     1.0000 0.85971  0.71956  0.12737  Biso   1.000  C
  C879     1.0000 0.85974  0.71961  0.12737  Biso   1.000  C
  C880     1.0000 0.85976  0.71956  0.12737  Biso   1.000  C
  C881     1.0000 0.81515  0.75288  0.04765  Biso   1.000  C
  C882     1.0000 0.69697  0.79669  0.04126  Biso   1.000  C
  C883     1.0000 0.79586  0.89152  0.06372  Biso   1.000  C
  C884     1.0000 0.69692  0.79669  0.04126  Biso   1.000  C
  C885     1.0000 0.79584  0.89147  0.06372  Biso   1.000  C
  C886     1.0000 0.66505  0.90211  0.06571  Biso   1.000  C
  C887     1.0000 0.66500  0.90211  0.06571  Biso   1.000  C
  C888     1.0000 0.60635  0.90231  0.10261  Biso   1.000  C
  H1019    1.0000 0.60888  0.84670  0.13207  Biso   1.000  H
  C889     1.0000 0.60632  0.90226  0.10261  Biso   1.000  C
  H1020    1.0000 0.60883  0.84670  0.13207  Biso   1.000  H
  H1021    1.0000 0.43886  0.66061  0.09176  Biso   1.000  H
  H1022    1.0000 0.37175  0.63058  0.10716  Biso   1.000  H
  H1023    1.0000 0.41164  0.59216  0.10607  Biso   1.000  H
  H1024    1.0000 0.43883  0.66056  0.09176  Biso   1.000  H
  H1025    1.0000 0.37171  0.63058  0.10716  Biso   1.000  H
  H1026    1.0000 0.41160  0.59216  0.10607  Biso   1.000  H
  H1027    1.0000 0.85615  0.85470  0.19896  Biso   1.000  H
  H1028    1.0000 0.88396  0.93038  0.20496  Biso   1.000  H
  H1029    1.0000 0.87769  0.90650  0.17656  Biso   1.000  H
  H1030    1.0000 0.88392  0.93038  0.20496  Biso   1.000  H
  H1031    1.0000 0.87765  0.90650  0.17656  Biso   1.000  H
  H1032    1.0000 0.99586  0.91829  0.12047  Biso   1.000  H
  H1033    1.0000 0.94156  0.84560  0.11267  Biso   1.000  H
  H1034    1.0000 0.93297  0.90630  0.10477  Biso   1.000  H
  H1035    1.0000 0.93293  0.90630  0.10477  Biso   1.000  H
  H1036    1.0000 0.96166  0.90571  0.04476  Biso   1.000  H
  H1037    1.0000 0.99856  0.86459  0.04197  Biso   1.000  H
  H1038    1.0000 0.03985  0.94267  0.04356  Biso   1.000  H
  H1039    1.0000 0.36763  0.88287  0.00197  Biso   1.000  H
  H1040    1.0000 0.32844  0.82917  0.02307  Biso   1.000  H
  H1041    1.0000 0.37915  0.90306  0.03096  Biso   1.000  H
  H1042    1.0000 0.32840  0.82917  0.02307  Biso   1.000  H
  H1043    1.0000 0.37913  0.90311  0.03096  Biso   1.000  H
  H1044    1.0000 0.37917  0.90311  0.03096  Biso   1.000  H
  H1045    1.0000 0.36767  0.88287  0.00197  Biso   1.000  H
  H1046    1.0000 0.34834  0.97020  0.99216  Biso   1.000  H
  H1047    1.0000 0.36222  0.99338  0.02078  Biso   1.000  H
  H1048    1.0000 0.29613  0.98079  0.00747  Biso   1.000  H
  C890     1.0000 0.97120  0.56379  0.03371  Biso   1.000  C
  C891     1.0000 0.97116  0.56379  0.03371  Biso   1.000  C
  C892     1.0000 0.43817  0.35139  0.01902  Biso   1.000  C
  C893     1.0000 0.43808  0.35139  0.01902  Biso   1.000  C
  C894     1.0000 0.09970  0.30303  0.04126  Biso   1.000  C
  C895     1.0000 0.09561  0.20416  0.06372  Biso   1.000  C
  C896     1.0000 0.09966  0.30303  0.04126  Biso   1.000  C
  C897     1.0000 0.23707  0.33495  0.06571  Biso   1.000  C
  C898     1.0000 0.23711  0.33495  0.06571  Biso   1.000  C
  C899     1.0000 0.29597  0.39365  0.10261  Biso   1.000  C
  C900     1.0000 0.29588  0.39365  0.10261  Biso   1.000  C
  H1049    1.0000 0.23787  0.39116  0.13207  Biso   1.000  H
  H1050    1.0000 0.23778  0.39116  0.13207  Biso   1.000  H
  H1051    1.0000 0.22176  0.56117  0.09176  Biso   1.000  H
  H1052    1.0000 0.25882  0.62826  0.10716  Biso   1.000  H
  H1053    1.0000 0.18049  0.58834  0.10607  Biso   1.000  H
  H1054    1.0000 0.18058  0.58834  0.10607  Biso   1.000  H
  H1055    1.0000 0.22168  0.56117  0.09176  Biso   1.000  H
  H1056    1.0000 0.99849  0.14386  0.19896  Biso   1.000  H
  H1057    1.0000 0.99857  0.14386  0.19896  Biso   1.000  H
  H1058    1.0000 0.04640  0.11603  0.20496  Biso   1.000  H
  H1059    1.0000 0.02878  0.12233  0.17656  Biso   1.000  H
  H1060    1.0000 0.02887  0.12233  0.17656  Biso   1.000  H
  C901     1.0000 0.93767  0.18483  0.04765  Biso   1.000  C
  C902     1.0000 0.93772  0.18483  0.04765  Biso   1.000  C
  C903     1.0000 0.82213  0.17923  0.06678  Biso   1.000  C
  C904     1.0000 0.82217  0.17923  0.06678  Biso   1.000  C
  C905     1.0000 0.91442  0.35723  0.08006  Biso   1.000  C
  H1061    1.0000 0.89114  0.33076  0.11917  Biso   1.000  H
  H1062    1.0000 0.83080  0.28554  0.10147  Biso   1.000  H
  H1063    1.0000 0.85306  0.21635  0.14147  Biso   1.000  H
  H1064    1.0000 0.80238  0.17893  0.11917  Biso   1.000  H
  C906     1.0000 0.85980  0.14026  0.12737  Biso   1.000  C
  H1065    1.0000 0.80242  0.17893  0.11917  Biso   1.000  H
  C907     1.0000 0.85986  0.14021  0.12737  Biso   1.000  C
  C908     1.0000 0.85988  0.14026  0.12737  Biso   1.000  C
  C909     1.0000 0.84998  0.66945  0.04430  Biso   1.000  C
  C910     1.0000 0.84993  0.66945  0.04430  Biso   1.000  C
  H1066    1.0000 0.82239  0.60640  0.07347  Biso   1.000  H
  H1067    1.0000 0.82235  0.60640  0.07347  Biso   1.000  H
  H1068    1.0000 0.62386  0.58627  0.08067  Biso   1.000  H
  H1069    1.0000 0.66486  0.56289  0.06376  Biso   1.000  H
  C911     1.0000 0.58997  0.48630  0.08387  Biso   1.000  C
  H1070    1.0000 0.62381  0.58627  0.08067  Biso   1.000  H
  H1071    1.0000 0.66482  0.56289  0.06376  Biso   1.000  H
  C912     1.0000 0.58990  0.48625  0.08387  Biso   1.000  C
  C913     1.0000 0.58992  0.48630  0.08387  Biso   1.000  C
  C914     1.0000 0.58994  0.48625  0.08387  Biso   1.000  C
  C915     1.0000 0.92048  0.72730  0.14438  Biso   1.000  C
  H1072    1.0000 0.84328  0.74709  0.13476  Biso   1.000  H
  H1073    1.0000 0.87647  0.73689  0.11047  Biso   1.000  H
  C916     1.0000 0.92044  0.72730  0.14438  Biso   1.000  C
  H1074    1.0000 0.84324  0.74709  0.13476  Biso   1.000  H
  H1075    1.0000 0.87643  0.73689  0.11047  Biso   1.000  H
  C917     1.0000 0.84736  0.72540  0.03456  Biso   1.000  C
  H1076    1.0000 0.81537  0.79070  0.04147  Biso   1.000  H
  H1077    1.0000 0.81533  0.79070  0.04147  Biso   1.000  H
  H1078    1.0000 0.69933  0.82877  0.02876  Biso   1.000  H
  H1079    1.0000 0.72427  0.77861  0.03507  Biso   1.000  H
  C918     1.0000 0.62598  0.74099  0.04321  Biso   1.000  C
  H1080    1.0000 0.72420  0.77856  0.03507  Biso   1.000  H
  C919     1.0000 0.62594  0.74099  0.04321  Biso   1.000  C
  H1081    1.0000 0.72424  0.77856  0.03507  Biso   1.000  H
  H1082    1.0000 0.82406  0.87418  0.05776  Biso   1.000  H
  H1083    1.0000 0.79477  0.91979  0.05027  Biso   1.000  H
  C920     1.0000 0.82806  0.93358  0.08597  Biso   1.000  C
  H1084    1.0000 0.82402  0.87418  0.05776  Biso   1.000  H
  H1085    1.0000 0.79473  0.91979  0.05027  Biso   1.000  H
  C921     1.0000 0.82802  0.93358  0.08597  Biso   1.000  C
  H1086    1.0000 0.68095  0.91740  0.04937  Biso   1.000  H
  C922     1.0000 0.62847  0.92354  0.07765  Biso   1.000  C
  C923     1.0000 0.62840  0.92349  0.07765  Biso   1.000  C
  C924     1.0000 0.62843  0.92354  0.07765  Biso   1.000  C
  C925     1.0000 0.62845  0.92349  0.07765  Biso   1.000  C
  H1087    1.0000 0.58028  0.91690  0.11087  Biso   1.000  H
  H1088    1.0000 0.58024  0.91690  0.11087  Biso   1.000  H
  C926     1.0000 0.00752  0.53951  0.01724  Biso   1.000  C
  C927     1.0000 0.00749  0.53946  0.01724  Biso   1.000  C
  H1089    1.0000 0.95336  0.53451  0.04866  Biso   1.000  H
  C928     1.0000 0.91332  0.56189  0.01902  Biso   1.000  C
  H1090    1.0000 0.95334  0.53446  0.04866  Biso   1.000  H
  C929     1.0000 0.91327  0.56189  0.01902  Biso   1.000  C
  H1091    1.0000 0.40863  0.33965  0.00417  Biso   1.000  H
  C930     1.0000 0.50864  0.37422  0.00986  Biso   1.000  C
  C931     1.0000 0.43627  0.40739  0.03371  Biso   1.000  C
  C932     1.0000 0.43618  0.40739  0.03371  Biso   1.000  C
  H1092    1.0000 0.12940  0.30063  0.02876  Biso   1.000  H
  H1093    1.0000 0.05431  0.27575  0.03507  Biso   1.000  H
  C933     1.0000 0.11506  0.37407  0.04321  Biso   1.000  C
  C934     1.0000 0.11504  0.37402  0.04321  Biso   1.000  C
  H1094    1.0000 0.05013  0.17593  0.05776  Biso   1.000  H
  H1095    1.0000 0.12502  0.20526  0.05027  Biso   1.000  H
  C935     1.0000 0.10555  0.17194  0.08597  Biso   1.000  C
  H1096    1.0000 0.12498  0.20526  0.05027  Biso   1.000  H
  C936     1.0000 0.29510  0.37157  0.07765  Biso   1.000  C
  C937     1.0000 0.29507  0.37152  0.07765  Biso   1.000  C
  H1097    1.0000 0.23639  0.31907  0.04937  Biso   1.000  H
  H1098    1.0000 0.23646  0.31902  0.04937  Biso   1.000  H
  H1099    1.0000 0.23648  0.31907  0.04937  Biso   1.000  H
  H1100    1.0000 0.23637  0.31902  0.04937  Biso   1.000  H
  H1101    1.0000 0.33661  0.41973  0.11087  Biso   1.000  H
  H1102    1.0000 0.97530  0.18463  0.04147  Biso   1.000  H
  C938     1.0000 0.87802  0.15265  0.03456  Biso   1.000  C
  C939     1.0000 0.81952  0.15005  0.04430  Biso   1.000  C
  H1103    1.0000 0.78399  0.17763  0.07347  Biso   1.000  H
  H1104    1.0000 0.78403  0.17763  0.07347  Biso   1.000  H
  H1105    1.0000 0.96239  0.37617  0.08067  Biso   1.000  H
  H1106    1.0000 0.89801  0.33515  0.06376  Biso   1.000  H
  C940     1.0000 0.89630  0.41004  0.08387  Biso   1.000  C
  H1107    1.0000 0.96245  0.37612  0.08067  Biso   1.000  H
  H1108    1.0000 0.96248  0.37617  0.08067  Biso   1.000  H
  C941     1.0000 0.89634  0.41004  0.08387  Biso   1.000  C
  C942     1.0000 0.80682  0.07956  0.14438  Biso   1.000  C
  H1109    1.0000 0.90382  0.15675  0.13476  Biso   1.000  H
  H1110    1.0000 0.86043  0.12353  0.11047  Biso   1.000  H
  C943     1.0000 0.80679  0.07951  0.14438  Biso   1.000  C
  H1111    1.0000 0.86047  0.12353  0.11047  Biso   1.000  H
  C944     1.0000 0.88340  0.64197  0.03024  Biso   1.000  C
  H1112    1.0000 0.59644  0.47016  0.06766  Biso   1.000  H
  H1113    1.0000 0.61518  0.47521  0.09577  Biso   1.000  H
  C945     1.0000 0.52575  0.42900  0.08937  Biso   1.000  C
  H1114    1.0000 0.61512  0.47516  0.09577  Biso   1.000  H
  H1115    1.0000 0.61514  0.47521  0.09577  Biso   1.000  H
  H1116    1.0000 0.95017  0.77361  0.14887  Biso   1.000  H
  H1117    1.0000 0.90437  0.70097  0.15988  Biso   1.000  H
  C946     1.0000 0.95565  0.70107  0.12717  Biso   1.000  C
  H1118    1.0000 0.95014  0.77356  0.14887  Biso   1.000  H
  H1119    1.0000 0.90433  0.70097  0.15988  Biso   1.000  H
  H1120    1.0000 0.86776  0.74379  0.01896  Biso   1.000  H
  H1121    1.0000 0.86772  0.74379  0.01896  Biso   1.000  H
  C947     1.0000 0.59874  0.70737  0.01741  Biso   1.000  C
  H1122    1.0000 0.59834  0.75848  0.04967  Biso   1.000  H
  H1123    1.0000 0.62336  0.70797  0.05527  Biso   1.000  H
  H1124    1.0000 0.62331  0.70797  0.05527  Biso   1.000  H
  C948     1.0000 0.89505  0.99608  0.08146  Biso   1.000  C
  H1125    1.0000 0.83418  0.90680  0.09877  Biso   1.000  H
  H1126    1.0000 0.79786  0.94707  0.09306  Biso   1.000  H
  H1127    1.0000 0.83414  0.90680  0.09877  Biso   1.000  H
  H1128    1.0000 0.79781  0.94707  0.09306  Biso   1.000  H
  C949     1.0000 0.60686  0.96900  0.06577  Biso   1.000  C
  H1129    1.0000 0.04356  0.54011  0.02697  Biso   1.000  H
  H1130    1.0000 0.02685  0.56908  0.00268  Biso   1.000  H
  H1131    1.0000 0.04353  0.54006  0.02697  Biso   1.000  H
  C950     1.0000 0.95979  0.46777  0.00766  Biso   1.000  C
  C951     1.0000 0.95975  0.46777  0.00766  Biso   1.000  C
  H1132    1.0000 0.02681  0.56908  0.00268  Biso   1.000  H
  N36      1.0000 0.87877  0.58547  0.03532  Biso   1.000  N
  H1133    1.0000 0.93104  0.59136  0.00417  Biso   1.000  H
  C952     1.0000 0.86565  0.49140  0.00986  Biso   1.000  C
  C953     1.0000 0.86561  0.49140  0.00986  Biso   1.000  C
  C954     1.0000 0.53480  0.43667  0.99314  Biso   1.000  C
  C955     1.0000 0.53486  0.43662  0.99314  Biso   1.000  C
  C956     1.0000 0.53489  0.43667  0.99314  Biso   1.000  C
  C957     1.0000 0.53478  0.43662  0.99314  Biso   1.000  C
  H1134    1.0000 0.50890  0.33865  0.00017  Biso   1.000  H
  H1135    1.0000 0.53787  0.38396  0.02446  Biso   1.000  H
  H1136    1.0000 0.50894  0.33865  0.00017  Biso   1.000  H
  H1137    1.0000 0.53783  0.38396  0.02446  Biso   1.000  H
  N37      1.0000 0.36840  0.38466  0.04241  Biso   1.000  N
  H1138    1.0000 0.46548  0.41883  0.04866  Biso   1.000  H
  C958     1.0000 0.46054  0.46804  0.01724  Biso   1.000  C
  H1139    1.0000 0.46557  0.41883  0.04866  Biso   1.000  H
  C959     1.0000 0.46051  0.46799  0.01724  Biso   1.000  C
  N38      1.0000 0.36844  0.38466  0.04241  Biso   1.000  N
  C960     1.0000 0.46047  0.46799  0.01724  Biso   1.000  C
  C961     1.0000 0.10866  0.40125  0.01741  Biso   1.000  C
  H1140    1.0000 0.16009  0.40165  0.04967  Biso   1.000  H
  H1141    1.0000 0.08460  0.37667  0.05527  Biso   1.000  H
  H1142    1.0000 0.16018  0.40165  0.04967  Biso   1.000  H
  H1143    1.0000 0.08458  0.37662  0.05527  Biso   1.000  H
  H1144    1.0000 0.08465  0.37667  0.05527  Biso   1.000  H
  C962     1.0000 0.10858  0.40125  0.01741  Biso   1.000  C
  C963     1.0000 0.10104  0.10494  0.08146  Biso   1.000  C
  H1145    1.0000 0.07265  0.16584  0.09877  Biso   1.000  H
  H1146    1.0000 0.14921  0.20216  0.09306  Biso   1.000  H
  C964     1.0000 0.36209  0.39315  0.06577  Biso   1.000  C
  C965     1.0000 0.36218  0.39315  0.06577  Biso   1.000  C
  H1147    1.0000 0.87605  0.13227  0.01896  Biso   1.000  H
  H1148    1.0000 0.87602  0.13222  0.01896  Biso   1.000  H
  C966     1.0000 0.75852  0.11658  0.03024  Biso   1.000  C
  C967     1.0000 0.75861  0.11658  0.03024  Biso   1.000  C
  H1149    1.0000 0.87371  0.40355  0.06766  Biso   1.000  H
  H1150    1.0000 0.86004  0.38486  0.09577  Biso   1.000  H
  C968     1.0000 0.90322  0.47424  0.08937  Biso   1.000  C
  C969     1.0000 0.90326  0.47424  0.08937  Biso   1.000  C
  H1151    1.0000 0.86009  0.38486  0.09577  Biso   1.000  H
  C970     1.0000 0.74542  0.04434  0.12717  Biso   1.000  C
  H1152    1.0000 0.82345  0.04984  0.14887  Biso   1.000  H
  H1153    1.0000 0.79660  0.09565  0.15988  Biso   1.000  H
  H1154    1.0000 0.79669  0.09565  0.15988  Biso   1.000  H
  H1155    1.0000 0.91016  0.66650  0.01657  Biso   1.000  H
  H1156    1.0000 0.49107  0.43769  0.08396  Biso   1.000  H
  H1157    1.0000 0.52197  0.42030  0.10737  Biso   1.000  H
  H1158    1.0000 0.52145  0.39088  0.08037  Biso   1.000  H
  H1159    1.0000 0.49103  0.43769  0.08396  Biso   1.000  H
  H1160    1.0000 0.52190  0.42025  0.10737  Biso   1.000  H
  H1161    1.0000 0.52192  0.42030  0.10737  Biso   1.000  H
  H1162    1.0000 0.52194  0.42025  0.10737  Biso   1.000  H
  H1163    1.0000 0.99306  0.70347  0.13618  Biso   1.000  H
  H1164    1.0000 0.97108  0.72770  0.11196  Biso   1.000  H
  H1165    1.0000 0.92508  0.65551  0.12266  Biso   1.000  H
  H1166    1.0000 0.99302  0.70347  0.13618  Biso   1.000  H
  H1167    1.0000 0.97104  0.72770  0.11196  Biso   1.000  H
  H1168    1.0000 0.92501  0.65546  0.12266  Biso   1.000  H
  H1169    1.0000 0.92504  0.65551  0.12266  Biso   1.000  H
  H1170    1.0000 0.92506  0.65546  0.12266  Biso   1.000  H
  H1171    1.0000 0.60265  0.74089  0.00528  Biso   1.000  H
  H1172    1.0000 0.62604  0.68928  0.01116  Biso   1.000  H
  C971     1.0000 0.52858  0.65341  0.01844  Biso   1.000  C
  C972     1.0000 0.52852  0.65336  0.01844  Biso   1.000  C
  C973     1.0000 0.52854  0.65341  0.01844  Biso   1.000  C
  H1173    1.0000 0.60406  0.74059  0.00487  Biso   1.000  H
  H1174    1.0000 0.55153  0.67499  0.01886  Biso   1.000  H
  C974     1.0000 0.63835  0.67220  0.00856  Biso   1.000  C
  C975     1.0000 0.92683  0.03525  0.10747  Biso   1.000  C
  H1175    1.0000 0.92546  0.98379  0.07366  Biso   1.000  H
  H1176    1.0000 0.92542  0.98379  0.07366  Biso   1.000  H
  H1177    1.0000 0.93084  0.99238  0.08956  Biso   1.000  H
  C976     1.0000 0.90284  0.99938  0.04956  Biso   1.000  C
  H1178    1.0000 0.88921  0.02516  0.06976  Biso   1.000  H
  H1179    1.0000 0.88929  0.02516  0.06976  Biso   1.000  H
  H1180    1.0000 0.89507  0.03525  0.08807  Biso   1.000  H
  N39      1.0000 0.61538  0.98379  0.04241  Biso   1.000  N
  H1181    1.0000 0.58667  0.98669  0.07597  Biso   1.000  H
  N40      1.0000 0.61533  0.98379  0.04241  Biso   1.000  N
  H1182    1.0000 0.58663  0.98669  0.07597  Biso   1.000  H
  H1183    1.0000 0.98397  0.45348  0.99656  Biso   1.000  H
  C977     1.0000 0.90186  0.46517  0.99314  Biso   1.000  C
  H1184    1.0000 0.98393  0.45348  0.99656  Biso   1.000  H
  C978     1.0000 0.90182  0.46517  0.99314  Biso   1.000  C
  H1185    1.0000 0.94297  0.43749  0.02207  Biso   1.000  H
  H1186    1.0000 0.94293  0.43749  0.02207  Biso   1.000  H
  H1187    1.0000 0.82976  0.49110  0.00017  Biso   1.000  H
  H1188    1.0000 0.84615  0.46217  0.02446  Biso   1.000  H
  H1189    1.0000 0.82972  0.49110  0.00017  Biso   1.000  H
  H1190    1.0000 0.84611  0.46217  0.02446  Biso   1.000  H
  C979     1.0000 0.53221  0.49197  0.00766  Biso   1.000  C
  H1191    1.0000 0.58057  0.45136  0.98807  Biso   1.000  H
  H1192    1.0000 0.50790  0.42613  0.97777  Biso   1.000  H
  H1193    1.0000 0.58048  0.45136  0.98807  Biso   1.000  H
  H1194    1.0000 0.45990  0.50346  0.02697  Biso   1.000  H
  H1195    1.0000 0.43095  0.45775  0.00268  Biso   1.000  H
  H1196    1.0000 0.45995  0.50346  0.02697  Biso   1.000  H
  H1197    1.0000 0.13821  0.39735  0.00528  Biso   1.000  H
  C980     1.0000 0.12481  0.47144  0.01844  Biso   1.000  C
  H1198    1.0000 0.06327  0.37397  0.01116  Biso   1.000  H
  H1199    1.0000 0.06324  0.37392  0.01116  Biso   1.000  H
  H1200    1.0000 0.06316  0.37392  0.01116  Biso   1.000  H
  H1201    1.0000 0.13656  0.39595  0.00487  Biso   1.000  H
  H1202    1.0000 0.12344  0.44846  0.01886  Biso   1.000  H
  C981     1.0000 0.03382  0.36163  0.00856  Biso   1.000  C
  C982     1.0000 0.10840  0.07312  0.10747  Biso   1.000  C
  H1203    1.0000 0.13595  0.11074  0.06976  Biso   1.000  H
  H1204    1.0000 0.05838  0.07457  0.07366  Biso   1.000  H
  C983     1.0000 0.10843  0.07317  0.10747  Biso   1.000  C
  H1205    1.0000 0.05835  0.07452  0.07366  Biso   1.000  H
  H1206    1.0000 0.13591  0.11074  0.06976  Biso   1.000  H
  H1207    1.0000 0.05831  0.07452  0.07366  Biso   1.000  H
  H1208    1.0000 0.06149  0.06912  0.08956  Biso   1.000  H
  H1209    1.0000 0.14024  0.10494  0.08807  Biso   1.000  H
  C984     1.0000 0.09653  0.09715  0.04956  Biso   1.000  C
  H1210    1.0000 0.40000  0.41334  0.07597  Biso   1.000  H
  H1211    1.0000 0.75632  0.08985  0.01657  Biso   1.000  H
  N41      1.0000 0.70672  0.12123  0.03532  Biso   1.000  N
  N42      1.0000 0.70677  0.12123  0.03532  Biso   1.000  N
  H1212    1.0000 0.94662  0.50896  0.08396  Biso   1.000  H
  H1213    1.0000 0.89832  0.47803  0.10737  Biso   1.000  H
  H1214    1.0000 0.86941  0.47853  0.08037  Biso   1.000  H
  H1215    1.0000 0.89836  0.47803  0.10737  Biso   1.000  H
  H1216    1.0000 0.71044  0.00692  0.13618  Biso   1.000  H
  H1217    1.0000 0.75659  0.02895  0.11196  Biso   1.000  H
  H1218    1.0000 0.73040  0.07497  0.12266  Biso   1.000  H
  H1219    1.0000 0.75668  0.02895  0.11196  Biso   1.000  H
  H1220    1.0000 0.73038  0.07492  0.12266  Biso   1.000  H
  H1221    1.0000 0.73047  0.07492  0.12266  Biso   1.000  H
  H1222    1.0000 0.50077  0.67160  0.02307  Biso   1.000  H
  H1223    1.0000 0.52396  0.62089  0.03096  Biso   1.000  H
  H1224    1.0000 0.51526  0.63238  0.00197  Biso   1.000  H
  H1225    1.0000 0.50073  0.67160  0.02307  Biso   1.000  H
  H1226    1.0000 0.52392  0.62089  0.03096  Biso   1.000  H
  H1227    1.0000 0.51521  0.63238  0.00197  Biso   1.000  H
  H1228    1.0000 0.62186  0.65166  0.99216  Biso   1.000  H
  H1229    1.0000 0.63114  0.63778  0.02078  Biso   1.000  H
  H1230    1.0000 0.68465  0.70387  0.00747  Biso   1.000  H
  H1231    1.0000 0.90403  0.05843  0.11267  Biso   1.000  H
  H1232    1.0000 0.92239  0.00412  0.12047  Biso   1.000  H
  H1233    1.0000 0.97335  0.06702  0.10477  Biso   1.000  H
  H1234    1.0000 0.92247  0.00412  0.12047  Biso   1.000  H
  H1235    1.0000 0.90283  0.96016  0.04356  Biso   1.000  H
  H1236    1.0000 0.94404  0.03835  0.04476  Biso   1.000  H
  H1237    1.0000 0.86605  0.00143  0.04197  Biso   1.000  H
  C985     1.0000 0.59258  0.02880  0.03371  Biso   1.000  C
  C986     1.0000 0.59263  0.02880  0.03371  Biso   1.000  C
  H1238    1.0000 0.87090  0.41951  0.98807  Biso   1.000  H
  H1239    1.0000 0.91827  0.49210  0.97777  Biso   1.000  H
  H1240    1.0000 0.87083  0.41946  0.98807  Biso   1.000  H
  H1241    1.0000 0.91822  0.49210  0.97777  Biso   1.000  H
  H1242    1.0000 0.87085  0.41951  0.98807  Biso   1.000  H
  H1243    1.0000 0.56254  0.50546  0.02207  Biso   1.000  H
  H1244    1.0000 0.54656  0.53044  0.99656  Biso   1.000  H
  H1245    1.0000 0.54647  0.53044  0.99656  Biso   1.000  H
  H1246    1.0000 0.17087  0.49927  0.02307  Biso   1.000  H
  H1247    1.0000 0.09691  0.47604  0.03096  Biso   1.000  H
  H1248    1.0000 0.11713  0.48473  0.00197  Biso   1.000  H
  H1249    1.0000 0.17078  0.49927  0.02307  Biso   1.000  H
  H1250    1.0000 0.09686  0.47604  0.03096  Biso   1.000  H
  H1251    1.0000 0.02980  0.37817  0.99216  Biso   1.000  H
  H1252    1.0000 0.00664  0.36887  0.02078  Biso   1.000  H
  H1253    1.0000 0.01921  0.31537  0.00747  Biso   1.000  H
  H1254    1.0000 0.08177  0.07756  0.12047  Biso   1.000  H
  H1255    1.0000 0.15439  0.09595  0.11267  Biso   1.000  H
  H1256    1.0000 0.09374  0.02666  0.10477  Biso   1.000  H
  H1257    1.0000 0.08174  0.07751  0.12047  Biso   1.000  H
  H1258    1.0000 0.15447  0.09595  0.11267  Biso   1.000  H
  H1259    1.0000 0.09378  0.02666  0.10477  Biso   1.000  H
  H1260    1.0000 0.08165  0.07751  0.12047  Biso   1.000  H
  H1261    1.0000 0.09431  0.05593  0.04476  Biso   1.000  H
  H1262    1.0000 0.13541  0.13397  0.04197  Biso   1.000  H
  H1263    1.0000 0.05734  0.09715  0.04356  Biso   1.000  H
  C987     1.0000 0.64862  0.08671  0.01902  Biso   1.000  C
  C988     1.0000 0.53200  0.99253  0.01724  Biso   1.000  C
  C989     1.0000 0.53196  0.99253  0.01724  Biso   1.000  C
  H1264    1.0000 0.58112  0.04664  0.04866  Biso   1.000  H
  H1265    1.0000 0.58117  0.04664  0.04866  Biso   1.000  H
  C990     1.0000 0.62577  0.13437  0.00986  Biso   1.000  C
  H1266    1.0000 0.66032  0.06892  0.00417  Biso   1.000  H
  H1267    1.0000 0.66036  0.06892  0.00417  Biso   1.000  H
  H1268    1.0000 0.49656  0.95651  0.02697  Biso   1.000  H
  H1269    1.0000 0.54228  0.97320  0.00268  Biso   1.000  H
  H1270    1.0000 0.49653  0.95646  0.02697  Biso   1.000  H
  H1271    1.0000 0.54224  0.97320  0.00268  Biso   1.000  H
  C991     1.0000 0.50801  0.04024  0.00766  Biso   1.000  C
  C992     1.0000 0.50803  0.04019  0.00766  Biso   1.000  C
  C993     1.0000 0.50805  0.04024  0.00766  Biso   1.000  C
  H1272    1.0000 0.61604  0.15385  0.02446  Biso   1.000  H
  C994     1.0000 0.56331  0.09815  0.99314  Biso   1.000  C
  H1273    1.0000 0.66131  0.17024  0.00017  Biso   1.000  H
  H1274    1.0000 0.46953  0.01606  0.99656  Biso   1.000  H
  H1275    1.0000 0.46950  0.01601  0.99656  Biso   1.000  H
  H1276    1.0000 0.49451  0.05703  0.02207  Biso   1.000  H
  H1277    1.0000 0.49455  0.05703  0.02207  Biso   1.000  H
  H1278    1.0000 0.54862  0.12917  0.98807  Biso   1.000  H
  H1279    1.0000 0.57381  0.08176  0.97777  Biso   1.000  H
  H1280    1.0000 0.54860  0.12912  0.98807  Biso   1.000  H
  H1281    1.0000 0.57378  0.08171  0.97777  Biso   1.000  H
  H1282    1.0000 0.57382  0.08171  0.97777  Biso   1.000  H
  C995     1.0000 0.02664  0.88088  0.23202  Biso   1.000  C
  C996     1.0000 0.00195  0.84351  0.25729  Biso   1.000  C
  C997     1.0000 0.00192  0.84346  0.25729  Biso   1.000  C
  H1283    1.0000 0.01443  0.91530  0.23067  Biso   1.000  H
  C998     1.0000 0.99314  0.82857  0.21037  Biso   1.000  C
  H1284    1.0000 0.07485  0.90201  0.23086  Biso   1.000  H
  H1285    1.0000 0.07483  0.90196  0.23086  Biso   1.000  H
  H1286    1.0000 0.01448  0.91530  0.23067  Biso   1.000  H
  C999     1.0000 0.02264  0.88637  0.28082  Biso   1.000  C
  C1000    1.0000 0.02260  0.88637  0.28082  Biso   1.000  C
  H1287    1.0000 0.01803  0.81208  0.25876  Biso   1.000  H
  H1288    1.0000 0.95347  0.81768  0.25687  Biso   1.000  H
  H1289    1.0000 0.95342  0.81768  0.25687  Biso   1.000  H
  C1001    1.0000 0.02660  0.88088  0.23202  Biso   1.000  C
  H1290    1.0000 0.01536  0.80249  0.20886  Biso   1.000  H
  H1291    1.0000 0.99837  0.85150  0.19426  Biso   1.000  H
  C1002    1.0000 0.91338  0.77861  0.21607  Biso   1.000  C
  H1292    1.0000 0.99833  0.85150  0.19426  Biso   1.000  H
  C1003    1.0000 0.91331  0.77856  0.21607  Biso   1.000  C
  C1004    1.0000 0.91334  0.77861  0.21607  Biso   1.000  C
  C1005    1.0000 0.91336  0.77856  0.21607  Biso   1.000  C
  H1293    1.0000 0.01532  0.80249  0.20886  Biso   1.000  H
  C1006    1.0000 0.09802  0.92819  0.28055  Biso   1.000  C
  C1007    1.0000 0.09807  0.92819  0.28055  Biso   1.000  C
  C1008    1.0000 0.00643  0.94272  0.28011  Biso   1.000  C
  C1009    1.0000 0.99749  0.84351  0.30580  Biso   1.000  C
  C1010    1.0000 0.99742  0.84346  0.30580  Biso   1.000  C
  C1011    1.0000 0.99746  0.84346  0.30580  Biso   1.000  C
  C1012    1.0000 0.00647  0.94272  0.28011  Biso   1.000  C
  H1294    1.0000 0.90816  0.75588  0.23197  Biso   1.000  H
  H1295    1.0000 0.89416  0.74639  0.20257  Biso   1.000  H
  H1296    1.0000 0.89117  0.80419  0.21696  Biso   1.000  H
  H1297    1.0000 0.90812  0.75588  0.23197  Biso   1.000  H
  H1298    1.0000 0.89113  0.80419  0.21696  Biso   1.000  H
  C1013    1.0000 0.14195  0.90121  0.28155  Biso   1.000  C
  C1014    1.0000 0.14192  0.90116  0.28155  Biso   1.000  C
  C1015    1.0000 0.12383  0.99538  0.28051  Biso   1.000  C
  C1016    1.0000 0.06401  0.00752  0.27940  Biso   1.000  C
  C1017    1.0000 0.06396  0.00752  0.27940  Biso   1.000  C
  C1018    1.0000 0.94357  0.93598  0.27940  Biso   1.000  C
  C1019    1.0000 0.94352  0.93598  0.27940  Biso   1.000  C
  H1299    1.0000 0.01904  0.81678  0.30696  Biso   1.000  H
  C1020    1.0000 0.00854  0.87998  0.33047  Biso   1.000  C
  H1300    1.0000 0.94998  0.81278  0.30396  Biso   1.000  H
  H1301    1.0000 0.94994  0.81278  0.30396  Biso   1.000  H
  H1302    1.0000 0.01900  0.81678  0.30696  Biso   1.000  H
  C1021    1.0000 0.00850  0.87998  0.33047  Biso   1.000  C
  C1022    1.0000 0.20910  0.94387  0.28137  Biso   1.000  C
  C1023    1.0000 0.20905  0.94387  0.28137  Biso   1.000  C
  H1303    1.0000 0.12474  0.85520  0.28227  Biso   1.000  H
  H1304    1.0000 0.12478  0.85520  0.28227  Biso   1.000  H
  C1024    1.0000 0.19261  0.03975  0.28063  Biso   1.000  C
  C1025    1.0000 0.05728  0.06373  0.28011  Biso   1.000  C
  C1026    1.0000 0.93628  0.99358  0.28011  Biso   1.000  C
  C1027    1.0000 0.87157  0.87618  0.28051  Biso   1.000  C
  C1028    1.0000 0.93624  0.99358  0.28011  Biso   1.000  C
  C1029    1.0000 0.87153  0.87618  0.28051  Biso   1.000  C
  H1305    1.0000 0.05615  0.90830  0.33307  Biso   1.000  H
  H1306    1.0000 0.98916  0.90870  0.32917  Biso   1.000  H
  C1030    1.0000 0.97999  0.83671  0.35266  Biso   1.000  C
  C1031    1.0000 0.97992  0.83666  0.35266  Biso   1.000  C
  C1032    1.0000 0.97994  0.83671  0.35266  Biso   1.000  C
  C1033    1.0000 0.23245  0.01307  0.28065  Biso   1.000  C
  C1034    1.0000 0.23242  0.01302  0.28065  Biso   1.000  C
  C1035    1.0000 0.25611  0.91780  0.28208  Biso   1.000  C
  C1036    1.0000 0.25615  0.91780  0.28208  Biso   1.000  C
  H1307    1.0000 0.20999  0.08576  0.28067  Biso   1.000  H
  H1308    1.0000 0.21008  0.08576  0.28067  Biso   1.000  H
  C1037    1.0000 0.11360  0.13622  0.28082  Biso   1.000  C
  C1038    1.0000 0.99246  0.05643  0.27940  Biso   1.000  C
  C1039    1.0000 0.11363  0.13627  0.28082  Biso   1.000  C
  C1040    1.0000 0.86377  0.97740  0.28082  Biso   1.000  C
  C1041    1.0000 0.86373  0.97740  0.28082  Biso   1.000  C
  C1042    1.0000 0.84717  0.80739  0.28063  Biso   1.000  C
  C1043    1.0000 0.83018  0.90201  0.28055  Biso   1.000  C
  C1044    1.0000 0.84712  0.80739  0.28063  Biso   1.000  C
  C1045    1.0000 0.83014  0.90201  0.28055  Biso   1.000  C
  H1309    1.0000 0.00044  0.80908  0.35427  Biso   1.000  H
  H1310    1.0000 0.93265  0.80719  0.34966  Biso   1.000  H
  C1046    1.0000 0.98814  0.87128  0.37672  Biso   1.000  C
  H1311    1.0000 0.27843  0.04204  0.28017  Biso   1.000  H
  H1312    1.0000 0.27847  0.04204  0.28017  Biso   1.000  H
  N43      1.0000 0.31702  0.95576  0.28669  Biso   1.000  N
  H1313    1.0000 0.24022  0.87268  0.27906  Biso   1.000  H
  H1314    1.0000 0.24026  0.87268  0.27906  Biso   1.000  H
  C1047    1.0000 0.07187  0.16984  0.28055  Biso   1.000  C
  C1048    1.0000 0.15648  0.15395  0.30580  Biso   1.000  C
  C1049    1.0000 0.15652  0.15845  0.25729  Biso   1.000  C
  C1050    1.0000 0.15656  0.15395  0.30580  Biso   1.000  C
  C1051    1.0000 0.07179  0.16984  0.28055  Biso   1.000  C
  C1052    1.0000 0.15647  0.15845  0.25729  Biso   1.000  C
  C1053    1.0000 0.00461  0.12842  0.28051  Biso   1.000  C
  C1054    1.0000 0.84157  0.99808  0.25729  Biso   1.000  C
  C1055    1.0000 0.84153  0.99808  0.25729  Biso   1.000  C
  C1056    1.0000 0.84596  0.00253  0.30580  Biso   1.000  C
  C1057    1.0000 0.84600  0.00253  0.30580  Biso   1.000  C
  H1315    1.0000 0.87577  0.79000  0.28067  Biso   1.000  H
  C1058    1.0000 0.78066  0.76757  0.28065  Biso   1.000  C
  H1316    1.0000 0.87573  0.79000  0.28067  Biso   1.000  H
  C1059    1.0000 0.78062  0.76757  0.28065  Biso   1.000  C
  C1060    1.0000 0.75925  0.85809  0.28155  Biso   1.000  C
  H1317    1.0000 0.96887  0.83931  0.39028  Biso   1.000  H
  H1318    1.0000 0.96637  0.89731  0.37577  Biso   1.000  H
  H1319    1.0000 0.96880  0.83926  0.39028  Biso   1.000  H
  H1320    1.0000 0.96631  0.89726  0.37577  Biso   1.000  H
  H1321    1.0000 0.96884  0.83926  0.39028  Biso   1.000  H
  H1322    1.0000 0.96635  0.89726  0.37577  Biso   1.000  H
  H1323    1.0000 0.03494  0.90041  0.38007  Biso   1.000  H
  H1324    1.0000 0.03492  0.90036  0.38007  Biso   1.000  H
  H1325    1.0000 0.03496  0.90036  0.38007  Biso   1.000  H
  C1061    1.0000 0.35783  0.92429  0.28808  Biso   1.000  C
  C1062    1.0000 0.09880  0.24073  0.28155  Biso   1.000  C
  H1326    1.0000 0.18323  0.20226  0.30696  Biso   1.000  H
  C1063    1.0000 0.12001  0.12852  0.33047  Biso   1.000  C
  H1327    1.0000 0.18720  0.13716  0.30396  Biso   1.000  H
  H1328    1.0000 0.18726  0.13711  0.30396  Biso   1.000  H
  H1329    1.0000 0.18728  0.13716  0.30396  Biso   1.000  H
  H1330    1.0000 0.18717  0.13711  0.30396  Biso   1.000  H
  H1331    1.0000 0.18230  0.13577  0.25687  Biso   1.000  H
  H1332    1.0000 0.18789  0.20596  0.25876  Biso   1.000  H
  C1064    1.0000 0.11911  0.14576  0.23202  Biso   1.000  C
  H1333    1.0000 0.18232  0.13572  0.25687  Biso   1.000  H
  H1334    1.0000 0.18797  0.20596  0.25876  Biso   1.000  H
  H1335    1.0000 0.18234  0.13577  0.25687  Biso   1.000  H
  H1336    1.0000 0.18227  0.13572  0.25687  Biso   1.000  H
  C1065    1.0000 0.96024  0.15285  0.28063  Biso   1.000  C
  H1337    1.0000 0.86425  0.04654  0.25687  Biso   1.000  H
  H1338    1.0000 0.79407  0.98199  0.25876  Biso   1.000  H
  C1066    1.0000 0.85429  0.97340  0.23202  Biso   1.000  C
  H1339    1.0000 0.79403  0.98199  0.25876  Biso   1.000  H
  C1067    1.0000 0.85424  0.97340  0.23202  Biso   1.000  C
  H1340    1.0000 0.79777  0.98099  0.30696  Biso   1.000  H
  C1068    1.0000 0.87146  0.99148  0.33047  Biso   1.000  C
  H1341    1.0000 0.79773  0.98099  0.30696  Biso   1.000  H
  C1069    1.0000 0.87142  0.99148  0.33047  Biso   1.000  C
  H1342    1.0000 0.86279  0.05004  0.30396  Biso   1.000  H
  H1343    1.0000 0.86284  0.05004  0.30396  Biso   1.000  H
  C1070    1.0000 0.73481  0.79095  0.28137  Biso   1.000  C
  H1344    1.0000 0.76369  0.72161  0.28017  Biso   1.000  H
  H1345    1.0000 0.76363  0.72156  0.28017  Biso   1.000  H
  H1346    1.0000 0.76365  0.72161  0.28017  Biso   1.000  H
  H1347    1.0000 0.73046  0.87528  0.28227  Biso   1.000  H
  H1348    1.0000 0.73042  0.87528  0.28227  Biso   1.000  H
  C1071    1.0000 0.41634  0.95771  0.26996  Biso   1.000  C
  C1072    1.0000 0.41631  0.95766  0.26996  Biso   1.000  C
  C1073    1.0000 0.41638  0.95771  0.26996  Biso   1.000  C
  C1074    1.0000 0.41636  0.95766  0.26996  Biso   1.000  C
  C1075    1.0000 0.38226  0.92729  0.31503  Biso   1.000  C
  C1076    1.0000 0.38222  0.92729  0.31503  Biso   1.000  C
  H1349    1.0000 0.33035  0.87728  0.28307  Biso   1.000  H
  C1077    1.0000 0.05609  0.26521  0.28137  Biso   1.000  C
  H1350    1.0000 0.14479  0.26956  0.28227  Biso   1.000  H
  C1078    1.0000 0.05618  0.26521  0.28137  Biso   1.000  C
  H1351    1.0000 0.14488  0.26956  0.28227  Biso   1.000  H
  H1352    1.0000 0.09169  0.14786  0.33307  Biso   1.000  H
  H1353    1.0000 0.09131  0.08046  0.32917  Biso   1.000  H
  C1079    1.0000 0.16329  0.14326  0.35266  Biso   1.000  C
  H1354    1.0000 0.09173  0.14786  0.33307  Biso   1.000  H
  H1355    1.0000 0.09128  0.08041  0.32917  Biso   1.000  H
  C1080    1.0000 0.16333  0.14326  0.35266  Biso   1.000  C
  H1356    1.0000 0.09799  0.17284  0.23086  Biso   1.000  H
  H1357    1.0000 0.08468  0.09915  0.23067  Biso   1.000  H
  C1081    1.0000 0.17146  0.16454  0.21037  Biso   1.000  C
  H1358    1.0000 0.08477  0.09915  0.23067  Biso   1.000  H
  H1359    1.0000 0.09808  0.17284  0.23086  Biso   1.000  H
  C1082    1.0000 0.17142  0.16454  0.21037  Biso   1.000  C
  C1083    1.0000 0.98695  0.21935  0.28065  Biso   1.000  C
  H1360    1.0000 0.91421  0.12423  0.28067  Biso   1.000  H
  H1361    1.0000 0.82715  0.92519  0.23086  Biso   1.000  H
  H1362    1.0000 0.90088  0.98559  0.23067  Biso   1.000  H
  H1363    1.0000 0.90083  0.98559  0.23067  Biso   1.000  H
  C1084    1.0000 0.83539  0.00682  0.21037  Biso   1.000  C
  C1085    1.0000 0.83548  0.00682  0.21037  Biso   1.000  C
  H1364    1.0000 0.85216  0.94387  0.33307  Biso   1.000  H
  H1365    1.0000 0.85211  0.94387  0.33307  Biso   1.000  H
  H1366    1.0000 0.91957  0.01087  0.32917  Biso   1.000  H
  C1086    1.0000 0.85672  0.02006  0.35266  Biso   1.000  C
  H1367    1.0000 0.91955  0.01082  0.32917  Biso   1.000  H
  C1087    1.0000 0.85669  0.02001  0.35266  Biso   1.000  C
  C1088    1.0000 0.66165  0.74389  0.28208  Biso   1.000  C
  C1089    1.0000 0.45884  0.92339  0.27157  Biso   1.000  C
  C1090    1.0000 0.45888  0.92339  0.27157  Biso   1.000  C
  N44      1.0000 0.39215  0.95052  0.24324  Biso   1.000  N
  N45      1.0000 0.39212  0.95047  0.24324  Biso   1.000  N
  N46      1.0000 0.39216  0.95047  0.24324  Biso   1.000  N
  H1368    1.0000 0.44394  0.00512  0.27426  Biso   1.000  H
  C1091    1.0000 0.42444  0.89551  0.31799  Biso   1.000  C
  C1092    1.0000 0.42441  0.89546  0.31799  Biso   1.000  C
  C1093    1.0000 0.42448  0.89551  0.31799  Biso   1.000  C
  C1094    1.0000 0.42445  0.89546  0.31799  Biso   1.000  C
  H1369    1.0000 0.40784  0.97360  0.32027  Biso   1.000  H
  H1370    1.0000 0.34386  0.90501  0.32627  Biso   1.000  H
  H1371    1.0000 0.34382  0.90501  0.32627  Biso   1.000  H
  H1372    1.0000 0.40788  0.97360  0.32027  Biso   1.000  H
  C1095    1.0000 0.08223  0.33835  0.28208  Biso   1.000  C
  H1373    1.0000 0.19279  0.12542  0.34966  Biso   1.000  H
  H1374    1.0000 0.19098  0.19137  0.35427  Biso   1.000  H
  C1096    1.0000 0.12874  0.11683  0.37672  Biso   1.000  C
  H1375    1.0000 0.19095  0.19132  0.35427  Biso   1.000  H
  H1376    1.0000 0.19091  0.19132  0.35427  Biso   1.000  H
  H1377    1.0000 0.19757  0.21285  0.20886  Biso   1.000  H
  H1378    1.0000 0.14856  0.14686  0.19426  Biso   1.000  H
  C1097    1.0000 0.22147  0.13477  0.21607  Biso   1.000  C
  C1098    1.0000 0.22145  0.13472  0.21607  Biso   1.000  C
  H1379    1.0000 0.19752  0.21285  0.20886  Biso   1.000  H
  C1099    1.0000 0.22136  0.13472  0.21607  Biso   1.000  C
  H1380    1.0000 0.95789  0.23633  0.28017  Biso   1.000  H
  H1381    1.0000 0.95798  0.23633  0.28017  Biso   1.000  H
  H1382    1.0000 0.85313  0.00163  0.19426  Biso   1.000  H
  H1383    1.0000 0.78716  0.98469  0.20886  Biso   1.000  H
  H1384    1.0000 0.78711  0.98469  0.20886  Biso   1.000  H
  C1100    1.0000 0.86527  0.08666  0.21607  Biso   1.000  C
  H1385    1.0000 0.80866  0.99958  0.35427  Biso   1.000  H
  H1386    1.0000 0.80862  0.99958  0.35427  Biso   1.000  H
  H1387    1.0000 0.87451  0.06732  0.34966  Biso   1.000  H
  C1101    1.0000 0.88312  0.01187  0.37672  Biso   1.000  C
  C1102    1.0000 0.88310  0.01182  0.37672  Biso   1.000  C
  N47      1.0000 0.63873  0.68299  0.28669  Biso   1.000  N
  H1388    1.0000 0.63247  0.75978  0.27906  Biso   1.000  H
  H1389    1.0000 0.63243  0.75978  0.27906  Biso   1.000  H
  C1103    1.0000 0.48314  0.92699  0.29957  Biso   1.000  C
  H1390    1.0000 0.43235  0.87708  0.26627  Biso   1.000  H
  H1391    1.0000 0.49702  0.94557  0.26027  Biso   1.000  H
  H1392    1.0000 0.43231  0.87708  0.26627  Biso   1.000  H
  H1393    1.0000 0.49706  0.94557  0.26027  Biso   1.000  H
  C1104    1.0000 0.48318  0.92699  0.29957  Biso   1.000  C
  C1105    1.0000 0.41064  0.00402  0.23044  Biso   1.000  C
  C1106    1.0000 0.41068  0.00402  0.23044  Biso   1.000  C
  H1394    1.0000 0.39787  0.84800  0.31457  Biso   1.000  H
  H1395    1.0000 0.39783  0.84800  0.31457  Biso   1.000  H
  H1396    1.0000 0.44083  0.90131  0.33537  Biso   1.000  H
  H1397    1.0000 0.44081  0.90126  0.33537  Biso   1.000  H
  H1398    1.0000 0.44088  0.90131  0.33537  Biso   1.000  H
  H1399    1.0000 0.44085  0.90126  0.33537  Biso   1.000  H
  H1400    1.0000 0.12735  0.36758  0.27906  Biso   1.000  H
  H1401    1.0000 0.12732  0.36753  0.27906  Biso   1.000  H
  N48      1.0000 0.04425  0.36128  0.28669  Biso   1.000  N
  N49      1.0000 0.04422  0.36123  0.28669  Biso   1.000  N
  H1402    1.0000 0.09960  0.13452  0.38007  Biso   1.000  H
  H1403    1.0000 0.09962  0.13457  0.38007  Biso   1.000  H
  H1404    1.0000 0.16077  0.12957  0.39028  Biso   1.000  H
  H1405    1.0000 0.10272  0.06902  0.37577  Biso   1.000  H
  H1406    1.0000 0.16075  0.12952  0.39028  Biso   1.000  H
  H1407    1.0000 0.10276  0.06902  0.37577  Biso   1.000  H
  H1408    1.0000 0.16070  0.12952  0.39028  Biso   1.000  H
  H1409    1.0000 0.25363  0.14776  0.20257  Biso   1.000  H
  H1410    1.0000 0.24415  0.15225  0.23197  Biso   1.000  H
  H1411    1.0000 0.19579  0.08696  0.21696  Biso   1.000  H
  H1412    1.0000 0.19588  0.08696  0.21696  Biso   1.000  H
  H1413    1.0000 0.84775  0.09185  0.23197  Biso   1.000  H
  H1414    1.0000 0.85223  0.10584  0.20257  Biso   1.000  H
  H1415    1.0000 0.91301  0.10884  0.21696  Biso   1.000  H
  H1416    1.0000 0.86545  0.96511  0.38007  Biso   1.000  H
  H1417    1.0000 0.87040  0.03115  0.39028  Biso   1.000  H
  H1418    1.0000 0.93096  0.03365  0.37577  Biso   1.000  H
  H1419    1.0000 0.87044  0.03115  0.39028  Biso   1.000  H
  C1107    1.0000 0.56651  0.64222  0.28808  Biso   1.000  C
  C1108    1.0000 0.56645  0.64217  0.28808  Biso   1.000  C
  C1109    1.0000 0.56647  0.64222  0.28808  Biso   1.000  C
  H1420    1.0000 0.50837  0.90381  0.30077  Biso   1.000  H
  H1421    1.0000 0.51257  0.97330  0.30427  Biso   1.000  H
  H1422    1.0000 0.50832  0.90381  0.30077  Biso   1.000  H
  H1423    1.0000 0.51252  0.97330  0.30427  Biso   1.000  H
  H1424    1.0000 0.43991  0.04484  0.23797  Biso   1.000  H
  C1110    1.0000 0.38689  0.00342  0.20403  Biso   1.000  C
  C1111    1.0000 0.38697  0.00342  0.20403  Biso   1.000  C
  C1112    1.0000 0.07574  0.43352  0.28808  Biso   1.000  C
  C1113    1.0000 0.54508  0.61779  0.31503  Biso   1.000  C
  H1425    1.0000 0.54698  0.66970  0.28307  Biso   1.000  H
  C1114    1.0000 0.54135  0.58367  0.26996  Biso   1.000  C
  C1115    1.0000 0.54504  0.61779  0.31503  Biso   1.000  C
  H1426    1.0000 0.54694  0.66970  0.28307  Biso   1.000  H
  C1116    1.0000 0.54131  0.58367  0.26996  Biso   1.000  C
  C1117    1.0000 0.33861  0.94547  0.19304  Biso   1.000  C
  C1118    1.0000 0.33866  0.94547  0.19304  Biso   1.000  C
  C1119    1.0000 0.41213  0.06283  0.19034  Biso   1.000  C
  C1120    1.0000 0.41217  0.06283  0.19034  Biso   1.000  C
  C1121    1.0000 0.07274  0.45495  0.31503  Biso   1.000  C
  H1427    1.0000 0.12271  0.45306  0.28307  Biso   1.000  H
  C1122    1.0000 0.04231  0.45865  0.26996  Biso   1.000  C
  C1123    1.0000 0.04227  0.45865  0.26996  Biso   1.000  C
  H1428    1.0000 0.56576  0.59216  0.32027  Biso   1.000  H
  H1429    1.0000 0.56118  0.65621  0.32627  Biso   1.000  H
  C1124    1.0000 0.47106  0.57558  0.31799  Biso   1.000  C
  H1430    1.0000 0.56571  0.59216  0.32027  Biso   1.000  H
  H1431    1.0000 0.56111  0.65616  0.32627  Biso   1.000  H
  C1125    1.0000 0.47102  0.57558  0.31799  Biso   1.000  C
  H1432    1.0000 0.56113  0.65621  0.32627  Biso   1.000  H
  H1433    1.0000 0.56115  0.65616  0.32627  Biso   1.000  H
  N50      1.0000 0.55835  0.60790  0.24324  Biso   1.000  N
  H1434    1.0000 0.56126  0.55609  0.27426  Biso   1.000  H
  C1126    1.0000 0.46456  0.54120  0.27157  Biso   1.000  C
  H1435    1.0000 0.56122  0.55609  0.27426  Biso   1.000  H
  C1127    1.0000 0.46449  0.54116  0.27157  Biso   1.000  C
  C1128    1.0000 0.46454  0.54116  0.27157  Biso   1.000  C
  C1129    1.0000 0.31302  0.94647  0.16828  Biso   1.000  C
  H1436    1.0000 0.32247  0.90531  0.20177  Biso   1.000  H
  H1437    1.0000 0.32242  0.90531  0.20177  Biso   1.000  H
  C1130    1.0000 0.31307  0.94647  0.16828  Biso   1.000  C
  H1438    1.0000 0.44524  0.10214  0.19766  Biso   1.000  H
  C1131    1.0000 0.38988  0.06522  0.16664  Biso   1.000  C
  C1132    1.0000 0.38997  0.06522  0.16664  Biso   1.000  C
  H1439    1.0000 0.02644  0.43427  0.32027  Biso   1.000  H
  H1440    1.0000 0.09507  0.43887  0.32627  Biso   1.000  H
  C1133    1.0000 0.10450  0.52894  0.31799  Biso   1.000  C
  H1441    1.0000 0.02646  0.43422  0.32027  Biso   1.000  H
  H1442    1.0000 0.09504  0.43882  0.32627  Biso   1.000  H
  H1443    1.0000 0.02649  0.43427  0.32027  Biso   1.000  H
  H1444    1.0000 0.02642  0.43422  0.32027  Biso   1.000  H
  H1445    1.0000 0.09500  0.43882  0.32627  Biso   1.000  H
  H1446    1.0000 0.99481  0.43877  0.27426  Biso   1.000  H
  H1447    1.0000 0.99479  0.43872  0.27426  Biso   1.000  H
  H1448    1.0000 0.99487  0.43872  0.27426  Biso   1.000  H
  N51      1.0000 0.04957  0.44166  0.24324  Biso   1.000  N
  C1134    1.0000 0.07664  0.53544  0.27157  Biso   1.000  C
  N52      1.0000 0.04948  0.44166  0.24324  Biso   1.000  N
  H1449    1.0000 0.45015  0.60220  0.31457  Biso   1.000  H
  H1450    1.0000 0.46045  0.55919  0.33537  Biso   1.000  H
  C1135    1.0000 0.44387  0.51687  0.29957  Biso   1.000  C
  H1451    1.0000 0.45013  0.60215  0.31457  Biso   1.000  H
  C1136    1.0000 0.44383  0.51687  0.29957  Biso   1.000  C
  C1137    1.0000 0.59343  0.58937  0.23044  Biso   1.000  C
  H1452    1.0000 0.44857  0.50299  0.26027  Biso   1.000  H
  H1453    1.0000 0.44475  0.56768  0.26627  Biso   1.000  H
  H1454    1.0000 0.44853  0.50299  0.26027  Biso   1.000  H
  C1138    1.0000 0.26001  0.88977  0.15479  Biso   1.000  C
  C1139    1.0000 0.26005  0.88977  0.15479  Biso   1.000  C
  C1140    1.0000 0.33838  0.00592  0.15479  Biso   1.000  C
  C1141    1.0000 0.33842  0.00592  0.15479  Biso   1.000  C
  H1455    1.0000 0.40837  0.10584  0.15796  Biso   1.000  H
  H1456    1.0000 0.40833  0.10584  0.15796  Biso   1.000  H
  H1457    1.0000 0.15200  0.54988  0.31457  Biso   1.000  H
  H1458    1.0000 0.09867  0.53953  0.33537  Biso   1.000  H
  C1142    1.0000 0.07303  0.55617  0.29957  Biso   1.000  C
  H1459    1.0000 0.15206  0.54983  0.31457  Biso   1.000  H
  H1460    1.0000 0.09876  0.53953  0.33537  Biso   1.000  H
  C1143    1.0000 0.07300  0.55612  0.29957  Biso   1.000  C
  H1461    1.0000 0.15208  0.54988  0.31457  Biso   1.000  H
  H1462    1.0000 0.15197  0.54983  0.31457  Biso   1.000  H
  C1144    1.0000 0.07296  0.55612  0.29957  Biso   1.000  C
  C1145    1.0000 0.99592  0.40654  0.23044  Biso   1.000  C
  H1463    1.0000 0.05441  0.55147  0.26027  Biso   1.000  H
  H1464    1.0000 0.12290  0.55527  0.26627  Biso   1.000  H
  H1465    1.0000 0.05439  0.55142  0.26027  Biso   1.000  H
  H1466    1.0000 0.12291  0.55522  0.26627  Biso   1.000  H
  H1467    1.0000 0.12294  0.55527  0.26627  Biso   1.000  H
  H1468    1.0000 0.12287  0.55522  0.26627  Biso   1.000  H
  H1469    1.0000 0.39546  0.49170  0.30077  Biso   1.000  H
  H1470    1.0000 0.46077  0.48750  0.30427  Biso   1.000  H
  H1471    1.0000 0.39542  0.49170  0.30077  Biso   1.000  H
  H1472    1.0000 0.46073  0.48750  0.30427  Biso   1.000  H
  H1473    1.0000 0.60497  0.56009  0.23797  Biso   1.000  H
  C1146    1.0000 0.61655  0.61310  0.20403  Biso   1.000  C
  H1474    1.0000 0.60493  0.56009  0.23797  Biso   1.000  H
  C1147    1.0000 0.25524  0.92289  0.13065  Biso   1.000  C
  C1148    1.0000 0.19333  0.86119  0.17106  Biso   1.000  C
  C1149    1.0000 0.28434  0.83961  0.14984  Biso   1.000  C
  C1150    1.0000 0.28431  0.83956  0.14984  Biso   1.000  C
  C1151    1.0000 0.28436  0.83956  0.14984  Biso   1.000  C
  C1152    1.0000 0.19337  0.86119  0.17106  Biso   1.000  C
  C1153    1.0000 0.30245  0.99438  0.13040  Biso   1.000  C
  C1154    1.0000 0.30241  0.99438  0.13040  Biso   1.000  C
  H1475    1.0000 0.09617  0.60453  0.30077  Biso   1.000  H
  H1476    1.0000 0.02670  0.53923  0.30427  Biso   1.000  H
  H1477    1.0000 0.09621  0.60453  0.30077  Biso   1.000  H
  H1478    1.0000 0.02666  0.53923  0.30427  Biso   1.000  H
  H1479    1.0000 0.95509  0.39505  0.23797  Biso   1.000  H
  C1155    1.0000 0.99649  0.38346  0.20403  Biso   1.000  C
  H1480    1.0000 0.95513  0.39505  0.23797  Biso   1.000  H
  C1156    1.0000 0.99658  0.38346  0.20403  Biso   1.000  C
  C1157    1.0000 0.65075  0.58787  0.19034  Biso   1.000  C
  C1158    1.0000 0.60687  0.66141  0.19304  Biso   1.000  C
  C1159    1.0000 0.65070  0.58787  0.19034  Biso   1.000  C
  C1160    1.0000 0.60680  0.66136  0.19304  Biso   1.000  C
  C1161    1.0000 0.60682  0.66141  0.19304  Biso   1.000  C
  C1162    1.0000 0.60684  0.66136  0.19304  Biso   1.000  C
  C1163    1.0000 0.21425  0.89421  0.10969  Biso   1.000  C
  C1164    1.0000 0.21423  0.89416  0.10969  Biso   1.000  C
  H1481    1.0000 0.15764  0.82417  0.16177  Biso   1.000  H
  H1482    1.0000 0.19942  0.84371  0.18707  Biso   1.000  H
  H1483    1.0000 0.15760  0.82417  0.16177  Biso   1.000  H
  C1165    1.0000 0.17022  0.91640  0.17736  Biso   1.000  C
  H1484    1.0000 0.19944  0.84366  0.18707  Biso   1.000  H
  H1485    1.0000 0.19947  0.84371  0.18707  Biso   1.000  H
  C1166    1.0000 0.17027  0.91640  0.17736  Biso   1.000  C
  H1486    1.0000 0.24505  0.79719  0.14587  Biso   1.000  H
  C1167    1.0000 0.33155  0.85000  0.13157  Biso   1.000  C
  H1487    1.0000 0.30133  0.83361  0.16597  Biso   1.000  H
  H1488    1.0000 0.30135  0.83356  0.16597  Biso   1.000  H
  H1489    1.0000 0.30137  0.83361  0.16597  Biso   1.000  H
  C1168    1.0000 0.30301  0.03105  0.10913  Biso   1.000  C
  C1169    1.0000 0.30309  0.03105  0.10913  Biso   1.000  C
  C1170    1.0000 0.93711  0.34924  0.19034  Biso   1.000  C
  C1171    1.0000 0.05456  0.39315  0.19304  Biso   1.000  C
  C1172    1.0000 0.05447  0.39315  0.19304  Biso   1.000  C
  H1490    1.0000 0.65697  0.55479  0.19766  Biso   1.000  H
  C1173    1.0000 0.67536  0.61010  0.16664  Biso   1.000  C
  H1491    1.0000 0.65692  0.55479  0.19766  Biso   1.000  H
  C1174    1.0000 0.67532  0.61010  0.16664  Biso   1.000  C
  H1492    1.0000 0.58286  0.67759  0.20177  Biso   1.000  H
  C1175    1.0000 0.63346  0.68699  0.16828  Biso   1.000  C
  H1493    1.0000 0.58281  0.67759  0.20177  Biso   1.000  H
  C1176    1.0000 0.63342  0.68699  0.16828  Biso   1.000  C
  C1177    1.0000 0.21573  0.93568  0.08851  Biso   1.000  C
  C1178    1.0000 0.16344  0.82357  0.10282  Biso   1.000  C
  C1179    1.0000 0.16340  0.82357  0.10282  Biso   1.000  C
  C1180    1.0000 0.21577  0.93568  0.08851  Biso   1.000  C
  H1494    1.0000 0.16212  0.93178  0.16127  Biso   1.000  H
  H1495    1.0000 0.20754  0.95452  0.18547  Biso   1.000  H
  C1181    1.0000 0.11702  0.89731  0.19197  Biso   1.000  C
  H1496    1.0000 0.20751  0.95447  0.18547  Biso   1.000  H
  C1182    1.0000 0.11704  0.89726  0.19197  Biso   1.000  C
  C1183    1.0000 0.11707  0.89731  0.19197  Biso   1.000  C
  H1497    1.0000 0.20756  0.95447  0.18547  Biso   1.000  H
  H1498    1.0000 0.16217  0.93178  0.16127  Biso   1.000  H
  H1499    1.0000 0.37563  0.88487  0.13667  Biso   1.000  H
  H1500    1.0000 0.32026  0.86109  0.11517  Biso   1.000  H
  H1501    1.0000 0.32022  0.86109  0.11517  Biso   1.000  H
  C1184    1.0000 0.32683  0.78181  0.13107  Biso   1.000  C
  C1185    1.0000 0.32685  0.78176  0.13107  Biso   1.000  C
  C1186    1.0000 0.32687  0.78181  0.13107  Biso   1.000  C
  C1187    1.0000 0.25913  0.00223  0.08910  Biso   1.000  C
  C1188    1.0000 0.35225  0.10454  0.10605  Biso   1.000  C
  C1189    1.0000 0.93473  0.32466  0.16664  Biso   1.000  C
  H1502    1.0000 0.89780  0.34305  0.19766  Biso   1.000  H
  H1503    1.0000 0.89789  0.34305  0.19766  Biso   1.000  H
  H1504    1.0000 0.09471  0.41713  0.20177  Biso   1.000  H
  C1190    1.0000 0.05349  0.36653  0.16828  Biso   1.000  C
  C1191    1.0000 0.66758  0.66161  0.15479  Biso   1.000  C
  H1505    1.0000 0.69755  0.59166  0.15796  Biso   1.000  H
  C1192    1.0000 0.66751  0.66156  0.15479  Biso   1.000  C
  H1506    1.0000 0.69751  0.59166  0.15796  Biso   1.000  H
  C1193    1.0000 0.66754  0.66161  0.15479  Biso   1.000  C
  C1194    1.0000 0.62976  0.73999  0.15479  Biso   1.000  C
  C1195    1.0000 0.62972  0.73999  0.15479  Biso   1.000  C
  C1196    1.0000 0.16654  0.89302  0.06695  Biso   1.000  C
  C1197    1.0000 0.16651  0.89297  0.06695  Biso   1.000  C
  C1198    1.0000 0.16658  0.89302  0.06695  Biso   1.000  C
  C1199    1.0000 0.16655  0.89297  0.06695  Biso   1.000  C
  C1200    1.0000 0.14034  0.76317  0.11531  Biso   1.000  C
  C1201    1.0000 0.14395  0.82387  0.07781  Biso   1.000  C
  C1202    1.0000 0.14391  0.82387  0.07781  Biso   1.000  C
  H1507    1.0000 0.07843  0.85889  0.18457  Biso   1.000  H
  H1508    1.0000 0.12465  0.88547  0.20886  Biso   1.000  H
  H1509    1.0000 0.12460  0.88547  0.20886  Biso   1.000  H
  C1203    1.0000 0.10494  0.96271  0.19326  Biso   1.000  C
  C1204    1.0000 0.10492  0.96266  0.19326  Biso   1.000  C
  H1510    1.0000 0.07848  0.85889  0.18457  Biso   1.000  H
  C1205    1.0000 0.10496  0.96266  0.19326  Biso   1.000  C
  H1511    1.0000 0.28044  0.74649  0.13046  Biso   1.000  H
  H1512    1.0000 0.34722  0.77561  0.14627  Biso   1.000  H
  C1206    1.0000 0.36443  0.78001  0.10667  Biso   1.000  C
  H1513    1.0000 0.34724  0.77556  0.14627  Biso   1.000  H
  C1207    1.0000 0.36441  0.77996  0.10667  Biso   1.000  C
  H1514    1.0000 0.34727  0.77561  0.14627  Biso   1.000  H
  C1208    1.0000 0.36448  0.78001  0.10667  Biso   1.000  C
  C1209    1.0000 0.36445  0.77996  0.10667  Biso   1.000  C
  C1210    1.0000 0.27705  0.05953  0.07022  Biso   1.000  C
  C1211    1.0000 0.27696  0.05953  0.07022  Biso   1.000  C
  C1212    1.0000 0.32896  0.11593  0.08041  Biso   1.000  C
  C1213    1.0000 0.42670  0.12113  0.10336  Biso   1.000  C
  C1214    1.0000 0.34753  0.15195  0.12484  Biso   1.000  C
  C1215    1.0000 0.34758  0.15195  0.12484  Biso   1.000  C
  C1216    1.0000 0.32887  0.11593  0.08041  Biso   1.000  C
  C1217    1.0000 0.99401  0.33245  0.15479  Biso   1.000  C
  H1515    1.0000 0.89415  0.30243  0.15796  Biso   1.000  H
  C1218    1.0000 0.99405  0.33245  0.15479  Biso   1.000  C
  C1219    1.0000 0.11027  0.37027  0.15479  Biso   1.000  C
  C1220    1.0000 0.11024  0.37022  0.15479  Biso   1.000  C
  C1221    1.0000 0.69197  0.69758  0.13040  Biso   1.000  C
  C1222    1.0000 0.69193  0.69758  0.13040  Biso   1.000  C
  C1223    1.0000 0.66768  0.74479  0.13065  Biso   1.000  C
  C1224    1.0000 0.55528  0.71571  0.14984  Biso   1.000  C
  C1225    1.0000 0.66787  0.80669  0.17106  Biso   1.000  C
  C1226    1.0000 0.66764  0.74479  0.13065  Biso   1.000  C
  C1227    1.0000 0.55521  0.71566  0.14984  Biso   1.000  C
  C1228    1.0000 0.66783  0.80669  0.17106  Biso   1.000  C
  C1229    1.0000 0.55523  0.71571  0.14984  Biso   1.000  C
  C1230    1.0000 0.55525  0.71566  0.14984  Biso   1.000  C
  C1231    1.0000 0.10854  0.90441  0.06372  Biso   1.000  C
  C1232    1.0000 0.20332  0.90031  0.04126  Biso   1.000  C
  C1233    1.0000 0.20334  0.90026  0.04126  Biso   1.000  C
  C1234    1.0000 0.20337  0.90031  0.04126  Biso   1.000  C
  C1235    1.0000 0.09772  0.70407  0.10261  Biso   1.000  C
  H1516    1.0000 0.15334  0.76217  0.13207  Biso   1.000  H
  C1236    1.0000 0.09776  0.70407  0.10261  Biso   1.000  C
  C1237    1.0000 0.09788  0.76297  0.06571  Biso   1.000  C
  C1238    1.0000 0.09790  0.76292  0.06571  Biso   1.000  C
  C1239    1.0000 0.09792  0.76297  0.06571  Biso   1.000  C
  H1517    1.0000 0.09353  0.97120  0.17656  Biso   1.000  H
  H1518    1.0000 0.06963  0.95362  0.20496  Biso   1.000  H
  H1519    1.0000 0.06961  0.95357  0.20496  Biso   1.000  H
  H1520    1.0000 0.06965  0.95357  0.20496  Biso   1.000  H
  H1521    1.0000 0.09357  0.97120  0.17656  Biso   1.000  H
  H1522    1.0000 0.14533  0.00143  0.19896  Biso   1.000  H
  H1523    1.0000 0.14537  0.00143  0.19896  Biso   1.000  H
  H1524    1.0000 0.40783  0.81948  0.10607  Biso   1.000  H
  H1525    1.0000 0.33944  0.77831  0.09176  Biso   1.000  H
  H1526    1.0000 0.36943  0.74119  0.10716  Biso   1.000  H
  H1527    1.0000 0.33942  0.77826  0.09176  Biso   1.000  H
  H1528    1.0000 0.36947  0.74119  0.10716  Biso   1.000  H
  H1529    1.0000 0.33946  0.77826  0.09176  Biso   1.000  H
  C1240    1.0000 0.24712  0.06223  0.04765  Biso   1.000  C
  C1241    1.0000 0.24714  0.06228  0.04765  Biso   1.000  C
  C1242    1.0000 0.35714  0.17783  0.06678  Biso   1.000  C
  H1530    1.0000 0.43959  0.10884  0.11917  Biso   1.000  H
  H1531    1.0000 0.45469  0.16914  0.10147  Biso   1.000  H
  C1243    1.0000 0.44288  0.08556  0.08006  Biso   1.000  C
  H1532    1.0000 0.43968  0.10884  0.11917  Biso   1.000  H
  H1533    1.0000 0.45473  0.16914  0.10147  Biso   1.000  H
  C1244    1.0000 0.44279  0.08556  0.08006  Biso   1.000  C
  H1534    1.0000 0.36334  0.14696  0.14147  Biso   1.000  H
  H1535    1.0000 0.37657  0.19757  0.11917  Biso   1.000  H
  C1245    1.0000 0.28046  0.14016  0.12737  Biso   1.000  C
  H1536    1.0000 0.36338  0.14696  0.14147  Biso   1.000  H
  H1537    1.0000 0.37655  0.19752  0.11917  Biso   1.000  H
  C1246    1.0000 0.28044  0.14011  0.12737  Biso   1.000  C
  H1538    1.0000 0.37646  0.19752  0.11917  Biso   1.000  H
  C1247    1.0000 0.00566  0.30807  0.13040  Biso   1.000  C
  C1248    1.0000 0.00563  0.30802  0.13040  Biso   1.000  C
  C1249    1.0000 0.07716  0.33235  0.13065  Biso   1.000  C
  C1250    1.0000 0.16040  0.44476  0.14984  Biso   1.000  C
  C1251    1.0000 0.13880  0.33215  0.17106  Biso   1.000  C
  C1252    1.0000 0.16045  0.44476  0.14984  Biso   1.000  C
  C1253    1.0000 0.13888  0.33215  0.17106  Biso   1.000  C
  C1254    1.0000 0.07707  0.33235  0.13065  Biso   1.000  C
  C1255    1.0000 0.72806  0.69698  0.10913  Biso   1.000  C
  C1256    1.0000 0.72802  0.69698  0.10913  Biso   1.000  C
  C1257    1.0000 0.67997  0.78580  0.10969  Biso   1.000  C
  C1258    1.0000 0.67993  0.78580  0.10969  Biso   1.000  C
  H1539    1.0000 0.53227  0.69868  0.16597  Biso   1.000  H
  H1540    1.0000 0.55215  0.75498  0.14587  Biso   1.000  H
  C1259    1.0000 0.51848  0.66850  0.13157  Biso   1.000  C
  H1541    1.0000 0.53222  0.69868  0.16597  Biso   1.000  H
  H1542    1.0000 0.55211  0.75498  0.14587  Biso   1.000  H
  C1260    1.0000 0.51843  0.66850  0.13157  Biso   1.000  C
  H1543    1.0000 0.64427  0.80059  0.18707  Biso   1.000  H
  H1544    1.0000 0.66656  0.84241  0.16177  Biso   1.000  H
  C1261    1.0000 0.74617  0.82977  0.17736  Biso   1.000  C
  H1545    1.0000 0.64423  0.80059  0.18707  Biso   1.000  H
  H1546    1.0000 0.66650  0.84236  0.16177  Biso   1.000  H
  C1262    1.0000 0.74613  0.82977  0.17736  Biso   1.000  C
  H1547    1.0000 0.66654  0.84236  0.16177  Biso   1.000  H
  H1548    1.0000 0.12582  0.94987  0.05776  Biso   1.000  H
  H1549    1.0000 0.08025  0.87498  0.05027  Biso   1.000  H
  H1550    1.0000 0.08020  0.87498  0.05027  Biso   1.000  H
  C1263    1.0000 0.06643  0.89451  0.08597  Biso   1.000  C
  C1264    1.0000 0.06641  0.89446  0.08597  Biso   1.000  C
  C1265    1.0000 0.06648  0.89451  0.08597  Biso   1.000  C
  H1551    1.0000 0.12587  0.94987  0.05776  Biso   1.000  H
  C1266    1.0000 0.06645  0.89446  0.08597  Biso   1.000  C
  H1552    1.0000 0.17124  0.87058  0.02876  Biso   1.000  H
  H1553    1.0000 0.22142  0.94567  0.03507  Biso   1.000  H
  C1267    1.0000 0.25904  0.88497  0.04321  Biso   1.000  C
  H1554    1.0000 0.22146  0.94567  0.03507  Biso   1.000  H
  C1268    1.0000 0.07654  0.70497  0.07765  Biso   1.000  C
  C1269    1.0000 0.07649  0.70497  0.07765  Biso   1.000  C
  H1555    1.0000 0.08314  0.66340  0.11087  Biso   1.000  H
  H1556    1.0000 0.08312  0.66335  0.11087  Biso   1.000  H
  H1557    1.0000 0.08316  0.66335  0.11087  Biso   1.000  H
  H1558    1.0000 0.08265  0.76357  0.04937  Biso   1.000  H
  H1559    1.0000 0.08260  0.76357  0.04937  Biso   1.000  H
  H1560    1.0000 0.20934  0.02466  0.04147  Biso   1.000  H
  C1270    1.0000 0.27459  0.12193  0.03456  Biso   1.000  C
  C1271    1.0000 0.27467  0.12193  0.03456  Biso   1.000  C
  C1272    1.0000 0.33052  0.18048  0.04430  Biso   1.000  C
  H1561    1.0000 0.39359  0.21595  0.07347  Biso   1.000  H
  C1273    1.0000 0.33056  0.18048  0.04430  Biso   1.000  C
  H1562    1.0000 0.39364  0.21595  0.07347  Biso   1.000  H
  H1563    1.0000 0.43714  0.10194  0.06376  Biso   1.000  H
  H1564    1.0000 0.41372  0.03755  0.08067  Biso   1.000  H
  C1274    1.0000 0.51375  0.10364  0.08387  Biso   1.000  C
  H1565    1.0000 0.41368  0.03755  0.08067  Biso   1.000  H
  H1566    1.0000 0.25292  0.09615  0.13476  Biso   1.000  H
  C1275    1.0000 0.27270  0.19317  0.14438  Biso   1.000  C
  H1567    1.0000 0.26311  0.13956  0.11047  Biso   1.000  H
  C1276    1.0000 0.27276  0.19312  0.14438  Biso   1.000  C
  H1568    1.0000 0.26309  0.13951  0.11047  Biso   1.000  H
  C1277    1.0000 0.27278  0.19317  0.14438  Biso   1.000  C
  C1278    1.0000 0.27267  0.19312  0.14438  Biso   1.000  C
  C1279    1.0000 0.96891  0.27195  0.10913  Biso   1.000  C
  C1280    1.0000 0.96899  0.27195  0.10913  Biso   1.000  C
  C1281    1.0000 0.10584  0.32006  0.10969  Biso   1.000  C
  C1282    1.0000 0.10582  0.32001  0.10969  Biso   1.000  C
  H1569    1.0000 0.16640  0.46774  0.16597  Biso   1.000  H
  H1570    1.0000 0.20284  0.44786  0.14587  Biso   1.000  H
  C1283    1.0000 0.14997  0.48153  0.13157  Biso   1.000  C
  H1571    1.0000 0.20288  0.44786  0.14587  Biso   1.000  H
  C1284    1.0000 0.15006  0.48153  0.13157  Biso   1.000  C
  H1572    1.0000 0.15630  0.35574  0.18707  Biso   1.000  H
  H1573    1.0000 0.17579  0.33345  0.16177  Biso   1.000  H
  C1285    1.0000 0.08365  0.25387  0.17736  Biso   1.000  C
  H1574    1.0000 0.17588  0.33345  0.16177  Biso   1.000  H
  C1286    1.0000 0.08362  0.25382  0.17736  Biso   1.000  C
  C1287    1.0000 0.08369  0.25387  0.17736  Biso   1.000  C
  C1288    1.0000 0.75234  0.64777  0.10605  Biso   1.000  C
  C1289    1.0000 0.74318  0.74089  0.08910  Biso   1.000  C
  C1290    1.0000 0.74314  0.74089  0.08910  Biso   1.000  C
  C1291    1.0000 0.71998  0.78431  0.08851  Biso   1.000  C
  C1292    1.0000 0.71993  0.78431  0.08851  Biso   1.000  C
  C1293    1.0000 0.66016  0.83661  0.10282  Biso   1.000  C
  C1294    1.0000 0.66014  0.83656  0.10282  Biso   1.000  C
  H1575    1.0000 0.50927  0.62439  0.13667  Biso   1.000  H
  H1576    1.0000 0.54086  0.67979  0.11517  Biso   1.000  H
  C1295    1.0000 0.45497  0.67320  0.13107  Biso   1.000  C
  H1577    1.0000 0.50923  0.62439  0.13667  Biso   1.000  H
  H1578    1.0000 0.54082  0.67979  0.11517  Biso   1.000  H
  C1296    1.0000 0.45493  0.67320  0.13107  Biso   1.000  C
  H1579    1.0000 0.74696  0.79250  0.18547  Biso   1.000  H
  H1580    1.0000 0.76967  0.83791  0.16127  Biso   1.000  H
  C1297    1.0000 0.78026  0.88297  0.19197  Biso   1.000  C
  H1581    1.0000 0.74692  0.79250  0.18547  Biso   1.000  H
  H1582    1.0000 0.76960  0.83786  0.16127  Biso   1.000  H
  C1298    1.0000 0.78021  0.88297  0.19197  Biso   1.000  C
  H1583    1.0000 0.76964  0.83786  0.16127  Biso   1.000  H
  H1584    1.0000 0.09325  0.92739  0.09877  Biso   1.000  H
  C1299    1.0000 0.00396  0.89901  0.08146  Biso   1.000  C
  H1585    1.0000 0.09321  0.92739  0.09877  Biso   1.000  H
  H1586    1.0000 0.05293  0.85080  0.09306  Biso   1.000  H
  C1300    1.0000 0.00393  0.89896  0.08146  Biso   1.000  C
  H1587    1.0000 0.05297  0.85080  0.09306  Biso   1.000  H
  H1588    1.0000 0.29203  0.91540  0.05527  Biso   1.000  H
  C1301    1.0000 0.29263  0.89142  0.01741  Biso   1.000  C
  H1589    1.0000 0.24153  0.83991  0.04967  Biso   1.000  H
  C1302    1.0000 0.29261  0.89137  0.01741  Biso   1.000  C
  H1590    1.0000 0.24155  0.83986  0.04967  Biso   1.000  H
  C1303    1.0000 0.29268  0.89142  0.01741  Biso   1.000  C
  H1591    1.0000 0.24157  0.83991  0.04967  Biso   1.000  H
  C1304    1.0000 0.29265  0.89137  0.01741  Biso   1.000  C
  H1592    1.0000 0.29208  0.91540  0.05527  Biso   1.000  H
  C1305    1.0000 0.03105  0.63788  0.06577  Biso   1.000  C
  C1306    1.0000 0.03100  0.63788  0.06577  Biso   1.000  C
  H1593    1.0000 0.25625  0.12393  0.01896  Biso   1.000  H
  H1594    1.0000 0.25620  0.12393  0.01896  Biso   1.000  H
  C1307    1.0000 0.35798  0.24138  0.03024  Biso   1.000  C
  C1308    1.0000 0.35802  0.24138  0.03024  Biso   1.000  C
  H1595    1.0000 0.52984  0.12622  0.06766  Biso   1.000  H
  H1596    1.0000 0.52481  0.13996  0.09577  Biso   1.000  H
  C1309    1.0000 0.57100  0.09675  0.08937  Biso   1.000  C
  H1597    1.0000 0.52479  0.13991  0.09577  Biso   1.000  H
  C1310    1.0000 0.57105  0.09675  0.08937  Biso   1.000  C
  H1598    1.0000 0.52490  0.13996  0.09577  Biso   1.000  H
  H1599    1.0000 0.29904  0.20336  0.15988  Biso   1.000  H
  H1600    1.0000 0.22639  0.17653  0.14887  Biso   1.000  H
  C1311    1.0000 0.29890  0.25457  0.12717  Biso   1.000  C
  C1312    1.0000 0.29896  0.25452  0.12717  Biso   1.000  C
  H1601    1.0000 0.22644  0.17653  0.14887  Biso   1.000  H
  C1313    1.0000 0.29898  0.25457  0.12717  Biso   1.000  C
  C1314    1.0000 0.29887  0.25452  0.12717  Biso   1.000  C
  C1315    1.0000 0.99771  0.25687  0.08910  Biso   1.000  C
  C1316    1.0000 0.99768  0.25682  0.08910  Biso   1.000  C
  C1317    1.0000 0.99777  0.25682  0.08910  Biso   1.000  C
  C1318    1.0000 0.89543  0.24762  0.10605  Biso   1.000  C
  C1319    1.0000 0.89548  0.24762  0.10605  Biso   1.000  C
  C1320    1.0000 0.06433  0.28005  0.08851  Biso   1.000  C
  C1321    1.0000 0.17644  0.33985  0.10282  Biso   1.000  C
  C1322    1.0000 0.17648  0.33985  0.10282  Biso   1.000  C
  H1602    1.0000 0.13891  0.45915  0.11517  Biso   1.000  H
  H1603    1.0000 0.11509  0.49077  0.13667  Biso   1.000  H
  C1323    1.0000 0.21819  0.54503  0.13107  Biso   1.000  C
  H1604    1.0000 0.11515  0.49072  0.13667  Biso   1.000  H
  H1605    1.0000 0.11518  0.49077  0.13667  Biso   1.000  H
  H1606    1.0000 0.11507  0.49072  0.13667  Biso   1.000  H
  H1607    1.0000 0.04556  0.25307  0.18547  Biso   1.000  H
  H1608    1.0000 0.06820  0.23034  0.16127  Biso   1.000  H
  C1324    1.0000 0.10271  0.21975  0.19197  Biso   1.000  C
  H1609    1.0000 0.04554  0.25302  0.18547  Biso   1.000  H
  C1325    1.0000 0.10267  0.21975  0.19197  Biso   1.000  C
  C1326    1.0000 0.78707  0.67110  0.08041  Biso   1.000  C
  C1327    1.0000 0.78703  0.67110  0.08041  Biso   1.000  C
  C1328    1.0000 0.69446  0.57328  0.10336  Biso   1.000  C
  C1329    1.0000 0.80445  0.65246  0.12484  Biso   1.000  C
  C1330    1.0000 0.69442  0.57328  0.10336  Biso   1.000  C
  C1331    1.0000 0.80440  0.65246  0.12484  Biso   1.000  C
  C1332    1.0000 0.78256  0.72301  0.07022  Biso   1.000  C
  C1333    1.0000 0.78250  0.72296  0.07022  Biso   1.000  C
  C1334    1.0000 0.78254  0.72296  0.07022  Biso   1.000  C
  C1335    1.0000 0.72650  0.83351  0.06695  Biso   1.000  C
  C1336    1.0000 0.72643  0.83346  0.06695  Biso   1.000  C
  C1337    1.0000 0.72645  0.83351  0.06695  Biso   1.000  C
  C1338    1.0000 0.67998  0.85610  0.07781  Biso   1.000  C
  C1339    1.0000 0.67994  0.85610  0.07781  Biso   1.000  C
  C1340    1.0000 0.62285  0.85969  0.11531  Biso   1.000  C
  C1341    1.0000 0.62281  0.85969  0.11531  Biso   1.000  C
  H1610    1.0000 0.46606  0.71961  0.13046  Biso   1.000  H
  H1611    1.0000 0.42838  0.65281  0.14627  Biso   1.000  H
  C1342    1.0000 0.41557  0.63558  0.10667  Biso   1.000  C
  H1612    1.0000 0.46600  0.71956  0.13046  Biso   1.000  H
  H1613    1.0000 0.42832  0.65276  0.14627  Biso   1.000  H
  C1343    1.0000 0.41553  0.63558  0.10667  Biso   1.000  C
  H1614    1.0000 0.46602  0.71961  0.13046  Biso   1.000  H
  H1615    1.0000 0.42834  0.65281  0.14627  Biso   1.000  H
  H1616    1.0000 0.46604  0.71956  0.13046  Biso   1.000  H
  H1617    1.0000 0.76084  0.87538  0.20886  Biso   1.000  H
  H1618    1.0000 0.78044  0.92159  0.18457  Biso   1.000  H
  C1344    1.0000 0.85776  0.89511  0.19326  Biso   1.000  C
  C1345    1.0000 0.85773  0.89506  0.19326  Biso   1.000  C
  H1619    1.0000 0.01625  0.94168  0.07366  Biso   1.000  H
  H1620    1.0000 0.97486  0.86409  0.06976  Biso   1.000  H
  C1346    1.0000 0.96478  0.89162  0.10747  Biso   1.000  C
  C1347    1.0000 0.96471  0.89157  0.10747  Biso   1.000  C
  C1348    1.0000 0.96474  0.89162  0.10747  Biso   1.000  C
  C1349    1.0000 0.96476  0.89157  0.10747  Biso   1.000  C
  H1621    1.0000 0.96475  0.85979  0.08807  Biso   1.000  H
  H1622    1.0000 0.01620  0.94168  0.07366  Biso   1.000  H
  H1623    1.0000 0.00764  0.93848  0.08956  Biso   1.000  H
  C1350    1.0000 0.00067  0.90351  0.04956  Biso   1.000  C
  H1624    1.0000 0.25913  0.86179  0.00528  Biso   1.000  H
  H1625    1.0000 0.31073  0.93678  0.01116  Biso   1.000  H
  C1351    1.0000 0.34665  0.87518  0.01844  Biso   1.000  C
  H1626    1.0000 0.25917  0.86179  0.00528  Biso   1.000  H
  H1627    1.0000 0.31077  0.93678  0.01116  Biso   1.000  H
  H1628    1.0000 0.25946  0.86349  0.00487  Biso   1.000  H
  H1629    1.0000 0.32502  0.87658  0.01886  Biso   1.000  H
  C1352    1.0000 0.32787  0.96621  0.00856  Biso   1.000  C
  N53      1.0000 0.01626  0.63158  0.04241  Biso   1.000  N
  N54      1.0000 0.01622  0.63158  0.04241  Biso   1.000  N
  H1630    1.0000 0.01332  0.60001  0.07597  Biso   1.000  H
  H1631    1.0000 0.01334  0.59996  0.07597  Biso   1.000  H
  H1632    1.0000 0.01337  0.60001  0.07597  Biso   1.000  H
  N55      1.0000 0.41457  0.29329  0.03532  Biso   1.000  N
  H1633    1.0000 0.33353  0.24363  0.01657  Biso   1.000  H
  N56      1.0000 0.41454  0.29324  0.03532  Biso   1.000  N
  H1634    1.0000 0.33358  0.24363  0.01657  Biso   1.000  H
  H1635    1.0000 0.60916  0.13057  0.08037  Biso   1.000  H
  H1636    1.0000 0.60913  0.13052  0.08037  Biso   1.000  H
  H1637    1.0000 0.56236  0.05333  0.08396  Biso   1.000  H
  H1638    1.0000 0.57972  0.10164  0.10737  Biso   1.000  H
  H1639    1.0000 0.56232  0.05333  0.08396  Biso   1.000  H
  H1640    1.0000 0.57968  0.10164  0.10737  Biso   1.000  H
  H1641    1.0000 0.29648  0.28954  0.13618  Biso   1.000  H
  H1642    1.0000 0.27229  0.24333  0.11196  Biso   1.000  H
  H1643    1.0000 0.34455  0.26956  0.12266  Biso   1.000  H
  H1644    1.0000 0.29652  0.28954  0.13618  Biso   1.000  H
  C1353    1.0000 0.94040  0.21745  0.07022  Biso   1.000  C
  C1354    1.0000 0.94049  0.21745  0.07022  Biso   1.000  C
  C1355    1.0000 0.88403  0.21295  0.08041  Biso   1.000  C
  C1356    1.0000 0.87878  0.30553  0.10336  Biso   1.000  C
  C1357    1.0000 0.84803  0.19557  0.12484  Biso   1.000  C
  C1358    1.0000 0.84805  0.19552  0.12484  Biso   1.000  C
  C1359    1.0000 0.84808  0.19557  0.12484  Biso   1.000  C
  C1360    1.0000 0.87887  0.30553  0.10336  Biso   1.000  C
  C1361    1.0000 0.10699  0.27355  0.06695  Biso   1.000  C
  C1362    1.0000 0.10707  0.27355  0.06695  Biso   1.000  C
  C1363    1.0000 0.17615  0.32006  0.07781  Biso   1.000  C
  C1364    1.0000 0.23685  0.37717  0.11531  Biso   1.000  C
  C1365    1.0000 0.23682  0.37712  0.11531  Biso   1.000  C
  C1366    1.0000 0.17612  0.32001  0.07781  Biso   1.000  C
  H1645    1.0000 0.25354  0.53394  0.13046  Biso   1.000  H
  H1646    1.0000 0.22441  0.57166  0.14627  Biso   1.000  H
  C1367    1.0000 0.21999  0.58445  0.10667  Biso   1.000  C
  C1368    1.0000 0.22003  0.58445  0.10667  Biso   1.000  C
  H1647    1.0000 0.14112  0.21955  0.18457  Biso   1.000  H
  C1369    1.0000 0.03732  0.14226  0.19326  Biso   1.000  C
  H1648    1.0000 0.11448  0.23913  0.20886  Biso   1.000  H
  H1649    1.0000 0.11457  0.23913  0.20886  Biso   1.000  H
  C1370    1.0000 0.82077  0.64287  0.06678  Biso   1.000  C
  C1371    1.0000 0.82072  0.64287  0.06678  Biso   1.000  C
  H1650    1.0000 0.66928  0.56039  0.11917  Biso   1.000  H
  H1651    1.0000 0.71448  0.54530  0.10147  Biso   1.000  H
  C1372    1.0000 0.64276  0.55719  0.08006  Biso   1.000  C
  H1652    1.0000 0.66924  0.56039  0.11917  Biso   1.000  H
  H1653    1.0000 0.71441  0.54525  0.10147  Biso   1.000  H
  C1373    1.0000 0.64272  0.55719  0.08006  Biso   1.000  C
  H1654    1.0000 0.71444  0.54530  0.10147  Biso   1.000  H
  H1655    1.0000 0.71446  0.54525  0.10147  Biso   1.000  H
  H1656    1.0000 0.78366  0.63668  0.14147  Biso   1.000  H
  H1657    1.0000 0.82107  0.62349  0.11917  Biso   1.000  H
  C1374    1.0000 0.85978  0.71961  0.12737  Biso   1.000  C
  H1658    1.0000 0.78362  0.63668  0.14147  Biso   1.000  H
  H1659    1.0000 0.82102  0.62349  0.11917  Biso   1.000  H
  C1375    1.0000 0.85971  0.71956  0.12737  Biso   1.000  C
  C1376    1.0000 0.85974  0.71961  0.12737  Biso   1.000  C
  C1377    1.0000 0.85976  0.71956  0.12737  Biso   1.000  C
  C1378    1.0000 0.81515  0.75288  0.04765  Biso   1.000  C
  C1379    1.0000 0.69697  0.79669  0.04126  Biso   1.000  C
  C1380    1.0000 0.79586  0.89152  0.06372  Biso   1.000  C
  C1381    1.0000 0.69692  0.79669  0.04126  Biso   1.000  C
  C1382    1.0000 0.79584  0.89147  0.06372  Biso   1.000  C
  C1383    1.0000 0.66505  0.90211  0.06571  Biso   1.000  C
  C1384    1.0000 0.66500  0.90211  0.06571  Biso   1.000  C
  C1385    1.0000 0.60635  0.90231  0.10261  Biso   1.000  C
  H1660    1.0000 0.60888  0.84670  0.13207  Biso   1.000  H
  C1386    1.0000 0.60632  0.90226  0.10261  Biso   1.000  C
  H1661    1.0000 0.60883  0.84670  0.13207  Biso   1.000  H
  H1662    1.0000 0.43886  0.66061  0.09176  Biso   1.000  H
  H1663    1.0000 0.37175  0.63058  0.10716  Biso   1.000  H
  H1664    1.0000 0.41164  0.59216  0.10607  Biso   1.000  H
  H1665    1.0000 0.43883  0.66056  0.09176  Biso   1.000  H
  H1666    1.0000 0.37171  0.63058  0.10716  Biso   1.000  H
  H1667    1.0000 0.41160  0.59216  0.10607  Biso   1.000  H
  H1668    1.0000 0.85615  0.85470  0.19896  Biso   1.000  H
  H1669    1.0000 0.88396  0.93038  0.20496  Biso   1.000  H
  H1670    1.0000 0.87769  0.90650  0.17656  Biso   1.000  H
  H1671    1.0000 0.88392  0.93038  0.20496  Biso   1.000  H
  H1672    1.0000 0.87765  0.90650  0.17656  Biso   1.000  H
  H1673    1.0000 0.99586  0.91829  0.12047  Biso   1.000  H
  H1674    1.0000 0.94156  0.84560  0.11267  Biso   1.000  H
  H1675    1.0000 0.93297  0.90630  0.10477  Biso   1.000  H
  H1676    1.0000 0.93293  0.90630  0.10477  Biso   1.000  H
  H1677    1.0000 0.96166  0.90571  0.04476  Biso   1.000  H
  H1678    1.0000 0.99856  0.86459  0.04197  Biso   1.000  H
  H1679    1.0000 0.03985  0.94267  0.04356  Biso   1.000  H
  H1680    1.0000 0.36763  0.88287  0.00197  Biso   1.000  H
  H1681    1.0000 0.32844  0.82917  0.02307  Biso   1.000  H
  H1682    1.0000 0.32840  0.82917  0.02307  Biso   1.000  H
  H1683    1.0000 0.37913  0.90311  0.03096  Biso   1.000  H
  H1684    1.0000 0.37915  0.90306  0.03096  Biso   1.000  H
  H1685    1.0000 0.37917  0.90311  0.03096  Biso   1.000  H
  H1686    1.0000 0.36767  0.88287  0.00197  Biso   1.000  H
  H1687    1.0000 0.34834  0.97020  0.99216  Biso   1.000  H
  H1688    1.0000 0.36222  0.99338  0.02078  Biso   1.000  H
  H1689    1.0000 0.29613  0.98079  0.00747  Biso   1.000  H
  C1387    1.0000 0.97120  0.56379  0.03371  Biso   1.000  C
  C1388    1.0000 0.97116  0.56379  0.03371  Biso   1.000  C
  C1389    1.0000 0.43817  0.35139  0.01902  Biso   1.000  C
  C1390    1.0000 0.43808  0.35139  0.01902  Biso   1.000  C
  C1391    1.0000 0.93767  0.18483  0.04765  Biso   1.000  C
  C1392    1.0000 0.93772  0.18483  0.04765  Biso   1.000  C
  C1393    1.0000 0.82213  0.17923  0.06678  Biso   1.000  C
  C1394    1.0000 0.82217  0.17923  0.06678  Biso   1.000  C
  H1690    1.0000 0.89114  0.33076  0.11917  Biso   1.000  H
  C1395    1.0000 0.91442  0.35723  0.08006  Biso   1.000  C
  H1691    1.0000 0.83080  0.28554  0.10147  Biso   1.000  H
  H1692    1.0000 0.85306  0.21635  0.14147  Biso   1.000  H
  H1693    1.0000 0.80238  0.17893  0.11917  Biso   1.000  H
  C1396    1.0000 0.85980  0.14026  0.12737  Biso   1.000  C
  H1694    1.0000 0.80242  0.17893  0.11917  Biso   1.000  H
  C1397    1.0000 0.85986  0.14021  0.12737  Biso   1.000  C
  C1398    1.0000 0.85988  0.14026  0.12737  Biso   1.000  C
  C1399    1.0000 0.09970  0.30303  0.04126  Biso   1.000  C
  C1400    1.0000 0.09561  0.20416  0.06372  Biso   1.000  C
  C1401    1.0000 0.09966  0.30303  0.04126  Biso   1.000  C
  C1402    1.0000 0.23707  0.33495  0.06571  Biso   1.000  C
  C1403    1.0000 0.23711  0.33495  0.06571  Biso   1.000  C
  C1404    1.0000 0.29597  0.39365  0.10261  Biso   1.000  C
  C1405    1.0000 0.29588  0.39365  0.10261  Biso   1.000  C
  H1695    1.0000 0.23787  0.39116  0.13207  Biso   1.000  H
  H1696    1.0000 0.23778  0.39116  0.13207  Biso   1.000  H
  H1697    1.0000 0.22176  0.56117  0.09176  Biso   1.000  H
  H1698    1.0000 0.25882  0.62826  0.10716  Biso   1.000  H
  H1699    1.0000 0.18049  0.58834  0.10607  Biso   1.000  H
  H1700    1.0000 0.18058  0.58834  0.10607  Biso   1.000  H
  H1701    1.0000 0.22168  0.56117  0.09176  Biso   1.000  H
  H1702    1.0000 0.99849  0.14386  0.19896  Biso   1.000  H
  H1703    1.0000 0.99857  0.14386  0.19896  Biso   1.000  H
  H1704    1.0000 0.04640  0.11603  0.20496  Biso   1.000  H
  H1705    1.0000 0.02878  0.12233  0.17656  Biso   1.000  H
  H1706    1.0000 0.02887  0.12233  0.17656  Biso   1.000  H
  C1406    1.0000 0.84998  0.66945  0.04430  Biso   1.000  C
  C1407    1.0000 0.84993  0.66945  0.04430  Biso   1.000  C
  H1707    1.0000 0.82239  0.60640  0.07347  Biso   1.000  H
  H1708    1.0000 0.82235  0.60640  0.07347  Biso   1.000  H
  H1709    1.0000 0.62386  0.58627  0.08067  Biso   1.000  H
  H1710    1.0000 0.66486  0.56289  0.06376  Biso   1.000  H
  C1408    1.0000 0.58997  0.48630  0.08387  Biso   1.000  C
  H1711    1.0000 0.62381  0.58627  0.08067  Biso   1.000  H
  H1712    1.0000 0.66482  0.56289  0.06376  Biso   1.000  H
  C1409    1.0000 0.58990  0.48625  0.08387  Biso   1.000  C
  C1410    1.0000 0.58992  0.48630  0.08387  Biso   1.000  C
  C1411    1.0000 0.58994  0.48625  0.08387  Biso   1.000  C
  C1412    1.0000 0.92048  0.72730  0.14438  Biso   1.000  C
  H1713    1.0000 0.84328  0.74709  0.13476  Biso   1.000  H
  H1714    1.0000 0.87647  0.73689  0.11047  Biso   1.000  H
  C1413    1.0000 0.92044  0.72730  0.14438  Biso   1.000  C
  H1715    1.0000 0.84324  0.74709  0.13476  Biso   1.000  H
  H1716    1.0000 0.87643  0.73689  0.11047  Biso   1.000  H
  C1414    1.0000 0.84736  0.72540  0.03456  Biso   1.000  C
  H1717    1.0000 0.81537  0.79070  0.04147  Biso   1.000  H
  H1718    1.0000 0.81533  0.79070  0.04147  Biso   1.000  H
  H1719    1.0000 0.69933  0.82877  0.02876  Biso   1.000  H
  H1720    1.0000 0.72427  0.77861  0.03507  Biso   1.000  H
  C1415    1.0000 0.62598  0.74099  0.04321  Biso   1.000  C
  H1721    1.0000 0.72420  0.77856  0.03507  Biso   1.000  H
  C1416    1.0000 0.62594  0.74099  0.04321  Biso   1.000  C
  H1722    1.0000 0.72424  0.77856  0.03507  Biso   1.000  H
  H1723    1.0000 0.82406  0.87418  0.05776  Biso   1.000  H
  H1724    1.0000 0.79477  0.91979  0.05027  Biso   1.000  H
  C1417    1.0000 0.82806  0.93358  0.08597  Biso   1.000  C
  H1725    1.0000 0.82402  0.87418  0.05776  Biso   1.000  H
  H1726    1.0000 0.79473  0.91979  0.05027  Biso   1.000  H
  C1418    1.0000 0.82802  0.93358  0.08597  Biso   1.000  C
  H1727    1.0000 0.68095  0.91740  0.04937  Biso   1.000  H
  C1419    1.0000 0.62847  0.92354  0.07765  Biso   1.000  C
  C1420    1.0000 0.62840  0.92349  0.07765  Biso   1.000  C
  C1421    1.0000 0.62843  0.92354  0.07765  Biso   1.000  C
  C1422    1.0000 0.62845  0.92349  0.07765  Biso   1.000  C
  H1728    1.0000 0.58028  0.91690  0.11087  Biso   1.000  H
  H1729    1.0000 0.58024  0.91690  0.11087  Biso   1.000  H
  H1730    1.0000 0.95336  0.53451  0.04866  Biso   1.000  H
  C1423    1.0000 0.91332  0.56189  0.01902  Biso   1.000  C
  H1731    1.0000 0.95334  0.53446  0.04866  Biso   1.000  H
  C1424    1.0000 0.91327  0.56189  0.01902  Biso   1.000  C
  C1425    1.0000 0.00752  0.53951  0.01724  Biso   1.000  C
  C1426    1.0000 0.00749  0.53946  0.01724  Biso   1.000  C
  H1732    1.0000 0.40863  0.33965  0.00417  Biso   1.000  H
  C1427    1.0000 0.50864  0.37422  0.00986  Biso   1.000  C
  C1428    1.0000 0.43627  0.40739  0.03371  Biso   1.000  C
  C1429    1.0000 0.43618  0.40739  0.03371  Biso   1.000  C
  H1733    1.0000 0.97530  0.18463  0.04147  Biso   1.000  H
  C1430    1.0000 0.87802  0.15265  0.03456  Biso   1.000  C
  C1431    1.0000 0.81952  0.15005  0.04430  Biso   1.000  C
  H1734    1.0000 0.78399  0.17763  0.07347  Biso   1.000  H
  H1735    1.0000 0.78403  0.17763  0.07347  Biso   1.000  H
  H1736    1.0000 0.96239  0.37617  0.08067  Biso   1.000  H
  H1737    1.0000 0.89801  0.33515  0.06376  Biso   1.000  H
  C1432    1.0000 0.89630  0.41004  0.08387  Biso   1.000  C
  H1738    1.0000 0.96245  0.37612  0.08067  Biso   1.000  H
  H1739    1.0000 0.96248  0.37617  0.08067  Biso   1.000  H
  C1433    1.0000 0.89634  0.41004  0.08387  Biso   1.000  C
  C1434    1.0000 0.80682  0.07956  0.14438  Biso   1.000  C
  H1740    1.0000 0.90382  0.15675  0.13476  Biso   1.000  H
  H1741    1.0000 0.86043  0.12353  0.11047  Biso   1.000  H
  C1435    1.0000 0.80679  0.07951  0.14438  Biso   1.000  C
  H1742    1.0000 0.86047  0.12353  0.11047  Biso   1.000  H
  H1743    1.0000 0.12940  0.30063  0.02876  Biso   1.000  H
  H1744    1.0000 0.05431  0.27575  0.03507  Biso   1.000  H
  C1436    1.0000 0.11506  0.37407  0.04321  Biso   1.000  C
  C1437    1.0000 0.11504  0.37402  0.04321  Biso   1.000  C
  H1745    1.0000 0.05013  0.17593  0.05776  Biso   1.000  H
  H1746    1.0000 0.12502  0.20526  0.05027  Biso   1.000  H
  C1438    1.0000 0.10555  0.17194  0.08597  Biso   1.000  C
  H1747    1.0000 0.12498  0.20526  0.05027  Biso   1.000  H
  C1439    1.0000 0.29510  0.37157  0.07765  Biso   1.000  C
  C1440    1.0000 0.29507  0.37152  0.07765  Biso   1.000  C
  H1748    1.0000 0.23639  0.31907  0.04937  Biso   1.000  H
  H1749    1.0000 0.23646  0.31902  0.04937  Biso   1.000  H
  H1750    1.0000 0.23648  0.31907  0.04937  Biso   1.000  H
  H1751    1.0000 0.23637  0.31902  0.04937  Biso   1.000  H
  H1752    1.0000 0.33661  0.41973  0.11087  Biso   1.000  H
  C1441    1.0000 0.88340  0.64197  0.03024  Biso   1.000  C
  H1753    1.0000 0.59644  0.47016  0.06766  Biso   1.000  H
  H1754    1.0000 0.61518  0.47521  0.09577  Biso   1.000  H
  C1442    1.0000 0.52575  0.42900  0.08937  Biso   1.000  C
  H1755    1.0000 0.61512  0.47516  0.09577  Biso   1.000  H
  H1756    1.0000 0.61514  0.47521  0.09577  Biso   1.000  H
  H1757    1.0000 0.95017  0.77361  0.14887  Biso   1.000  H
  H1758    1.0000 0.90437  0.70097  0.15988  Biso   1.000  H
  C1443    1.0000 0.95565  0.70107  0.12717  Biso   1.000  C
  H1759    1.0000 0.95014  0.77356  0.14887  Biso   1.000  H
  H1760    1.0000 0.90433  0.70097  0.15988  Biso   1.000  H
  H1761    1.0000 0.86776  0.74379  0.01896  Biso   1.000  H
  H1762    1.0000 0.86772  0.74379  0.01896  Biso   1.000  H
  C1444    1.0000 0.59874  0.70737  0.01741  Biso   1.000  C
  H1763    1.0000 0.59834  0.75848  0.04967  Biso   1.000  H
  H1764    1.0000 0.62336  0.70797  0.05527  Biso   1.000  H
  H1765    1.0000 0.62331  0.70797  0.05527  Biso   1.000  H
  C1445    1.0000 0.89505  0.99608  0.08146  Biso   1.000  C
  H1766    1.0000 0.83418  0.90680  0.09877  Biso   1.000  H
  H1767    1.0000 0.79786  0.94707  0.09306  Biso   1.000  H
  H1768    1.0000 0.83414  0.90680  0.09877  Biso   1.000  H
  H1769    1.0000 0.79781  0.94707  0.09306  Biso   1.000  H
  C1446    1.0000 0.60686  0.96900  0.06577  Biso   1.000  C
  N57      1.0000 0.87877  0.58547  0.03532  Biso   1.000  N
  H1770    1.0000 0.93104  0.59136  0.00417  Biso   1.000  H
  C1447    1.0000 0.86565  0.49140  0.00986  Biso   1.000  C
  C1448    1.0000 0.86561  0.49140  0.00986  Biso   1.000  C
  H1771    1.0000 0.02685  0.56908  0.00268  Biso   1.000  H
  C1449    1.0000 0.95979  0.46777  0.00766  Biso   1.000  C
  C1450    1.0000 0.95975  0.46777  0.00766  Biso   1.000  C
  H1772    1.0000 0.04356  0.54011  0.02697  Biso   1.000  H
  H1773    1.0000 0.02681  0.56908  0.00268  Biso   1.000  H
  H1774    1.0000 0.04353  0.54006  0.02697  Biso   1.000  H
  C1451    1.0000 0.53480  0.43667  0.99314  Biso   1.000  C
  C1452    1.0000 0.53486  0.43662  0.99314  Biso   1.000  C
  C1453    1.0000 0.53489  0.43667  0.99314  Biso   1.000  C
  C1454    1.0000 0.53478  0.43662  0.99314  Biso   1.000  C
  H1775    1.0000 0.50890  0.33865  0.00017  Biso   1.000  H
  H1776    1.0000 0.53787  0.38396  0.02446  Biso   1.000  H
  H1777    1.0000 0.50894  0.33865  0.00017  Biso   1.000  H
  H1778    1.0000 0.53783  0.38396  0.02446  Biso   1.000  H
  N58      1.0000 0.36840  0.38466  0.04241  Biso   1.000  N
  H1779    1.0000 0.46548  0.41883  0.04866  Biso   1.000  H
  C1455    1.0000 0.46054  0.46804  0.01724  Biso   1.000  C
  H1780    1.0000 0.46557  0.41883  0.04866  Biso   1.000  H
  C1456    1.0000 0.46051  0.46799  0.01724  Biso   1.000  C
  N59      1.0000 0.36844  0.38466  0.04241  Biso   1.000  N
  C1457    1.0000 0.46047  0.46799  0.01724  Biso   1.000  C
  H1781    1.0000 0.87605  0.13227  0.01896  Biso   1.000  H
  H1782    1.0000 0.87602  0.13222  0.01896  Biso   1.000  H
  C1458    1.0000 0.75852  0.11658  0.03024  Biso   1.000  C
  C1459    1.0000 0.75861  0.11658  0.03024  Biso   1.000  C
  H1783    1.0000 0.87371  0.40355  0.06766  Biso   1.000  H
  H1784    1.0000 0.86004  0.38486  0.09577  Biso   1.000  H
  C1460    1.0000 0.90322  0.47424  0.08937  Biso   1.000  C
  C1461    1.0000 0.90326  0.47424  0.08937  Biso   1.000  C
  H1785    1.0000 0.86009  0.38486  0.09577  Biso   1.000  H
  C1462    1.0000 0.74542  0.04434  0.12717  Biso   1.000  C
  H1786    1.0000 0.82345  0.04984  0.14887  Biso   1.000  H
  H1787    1.0000 0.79660  0.09565  0.15988  Biso   1.000  H
  H1788    1.0000 0.79669  0.09565  0.15988  Biso   1.000  H
  C1463    1.0000 0.10866  0.40125  0.01741  Biso   1.000  C
  H1789    1.0000 0.16009  0.40165  0.04967  Biso   1.000  H
  H1790    1.0000 0.08460  0.37667  0.05527  Biso   1.000  H
  H1791    1.0000 0.16018  0.40165  0.04967  Biso   1.000  H
  H1792    1.0000 0.08458  0.37662  0.05527  Biso   1.000  H
  H1793    1.0000 0.08465  0.37667  0.05527  Biso   1.000  H
  C1464    1.0000 0.10858  0.40125  0.01741  Biso   1.000  C
  C1465    1.0000 0.10104  0.10494  0.08146  Biso   1.000  C
  H1794    1.0000 0.07265  0.16584  0.09877  Biso   1.000  H
  H1795    1.0000 0.14921  0.20216  0.09306  Biso   1.000  H
  C1466    1.0000 0.36209  0.39315  0.06577  Biso   1.000  C
  C1467    1.0000 0.36218  0.39315  0.06577  Biso   1.000  C
  H1796    1.0000 0.91016  0.66650  0.01657  Biso   1.000  H
  H1797    1.0000 0.49107  0.43769  0.08396  Biso   1.000  H
  H1798    1.0000 0.52197  0.42030  0.10737  Biso   1.000  H
  H1799    1.0000 0.52145  0.39088  0.08037  Biso   1.000  H
  H1800    1.0000 0.49103  0.43769  0.08396  Biso   1.000  H
  H1801    1.0000 0.52190  0.42025  0.10737  Biso   1.000  H
  H1802    1.0000 0.52192  0.42030  0.10737  Biso   1.000  H
  H1803    1.0000 0.52194  0.42025  0.10737  Biso   1.000  H
  H1804    1.0000 0.99306  0.70347  0.13618  Biso   1.000  H
  H1805    1.0000 0.97108  0.72770  0.11196  Biso   1.000  H
  H1806    1.0000 0.92508  0.65551  0.12266  Biso   1.000  H
  H1807    1.0000 0.99302  0.70347  0.13618  Biso   1.000  H
  H1808    1.0000 0.97104  0.72770  0.11196  Biso   1.000  H
  H1809    1.0000 0.92501  0.65546  0.12266  Biso   1.000  H
  H1810    1.0000 0.92504  0.65551  0.12266  Biso   1.000  H
  H1811    1.0000 0.92506  0.65546  0.12266  Biso   1.000  H
  H1812    1.0000 0.60265  0.74089  0.00528  Biso   1.000  H
  H1813    1.0000 0.62604  0.68928  0.01116  Biso   1.000  H
  C1468    1.0000 0.52858  0.65341  0.01844  Biso   1.000  C
  C1469    1.0000 0.52852  0.65336  0.01844  Biso   1.000  C
  C1470    1.0000 0.52854  0.65341  0.01844  Biso   1.000  C
  H1814    1.0000 0.60406  0.74059  0.00487  Biso   1.000  H
  H1815    1.0000 0.55153  0.67499  0.01886  Biso   1.000  H
  C1471    1.0000 0.63835  0.67220  0.00856  Biso   1.000  C
  C1472    1.0000 0.92683  0.03525  0.10747  Biso   1.000  C
  H1816    1.0000 0.92546  0.98379  0.07366  Biso   1.000  H
  H1817    1.0000 0.92542  0.98379  0.07366  Biso   1.000  H
  H1818    1.0000 0.93084  0.99238  0.08956  Biso   1.000  H
  C1473    1.0000 0.90284  0.99938  0.04956  Biso   1.000  C
  H1819    1.0000 0.88921  0.02516  0.06976  Biso   1.000  H
  H1820    1.0000 0.88929  0.02516  0.06976  Biso   1.000  H
  H1821    1.0000 0.89507  0.03525  0.08807  Biso   1.000  H
  N60      1.0000 0.61538  0.98379  0.04241  Biso   1.000  N
  H1822    1.0000 0.58667  0.98669  0.07597  Biso   1.000  H
  N61      1.0000 0.61533  0.98379  0.04241  Biso   1.000  N
  H1823    1.0000 0.58663  0.98669  0.07597  Biso   1.000  H
  C1474    1.0000 0.90186  0.46517  0.99314  Biso   1.000  C
  C1475    1.0000 0.90182  0.46517  0.99314  Biso   1.000  C
  H1824    1.0000 0.82976  0.49110  0.00017  Biso   1.000  H
  H1825    1.0000 0.84615  0.46217  0.02446  Biso   1.000  H
  H1826    1.0000 0.82972  0.49110  0.00017  Biso   1.000  H
  H1827    1.0000 0.84611  0.46217  0.02446  Biso   1.000  H
  H1828    1.0000 0.98397  0.45348  0.99656  Biso   1.000  H
  H1829    1.0000 0.98393  0.45348  0.99656  Biso   1.000  H
  H1830    1.0000 0.94297  0.43749  0.02207  Biso   1.000  H
  H1831    1.0000 0.94293  0.43749  0.02207  Biso   1.000  H
  C1476    1.0000 0.53221  0.49197  0.00766  Biso   1.000  C
  H1832    1.0000 0.58057  0.45136  0.98807  Biso   1.000  H
  H1833    1.0000 0.50790  0.42613  0.97777  Biso   1.000  H
  H1834    1.0000 0.58048  0.45136  0.98807  Biso   1.000  H
  H1835    1.0000 0.45990  0.50346  0.02697  Biso   1.000  H
  H1836    1.0000 0.43095  0.45775  0.00268  Biso   1.000  H
  H1837    1.0000 0.45995  0.50346  0.02697  Biso   1.000  H
  H1838    1.0000 0.75632  0.08985  0.01657  Biso   1.000  H
  N62      1.0000 0.70672  0.12123  0.03532  Biso   1.000  N
  N63      1.0000 0.70677  0.12123  0.03532  Biso   1.000  N
  H1839    1.0000 0.94662  0.50896  0.08396  Biso   1.000  H
  H1840    1.0000 0.89832  0.47803  0.10737  Biso   1.000  H
  H1841    1.0000 0.86941  0.47853  0.08037  Biso   1.000  H
  H1842    1.0000 0.89836  0.47803  0.10737  Biso   1.000  H
  H1843    1.0000 0.71044  0.00692  0.13618  Biso   1.000  H
  H1844    1.0000 0.75659  0.02895  0.11196  Biso   1.000  H
  H1845    1.0000 0.73040  0.07497  0.12266  Biso   1.000  H
  H1846    1.0000 0.75668  0.02895  0.11196  Biso   1.000  H
  H1847    1.0000 0.73038  0.07492  0.12266  Biso   1.000  H
  H1848    1.0000 0.73047  0.07492  0.12266  Biso   1.000  H
  H1849    1.0000 0.13821  0.39735  0.00528  Biso   1.000  H
  C1477    1.0000 0.12481  0.47144  0.01844  Biso   1.000  C
  H1850    1.0000 0.06327  0.37397  0.01116  Biso   1.000  H
  H1851    1.0000 0.06324  0.37392  0.01116  Biso   1.000  H
  H1852    1.0000 0.06316  0.37392  0.01116  Biso   1.000  H
  H1853    1.0000 0.13656  0.39595  0.00487  Biso   1.000  H
  H1854    1.0000 0.12344  0.44846  0.01886  Biso   1.000  H
  C1478    1.0000 0.03382  0.36163  0.00856  Biso   1.000  C
  C1479    1.0000 0.10840  0.07312  0.10747  Biso   1.000  C
  H1855    1.0000 0.13595  0.11074  0.06976  Biso   1.000  H
  H1856    1.0000 0.05838  0.07457  0.07366  Biso   1.000  H
  C1480    1.0000 0.10843  0.07317  0.10747  Biso   1.000  C
  H1857    1.0000 0.05835  0.07452  0.07366  Biso   1.000  H
  H1858    1.0000 0.13591  0.11074  0.06976  Biso   1.000  H
  H1859    1.0000 0.05831  0.07452  0.07366  Biso   1.000  H
  H1860    1.0000 0.06149  0.06912  0.08956  Biso   1.000  H
  H1861    1.0000 0.14024  0.10494  0.08807  Biso   1.000  H
  C1481    1.0000 0.09653  0.09715  0.04956  Biso   1.000  C
  H1862    1.0000 0.40000  0.41334  0.07597  Biso   1.000  H
  H1863    1.0000 0.50077  0.67160  0.02307  Biso   1.000  H
  H1864    1.0000 0.52396  0.62089  0.03096  Biso   1.000  H
  H1865    1.0000 0.51526  0.63238  0.00197  Biso   1.000  H
  H1866    1.0000 0.50073  0.67160  0.02307  Biso   1.000  H
  H1867    1.0000 0.52392  0.62089  0.03096  Biso   1.000  H
  H1868    1.0000 0.51521  0.63238  0.00197  Biso   1.000  H
  H1869    1.0000 0.62186  0.65166  0.99216  Biso   1.000  H
  H1870    1.0000 0.63114  0.63778  0.02078  Biso   1.000  H
  H1871    1.0000 0.68465  0.70387  0.00747  Biso   1.000  H
  H1872    1.0000 0.90403  0.05843  0.11267  Biso   1.000  H
  H1873    1.0000 0.92239  0.00412  0.12047  Biso   1.000  H
  H1874    1.0000 0.97335  0.06702  0.10477  Biso   1.000  H
  H1875    1.0000 0.92247  0.00412  0.12047  Biso   1.000  H
  H1876    1.0000 0.90283  0.96016  0.04356  Biso   1.000  H
  H1877    1.0000 0.94404  0.03835  0.04476  Biso   1.000  H
  H1878    1.0000 0.86605  0.00143  0.04197  Biso   1.000  H
  C1482    1.0000 0.59258  0.02880  0.03371  Biso   1.000  C
  C1483    1.0000 0.59263  0.02880  0.03371  Biso   1.000  C
  H1879    1.0000 0.87090  0.41951  0.98807  Biso   1.000  H
  H1880    1.0000 0.91827  0.49210  0.97777  Biso   1.000  H
  H1881    1.0000 0.87083  0.41946  0.98807  Biso   1.000  H
  H1882    1.0000 0.91822  0.49210  0.97777  Biso   1.000  H
  H1883    1.0000 0.87085  0.41951  0.98807  Biso   1.000  H
  H1884    1.0000 0.56254  0.50546  0.02207  Biso   1.000  H
  H1885    1.0000 0.54656  0.53044  0.99656  Biso   1.000  H
  H1886    1.0000 0.54647  0.53044  0.99656  Biso   1.000  H
  C1484    1.0000 0.64862  0.08671  0.01902  Biso   1.000  C
  H1887    1.0000 0.17087  0.49927  0.02307  Biso   1.000  H
  H1888    1.0000 0.09691  0.47604  0.03096  Biso   1.000  H
  H1889    1.0000 0.11713  0.48473  0.00197  Biso   1.000  H
  H1890    1.0000 0.17078  0.49927  0.02307  Biso   1.000  H
  H1891    1.0000 0.09686  0.47604  0.03096  Biso   1.000  H
  H1892    1.0000 0.02980  0.37817  0.99216  Biso   1.000  H
  H1893    1.0000 0.00664  0.36887  0.02078  Biso   1.000  H
  H1894    1.0000 0.01921  0.31537  0.00747  Biso   1.000  H
  H1895    1.0000 0.08177  0.07756  0.12047  Biso   1.000  H
  H1896    1.0000 0.15439  0.09595  0.11267  Biso   1.000  H
  H1897    1.0000 0.09374  0.02666  0.10477  Biso   1.000  H
  H1898    1.0000 0.08174  0.07751  0.12047  Biso   1.000  H
  H1899    1.0000 0.15447  0.09595  0.11267  Biso   1.000  H
  H1900    1.0000 0.09378  0.02666  0.10477  Biso   1.000  H
  H1901    1.0000 0.08165  0.07751  0.12047  Biso   1.000  H
  H1902    1.0000 0.09431  0.05593  0.04476  Biso   1.000  H
  H1903    1.0000 0.13541  0.13397  0.04197  Biso   1.000  H
  H1904    1.0000 0.05734  0.09715  0.04356  Biso   1.000  H
  C1485    1.0000 0.53200  0.99253  0.01724  Biso   1.000  C
  C1486    1.0000 0.53196  0.99253  0.01724  Biso   1.000  C
  H1905    1.0000 0.58112  0.04664  0.04866  Biso   1.000  H
  H1906    1.0000 0.58117  0.04664  0.04866  Biso   1.000  H
  C1487    1.0000 0.62577  0.13437  0.00986  Biso   1.000  C
  H1907    1.0000 0.66032  0.06892  0.00417  Biso   1.000  H
  H1908    1.0000 0.66036  0.06892  0.00417  Biso   1.000  H
  H1909    1.0000 0.49656  0.95651  0.02697  Biso   1.000  H
  H1910    1.0000 0.54228  0.97320  0.00268  Biso   1.000  H
  H1911    1.0000 0.49653  0.95646  0.02697  Biso   1.000  H
  H1912    1.0000 0.54224  0.97320  0.00268  Biso   1.000  H
  C1488    1.0000 0.50801  0.04024  0.00766  Biso   1.000  C
  C1489    1.0000 0.50803  0.04019  0.00766  Biso   1.000  C
  C1490    1.0000 0.50805  0.04024  0.00766  Biso   1.000  C
  H1913    1.0000 0.61604  0.15385  0.02446  Biso   1.000  H
  C1491    1.0000 0.56331  0.09815  0.99314  Biso   1.000  C
  H1914    1.0000 0.66131  0.17024  0.00017  Biso   1.000  H
  H1915    1.0000 0.46953  0.01606  0.99656  Biso   1.000  H
  H1916    1.0000 0.46950  0.01601  0.99656  Biso   1.000  H
  H1917    1.0000 0.49451  0.05703  0.02207  Biso   1.000  H
  H1918    1.0000 0.49455  0.05703  0.02207  Biso   1.000  H
  H1919    1.0000 0.54862  0.12917  0.98807  Biso   1.000  H
  H1920    1.0000 0.57381  0.08176  0.97777  Biso   1.000  H
  H1921    1.0000 0.54860  0.12912  0.98807  Biso   1.000  H
  H1922    1.0000 0.57378  0.08171  0.97777  Biso   1.000  H
  H1923    1.0000 0.57382  0.08171  0.97777  Biso   1.000  H
  C1492    1.0000 0.02664  0.88088  0.23202  Biso   1.000  C
  C1493    1.0000 0.00195  0.84351  0.25729  Biso   1.000  C
  C1494    1.0000 0.00192  0.84346  0.25729  Biso   1.000  C
  C1495    1.0000 0.99314  0.82857  0.21037  Biso   1.000  C
  H1924    1.0000 0.07485  0.90201  0.23086  Biso   1.000  H
  H1925    1.0000 0.01443  0.91530  0.23067  Biso   1.000  H
  H1926    1.0000 0.07483  0.90196  0.23086  Biso   1.000  H
  H1927    1.0000 0.01448  0.91530  0.23067  Biso   1.000  H
  C1496    1.0000 0.02260  0.88637  0.28082  Biso   1.000  C
  C1497    1.0000 0.02264  0.88637  0.28082  Biso   1.000  C
  H1928    1.0000 0.01803  0.81208  0.25876  Biso   1.000  H
  H1929    1.0000 0.95347  0.81768  0.25687  Biso   1.000  H
  H1930    1.0000 0.95342  0.81768  0.25687  Biso   1.000  H
  C1498    1.0000 0.02660  0.88088  0.23202  Biso   1.000  C
  H1931    1.0000 0.99837  0.85150  0.19426  Biso   1.000  H
  C1499    1.0000 0.91338  0.77861  0.21607  Biso   1.000  C
  H1932    1.0000 0.99833  0.85150  0.19426  Biso   1.000  H
  C1500    1.0000 0.91331  0.77856  0.21607  Biso   1.000  C
  C1501    1.0000 0.91334  0.77861  0.21607  Biso   1.000  C
  C1502    1.0000 0.91336  0.77856  0.21607  Biso   1.000  C
  H1933    1.0000 0.01532  0.80249  0.20886  Biso   1.000  H
  H1934    1.0000 0.01536  0.80249  0.20886  Biso   1.000  H
  C1503    1.0000 0.09802  0.92819  0.28055  Biso   1.000  C
  C1504    1.0000 0.09807  0.92819  0.28055  Biso   1.000  C
  C1505    1.0000 0.99749  0.84351  0.30580  Biso   1.000  C
  C1506    1.0000 0.99742  0.84346  0.30580  Biso   1.000  C
  C1507    1.0000 0.99746  0.84346  0.30580  Biso   1.000  C
  C1508    1.0000 0.00643  0.94272  0.28011  Biso   1.000  C
  C1509    1.0000 0.00647  0.94272  0.28011  Biso   1.000  C
  H1935    1.0000 0.90816  0.75588  0.23197  Biso   1.000  H
  H1936    1.0000 0.89416  0.74639  0.20257  Biso   1.000  H
  H1937    1.0000 0.89117  0.80419  0.21696  Biso   1.000  H
  H1938    1.0000 0.90812  0.75588  0.23197  Biso   1.000  H
  H1939    1.0000 0.89113  0.80419  0.21696  Biso   1.000  H
  C1510    1.0000 0.14195  0.90121  0.28155  Biso   1.000  C
  C1511    1.0000 0.14192  0.90116  0.28155  Biso   1.000  C
  C1512    1.0000 0.12383  0.99538  0.28051  Biso   1.000  C
  H1940    1.0000 0.94998  0.81278  0.30396  Biso   1.000  H
  H1941    1.0000 0.94994  0.81278  0.30396  Biso   1.000  H
  H1942    1.0000 0.01900  0.81678  0.30696  Biso   1.000  H
  C1513    1.0000 0.00850  0.87998  0.33047  Biso   1.000  C
  H1943    1.0000 0.01904  0.81678  0.30696  Biso   1.000  H
  C1514    1.0000 0.00854  0.87998  0.33047  Biso   1.000  C
  C1515    1.0000 0.06401  0.00752  0.27940  Biso   1.000  C
  C1516    1.0000 0.06396  0.00752  0.27940  Biso   1.000  C
  C1517    1.0000 0.94357  0.93598  0.27940  Biso   1.000  C
  C1518    1.0000 0.94352  0.93598  0.27940  Biso   1.000  C
  C1519    1.0000 0.20905  0.94387  0.28137  Biso   1.000  C
  C1520    1.0000 0.20910  0.94387  0.28137  Biso   1.000  C
  H1944    1.0000 0.12474  0.85520  0.28227  Biso   1.000  H
  H1945    1.0000 0.12478  0.85520  0.28227  Biso   1.000  H
  C1521    1.0000 0.19261  0.03975  0.28063  Biso   1.000  C
  H1946    1.0000 0.05615  0.90830  0.33307  Biso   1.000  H
  H1947    1.0000 0.98916  0.90870  0.32917  Biso   1.000  H
  C1522    1.0000 0.97999  0.83671  0.35266  Biso   1.000  C
  C1523    1.0000 0.97992  0.83666  0.35266  Biso   1.000  C
  C1524    1.0000 0.97994  0.83671  0.35266  Biso   1.000  C
  C1525    1.0000 0.05728  0.06373  0.28011  Biso   1.000  C
  C1526    1.0000 0.93628  0.99358  0.28011  Biso   1.000  C
  C1527    1.0000 0.87157  0.87618  0.28051  Biso   1.000  C
  C1528    1.0000 0.93624  0.99358  0.28011  Biso   1.000  C
  C1529    1.0000 0.87153  0.87618  0.28051  Biso   1.000  C
  C1530    1.0000 0.23245  0.01307  0.28065  Biso   1.000  C
  C1531    1.0000 0.23242  0.01302  0.28065  Biso   1.000  C
  C1532    1.0000 0.25611  0.91780  0.28208  Biso   1.000  C
  C1533    1.0000 0.25615  0.91780  0.28208  Biso   1.000  C
  H1948    1.0000 0.20999  0.08576  0.28067  Biso   1.000  H
  H1949    1.0000 0.21008  0.08576  0.28067  Biso   1.000  H
  H1950    1.0000 0.00044  0.80908  0.35427  Biso   1.000  H
  H1951    1.0000 0.93265  0.80719  0.34966  Biso   1.000  H
  C1534    1.0000 0.98814  0.87128  0.37672  Biso   1.000  C
  C1535    1.0000 0.11360  0.13622  0.28082  Biso   1.000  C
  C1536    1.0000 0.99246  0.05643  0.27940  Biso   1.000  C
  C1537    1.0000 0.11363  0.13627  0.28082  Biso   1.000  C
  C1538    1.0000 0.86377  0.97740  0.28082  Biso   1.000  C
  C1539    1.0000 0.86373  0.97740  0.28082  Biso   1.000  C
  C1540    1.0000 0.84717  0.80739  0.28063  Biso   1.000  C
  C1541    1.0000 0.83018  0.90201  0.28055  Biso   1.000  C
  C1542    1.0000 0.84712  0.80739  0.28063  Biso   1.000  C
  C1543    1.0000 0.83014  0.90201  0.28055  Biso   1.000  C
  H1952    1.0000 0.27843  0.04204  0.28017  Biso   1.000  H
  H1953    1.0000 0.27847  0.04204  0.28017  Biso   1.000  H
  N64      1.0000 0.31702  0.95576  0.28669  Biso   1.000  N
  H1954    1.0000 0.24022  0.87268  0.27906  Biso   1.000  H
  H1955    1.0000 0.24026  0.87268  0.27906  Biso   1.000  H
  H1956    1.0000 0.96887  0.83931  0.39028  Biso   1.000  H
  H1957    1.0000 0.96637  0.89731  0.37577  Biso   1.000  H
  H1958    1.0000 0.96880  0.83926  0.39028  Biso   1.000  H
  H1959    1.0000 0.96631  0.89726  0.37577  Biso   1.000  H
  H1960    1.0000 0.96884  0.83926  0.39028  Biso   1.000  H
  H1961    1.0000 0.96635  0.89726  0.37577  Biso   1.000  H
  H1962    1.0000 0.03494  0.90041  0.38007  Biso   1.000  H
  H1963    1.0000 0.03492  0.90036  0.38007  Biso   1.000  H
  H1964    1.0000 0.03496  0.90036  0.38007  Biso   1.000  H
  C1544    1.0000 0.07187  0.16984  0.28055  Biso   1.000  C
  C1545    1.0000 0.15648  0.15395  0.30580  Biso   1.000  C
  C1546    1.0000 0.15652  0.15845  0.25729  Biso   1.000  C
  C1547    1.0000 0.15656  0.15395  0.30580  Biso   1.000  C
  C1548    1.0000 0.07179  0.16984  0.28055  Biso   1.000  C
  C1549    1.0000 0.15647  0.15845  0.25729  Biso   1.000  C
  C1550    1.0000 0.00461  0.12842  0.28051  Biso   1.000  C
  C1551    1.0000 0.84157  0.99808  0.25729  Biso   1.000  C
  C1552    1.0000 0.84153  0.99808  0.25729  Biso   1.000  C
  C1553    1.0000 0.84596  0.00253  0.30580  Biso   1.000  C
  C1554    1.0000 0.84600  0.00253  0.30580  Biso   1.000  C
  H1965    1.0000 0.87577  0.79000  0.28067  Biso   1.000  H
  C1555    1.0000 0.78066  0.76757  0.28065  Biso   1.000  C
  H1966    1.0000 0.87573  0.79000  0.28067  Biso   1.000  H
  C1556    1.0000 0.78062  0.76757  0.28065  Biso   1.000  C
  C1557    1.0000 0.75925  0.85809  0.28155  Biso   1.000  C
  C1558    1.0000 0.35783  0.92429  0.28808  Biso   1.000  C
  C1559    1.0000 0.09880  0.24073  0.28155  Biso   1.000  C
  H1967    1.0000 0.18323  0.20226  0.30696  Biso   1.000  H
  C1560    1.0000 0.12001  0.12852  0.33047  Biso   1.000  C
  H1968    1.0000 0.18720  0.13716  0.30396  Biso   1.000  H
  H1969    1.0000 0.18726  0.13711  0.30396  Biso   1.000  H
  H1970    1.0000 0.18728  0.13716  0.30396  Biso   1.000  H
  H1971    1.0000 0.18717  0.13711  0.30396  Biso   1.000  H
  H1972    1.0000 0.18230  0.13577  0.25687  Biso   1.000  H
  H1973    1.0000 0.18789  0.20596  0.25876  Biso   1.000  H
  C1561    1.0000 0.11911  0.14576  0.23202  Biso   1.000  C
  H1974    1.0000 0.18232  0.13572  0.25687  Biso   1.000  H
  H1975    1.0000 0.18797  0.20596  0.25876  Biso   1.000  H
  H1976    1.0000 0.18234  0.13577  0.25687  Biso   1.000  H
  H1977    1.0000 0.18227  0.13572  0.25687  Biso   1.000  H
  C1562    1.0000 0.96024  0.15285  0.28063  Biso   1.000  C
  H1978    1.0000 0.86425  0.04654  0.25687  Biso   1.000  H
  H1979    1.0000 0.79407  0.98199  0.25876  Biso   1.000  H
  C1563    1.0000 0.85429  0.97340  0.23202  Biso   1.000  C
  H1980    1.0000 0.79403  0.98199  0.25876  Biso   1.000  H
  C1564    1.0000 0.85424  0.97340  0.23202  Biso   1.000  C
  H1981    1.0000 0.79777  0.98099  0.30696  Biso   1.000  H
  C1565    1.0000 0.87146  0.99148  0.33047  Biso   1.000  C
  H1982    1.0000 0.79773  0.98099  0.30696  Biso   1.000  H
  C1566    1.0000 0.87142  0.99148  0.33047  Biso   1.000  C
  H1983    1.0000 0.86279  0.05004  0.30396  Biso   1.000  H
  H1984    1.0000 0.86284  0.05004  0.30396  Biso   1.000  H
  C1567    1.0000 0.73481  0.79095  0.28137  Biso   1.000  C
  H1985    1.0000 0.76369  0.72161  0.28017  Biso   1.000  H
  H1986    1.0000 0.76363  0.72156  0.28017  Biso   1.000  H
  H1987    1.0000 0.76365  0.72161  0.28017  Biso   1.000  H
  H1988    1.0000 0.73046  0.87528  0.28227  Biso   1.000  H
  H1989    1.0000 0.73042  0.87528  0.28227  Biso   1.000  H
  C1568    1.0000 0.41634  0.95771  0.26996  Biso   1.000  C
  C1569    1.0000 0.41631  0.95766  0.26996  Biso   1.000  C
  C1570    1.0000 0.41638  0.95771  0.26996  Biso   1.000  C
  C1571    1.0000 0.41636  0.95766  0.26996  Biso   1.000  C
  H1990    1.0000 0.33035  0.87728  0.28307  Biso   1.000  H
  C1572    1.0000 0.38222  0.92729  0.31503  Biso   1.000  C
  C1573    1.0000 0.38226  0.92729  0.31503  Biso   1.000  C
  C1574    1.0000 0.05609  0.26521  0.28137  Biso   1.000  C
  H1991    1.0000 0.14479  0.26956  0.28227  Biso   1.000  H
  C1575    1.0000 0.05618  0.26521  0.28137  Biso   1.000  C
  H1992    1.0000 0.14488  0.26956  0.28227  Biso   1.000  H
  H1993    1.0000 0.09169  0.14786  0.33307  Biso   1.000  H
  H1994    1.0000 0.09131  0.08046  0.32917  Biso   1.000  H
  C1576    1.0000 0.16329  0.14326  0.35266  Biso   1.000  C
  H1995    1.0000 0.09173  0.14786  0.33307  Biso   1.000  H
  H1996    1.0000 0.09128  0.08041  0.32917  Biso   1.000  H
  C1577    1.0000 0.16333  0.14326  0.35266  Biso   1.000  C
  H1997    1.0000 0.09799  0.17284  0.23086  Biso   1.000  H
  H1998    1.0000 0.08468  0.09915  0.23067  Biso   1.000  H
  C1578    1.0000 0.17146  0.16454  0.21037  Biso   1.000  C
  H1999    1.0000 0.08477  0.09915  0.23067  Biso   1.000  H
  H2000    1.0000 0.09808  0.17284  0.23086  Biso   1.000  H
  C1579    1.0000 0.17142  0.16454  0.21037  Biso   1.000  C
  C1580    1.0000 0.98695  0.21935  0.28065  Biso   1.000  C
  H2001    1.0000 0.91421  0.12423  0.28067  Biso   1.000  H
  H2002    1.0000 0.82715  0.92519  0.23086  Biso   1.000  H
  H2003    1.0000 0.90088  0.98559  0.23067  Biso   1.000  H
  H2004    1.0000 0.90083  0.98559  0.23067  Biso   1.000  H
  C1581    1.0000 0.83539  0.00682  0.21037  Biso   1.000  C
  C1582    1.0000 0.83548  0.00682  0.21037  Biso   1.000  C
  H2005    1.0000 0.85216  0.94387  0.33307  Biso   1.000  H
  H2006    1.0000 0.85211  0.94387  0.33307  Biso   1.000  H
  H2007    1.0000 0.91957  0.01087  0.32917  Biso   1.000  H
  C1583    1.0000 0.85672  0.02006  0.35266  Biso   1.000  C
  H2008    1.0000 0.91955  0.01082  0.32917  Biso   1.000  H
  C1584    1.0000 0.85669  0.02001  0.35266  Biso   1.000  C
  C1585    1.0000 0.66165  0.74389  0.28208  Biso   1.000  C
  N65      1.0000 0.39215  0.95052  0.24324  Biso   1.000  N
  N66      1.0000 0.39212  0.95047  0.24324  Biso   1.000  N
  N67      1.0000 0.39216  0.95047  0.24324  Biso   1.000  N
  C1586    1.0000 0.45884  0.92339  0.27157  Biso   1.000  C
  C1587    1.0000 0.45888  0.92339  0.27157  Biso   1.000  C
  H2009    1.0000 0.44394  0.00512  0.27426  Biso   1.000  H
  H2010    1.0000 0.40784  0.97360  0.32027  Biso   1.000  H
  H2011    1.0000 0.34382  0.90501  0.32627  Biso   1.000  H
  C1588    1.0000 0.42444  0.89551  0.31799  Biso   1.000  C
  H2012    1.0000 0.34386  0.90501  0.32627  Biso   1.000  H
  C1589    1.0000 0.42441  0.89546  0.31799  Biso   1.000  C
  C1590    1.0000 0.42448  0.89551  0.31799  Biso   1.000  C
  H2013    1.0000 0.40788  0.97360  0.32027  Biso   1.000  H
  C1591    1.0000 0.42445  0.89546  0.31799  Biso   1.000  C
  C1592    1.0000 0.08223  0.33835  0.28208  Biso   1.000  C
  H2014    1.0000 0.19279  0.12542  0.34966  Biso   1.000  H
  H2015    1.0000 0.19098  0.19137  0.35427  Biso   1.000  H
  C1593    1.0000 0.12874  0.11683  0.37672  Biso   1.000  C
  H2016    1.0000 0.19095  0.19132  0.35427  Biso   1.000  H
  H2017    1.0000 0.19091  0.19132  0.35427  Biso   1.000  H
  H2018    1.0000 0.19757  0.21285  0.20886  Biso   1.000  H
  H2019    1.0000 0.14856  0.14686  0.19426  Biso   1.000  H
  C1594    1.0000 0.22147  0.13477  0.21607  Biso   1.000  C
  C1595    1.0000 0.22145  0.13472  0.21607  Biso   1.000  C
  H2020    1.0000 0.19752  0.21285  0.20886  Biso   1.000  H
  C1596    1.0000 0.22136  0.13472  0.21607  Biso   1.000  C
  H2021    1.0000 0.95789  0.23633  0.28017  Biso   1.000  H
  H2022    1.0000 0.95798  0.23633  0.28017  Biso   1.000  H
  H2023    1.0000 0.85313  0.00163  0.19426  Biso   1.000  H
  H2024    1.0000 0.78716  0.98469  0.20886  Biso   1.000  H
  H2025    1.0000 0.78711  0.98469  0.20886  Biso   1.000  H
  C1597    1.0000 0.86527  0.08666  0.21607  Biso   1.000  C
  H2026    1.0000 0.80866  0.99958  0.35427  Biso   1.000  H
  H2027    1.0000 0.80862  0.99958  0.35427  Biso   1.000  H
  H2028    1.0000 0.87451  0.06732  0.34966  Biso   1.000  H
  C1598    1.0000 0.88312  0.01187  0.37672  Biso   1.000  C
  C1599    1.0000 0.88310  0.01182  0.37672  Biso   1.000  C
  N68      1.0000 0.63873  0.68299  0.28669  Biso   1.000  N
  H2029    1.0000 0.63247  0.75978  0.27906  Biso   1.000  H
  H2030    1.0000 0.63243  0.75978  0.27906  Biso   1.000  H
  C1600    1.0000 0.41064  0.00402  0.23044  Biso   1.000  C
  C1601    1.0000 0.41068  0.00402  0.23044  Biso   1.000  C
  C1602    1.0000 0.48314  0.92699  0.29957  Biso   1.000  C
  H2031    1.0000 0.49702  0.94557  0.26027  Biso   1.000  H
  H2032    1.0000 0.43231  0.87708  0.26627  Biso   1.000  H
  H2033    1.0000 0.43235  0.87708  0.26627  Biso   1.000  H
  H2034    1.0000 0.49706  0.94557  0.26027  Biso   1.000  H
  C1603    1.0000 0.48318  0.92699  0.29957  Biso   1.000  C
  H2035    1.0000 0.39783  0.84800  0.31457  Biso   1.000  H
  H2036    1.0000 0.44083  0.90131  0.33537  Biso   1.000  H
  H2037    1.0000 0.39787  0.84800  0.31457  Biso   1.000  H
  H2038    1.0000 0.44081  0.90126  0.33537  Biso   1.000  H
  H2039    1.0000 0.44088  0.90131  0.33537  Biso   1.000  H
  H2040    1.0000 0.44085  0.90126  0.33537  Biso   1.000  H
  H2041    1.0000 0.12735  0.36758  0.27906  Biso   1.000  H
  H2042    1.0000 0.12732  0.36753  0.27906  Biso   1.000  H
  N69      1.0000 0.04425  0.36128  0.28669  Biso   1.000  N
  N70      1.0000 0.04422  0.36123  0.28669  Biso   1.000  N
  H2043    1.0000 0.09960  0.13452  0.38007  Biso   1.000  H
  H2044    1.0000 0.09962  0.13457  0.38007  Biso   1.000  H
  H2045    1.0000 0.16077  0.12957  0.39028  Biso   1.000  H
  H2046    1.0000 0.10272  0.06902  0.37577  Biso   1.000  H
  H2047    1.0000 0.16075  0.12952  0.39028  Biso   1.000  H
  H2048    1.0000 0.10276  0.06902  0.37577  Biso   1.000  H
  H2049    1.0000 0.16070  0.12952  0.39028  Biso   1.000  H
  H2050    1.0000 0.25363  0.14776  0.20257  Biso   1.000  H
  H2051    1.0000 0.24415  0.15225  0.23197  Biso   1.000  H
  H2052    1.0000 0.19579  0.08696  0.21696  Biso   1.000  H
  H2053    1.0000 0.19588  0.08696  0.21696  Biso   1.000  H
  H2054    1.0000 0.85223  0.10584  0.20257  Biso   1.000  H
  H2055    1.0000 0.84775  0.09185  0.23197  Biso   1.000  H
  H2056    1.0000 0.91301  0.10884  0.21696  Biso   1.000  H
  H2057    1.0000 0.86545  0.96511  0.38007  Biso   1.000  H
  H2058    1.0000 0.87040  0.03115  0.39028  Biso   1.000  H
  H2059    1.0000 0.93096  0.03365  0.37577  Biso   1.000  H
  H2060    1.0000 0.87044  0.03115  0.39028  Biso   1.000  H
  C1604    1.0000 0.56651  0.64222  0.28808  Biso   1.000  C
  C1605    1.0000 0.56645  0.64217  0.28808  Biso   1.000  C
  C1606    1.0000 0.56647  0.64222  0.28808  Biso   1.000  C
  C1607    1.0000 0.38689  0.00342  0.20403  Biso   1.000  C
  C1608    1.0000 0.38697  0.00342  0.20403  Biso   1.000  C
  H2061    1.0000 0.43991  0.04484  0.23797  Biso   1.000  H
  H2062    1.0000 0.50832  0.90381  0.30077  Biso   1.000  H
  H2063    1.0000 0.51252  0.97330  0.30427  Biso   1.000  H
  H2064    1.0000 0.50837  0.90381  0.30077  Biso   1.000  H
  H2065    1.0000 0.51257  0.97330  0.30427  Biso   1.000  H
  C1609    1.0000 0.07574  0.43352  0.28808  Biso   1.000  C
  C1610    1.0000 0.54508  0.61779  0.31503  Biso   1.000  C
  H2066    1.0000 0.54698  0.66970  0.28307  Biso   1.000  H
  C1611    1.0000 0.54135  0.58367  0.26996  Biso   1.000  C
  C1612    1.0000 0.54504  0.61779  0.31503  Biso   1.000  C
  H2067    1.0000 0.54694  0.66970  0.28307  Biso   1.000  H
  C1613    1.0000 0.54131  0.58367  0.26996  Biso   1.000  C
  C1614    1.0000 0.33861  0.94547  0.19304  Biso   1.000  C
  C1615    1.0000 0.33866  0.94547  0.19304  Biso   1.000  C
  C1616    1.0000 0.41213  0.06283  0.19034  Biso   1.000  C
  C1617    1.0000 0.41217  0.06283  0.19034  Biso   1.000  C
  C1618    1.0000 0.07274  0.45495  0.31503  Biso   1.000  C
  H2068    1.0000 0.12271  0.45306  0.28307  Biso   1.000  H
  C1619    1.0000 0.04231  0.45865  0.26996  Biso   1.000  C
  C1620    1.0000 0.04227  0.45865  0.26996  Biso   1.000  C
  H2069    1.0000 0.56576  0.59216  0.32027  Biso   1.000  H
  H2070    1.0000 0.56118  0.65621  0.32627  Biso   1.000  H
  C1621    1.0000 0.47106  0.57558  0.31799  Biso   1.000  C
  H2071    1.0000 0.56571  0.59216  0.32027  Biso   1.000  H
  H2072    1.0000 0.56111  0.65616  0.32627  Biso   1.000  H
  C1622    1.0000 0.47102  0.57558  0.31799  Biso   1.000  C
  H2073    1.0000 0.56113  0.65621  0.32627  Biso   1.000  H
  H2074    1.0000 0.56115  0.65616  0.32627  Biso   1.000  H
  N71      1.0000 0.55835  0.60790  0.24324  Biso   1.000  N
  H2075    1.0000 0.56126  0.55609  0.27426  Biso   1.000  H
  C1623    1.0000 0.46456  0.54120  0.27157  Biso   1.000  C
  H2076    1.0000 0.56122  0.55609  0.27426  Biso   1.000  H
  C1624    1.0000 0.46449  0.54116  0.27157  Biso   1.000  C
  C1625    1.0000 0.46454  0.54116  0.27157  Biso   1.000  C
  C1626    1.0000 0.31302  0.94647  0.16828  Biso   1.000  C
  C1627    1.0000 0.31307  0.94647  0.16828  Biso   1.000  C
  H2077    1.0000 0.32242  0.90531  0.20177  Biso   1.000  H
  H2078    1.0000 0.32247  0.90531  0.20177  Biso   1.000  H
  H2079    1.0000 0.44524  0.10214  0.19766  Biso   1.000  H
  C1628    1.0000 0.38988  0.06522  0.16664  Biso   1.000  C
  C1629    1.0000 0.38997  0.06522  0.16664  Biso   1.000  C
  H2080    1.0000 0.02644  0.43427  0.32027  Biso   1.000  H
  H2081    1.0000 0.09507  0.43887  0.32627  Biso   1.000  H
  C1630    1.0000 0.10450  0.52894  0.31799  Biso   1.000  C
  H2082    1.0000 0.02646  0.43422  0.32027  Biso   1.000  H
  H2083    1.0000 0.09504  0.43882  0.32627  Biso   1.000  H
  H2084    1.0000 0.02649  0.43427  0.32027  Biso   1.000  H
  H2085    1.0000 0.02642  0.43422  0.32027  Biso   1.000  H
  H2086    1.0000 0.09500  0.43882  0.32627  Biso   1.000  H
  H2087    1.0000 0.99481  0.43877  0.27426  Biso   1.000  H
  H2088    1.0000 0.99479  0.43872  0.27426  Biso   1.000  H
  H2089    1.0000 0.99487  0.43872  0.27426  Biso   1.000  H
  N72      1.0000 0.04957  0.44166  0.24324  Biso   1.000  N
  C1631    1.0000 0.07664  0.53544  0.27157  Biso   1.000  C
  N73      1.0000 0.04948  0.44166  0.24324  Biso   1.000  N
  H2090    1.0000 0.45015  0.60220  0.31457  Biso   1.000  H
  H2091    1.0000 0.46045  0.55919  0.33537  Biso   1.000  H
  C1632    1.0000 0.44387  0.51687  0.29957  Biso   1.000  C
  H2092    1.0000 0.45013  0.60215  0.31457  Biso   1.000  H
  C1633    1.0000 0.44383  0.51687  0.29957  Biso   1.000  C
  C1634    1.0000 0.59343  0.58937  0.23044  Biso   1.000  C
  H2093    1.0000 0.44857  0.50299  0.26027  Biso   1.000  H
  H2094    1.0000 0.44475  0.56768  0.26627  Biso   1.000  H
  H2095    1.0000 0.44853  0.50299  0.26027  Biso   1.000  H
  C1635    1.0000 0.26001  0.88977  0.15479  Biso   1.000  C
  C1636    1.0000 0.26005  0.88977  0.15479  Biso   1.000  C
  C1637    1.0000 0.33838  0.00592  0.15479  Biso   1.000  C
  C1638    1.0000 0.33842  0.00592  0.15479  Biso   1.000  C
  H2096    1.0000 0.40837  0.10584  0.15796  Biso   1.000  H
  H2097    1.0000 0.40833  0.10584  0.15796  Biso   1.000  H
  H2098    1.0000 0.15200  0.54988  0.31457  Biso   1.000  H
  H2099    1.0000 0.09867  0.53953  0.33537  Biso   1.000  H
  C1639    1.0000 0.07303  0.55617  0.29957  Biso   1.000  C
  H2100    1.0000 0.15206  0.54983  0.31457  Biso   1.000  H
  H2101    1.0000 0.09876  0.53953  0.33537  Biso   1.000  H
  C1640    1.0000 0.07300  0.55612  0.29957  Biso   1.000  C
  H2102    1.0000 0.15208  0.54988  0.31457  Biso   1.000  H
  H2103    1.0000 0.15197  0.54983  0.31457  Biso   1.000  H
  C1641    1.0000 0.07296  0.55612  0.29957  Biso   1.000  C
  C1642    1.0000 0.99592  0.40654  0.23044  Biso   1.000  C
  H2104    1.0000 0.05441  0.55147  0.26027  Biso   1.000  H
  H2105    1.0000 0.12290  0.55527  0.26627  Biso   1.000  H
  H2106    1.0000 0.05439  0.55142  0.26027  Biso   1.000  H
  H2107    1.0000 0.12291  0.55522  0.26627  Biso   1.000  H
  H2108    1.0000 0.12294  0.55527  0.26627  Biso   1.000  H
  H2109    1.0000 0.12287  0.55522  0.26627  Biso   1.000  H
  H2110    1.0000 0.39546  0.49170  0.30077  Biso   1.000  H
  H2111    1.0000 0.46077  0.48750  0.30427  Biso   1.000  H
  H2112    1.0000 0.39542  0.49170  0.30077  Biso   1.000  H
  H2113    1.0000 0.46073  0.48750  0.30427  Biso   1.000  H
  C1643    1.0000 0.61655  0.61310  0.20403  Biso   1.000  C
  H2114    1.0000 0.60497  0.56009  0.23797  Biso   1.000  H
  H2115    1.0000 0.60493  0.56009  0.23797  Biso   1.000  H
  C1644    1.0000 0.28434  0.83961  0.14984  Biso   1.000  C
  C1645    1.0000 0.28431  0.83956  0.14984  Biso   1.000  C
  C1646    1.0000 0.28436  0.83956  0.14984  Biso   1.000  C
  C1647    1.0000 0.25524  0.92289  0.13065  Biso   1.000  C
  C1648    1.0000 0.19333  0.86119  0.17106  Biso   1.000  C
  C1649    1.0000 0.19337  0.86119  0.17106  Biso   1.000  C
  C1650    1.0000 0.30241  0.99438  0.13040  Biso   1.000  C
  C1651    1.0000 0.30245  0.99438  0.13040  Biso   1.000  C
  H2116    1.0000 0.09617  0.60453  0.30077  Biso   1.000  H
  H2117    1.0000 0.02670  0.53923  0.30427  Biso   1.000  H
  H2118    1.0000 0.09621  0.60453  0.30077  Biso   1.000  H
  H2119    1.0000 0.02666  0.53923  0.30427  Biso   1.000  H
  C1652    1.0000 0.99649  0.38346  0.20403  Biso   1.000  C
  C1653    1.0000 0.99658  0.38346  0.20403  Biso   1.000  C
  H2120    1.0000 0.95509  0.39505  0.23797  Biso   1.000  H
  H2121    1.0000 0.95513  0.39505  0.23797  Biso   1.000  H
  C1654    1.0000 0.60687  0.66141  0.19304  Biso   1.000  C
  C1655    1.0000 0.60680  0.66136  0.19304  Biso   1.000  C
  C1656    1.0000 0.60682  0.66141  0.19304  Biso   1.000  C
  C1657    1.0000 0.60684  0.66136  0.19304  Biso   1.000  C
  C1658    1.0000 0.65075  0.58787  0.19034  Biso   1.000  C
  C1659    1.0000 0.65070  0.58787  0.19034  Biso   1.000  C
  C1660    1.0000 0.33155  0.85000  0.13157  Biso   1.000  C
  H2122    1.0000 0.24505  0.79719  0.14587  Biso   1.000  H
  H2123    1.0000 0.30133  0.83361  0.16597  Biso   1.000  H
  H2124    1.0000 0.30135  0.83356  0.16597  Biso   1.000  H
  H2125    1.0000 0.30137  0.83361  0.16597  Biso   1.000  H
  C1661    1.0000 0.21425  0.89421  0.10969  Biso   1.000  C
  C1662    1.0000 0.21423  0.89416  0.10969  Biso   1.000  C
  H2126    1.0000 0.19942  0.84371  0.18707  Biso   1.000  H
  H2127    1.0000 0.15760  0.82417  0.16177  Biso   1.000  H
  C1663    1.0000 0.17022  0.91640  0.17736  Biso   1.000  C
  H2128    1.0000 0.19944  0.84366  0.18707  Biso   1.000  H
  H2129    1.0000 0.15764  0.82417  0.16177  Biso   1.000  H
  H2130    1.0000 0.19947  0.84371  0.18707  Biso   1.000  H
  C1664    1.0000 0.17027  0.91640  0.17736  Biso   1.000  C
  C1665    1.0000 0.30301  0.03105  0.10913  Biso   1.000  C
  C1666    1.0000 0.30309  0.03105  0.10913  Biso   1.000  C
  C1667    1.0000 0.05456  0.39315  0.19304  Biso   1.000  C
  C1668    1.0000 0.05447  0.39315  0.19304  Biso   1.000  C
  C1669    1.0000 0.93711  0.34924  0.19034  Biso   1.000  C
  C1670    1.0000 0.63346  0.68699  0.16828  Biso   1.000  C
  C1671    1.0000 0.63342  0.68699  0.16828  Biso   1.000  C
  H2131    1.0000 0.58286  0.67759  0.20177  Biso   1.000  H
  H2132    1.0000 0.58281  0.67759  0.20177  Biso   1.000  H
  C1672    1.0000 0.67536  0.61010  0.16664  Biso   1.000  C
  C1673    1.0000 0.67532  0.61010  0.16664  Biso   1.000  C
  H2133    1.0000 0.65697  0.55479  0.19766  Biso   1.000  H
  H2134    1.0000 0.65692  0.55479  0.19766  Biso   1.000  H
  H2135    1.0000 0.37563  0.88487  0.13667  Biso   1.000  H
  H2136    1.0000 0.32022  0.86109  0.11517  Biso   1.000  H
  C1674    1.0000 0.32683  0.78181  0.13107  Biso   1.000  C
  H2137    1.0000 0.32026  0.86109  0.11517  Biso   1.000  H
  C1675    1.0000 0.32685  0.78176  0.13107  Biso   1.000  C
  C1676    1.0000 0.32687  0.78181  0.13107  Biso   1.000  C
  C1677    1.0000 0.16340  0.82357  0.10282  Biso   1.000  C
  C1678    1.0000 0.21573  0.93568  0.08851  Biso   1.000  C
  C1679    1.0000 0.16344  0.82357  0.10282  Biso   1.000  C
  C1680    1.0000 0.21577  0.93568  0.08851  Biso   1.000  C
  H2138    1.0000 0.20754  0.95452  0.18547  Biso   1.000  H
  H2139    1.0000 0.16212  0.93178  0.16127  Biso   1.000  H
  C1681    1.0000 0.11702  0.89731  0.19197  Biso   1.000  C
  H2140    1.0000 0.20751  0.95447  0.18547  Biso   1.000  H
  C1682    1.0000 0.11704  0.89726  0.19197  Biso   1.000  C
  C1683    1.0000 0.11707  0.89731  0.19197  Biso   1.000  C
  H2141    1.0000 0.20756  0.95447  0.18547  Biso   1.000  H
  H2142    1.0000 0.16217  0.93178  0.16127  Biso   1.000  H
  C1684    1.0000 0.25913  0.00223  0.08910  Biso   1.000  C
  C1685    1.0000 0.35225  0.10454  0.10605  Biso   1.000  C
  H2143    1.0000 0.09471  0.41713  0.20177  Biso   1.000  H
  C1686    1.0000 0.05349  0.36653  0.16828  Biso   1.000  C
  C1687    1.0000 0.93473  0.32466  0.16664  Biso   1.000  C
  H2144    1.0000 0.89780  0.34305  0.19766  Biso   1.000  H
  H2145    1.0000 0.89789  0.34305  0.19766  Biso   1.000  H
  C1688    1.0000 0.66758  0.66161  0.15479  Biso   1.000  C
  C1689    1.0000 0.66751  0.66156  0.15479  Biso   1.000  C
  C1690    1.0000 0.66754  0.66161  0.15479  Biso   1.000  C
  C1691    1.0000 0.62976  0.73999  0.15479  Biso   1.000  C
  C1692    1.0000 0.62972  0.73999  0.15479  Biso   1.000  C
  H2146    1.0000 0.69755  0.59166  0.15796  Biso   1.000  H
  H2147    1.0000 0.69751  0.59166  0.15796  Biso   1.000  H
  H2148    1.0000 0.28044  0.74649  0.13046  Biso   1.000  H
  H2149    1.0000 0.34722  0.77561  0.14627  Biso   1.000  H
  C1693    1.0000 0.36443  0.78001  0.10667  Biso   1.000  C
  H2150    1.0000 0.34724  0.77556  0.14627  Biso   1.000  H
  C1694    1.0000 0.36441  0.77996  0.10667  Biso   1.000  C
  H2151    1.0000 0.34727  0.77561  0.14627  Biso   1.000  H
  C1695    1.0000 0.36448  0.78001  0.10667  Biso   1.000  C
  C1696    1.0000 0.36445  0.77996  0.10667  Biso   1.000  C
  C1697    1.0000 0.14034  0.76317  0.11531  Biso   1.000  C
  C1698    1.0000 0.14391  0.82387  0.07781  Biso   1.000  C
  C1699    1.0000 0.14395  0.82387  0.07781  Biso   1.000  C
  C1700    1.0000 0.16654  0.89302  0.06695  Biso   1.000  C
  C1701    1.0000 0.16651  0.89297  0.06695  Biso   1.000  C
  C1702    1.0000 0.16658  0.89302  0.06695  Biso   1.000  C
  C1703    1.0000 0.16655  0.89297  0.06695  Biso   1.000  C
  H2152    1.0000 0.12460  0.88547  0.20886  Biso   1.000  H
  H2153    1.0000 0.07843  0.85889  0.18457  Biso   1.000  H
  C1704    1.0000 0.10494  0.96271  0.19326  Biso   1.000  C
  H2154    1.0000 0.12465  0.88547  0.20886  Biso   1.000  H
  C1705    1.0000 0.10492  0.96266  0.19326  Biso   1.000  C
  H2155    1.0000 0.07848  0.85889  0.18457  Biso   1.000  H
  C1706    1.0000 0.10496  0.96266  0.19326  Biso   1.000  C
  C1707    1.0000 0.27705  0.05953  0.07022  Biso   1.000  C
  C1708    1.0000 0.27696  0.05953  0.07022  Biso   1.000  C
  C1709    1.0000 0.32896  0.11593  0.08041  Biso   1.000  C
  C1710    1.0000 0.42670  0.12113  0.10336  Biso   1.000  C
  C1711    1.0000 0.34753  0.15195  0.12484  Biso   1.000  C
  C1712    1.0000 0.34758  0.15195  0.12484  Biso   1.000  C
  C1713    1.0000 0.32887  0.11593  0.08041  Biso   1.000  C
  C1714    1.0000 0.11027  0.37027  0.15479  Biso   1.000  C
  C1715    1.0000 0.11024  0.37022  0.15479  Biso   1.000  C
  C1716    1.0000 0.99401  0.33245  0.15479  Biso   1.000  C
  C1717    1.0000 0.99405  0.33245  0.15479  Biso   1.000  C
  H2156    1.0000 0.89415  0.30243  0.15796  Biso   1.000  H
  C1718    1.0000 0.69197  0.69758  0.13040  Biso   1.000  C
  C1719    1.0000 0.69193  0.69758  0.13040  Biso   1.000  C
  C1720    1.0000 0.66768  0.74479  0.13065  Biso   1.000  C
  C1721    1.0000 0.66764  0.74479  0.13065  Biso   1.000  C
  C1722    1.0000 0.55528  0.71571  0.14984  Biso   1.000  C
  C1723    1.0000 0.66787  0.80669  0.17106  Biso   1.000  C
  C1724    1.0000 0.55521  0.71566  0.14984  Biso   1.000  C
  C1725    1.0000 0.66783  0.80669  0.17106  Biso   1.000  C
  C1726    1.0000 0.55523  0.71571  0.14984  Biso   1.000  C
  C1727    1.0000 0.55525  0.71566  0.14984  Biso   1.000  C
  H2157    1.0000 0.40783  0.81948  0.10607  Biso   1.000  H
  H2158    1.0000 0.33944  0.77831  0.09176  Biso   1.000  H
  H2159    1.0000 0.36943  0.74119  0.10716  Biso   1.000  H
  H2160    1.0000 0.33942  0.77826  0.09176  Biso   1.000  H
  H2161    1.0000 0.36947  0.74119  0.10716  Biso   1.000  H
  H2162    1.0000 0.33946  0.77826  0.09176  Biso   1.000  H
  H2163    1.0000 0.15334  0.76217  0.13207  Biso   1.000  H
  C1728    1.0000 0.09772  0.70407  0.10261  Biso   1.000  C
  C1729    1.0000 0.09776  0.70407  0.10261  Biso   1.000  C
  C1730    1.0000 0.09788  0.76297  0.06571  Biso   1.000  C
  C1731    1.0000 0.09790  0.76292  0.06571  Biso   1.000  C
  C1732    1.0000 0.09792  0.76297  0.06571  Biso   1.000  C
  C1733    1.0000 0.10854  0.90441  0.06372  Biso   1.000  C
  C1734    1.0000 0.20332  0.90031  0.04126  Biso   1.000  C
  C1735    1.0000 0.20334  0.90026  0.04126  Biso   1.000  C
  C1736    1.0000 0.20337  0.90031  0.04126  Biso   1.000  C
  H2164    1.0000 0.06963  0.95362  0.20496  Biso   1.000  H
  H2165    1.0000 0.09353  0.97120  0.17656  Biso   1.000  H
  H2166    1.0000 0.06961  0.95357  0.20496  Biso   1.000  H
  H2167    1.0000 0.06965  0.95357  0.20496  Biso   1.000  H
  H2168    1.0000 0.09357  0.97120  0.17656  Biso   1.000  H
  H2169    1.0000 0.14533  0.00143  0.19896  Biso   1.000  H
  H2170    1.0000 0.14537  0.00143  0.19896  Biso   1.000  H
  C1737    1.0000 0.24712  0.06223  0.04765  Biso   1.000  C
  C1738    1.0000 0.24714  0.06228  0.04765  Biso   1.000  C
  C1739    1.0000 0.35714  0.17783  0.06678  Biso   1.000  C
  H2171    1.0000 0.43959  0.10884  0.11917  Biso   1.000  H
  H2172    1.0000 0.45469  0.16914  0.10147  Biso   1.000  H
  C1740    1.0000 0.44288  0.08556  0.08006  Biso   1.000  C
  H2173    1.0000 0.43968  0.10884  0.11917  Biso   1.000  H
  H2174    1.0000 0.45473  0.16914  0.10147  Biso   1.000  H
  C1741    1.0000 0.44279  0.08556  0.08006  Biso   1.000  C
  H2175    1.0000 0.36334  0.14696  0.14147  Biso   1.000  H
  H2176    1.0000 0.37657  0.19757  0.11917  Biso   1.000  H
  C1742    1.0000 0.28046  0.14016  0.12737  Biso   1.000  C
  H2177    1.0000 0.36338  0.14696  0.14147  Biso   1.000  H
  H2178    1.0000 0.37655  0.19752  0.11917  Biso   1.000  H
  C1743    1.0000 0.28044  0.14011  0.12737  Biso   1.000  C
  H2179    1.0000 0.37646  0.19752  0.11917  Biso   1.000  H
  C1744    1.0000 0.07716  0.33235  0.13065  Biso   1.000  C
  C1745    1.0000 0.07707  0.33235  0.13065  Biso   1.000  C
  C1746    1.0000 0.16040  0.44476  0.14984  Biso   1.000  C
  C1747    1.0000 0.13880  0.33215  0.17106  Biso   1.000  C
  C1748    1.0000 0.16045  0.44476  0.14984  Biso   1.000  C
  C1749    1.0000 0.13888  0.33215  0.17106  Biso   1.000  C
  C1750    1.0000 0.00566  0.30807  0.13040  Biso   1.000  C
  C1751    1.0000 0.00563  0.30802  0.13040  Biso   1.000  C
  C1752    1.0000 0.72806  0.69698  0.10913  Biso   1.000  C
  C1753    1.0000 0.72802  0.69698  0.10913  Biso   1.000  C
  C1754    1.0000 0.67997  0.78580  0.10969  Biso   1.000  C
  C1755    1.0000 0.67993  0.78580  0.10969  Biso   1.000  C
  H2180    1.0000 0.53227  0.69868  0.16597  Biso   1.000  H
  H2181    1.0000 0.55215  0.75498  0.14587  Biso   1.000  H
  C1756    1.0000 0.51848  0.66850  0.13157  Biso   1.000  C
  H2182    1.0000 0.53222  0.69868  0.16597  Biso   1.000  H
  H2183    1.0000 0.55211  0.75498  0.14587  Biso   1.000  H
  C1757    1.0000 0.51843  0.66850  0.13157  Biso   1.000  C
  H2184    1.0000 0.64427  0.80059  0.18707  Biso   1.000  H
  H2185    1.0000 0.66656  0.84241  0.16177  Biso   1.000  H
  C1758    1.0000 0.74617  0.82977  0.17736  Biso   1.000  C
  H2186    1.0000 0.64423  0.80059  0.18707  Biso   1.000  H
  H2187    1.0000 0.66650  0.84236  0.16177  Biso   1.000  H
  C1759    1.0000 0.74613  0.82977  0.17736  Biso   1.000  C
  H2188    1.0000 0.66654  0.84236  0.16177  Biso   1.000  H
  C1760    1.0000 0.07649  0.70497  0.07765  Biso   1.000  C
  H2189    1.0000 0.08314  0.66340  0.11087  Biso   1.000  H
  C1761    1.0000 0.07654  0.70497  0.07765  Biso   1.000  C
  H2190    1.0000 0.08312  0.66335  0.11087  Biso   1.000  H
  H2191    1.0000 0.08316  0.66335  0.11087  Biso   1.000  H
  H2192    1.0000 0.08260  0.76357  0.04937  Biso   1.000  H
  H2193    1.0000 0.08265  0.76357  0.04937  Biso   1.000  H
  H2194    1.0000 0.12582  0.94987  0.05776  Biso   1.000  H
  H2195    1.0000 0.08020  0.87498  0.05027  Biso   1.000  H
  C1762    1.0000 0.06643  0.89451  0.08597  Biso   1.000  C
  H2196    1.0000 0.08025  0.87498  0.05027  Biso   1.000  H
  C1763    1.0000 0.06641  0.89446  0.08597  Biso   1.000  C
  C1764    1.0000 0.06648  0.89451  0.08597  Biso   1.000  C
  H2197    1.0000 0.12587  0.94987  0.05776  Biso   1.000  H
  C1765    1.0000 0.06645  0.89446  0.08597  Biso   1.000  C
  H2198    1.0000 0.17124  0.87058  0.02876  Biso   1.000  H
  C1766    1.0000 0.25904  0.88497  0.04321  Biso   1.000  C
  H2199    1.0000 0.22142  0.94567  0.03507  Biso   1.000  H
  H2200    1.0000 0.22146  0.94567  0.03507  Biso   1.000  H
  H2201    1.0000 0.20934  0.02466  0.04147  Biso   1.000  H
  C1767    1.0000 0.27459  0.12193  0.03456  Biso   1.000  C
  C1768    1.0000 0.27467  0.12193  0.03456  Biso   1.000  C
  C1769    1.0000 0.33052  0.18048  0.04430  Biso   1.000  C
  H2202    1.0000 0.39359  0.21595  0.07347  Biso   1.000  H
  C1770    1.0000 0.33056  0.18048  0.04430  Biso   1.000  C
  H2203    1.0000 0.39364  0.21595  0.07347  Biso   1.000  H
  H2204    1.0000 0.43714  0.10194  0.06376  Biso   1.000  H
  H2205    1.0000 0.41372  0.03755  0.08067  Biso   1.000  H
  C1771    1.0000 0.51375  0.10364  0.08387  Biso   1.000  C
  H2206    1.0000 0.41368  0.03755  0.08067  Biso   1.000  H
  H2207    1.0000 0.25292  0.09615  0.13476  Biso   1.000  H
  C1772    1.0000 0.27270  0.19317  0.14438  Biso   1.000  C
  H2208    1.0000 0.26311  0.13956  0.11047  Biso   1.000  H
  C1773    1.0000 0.27276  0.19312  0.14438  Biso   1.000  C
  H2209    1.0000 0.26309  0.13951  0.11047  Biso   1.000  H
  C1774    1.0000 0.27278  0.19317  0.14438  Biso   1.000  C
  C1775    1.0000 0.27267  0.19312  0.14438  Biso   1.000  C
  C1776    1.0000 0.10584  0.32006  0.10969  Biso   1.000  C
  C1777    1.0000 0.10582  0.32001  0.10969  Biso   1.000  C
  H2210    1.0000 0.16640  0.46774  0.16597  Biso   1.000  H
  H2211    1.0000 0.20284  0.44786  0.14587  Biso   1.000  H
  C1778    1.0000 0.14997  0.48153  0.13157  Biso   1.000  C
  H2212    1.0000 0.20288  0.44786  0.14587  Biso   1.000  H
  C1779    1.0000 0.15006  0.48153  0.13157  Biso   1.000  C
  H2213    1.0000 0.15630  0.35574  0.18707  Biso   1.000  H
  H2214    1.0000 0.17579  0.33345  0.16177  Biso   1.000  H
  C1780    1.0000 0.08365  0.25387  0.17736  Biso   1.000  C
  H2215    1.0000 0.17588  0.33345  0.16177  Biso   1.000  H
  C1781    1.0000 0.08362  0.25382  0.17736  Biso   1.000  C
  C1782    1.0000 0.08369  0.25387  0.17736  Biso   1.000  C
  C1783    1.0000 0.96891  0.27195  0.10913  Biso   1.000  C
  C1784    1.0000 0.96899  0.27195  0.10913  Biso   1.000  C
  C1785    1.0000 0.75234  0.64777  0.10605  Biso   1.000  C
  C1786    1.0000 0.74318  0.74089  0.08910  Biso   1.000  C
  C1787    1.0000 0.74314  0.74089  0.08910  Biso   1.000  C
  C1788    1.0000 0.71998  0.78431  0.08851  Biso   1.000  C
  C1789    1.0000 0.71993  0.78431  0.08851  Biso   1.000  C
  C1790    1.0000 0.66016  0.83661  0.10282  Biso   1.000  C
  C1791    1.0000 0.66014  0.83656  0.10282  Biso   1.000  C
  H2216    1.0000 0.50927  0.62439  0.13667  Biso   1.000  H
  H2217    1.0000 0.54086  0.67979  0.11517  Biso   1.000  H
  C1792    1.0000 0.45497  0.67320  0.13107  Biso   1.000  C
  H2218    1.0000 0.50923  0.62439  0.13667  Biso   1.000  H
  H2219    1.0000 0.54082  0.67979  0.11517  Biso   1.000  H
  C1793    1.0000 0.45493  0.67320  0.13107  Biso   1.000  C
  H2220    1.0000 0.74696  0.79250  0.18547  Biso   1.000  H
  H2221    1.0000 0.76967  0.83791  0.16127  Biso   1.000  H
  C1794    1.0000 0.78026  0.88297  0.19197  Biso   1.000  C
  H2222    1.0000 0.74692  0.79250  0.18547  Biso   1.000  H
  H2223    1.0000 0.76960  0.83786  0.16127  Biso   1.000  H
  C1795    1.0000 0.78021  0.88297  0.19197  Biso   1.000  C
  H2224    1.0000 0.76964  0.83786  0.16127  Biso   1.000  H
  C1796    1.0000 0.03100  0.63788  0.06577  Biso   1.000  C
  C1797    1.0000 0.03105  0.63788  0.06577  Biso   1.000  C
  C1798    1.0000 0.00396  0.89901  0.08146  Biso   1.000  C
  H2225    1.0000 0.09321  0.92739  0.09877  Biso   1.000  H
  H2226    1.0000 0.05293  0.85080  0.09306  Biso   1.000  H
  C1799    1.0000 0.00393  0.89896  0.08146  Biso   1.000  C
  H2227    1.0000 0.09325  0.92739  0.09877  Biso   1.000  H
  H2228    1.0000 0.05297  0.85080  0.09306  Biso   1.000  H
  C1800    1.0000 0.29263  0.89142  0.01741  Biso   1.000  C
  H2229    1.0000 0.24153  0.83991  0.04967  Biso   1.000  H
  H2230    1.0000 0.29203  0.91540  0.05527  Biso   1.000  H
  C1801    1.0000 0.29261  0.89137  0.01741  Biso   1.000  C
  H2231    1.0000 0.24155  0.83986  0.04967  Biso   1.000  H
  C1802    1.0000 0.29268  0.89142  0.01741  Biso   1.000  C
  H2232    1.0000 0.24157  0.83991  0.04967  Biso   1.000  H
  C1803    1.0000 0.29265  0.89137  0.01741  Biso   1.000  C
  H2233    1.0000 0.29208  0.91540  0.05527  Biso   1.000  H
  H2234    1.0000 0.25625  0.12393  0.01896  Biso   1.000  H
  H2235    1.0000 0.25620  0.12393  0.01896  Biso   1.000  H
  C1804    1.0000 0.35798  0.24138  0.03024  Biso   1.000  C
  C1805    1.0000 0.35802  0.24138  0.03024  Biso   1.000  C
  H2236    1.0000 0.52984  0.12622  0.06766  Biso   1.000  H
  H2237    1.0000 0.52481  0.13996  0.09577  Biso   1.000  H
  C1806    1.0000 0.57100  0.09675  0.08937  Biso   1.000  C
  H2238    1.0000 0.52479  0.13991  0.09577  Biso   1.000  H
  C1807    1.0000 0.57105  0.09675  0.08937  Biso   1.000  C
  H2239    1.0000 0.52490  0.13996  0.09577  Biso   1.000  H
  H2240    1.0000 0.29904  0.20336  0.15988  Biso   1.000  H
  H2241    1.0000 0.22639  0.17653  0.14887  Biso   1.000  H
  C1808    1.0000 0.29890  0.25457  0.12717  Biso   1.000  C
  C1809    1.0000 0.29896  0.25452  0.12717  Biso   1.000  C
  H2242    1.0000 0.22644  0.17653  0.14887  Biso   1.000  H
  C1810    1.0000 0.29898  0.25457  0.12717  Biso   1.000  C
  C1811    1.0000 0.29887  0.25452  0.12717  Biso   1.000  C
  C1812    1.0000 0.06433  0.28005  0.08851  Biso   1.000  C
  C1813    1.0000 0.17644  0.33985  0.10282  Biso   1.000  C
  C1814    1.0000 0.17648  0.33985  0.10282  Biso   1.000  C
  H2243    1.0000 0.13891  0.45915  0.11517  Biso   1.000  H
  H2244    1.0000 0.11509  0.49077  0.13667  Biso   1.000  H
  C1815    1.0000 0.21819  0.54503  0.13107  Biso   1.000  C
  H2245    1.0000 0.11515  0.49072  0.13667  Biso   1.000  H
  H2246    1.0000 0.11518  0.49077  0.13667  Biso   1.000  H
  H2247    1.0000 0.11507  0.49072  0.13667  Biso   1.000  H
  H2248    1.0000 0.04556  0.25307  0.18547  Biso   1.000  H
  H2249    1.0000 0.06820  0.23034  0.16127  Biso   1.000  H
  C1816    1.0000 0.10271  0.21975  0.19197  Biso   1.000  C
  H2250    1.0000 0.04554  0.25302  0.18547  Biso   1.000  H
  C1817    1.0000 0.10267  0.21975  0.19197  Biso   1.000  C
  C1818    1.0000 0.99771  0.25687  0.08910  Biso   1.000  C
  C1819    1.0000 0.99768  0.25682  0.08910  Biso   1.000  C
  C1820    1.0000 0.99777  0.25682  0.08910  Biso   1.000  C
  C1821    1.0000 0.89543  0.24762  0.10605  Biso   1.000  C
  C1822    1.0000 0.89548  0.24762  0.10605  Biso   1.000  C
  C1823    1.0000 0.78707  0.67110  0.08041  Biso   1.000  C
  C1824    1.0000 0.78703  0.67110  0.08041  Biso   1.000  C
  C1825    1.0000 0.69446  0.57328  0.10336  Biso   1.000  C
  C1826    1.0000 0.80445  0.65246  0.12484  Biso   1.000  C
  C1827    1.0000 0.69442  0.57328  0.10336  Biso   1.000  C
  C1828    1.0000 0.80440  0.65246  0.12484  Biso   1.000  C
  C1829    1.0000 0.78256  0.72301  0.07022  Biso   1.000  C
  C1830    1.0000 0.78250  0.72296  0.07022  Biso   1.000  C
  C1831    1.0000 0.78254  0.72296  0.07022  Biso   1.000  C
  C1832    1.0000 0.72650  0.83351  0.06695  Biso   1.000  C
  C1833    1.0000 0.72643  0.83346  0.06695  Biso   1.000  C
  C1834    1.0000 0.72645  0.83351  0.06695  Biso   1.000  C
  C1835    1.0000 0.67998  0.85610  0.07781  Biso   1.000  C
  C1836    1.0000 0.67994  0.85610  0.07781  Biso   1.000  C
  C1837    1.0000 0.62285  0.85969  0.11531  Biso   1.000  C
  C1838    1.0000 0.62281  0.85969  0.11531  Biso   1.000  C
  H2251    1.0000 0.46606  0.71961  0.13046  Biso   1.000  H
  H2252    1.0000 0.42838  0.65281  0.14627  Biso   1.000  H
  C1839    1.0000 0.41557  0.63558  0.10667  Biso   1.000  C
  H2253    1.0000 0.46600  0.71956  0.13046  Biso   1.000  H
  H2254    1.0000 0.42832  0.65276  0.14627  Biso   1.000  H
  C1840    1.0000 0.41553  0.63558  0.10667  Biso   1.000  C
  H2255    1.0000 0.46602  0.71961  0.13046  Biso   1.000  H
  H2256    1.0000 0.42834  0.65281  0.14627  Biso   1.000  H
  H2257    1.0000 0.46604  0.71956  0.13046  Biso   1.000  H
  H2258    1.0000 0.76084  0.87538  0.20886  Biso   1.000  H
  H2259    1.0000 0.78044  0.92159  0.18457  Biso   1.000  H
  C1841    1.0000 0.85776  0.89511  0.19326  Biso   1.000  C
  C1842    1.0000 0.85773  0.89506  0.19326  Biso   1.000  C
  N74      1.0000 0.01622  0.63158  0.04241  Biso   1.000  N
  H2260    1.0000 0.01332  0.60001  0.07597  Biso   1.000  H
  N75      1.0000 0.01626  0.63158  0.04241  Biso   1.000  N
  H2261    1.0000 0.01334  0.59996  0.07597  Biso   1.000  H
  H2262    1.0000 0.01337  0.60001  0.07597  Biso   1.000  H
  H2263    1.0000 0.97486  0.86409  0.06976  Biso   1.000  H
  C1843    1.0000 0.96478  0.89162  0.10747  Biso   1.000  C
  C1844    1.0000 0.96471  0.89157  0.10747  Biso   1.000  C
  C1845    1.0000 0.96474  0.89162  0.10747  Biso   1.000  C
  C1846    1.0000 0.96476  0.89157  0.10747  Biso   1.000  C
  H2264    1.0000 0.96475  0.85979  0.08807  Biso   1.000  H
  H2265    1.0000 0.01620  0.94168  0.07366  Biso   1.000  H
  H2266    1.0000 0.01625  0.94168  0.07366  Biso   1.000  H
  H2267    1.0000 0.00764  0.93848  0.08956  Biso   1.000  H
  C1847    1.0000 0.00067  0.90351  0.04956  Biso   1.000  C
  C1848    1.0000 0.34665  0.87518  0.01844  Biso   1.000  C
  H2268    1.0000 0.25913  0.86179  0.00528  Biso   1.000  H
  H2269    1.0000 0.31073  0.93678  0.01116  Biso   1.000  H
  H2270    1.0000 0.25917  0.86179  0.00528  Biso   1.000  H
  H2271    1.0000 0.31077  0.93678  0.01116  Biso   1.000  H
  H2272    1.0000 0.25946  0.86349  0.00487  Biso   1.000  H
  H2273    1.0000 0.32502  0.87658  0.01886  Biso   1.000  H
  C1849    1.0000 0.32787  0.96621  0.00856  Biso   1.000  C
  N76      1.0000 0.41457  0.29329  0.03532  Biso   1.000  N
  H2274    1.0000 0.33353  0.24363  0.01657  Biso   1.000  H
  N77      1.0000 0.41454  0.29324  0.03532  Biso   1.000  N
  H2275    1.0000 0.33358  0.24363  0.01657  Biso   1.000  H
  H2276    1.0000 0.60916  0.13057  0.08037  Biso   1.000  H
  H2277    1.0000 0.60913  0.13052  0.08037  Biso   1.000  H
  H2278    1.0000 0.56236  0.05333  0.08396  Biso   1.000  H
  H2279    1.0000 0.57972  0.10164  0.10737  Biso   1.000  H
  H2280    1.0000 0.56232  0.05333  0.08396  Biso   1.000  H
  H2281    1.0000 0.57968  0.10164  0.10737  Biso   1.000  H
  H2282    1.0000 0.29648  0.28954  0.13618  Biso   1.000  H
  H2283    1.0000 0.27229  0.24333  0.11196  Biso   1.000  H
  H2284    1.0000 0.34455  0.26956  0.12266  Biso   1.000  H
  H2285    1.0000 0.29652  0.28954  0.13618  Biso   1.000  H
  C1850    1.0000 0.10699  0.27355  0.06695  Biso   1.000  C
  C1851    1.0000 0.10707  0.27355  0.06695  Biso   1.000  C
  C1852    1.0000 0.17615  0.32006  0.07781  Biso   1.000  C
  C1853    1.0000 0.23685  0.37717  0.11531  Biso   1.000  C
  C1854    1.0000 0.23682  0.37712  0.11531  Biso   1.000  C
  C1855    1.0000 0.17612  0.32001  0.07781  Biso   1.000  C
  H2286    1.0000 0.25354  0.53394  0.13046  Biso   1.000  H
  H2287    1.0000 0.22441  0.57166  0.14627  Biso   1.000  H
  C1856    1.0000 0.21999  0.58445  0.10667  Biso   1.000  C
  C1857    1.0000 0.22003  0.58445  0.10667  Biso   1.000  C
  H2288    1.0000 0.14112  0.21955  0.18457  Biso   1.000  H
  C1858    1.0000 0.03732  0.14226  0.19326  Biso   1.000  C
  H2289    1.0000 0.11448  0.23913  0.20886  Biso   1.000  H
  H2290    1.0000 0.11457  0.23913  0.20886  Biso   1.000  H
  C1859    1.0000 0.94040  0.21745  0.07022  Biso   1.000  C
  C1860    1.0000 0.94049  0.21745  0.07022  Biso   1.000  C
  C1861    1.0000 0.88403  0.21295  0.08041  Biso   1.000  C
  C1862    1.0000 0.87878  0.30553  0.10336  Biso   1.000  C
  C1863    1.0000 0.84803  0.19557  0.12484  Biso   1.000  C
  C1864    1.0000 0.84805  0.19552  0.12484  Biso   1.000  C
  C1865    1.0000 0.84808  0.19557  0.12484  Biso   1.000  C
  C1866    1.0000 0.87887  0.30553  0.10336  Biso   1.000  C
  C1867    1.0000 0.82077  0.64287  0.06678  Biso   1.000  C
  C1868    1.0000 0.82072  0.64287  0.06678  Biso   1.000  C
  H2291    1.0000 0.66928  0.56039  0.11917  Biso   1.000  H
  H2292    1.0000 0.71448  0.54530  0.10147  Biso   1.000  H
  C1869    1.0000 0.64276  0.55719  0.08006  Biso   1.000  C
  H2293    1.0000 0.66924  0.56039  0.11917  Biso   1.000  H
  H2294    1.0000 0.71441  0.54525  0.10147  Biso   1.000  H
  C1870    1.0000 0.64272  0.55719  0.08006  Biso   1.000  C
  H2295    1.0000 0.71444  0.54530  0.10147  Biso   1.000  H
  H2296    1.0000 0.71446  0.54525  0.10147  Biso   1.000  H
  H2297    1.0000 0.78366  0.63668  0.14147  Biso   1.000  H
  H2298    1.0000 0.82107  0.62349  0.11917  Biso   1.000  H
  C1871    1.0000 0.85978  0.71961  0.12737  Biso   1.000  C
  H2299    1.0000 0.78362  0.63668  0.14147  Biso   1.000  H
  H2300    1.0000 0.82102  0.62349  0.11917  Biso   1.000  H
  C1872    1.0000 0.85971  0.71956  0.12737  Biso   1.000  C
  C1873    1.0000 0.85974  0.71961  0.12737  Biso   1.000  C
  C1874    1.0000 0.85976  0.71956  0.12737  Biso   1.000  C
  C1875    1.0000 0.81515  0.75288  0.04765  Biso   1.000  C
  C1876    1.0000 0.69697  0.79669  0.04126  Biso   1.000  C
  C1877    1.0000 0.79586  0.89152  0.06372  Biso   1.000  C
  C1878    1.0000 0.69692  0.79669  0.04126  Biso   1.000  C
  C1879    1.0000 0.79584  0.89147  0.06372  Biso   1.000  C
  C1880    1.0000 0.66505  0.90211  0.06571  Biso   1.000  C
  C1881    1.0000 0.66500  0.90211  0.06571  Biso   1.000  C
  C1882    1.0000 0.60635  0.90231  0.10261  Biso   1.000  C
  H2301    1.0000 0.60888  0.84670  0.13207  Biso   1.000  H
  C1883    1.0000 0.60632  0.90226  0.10261  Biso   1.000  C
  H2302    1.0000 0.60883  0.84670  0.13207  Biso   1.000  H
  H2303    1.0000 0.43886  0.66061  0.09176  Biso   1.000  H
  H2304    1.0000 0.37175  0.63058  0.10716  Biso   1.000  H
  H2305    1.0000 0.41164  0.59216  0.10607  Biso   1.000  H
  H2306    1.0000 0.43883  0.66056  0.09176  Biso   1.000  H
  H2307    1.0000 0.37171  0.63058  0.10716  Biso   1.000  H
  H2308    1.0000 0.41160  0.59216  0.10607  Biso   1.000  H
  H2309    1.0000 0.85615  0.85470  0.19896  Biso   1.000  H
  H2310    1.0000 0.88396  0.93038  0.20496  Biso   1.000  H
  H2311    1.0000 0.87769  0.90650  0.17656  Biso   1.000  H
  H2312    1.0000 0.88392  0.93038  0.20496  Biso   1.000  H
  H2313    1.0000 0.87765  0.90650  0.17656  Biso   1.000  H
  C1884    1.0000 0.97120  0.56379  0.03371  Biso   1.000  C
  C1885    1.0000 0.97116  0.56379  0.03371  Biso   1.000  C
  H2314    1.0000 0.99586  0.91829  0.12047  Biso   1.000  H
  H2315    1.0000 0.94156  0.84560  0.11267  Biso   1.000  H
  H2316    1.0000 0.93297  0.90630  0.10477  Biso   1.000  H
  H2317    1.0000 0.93293  0.90630  0.10477  Biso   1.000  H
  H2318    1.0000 0.96166  0.90571  0.04476  Biso   1.000  H
  H2319    1.0000 0.99856  0.86459  0.04197  Biso   1.000  H
  H2320    1.0000 0.03985  0.94267  0.04356  Biso   1.000  H
  H2321    1.0000 0.32840  0.82917  0.02307  Biso   1.000  H
  H2322    1.0000 0.37913  0.90311  0.03096  Biso   1.000  H
  H2323    1.0000 0.36763  0.88287  0.00197  Biso   1.000  H
  H2324    1.0000 0.32844  0.82917  0.02307  Biso   1.000  H
  H2325    1.0000 0.37915  0.90306  0.03096  Biso   1.000  H
  H2326    1.0000 0.37917  0.90311  0.03096  Biso   1.000  H
  H2327    1.0000 0.36767  0.88287  0.00197  Biso   1.000  H
  H2328    1.0000 0.34834  0.97020  0.99216  Biso   1.000  H
  H2329    1.0000 0.36222  0.99338  0.02078  Biso   1.000  H
  H2330    1.0000 0.29613  0.98079  0.00747  Biso   1.000  H
  C1886    1.0000 0.43817  0.35139  0.01902  Biso   1.000  C
  C1887    1.0000 0.43808  0.35139  0.01902  Biso   1.000  C
  C1888    1.0000 0.09970  0.30303  0.04126  Biso   1.000  C
  C1889    1.0000 0.09561  0.20416  0.06372  Biso   1.000  C
  C1890    1.0000 0.09966  0.30303  0.04126  Biso   1.000  C
  C1891    1.0000 0.23707  0.33495  0.06571  Biso   1.000  C
  C1892    1.0000 0.23711  0.33495  0.06571  Biso   1.000  C
  C1893    1.0000 0.29597  0.39365  0.10261  Biso   1.000  C
  C1894    1.0000 0.29588  0.39365  0.10261  Biso   1.000  C
  H2331    1.0000 0.23787  0.39116  0.13207  Biso   1.000  H
  H2332    1.0000 0.23778  0.39116  0.13207  Biso   1.000  H
  H2333    1.0000 0.22176  0.56117  0.09176  Biso   1.000  H
  H2334    1.0000 0.25882  0.62826  0.10716  Biso   1.000  H
  H2335    1.0000 0.18049  0.58834  0.10607  Biso   1.000  H
  H2336    1.0000 0.18058  0.58834  0.10607  Biso   1.000  H
  H2337    1.0000 0.22168  0.56117  0.09176  Biso   1.000  H
  H2338    1.0000 0.99849  0.14386  0.19896  Biso   1.000  H
  H2339    1.0000 0.99857  0.14386  0.19896  Biso   1.000  H
  H2340    1.0000 0.04640  0.11603  0.20496  Biso   1.000  H
  H2341    1.0000 0.02878  0.12233  0.17656  Biso   1.000  H
  H2342    1.0000 0.02887  0.12233  0.17656  Biso   1.000  H
  C1895    1.0000 0.93767  0.18483  0.04765  Biso   1.000  C
  C1896    1.0000 0.93772  0.18483  0.04765  Biso   1.000  C
  C1897    1.0000 0.82213  0.17923  0.06678  Biso   1.000  C
  C1898    1.0000 0.82217  0.17923  0.06678  Biso   1.000  C
  C1899    1.0000 0.91442  0.35723  0.08006  Biso   1.000  C
  H2343    1.0000 0.89114  0.33076  0.11917  Biso   1.000  H
  H2344    1.0000 0.83080  0.28554  0.10147  Biso   1.000  H
  H2345    1.0000 0.85306  0.21635  0.14147  Biso   1.000  H
  H2346    1.0000 0.80238  0.17893  0.11917  Biso   1.000  H
  C1900    1.0000 0.85980  0.14026  0.12737  Biso   1.000  C
  H2347    1.0000 0.80242  0.17893  0.11917  Biso   1.000  H
  C1901    1.0000 0.85986  0.14021  0.12737  Biso   1.000  C
  C1902    1.0000 0.85988  0.14026  0.12737  Biso   1.000  C
  C1903    1.0000 0.84998  0.66945  0.04430  Biso   1.000  C
  C1904    1.0000 0.84993  0.66945  0.04430  Biso   1.000  C
  H2348    1.0000 0.82239  0.60640  0.07347  Biso   1.000  H
  H2349    1.0000 0.82235  0.60640  0.07347  Biso   1.000  H
  H2350    1.0000 0.62386  0.58627  0.08067  Biso   1.000  H
  H2351    1.0000 0.66486  0.56289  0.06376  Biso   1.000  H
  C1905    1.0000 0.58997  0.48630  0.08387  Biso   1.000  C
  H2352    1.0000 0.62381  0.58627  0.08067  Biso   1.000  H
  H2353    1.0000 0.66482  0.56289  0.06376  Biso   1.000  H
  C1906    1.0000 0.58990  0.48625  0.08387  Biso   1.000  C
  C1907    1.0000 0.58992  0.48630  0.08387  Biso   1.000  C
  C1908    1.0000 0.58994  0.48625  0.08387  Biso   1.000  C
  C1909    1.0000 0.92048  0.72730  0.14438  Biso   1.000  C
  H2354    1.0000 0.84328  0.74709  0.13476  Biso   1.000  H
  H2355    1.0000 0.87647  0.73689  0.11047  Biso   1.000  H
  C1910    1.0000 0.92044  0.72730  0.14438  Biso   1.000  C
  H2356    1.0000 0.84324  0.74709  0.13476  Biso   1.000  H
  H2357    1.0000 0.87643  0.73689  0.11047  Biso   1.000  H
  C1911    1.0000 0.84736  0.72540  0.03456  Biso   1.000  C
  H2358    1.0000 0.81537  0.79070  0.04147  Biso   1.000  H
  H2359    1.0000 0.81533  0.79070  0.04147  Biso   1.000  H
  H2360    1.0000 0.69933  0.82877  0.02876  Biso   1.000  H
  H2361    1.0000 0.72427  0.77861  0.03507  Biso   1.000  H
  C1912    1.0000 0.62598  0.74099  0.04321  Biso   1.000  C
  H2362    1.0000 0.72420  0.77856  0.03507  Biso   1.000  H
  C1913    1.0000 0.62594  0.74099  0.04321  Biso   1.000  C
  H2363    1.0000 0.72424  0.77856  0.03507  Biso   1.000  H
  H2364    1.0000 0.82406  0.87418  0.05776  Biso   1.000  H
  H2365    1.0000 0.79477  0.91979  0.05027  Biso   1.000  H
  C1914    1.0000 0.82806  0.93358  0.08597  Biso   1.000  C
  H2366    1.0000 0.82402  0.87418  0.05776  Biso   1.000  H
  H2367    1.0000 0.79473  0.91979  0.05027  Biso   1.000  H
  C1915    1.0000 0.82802  0.93358  0.08597  Biso   1.000  C
  H2368    1.0000 0.68095  0.91740  0.04937  Biso   1.000  H
  C1916    1.0000 0.62847  0.92354  0.07765  Biso   1.000  C
  C1917    1.0000 0.62840  0.92349  0.07765  Biso   1.000  C
  C1918    1.0000 0.62843  0.92354  0.07765  Biso   1.000  C
  C1919    1.0000 0.62845  0.92349  0.07765  Biso   1.000  C
  H2369    1.0000 0.58028  0.91690  0.11087  Biso   1.000  H
  H2370    1.0000 0.58024  0.91690  0.11087  Biso   1.000  H
  H2371    1.0000 0.95336  0.53451  0.04866  Biso   1.000  H
  C1920    1.0000 0.91332  0.56189  0.01902  Biso   1.000  C
  H2372    1.0000 0.95334  0.53446  0.04866  Biso   1.000  H
  C1921    1.0000 0.91327  0.56189  0.01902  Biso   1.000  C
  C1922    1.0000 0.00752  0.53951  0.01724  Biso   1.000  C
  C1923    1.0000 0.00749  0.53946  0.01724  Biso   1.000  C
  H2373    1.0000 0.40863  0.33965  0.00417  Biso   1.000  H
  C1924    1.0000 0.50864  0.37422  0.00986  Biso   1.000  C
  C1925    1.0000 0.43627  0.40739  0.03371  Biso   1.000  C
  C1926    1.0000 0.43618  0.40739  0.03371  Biso   1.000  C
  H2374    1.0000 0.12940  0.30063  0.02876  Biso   1.000  H
  H2375    1.0000 0.05431  0.27575  0.03507  Biso   1.000  H
  C1927    1.0000 0.11506  0.37407  0.04321  Biso   1.000  C
  C1928    1.0000 0.11504  0.37402  0.04321  Biso   1.000  C
  H2376    1.0000 0.05013  0.17593  0.05776  Biso   1.000  H
  H2377    1.0000 0.12502  0.20526  0.05027  Biso   1.000  H
  C1929    1.0000 0.10555  0.17194  0.08597  Biso   1.000  C
  H2378    1.0000 0.12498  0.20526  0.05027  Biso   1.000  H
  C1930    1.0000 0.29510  0.37157  0.07765  Biso   1.000  C
  C1931    1.0000 0.29507  0.37152  0.07765  Biso   1.000  C
  H2379    1.0000 0.23639  0.31907  0.04937  Biso   1.000  H
  H2380    1.0000 0.23646  0.31902  0.04937  Biso   1.000  H
  H2381    1.0000 0.23648  0.31907  0.04937  Biso   1.000  H
  H2382    1.0000 0.23637  0.31902  0.04937  Biso   1.000  H
  H2383    1.0000 0.33661  0.41973  0.11087  Biso   1.000  H
  H2384    1.0000 0.97530  0.18463  0.04147  Biso   1.000  H
  C1932    1.0000 0.87802  0.15265  0.03456  Biso   1.000  C
  C1933    1.0000 0.81952  0.15005  0.04430  Biso   1.000  C
  H2385    1.0000 0.78399  0.17763  0.07347  Biso   1.000  H
  H2386    1.0000 0.78403  0.17763  0.07347  Biso   1.000  H
  H2387    1.0000 0.96239  0.37617  0.08067  Biso   1.000  H
  H2388    1.0000 0.89801  0.33515  0.06376  Biso   1.000  H
  C1934    1.0000 0.89630  0.41004  0.08387  Biso   1.000  C
  H2389    1.0000 0.96245  0.37612  0.08067  Biso   1.000  H
  H2390    1.0000 0.96248  0.37617  0.08067  Biso   1.000  H
  C1935    1.0000 0.89634  0.41004  0.08387  Biso   1.000  C
  C1936    1.0000 0.80682  0.07956  0.14438  Biso   1.000  C
  H2391    1.0000 0.90382  0.15675  0.13476  Biso   1.000  H
  H2392    1.0000 0.86043  0.12353  0.11047  Biso   1.000  H
  C1937    1.0000 0.80679  0.07951  0.14438  Biso   1.000  C
  H2393    1.0000 0.86047  0.12353  0.11047  Biso   1.000  H
  C1938    1.0000 0.88340  0.64197  0.03024  Biso   1.000  C
  H2394    1.0000 0.59644  0.47016  0.06766  Biso   1.000  H
  H2395    1.0000 0.61518  0.47521  0.09577  Biso   1.000  H
  C1939    1.0000 0.52575  0.42900  0.08937  Biso   1.000  C
  H2396    1.0000 0.61512  0.47516  0.09577  Biso   1.000  H
  H2397    1.0000 0.61514  0.47521  0.09577  Biso   1.000  H
  H2398    1.0000 0.95017  0.77361  0.14887  Biso   1.000  H
  H2399    1.0000 0.90437  0.70097  0.15988  Biso   1.000  H
  C1940    1.0000 0.95565  0.70107  0.12717  Biso   1.000  C
  H2400    1.0000 0.95014  0.77356  0.14887  Biso   1.000  H
  H2401    1.0000 0.90433  0.70097  0.15988  Biso   1.000  H
  H2402    1.0000 0.86776  0.74379  0.01896  Biso   1.000  H
  H2403    1.0000 0.86772  0.74379  0.01896  Biso   1.000  H
  C1941    1.0000 0.59874  0.70737  0.01741  Biso   1.000  C
  H2404    1.0000 0.59834  0.75848  0.04967  Biso   1.000  H
  H2405    1.0000 0.62336  0.70797  0.05527  Biso   1.000  H
  H2406    1.0000 0.62331  0.70797  0.05527  Biso   1.000  H
  C1942    1.0000 0.89505  0.99608  0.08146  Biso   1.000  C
  H2407    1.0000 0.83418  0.90680  0.09877  Biso   1.000  H
  H2408    1.0000 0.79786  0.94707  0.09306  Biso   1.000  H
  H2409    1.0000 0.83414  0.90680  0.09877  Biso   1.000  H
  H2410    1.0000 0.79781  0.94707  0.09306  Biso   1.000  H
  C1943    1.0000 0.60686  0.96900  0.06577  Biso   1.000  C
  N78      1.0000 0.87877  0.58547  0.03532  Biso   1.000  N
  H2411    1.0000 0.93104  0.59136  0.00417  Biso   1.000  H
  C1944    1.0000 0.86565  0.49140  0.00986  Biso   1.000  C
  C1945    1.0000 0.86561  0.49140  0.00986  Biso   1.000  C
  C1946    1.0000 0.95979  0.46777  0.00766  Biso   1.000  C
  C1947    1.0000 0.95975  0.46777  0.00766  Biso   1.000  C
  H2412    1.0000 0.04356  0.54011  0.02697  Biso   1.000  H
  H2413    1.0000 0.02681  0.56908  0.00268  Biso   1.000  H
  H2414    1.0000 0.04353  0.54006  0.02697  Biso   1.000  H
  H2415    1.0000 0.02685  0.56908  0.00268  Biso   1.000  H
  C1948    1.0000 0.53480  0.43667  0.99314  Biso   1.000  C
  C1949    1.0000 0.53486  0.43662  0.99314  Biso   1.000  C
  C1950    1.0000 0.53489  0.43667  0.99314  Biso   1.000  C
  C1951    1.0000 0.53478  0.43662  0.99314  Biso   1.000  C
  H2416    1.0000 0.50890  0.33865  0.00017  Biso   1.000  H
  H2417    1.0000 0.53787  0.38396  0.02446  Biso   1.000  H
  H2418    1.0000 0.50894  0.33865  0.00017  Biso   1.000  H
  H2419    1.0000 0.53783  0.38396  0.02446  Biso   1.000  H
  N79      1.0000 0.36840  0.38466  0.04241  Biso   1.000  N
  H2420    1.0000 0.46548  0.41883  0.04866  Biso   1.000  H
  C1952    1.0000 0.46054  0.46804  0.01724  Biso   1.000  C
  H2421    1.0000 0.46557  0.41883  0.04866  Biso   1.000  H
  C1953    1.0000 0.46051  0.46799  0.01724  Biso   1.000  C
  N80      1.0000 0.36844  0.38466  0.04241  Biso   1.000  N
  C1954    1.0000 0.46047  0.46799  0.01724  Biso   1.000  C
  C1955    1.0000 0.10866  0.40125  0.01741  Biso   1.000  C
  H2422    1.0000 0.16009  0.40165  0.04967  Biso   1.000  H
  H2423    1.0000 0.08460  0.37667  0.05527  Biso   1.000  H
  H2424    1.0000 0.16018  0.40165  0.04967  Biso   1.000  H
  H2425    1.0000 0.08458  0.37662  0.05527  Biso   1.000  H
  H2426    1.0000 0.08465  0.37667  0.05527  Biso   1.000  H
  C1956    1.0000 0.10858  0.40125  0.01741  Biso   1.000  C
  C1957    1.0000 0.10104  0.10494  0.08146  Biso   1.000  C
  H2427    1.0000 0.07265  0.16584  0.09877  Biso   1.000  H
  H2428    1.0000 0.14921  0.20216  0.09306  Biso   1.000  H
  C1958    1.0000 0.36209  0.39315  0.06577  Biso   1.000  C
  C1959    1.0000 0.36218  0.39315  0.06577  Biso   1.000  C
  H2429    1.0000 0.87605  0.13227  0.01896  Biso   1.000  H
  H2430    1.0000 0.87602  0.13222  0.01896  Biso   1.000  H
  C1960    1.0000 0.75852  0.11658  0.03024  Biso   1.000  C
  C1961    1.0000 0.75861  0.11658  0.03024  Biso   1.000  C
  H2431    1.0000 0.87371  0.40355  0.06766  Biso   1.000  H
  H2432    1.0000 0.86004  0.38486  0.09577  Biso   1.000  H
  C1962    1.0000 0.90322  0.47424  0.08937  Biso   1.000  C
  C1963    1.0000 0.90326  0.47424  0.08937  Biso   1.000  C
  H2433    1.0000 0.86009  0.38486  0.09577  Biso   1.000  H
  C1964    1.0000 0.74542  0.04434  0.12717  Biso   1.000  C
  H2434    1.0000 0.82345  0.04984  0.14887  Biso   1.000  H
  H2435    1.0000 0.79660  0.09565  0.15988  Biso   1.000  H
  H2436    1.0000 0.79669  0.09565  0.15988  Biso   1.000  H
  H2437    1.0000 0.91016  0.66650  0.01657  Biso   1.000  H
  H2438    1.0000 0.49107  0.43769  0.08396  Biso   1.000  H
  H2439    1.0000 0.52197  0.42030  0.10737  Biso   1.000  H
  H2440    1.0000 0.52145  0.39088  0.08037  Biso   1.000  H
  H2441    1.0000 0.49103  0.43769  0.08396  Biso   1.000  H
  H2442    1.0000 0.52190  0.42025  0.10737  Biso   1.000  H
  H2443    1.0000 0.52192  0.42030  0.10737  Biso   1.000  H
  H2444    1.0000 0.52194  0.42025  0.10737  Biso   1.000  H
  H2445    1.0000 0.99306  0.70347  0.13618  Biso   1.000  H
  H2446    1.0000 0.97108  0.72770  0.11196  Biso   1.000  H
  H2447    1.0000 0.92508  0.65551  0.12266  Biso   1.000  H
  H2448    1.0000 0.99302  0.70347  0.13618  Biso   1.000  H
  H2449    1.0000 0.97104  0.72770  0.11196  Biso   1.000  H
  H2450    1.0000 0.92501  0.65546  0.12266  Biso   1.000  H
  H2451    1.0000 0.92504  0.65551  0.12266  Biso   1.000  H
  H2452    1.0000 0.92506  0.65546  0.12266  Biso   1.000  H
  H2453    1.0000 0.60265  0.74089  0.00528  Biso   1.000  H
  H2454    1.0000 0.62604  0.68928  0.01116  Biso   1.000  H
  C1965    1.0000 0.52858  0.65341  0.01844  Biso   1.000  C
  C1966    1.0000 0.52852  0.65336  0.01844  Biso   1.000  C
  C1967    1.0000 0.52854  0.65341  0.01844  Biso   1.000  C
  H2455    1.0000 0.60406  0.74059  0.00487  Biso   1.000  H
  H2456    1.0000 0.55153  0.67499  0.01886  Biso   1.000  H
  C1968    1.0000 0.63835  0.67220  0.00856  Biso   1.000  C
  C1969    1.0000 0.92683  0.03525  0.10747  Biso   1.000  C
  H2457    1.0000 0.92546  0.98379  0.07366  Biso   1.000  H
  H2458    1.0000 0.92542  0.98379  0.07366  Biso   1.000  H
  H2459    1.0000 0.93084  0.99238  0.08956  Biso   1.000  H
  C1970    1.0000 0.90284  0.99938  0.04956  Biso   1.000  C
  H2460    1.0000 0.88921  0.02516  0.06976  Biso   1.000  H
  H2461    1.0000 0.88929  0.02516  0.06976  Biso   1.000  H
  H2462    1.0000 0.89507  0.03525  0.08807  Biso   1.000  H
  N81      1.0000 0.61538  0.98379  0.04241  Biso   1.000  N
  H2463    1.0000 0.58667  0.98669  0.07597  Biso   1.000  H
  N82      1.0000 0.61533  0.98379  0.04241  Biso   1.000  N
  H2464    1.0000 0.58663  0.98669  0.07597  Biso   1.000  H
  C1971    1.0000 0.90186  0.46517  0.99314  Biso   1.000  C
  C1972    1.0000 0.90182  0.46517  0.99314  Biso   1.000  C
  H2465    1.0000 0.82976  0.49110  0.00017  Biso   1.000  H
  H2466    1.0000 0.84615  0.46217  0.02446  Biso   1.000  H
  H2467    1.0000 0.82972  0.49110  0.00017  Biso   1.000  H
  H2468    1.0000 0.84611  0.46217  0.02446  Biso   1.000  H
  H2469    1.0000 0.98397  0.45348  0.99656  Biso   1.000  H
  H2470    1.0000 0.98393  0.45348  0.99656  Biso   1.000  H
  H2471    1.0000 0.94297  0.43749  0.02207  Biso   1.000  H
  H2472    1.0000 0.94293  0.43749  0.02207  Biso   1.000  H
  C1973    1.0000 0.53221  0.49197  0.00766  Biso   1.000  C
  H2473    1.0000 0.58057  0.45136  0.98807  Biso   1.000  H
  H2474    1.0000 0.50790  0.42613  0.97777  Biso   1.000  H
  H2475    1.0000 0.58048  0.45136  0.98807  Biso   1.000  H
  H2476    1.0000 0.45990  0.50346  0.02697  Biso   1.000  H
  H2477    1.0000 0.43095  0.45775  0.00268  Biso   1.000  H
  H2478    1.0000 0.45995  0.50346  0.02697  Biso   1.000  H
  H2479    1.0000 0.13821  0.39735  0.00528  Biso   1.000  H
  C1974    1.0000 0.12481  0.47144  0.01844  Biso   1.000  C
  H2480    1.0000 0.06327  0.37397  0.01116  Biso   1.000  H
  H2481    1.0000 0.06324  0.37392  0.01116  Biso   1.000  H
  H2482    1.0000 0.06316  0.37392  0.01116  Biso   1.000  H
  H2483    1.0000 0.13656  0.39595  0.00487  Biso   1.000  H
  H2484    1.0000 0.12344  0.44846  0.01886  Biso   1.000  H
  C1975    1.0000 0.03382  0.36163  0.00856  Biso   1.000  C
  C1976    1.0000 0.10840  0.07312  0.10747  Biso   1.000  C
  H2485    1.0000 0.13595  0.11074  0.06976  Biso   1.000  H
  H2486    1.0000 0.05838  0.07457  0.07366  Biso   1.000  H
  C1977    1.0000 0.10843  0.07317  0.10747  Biso   1.000  C
  H2487    1.0000 0.05835  0.07452  0.07366  Biso   1.000  H
  H2488    1.0000 0.13591  0.11074  0.06976  Biso   1.000  H
  H2489    1.0000 0.05831  0.07452  0.07366  Biso   1.000  H
  H2490    1.0000 0.06149  0.06912  0.08956  Biso   1.000  H
  H2491    1.0000 0.14024  0.10494  0.08807  Biso   1.000  H
  C1978    1.0000 0.09653  0.09715  0.04956  Biso   1.000  C
  H2492    1.0000 0.40000  0.41334  0.07597  Biso   1.000  H
  H2493    1.0000 0.75632  0.08985  0.01657  Biso   1.000  H
  N83      1.0000 0.70672  0.12123  0.03532  Biso   1.000  N
  N84      1.0000 0.70677  0.12123  0.03532  Biso   1.000  N
  H2494    1.0000 0.94662  0.50896  0.08396  Biso   1.000  H
  H2495    1.0000 0.89832  0.47803  0.10737  Biso   1.000  H
  H2496    1.0000 0.86941  0.47853  0.08037  Biso   1.000  H
  H2497    1.0000 0.89836  0.47803  0.10737  Biso   1.000  H
  H2498    1.0000 0.71044  0.00692  0.13618  Biso   1.000  H
  H2499    1.0000 0.75659  0.02895  0.11196  Biso   1.000  H
  H2500    1.0000 0.73040  0.07497  0.12266  Biso   1.000  H
  H2501    1.0000 0.75668  0.02895  0.11196  Biso   1.000  H
  H2502    1.0000 0.73038  0.07492  0.12266  Biso   1.000  H
  H2503    1.0000 0.73047  0.07492  0.12266  Biso   1.000  H
  H2504    1.0000 0.50077  0.67160  0.02307  Biso   1.000  H
  H2505    1.0000 0.52396  0.62089  0.03096  Biso   1.000  H
  H2506    1.0000 0.51526  0.63238  0.00197  Biso   1.000  H
  H2507    1.0000 0.50073  0.67160  0.02307  Biso   1.000  H
  H2508    1.0000 0.52392  0.62089  0.03096  Biso   1.000  H
  H2509    1.0000 0.51521  0.63238  0.00197  Biso   1.000  H
  H2510    1.0000 0.62186  0.65166  0.99216  Biso   1.000  H
  H2511    1.0000 0.63114  0.63778  0.02078  Biso   1.000  H
  H2512    1.0000 0.68465  0.70387  0.00747  Biso   1.000  H
  H2513    1.0000 0.90403  0.05843  0.11267  Biso   1.000  H
  H2514    1.0000 0.92239  0.00412  0.12047  Biso   1.000  H
  H2515    1.0000 0.97335  0.06702  0.10477  Biso   1.000  H
  H2516    1.0000 0.92247  0.00412  0.12047  Biso   1.000  H
  H2517    1.0000 0.90283  0.96016  0.04356  Biso   1.000  H
  H2518    1.0000 0.94404  0.03835  0.04476  Biso   1.000  H
  H2519    1.0000 0.86605  0.00143  0.04197  Biso   1.000  H
  C1979    1.0000 0.59258  0.02880  0.03371  Biso   1.000  C
  C1980    1.0000 0.59263  0.02880  0.03371  Biso   1.000  C
  H2520    1.0000 0.87090  0.41951  0.98807  Biso   1.000  H
  H2521    1.0000 0.91827  0.49210  0.97777  Biso   1.000  H
  H2522    1.0000 0.87083  0.41946  0.98807  Biso   1.000  H
  H2523    1.0000 0.91822  0.49210  0.97777  Biso   1.000  H
  H2524    1.0000 0.87085  0.41951  0.98807  Biso   1.000  H
  H2525    1.0000 0.56254  0.50546  0.02207  Biso   1.000  H
  H2526    1.0000 0.54656  0.53044  0.99656  Biso   1.000  H
  H2527    1.0000 0.54647  0.53044  0.99656  Biso   1.000  H
  H2528    1.0000 0.17087  0.49927  0.02307  Biso   1.000  H
  H2529    1.0000 0.09691  0.47604  0.03096  Biso   1.000  H
  H2530    1.0000 0.11713  0.48473  0.00197  Biso   1.000  H
  H2531    1.0000 0.17078  0.49927  0.02307  Biso   1.000  H
  H2532    1.0000 0.09686  0.47604  0.03096  Biso   1.000  H
  H2533    1.0000 0.02980  0.37817  0.99216  Biso   1.000  H
  H2534    1.0000 0.00664  0.36887  0.02078  Biso   1.000  H
  H2535    1.0000 0.01921  0.31537  0.00747  Biso   1.000  H
  H2536    1.0000 0.08177  0.07756  0.12047  Biso   1.000  H
  H2537    1.0000 0.15439  0.09595  0.11267  Biso   1.000  H
  H2538    1.0000 0.09374  0.02666  0.10477  Biso   1.000  H
  H2539    1.0000 0.08174  0.07751  0.12047  Biso   1.000  H
  H2540    1.0000 0.15447  0.09595  0.11267  Biso   1.000  H
  H2541    1.0000 0.09378  0.02666  0.10477  Biso   1.000  H
  H2542    1.0000 0.08165  0.07751  0.12047  Biso   1.000  H
  H2543    1.0000 0.09431  0.05593  0.04476  Biso   1.000  H
  H2544    1.0000 0.13541  0.13397  0.04197  Biso   1.000  H
  H2545    1.0000 0.05734  0.09715  0.04356  Biso   1.000  H
  C1981    1.0000 0.64862  0.08671  0.01902  Biso   1.000  C
  C1982    1.0000 0.53200  0.99253  0.01724  Biso   1.000  C
  C1983    1.0000 0.53196  0.99253  0.01724  Biso   1.000  C
  H2546    1.0000 0.58112  0.04664  0.04866  Biso   1.000  H
  H2547    1.0000 0.58117  0.04664  0.04866  Biso   1.000  H
  C1984    1.0000 0.62577  0.13437  0.00986  Biso   1.000  C
  H2548    1.0000 0.66032  0.06892  0.00417  Biso   1.000  H
  H2549    1.0000 0.66036  0.06892  0.00417  Biso   1.000  H
  H2550    1.0000 0.49656  0.95651  0.02697  Biso   1.000  H
  H2551    1.0000 0.54228  0.97320  0.00268  Biso   1.000  H
  H2552    1.0000 0.49653  0.95646  0.02697  Biso   1.000  H
  H2553    1.0000 0.54224  0.97320  0.00268  Biso   1.000  H
  C1985    1.0000 0.50801  0.04024  0.00766  Biso   1.000  C
  C1986    1.0000 0.50803  0.04019  0.00766  Biso   1.000  C
  C1987    1.0000 0.50805  0.04024  0.00766  Biso   1.000  C
  H2554    1.0000 0.61604  0.15385  0.02446  Biso   1.000  H
  C1988    1.0000 0.56331  0.09815  0.99314  Biso   1.000  C
  H2555    1.0000 0.66131  0.17024  0.00017  Biso   1.000  H
  H2556    1.0000 0.46953  0.01606  0.99656  Biso   1.000  H
  H2557    1.0000 0.46950  0.01601  0.99656  Biso   1.000  H
  H2558    1.0000 0.49451  0.05703  0.02207  Biso   1.000  H
  H2559    1.0000 0.49455  0.05703  0.02207  Biso   1.000  H
  H2560    1.0000 0.54862  0.12917  0.98807  Biso   1.000  H
  H2561    1.0000 0.57381  0.08176  0.97777  Biso   1.000  H
  H2562    1.0000 0.54860  0.12912  0.98807  Biso   1.000  H
  H2563    1.0000 0.57378  0.08171  0.97777  Biso   1.000  H
  H2564    1.0000 0.57382  0.08171  0.97777  Biso   1.000  H
  C1989    1.0000 0.22998  0.43150  0.32648  Biso   1.000  C
  C1990    1.0000 0.17468  0.37359  0.34100  Biso   1.000  C
  C1991    1.0000 0.29244  0.46772  0.34320  Biso   1.000  C
  H2565    1.0000 0.21529  0.46252  0.32139  Biso   1.000  H
  H2566    1.0000 0.24052  0.41511  0.31109  Biso   1.000  H
  C1992    1.0000 0.19861  0.32583  0.35058  Biso   1.000  C
  H2567    1.0000 0.13620  0.34941  0.32990  Biso   1.000  H
  H2568    1.0000 0.16121  0.39043  0.35540  Biso   1.000  H
  C1993    1.0000 0.31525  0.42005  0.35236  Biso   1.000  C
  H2569    1.0000 0.32798  0.50359  0.33349  Biso   1.000  H
  H2570    1.0000 0.28271  0.48720  0.35780  Biso   1.000  H
  C1994    1.0000 0.25926  0.36215  0.36703  Biso   1.000  C
  H2571    1.0000 0.16321  0.28981  0.36031  Biso   1.000  H
  H2572    1.0000 0.20889  0.30650  0.33600  Biso   1.000  H
  N85      1.0000 0.37340  0.45458  0.36866  Biso   1.000  N
  H2573    1.0000 0.32702  0.40232  0.33751  Biso   1.000  H
  N86      1.0000 0.28198  0.31709  0.37575  Biso   1.000  N
  H2574    1.0000 0.24780  0.37999  0.38200  Biso   1.000  H
  C1995    1.0000 0.42527  0.44998  0.36356  Biso   1.000  C
  C1996    1.0000 0.27351  0.30230  0.39909  Biso   1.000  C
  C1997    1.0000 0.48620  0.48340  0.37764  Biso   1.000  C
  H2575    1.0000 0.42300  0.42320  0.34989  Biso   1.000  H
  H2576    1.0000 0.25327  0.31999  0.40929  Biso   1.000  H
  C1998    1.0000 0.29512  0.25684  0.41097  Biso   1.000  C
  C1999    1.0000 0.54469  0.48600  0.36789  Biso   1.000  C
  C2000    1.0000 0.48882  0.51263  0.40012  Biso   1.000  C
  C2001    1.0000 0.33172  0.23546  0.39905  Biso   1.000  C
  C2002    1.0000 0.27300  0.23561  0.43595  Biso   1.000  C
  C2003    1.0000 0.60442  0.51822  0.38099  Biso   1.000  C
  H2577    1.0000 0.54272  0.46562  0.35230  Biso   1.000  H
  C2004    1.0000 0.55070  0.54630  0.41373  Biso   1.000  C
  H2578    1.0000 0.45073  0.51103  0.40681  Biso   1.000  H
  C2005    1.0000 0.34659  0.18939  0.41115  Biso   1.000  C
  H2579    1.0000 0.34760  0.25069  0.38271  Biso   1.000  H
  H2580    1.0000 0.24689  0.25019  0.44419  Biso   1.000  H
  C2006    1.0000 0.28950  0.19299  0.44864  Biso   1.000  C
  C2007    1.0000 0.60712  0.55080  0.40356  Biso   1.000  C
  H2581    1.0000 0.64200  0.51802  0.37479  Biso   1.000  H
  C2008    1.0000 0.56213  0.58102  0.43938  Biso   1.000  C
  C2009    1.0000 0.32681  0.16991  0.43615  Biso   1.000  C
  C2010    1.0000 0.39310  0.16681  0.40029  Biso   1.000  C
  H2582    1.0000 0.27552  0.18000  0.46541  Biso   1.000  H
  C2011    1.0000 0.66442  0.59021  0.42242  Biso   1.000  C
  C2012    1.0000 0.63562  0.60530  0.44245  Biso   1.000  C
  C2013    1.0000 0.54553  0.63892  0.43670  Biso   1.000  C
  C2014    1.0000 0.51471  0.52892  0.45816  Biso   1.000  C
  C2015    1.0000 0.34662  0.11910  0.44301  Biso   1.000  C
  C2016    1.0000 0.38663  0.11760  0.42185  Biso   1.000  C
  C2017    1.0000 0.36362  0.12999  0.37460  Biso   1.000  C
  C2018    1.0000 0.46251  0.22482  0.39704  Biso   1.000  C
  C2019    1.0000 0.73100  0.61340  0.42185  Biso   1.000  C
  C2020    1.0000 0.67233  0.64142  0.46374  Biso   1.000  C
  H2583    1.0000 0.55781  0.66410  0.45251  Biso   1.000  H
  H2584    1.0000 0.49748  0.61889  0.43481  Biso   1.000  H
  C2021    1.0000 0.58111  0.69063  0.41340  Biso   1.000  C
  H2585    1.0000 0.51969  0.54970  0.47479  Biso   1.000  H
  H2586    1.0000 0.46912  0.51233  0.45251  Biso   1.000  H
  C2022    1.0000 0.52651  0.47361  0.46070  Biso   1.000  C
  C2023    1.0000 0.33429  0.07809  0.46399  Biso   1.000  C
  C2024    1.0000 0.40979  0.07419  0.42242  Biso   1.000  C
  H2587    1.0000 0.36601  0.16212  0.36210  Biso   1.000  H
  H2588    1.0000 0.39092  0.11191  0.36839  Biso   1.000  H
  C2025    1.0000 0.29259  0.07429  0.37653  Biso   1.000  C
  H2589    1.0000 0.49071  0.20748  0.39110  Biso   1.000  H
  H2590    1.0000 0.46142  0.25309  0.38361  Biso   1.000  H
  C2026    1.0000 0.49471  0.26688  0.41931  Biso   1.000  C
  C2027    1.0000 0.77252  0.65341  0.44301  Biso   1.000  C
  C2028    1.0000 0.77371  0.60690  0.40029  Biso   1.000  C
  C2029    1.0000 0.74379  0.66570  0.46399  Biso   1.000  C
  C2030    1.0000 0.66073  0.66580  0.48813  Biso   1.000  C
  H2591    1.0000 0.62911  0.70952  0.41399  Biso   1.000  H
  H2592    1.0000 0.56468  0.66850  0.39710  Biso   1.000  H
  C2031    1.0000 0.56302  0.74339  0.41720  Biso   1.000  C
  C2032    1.0000 0.47349  0.41291  0.47770  Biso   1.000  C
  H2593    1.0000 0.57049  0.49010  0.46810  Biso   1.000  H
  H2594    1.0000 0.52713  0.45692  0.44381  Biso   1.000  H
  C2033    1.0000 0.29641  0.07329  0.48811  Biso   1.000  C
  C2034    1.0000 0.35860  0.03092  0.46374  Biso   1.000  C
  C2035    1.0000 0.44921  0.05630  0.40356  Biso   1.000  C
  C2036    1.0000 0.39473  0.03033  0.44245  Biso   1.000  C
  C2037    1.0000 0.26542  0.04072  0.35073  Biso   1.000  C
  H2595    1.0000 0.26501  0.09182  0.38299  Biso   1.000  H
  H2596    1.0000 0.29003  0.04132  0.38859  Biso   1.000  H
  C2038    1.0000 0.56172  0.32943  0.41480  Biso   1.000  C
  H2597    1.0000 0.50079  0.24010  0.43209  Biso   1.000  H
  H2598    1.0000 0.46453  0.28042  0.42640  Biso   1.000  H
  C2039    1.0000 0.84311  0.67320  0.43615  Biso   1.000  C
  C2040    1.0000 0.84282  0.65341  0.41115  Biso   1.000  C
  C2041    1.0000 0.76640  0.63643  0.37460  Biso   1.000  C
  C2042    1.0000 0.76233  0.53751  0.39704  Biso   1.000  C
  C2043    1.0000 0.77694  0.70362  0.48811  Biso   1.000  C
  C2044    1.0000 0.72023  0.69992  0.50161  Biso   1.000  C
  C2045    1.0000 0.60141  0.65801  0.49998  Biso   1.000  C
  H2599    1.0000 0.54038  0.73689  0.40100  Biso   1.000  H
  H2600    1.0000 0.52672  0.71821  0.42909  Biso   1.000  H
  C2046    1.0000 0.56991  0.80764  0.42271  Biso   1.000  C
  H2601    1.0000 0.49008  0.38318  0.48221  Biso   1.000  H
  H2602    1.0000 0.46332  0.42900  0.49320  Biso   1.000  H
  C2047    1.0000 0.41210  0.37769  0.46049  Biso   1.000  C
  C2048    1.0000 0.30011  0.02028  0.50161  Biso   1.000  C
  C2049    1.0000 0.22193  0.04901  0.48318  Biso   1.000  C
  C2050    1.0000 0.33448  0.13998  0.50438  Biso   1.000  C
  C2051    1.0000 0.33417  0.99495  0.48813  Biso   1.000  C
  C2052    1.0000 0.48180  0.08618  0.38099  Biso   1.000  C
  C2053    1.0000 0.45372  0.00440  0.41373  Biso   1.000  C
  C2054    1.0000 0.41900  0.98117  0.43938  Biso   1.000  C
  H2603    1.0000 0.26930  0.07419  0.33860  Biso   1.000  H
  H2604    1.0000 0.29269  0.02258  0.34450  Biso   1.000  H
  H2605    1.0000 0.27071  0.07389  0.33819  Biso   1.000  H
  H2606    1.0000 0.21818  0.00829  0.35220  Biso   1.000  H
  C2055    1.0000 0.30500  0.00550  0.34190  Biso   1.000  C
  C2056    1.0000 0.19521  0.98676  0.35178  Biso   1.000  C
  H2607    1.0000 0.55592  0.35851  0.40310  Biso   1.000  H
  H2608    1.0000 0.59211  0.31709  0.40700  Biso   1.000  H
  C2057    1.0000 0.59351  0.36860  0.44081  Biso   1.000  C
  H2609    1.0000 0.59749  0.32568  0.42290  Biso   1.000  H
  H2610    1.0000 0.56171  0.36860  0.42139  Biso   1.000  H
  C2058    1.0000 0.56951  0.33273  0.38290  Biso   1.000  C
  C2059    1.0000 0.90352  0.71052  0.44864  Biso   1.000  C
  C2060    1.0000 0.90374  0.66830  0.39905  Biso   1.000  C
  H2611    1.0000 0.79614  0.63403  0.36210  Biso   1.000  H
  H2612    1.0000 0.72103  0.60910  0.36839  Biso   1.000  H
  C2061    1.0000 0.78174  0.70742  0.37653  Biso   1.000  C
  H2613    1.0000 0.71683  0.50933  0.39110  Biso   1.000  H
  H2614    1.0000 0.79169  0.53861  0.38361  Biso   1.000  H
  C2062    1.0000 0.77222  0.50528  0.41931  Biso   1.000  C
  C2063    1.0000 0.82712  0.77811  0.48318  Biso   1.000  C
  C2064    1.0000 0.80552  0.66550  0.50438  Biso   1.000  C
  C2065    1.0000 0.72119  0.72650  0.52636  Biso   1.000  C
  C2066    1.0000 0.60379  0.68259  0.52366  Biso   1.000  C
  H2615    1.0000 0.56081  0.63583  0.49130  Biso   1.000  H
  H2616    1.0000 0.61330  0.84231  0.41730  Biso   1.000  H
  H2617    1.0000 0.56502  0.81143  0.44069  Biso   1.000  H
  H2618    1.0000 0.53611  0.81193  0.41371  Biso   1.000  H
  H2619    1.0000 0.37710  0.34032  0.46950  Biso   1.000  H
  H2620    1.0000 0.42331  0.36230  0.44530  Biso   1.000  H
  H2621    1.0000 0.39712  0.40831  0.45600  Biso   1.000  H
  C2067    1.0000 0.27354  0.99475  0.52636  Biso   1.000  C
  H2622    1.0000 0.19890  0.03202  0.49929  Biso   1.000  H
  H2623    1.0000 0.21880  0.08828  0.47921  Biso   1.000  H
  C2068    1.0000 0.18508  0.00180  0.46489  Biso   1.000  C
  H2624    1.0000 0.31092  0.13389  0.52039  Biso   1.000  H
  H2625    1.0000 0.33321  0.17571  0.49511  Biso   1.000  H
  C2069    1.0000 0.41280  0.16312  0.51070  Biso   1.000  C
  C2070    1.0000 0.34203  0.94345  0.49998  Biso   1.000  C
  H2626    1.0000 0.48202  0.12400  0.37479  Biso   1.000  H
  C2071    1.0000 0.51401  0.05870  0.36789  Biso   1.000  C
  C2072    1.0000 0.48742  0.97627  0.40012  Biso   1.000  C
  C2073    1.0000 0.36109  0.90663  0.43670  Biso   1.000  C
  C2074    1.0000 0.47115  0.98586  0.45816  Biso   1.000  C
  H2627    1.0000 0.35132  0.03722  0.34079  Biso   1.000  H
  H2628    1.0000 0.28851  0.98506  0.32550  Biso   1.000  H
  H2629    1.0000 0.29779  0.97117  0.35410  Biso   1.000  H
  H2630    1.0000 0.16742  0.00490  0.35641  Biso   1.000  H
  H2631    1.0000 0.19059  0.95424  0.36430  Biso   1.000  H
  H2632    1.0000 0.18193  0.96573  0.33531  Biso   1.000  H
  H2633    1.0000 0.58913  0.33752  0.45381  Biso   1.000  H
  H2634    1.0000 0.57072  0.39183  0.44601  Biso   1.000  H
  H2635    1.0000 0.64001  0.40042  0.43809  Biso   1.000  H
  H2636    1.0000 0.61072  0.37169  0.37810  Biso   1.000  H
  H2637    1.0000 0.53270  0.33482  0.37529  Biso   1.000  H
  H2638    1.0000 0.56950  0.29351  0.37690  Biso   1.000  H
  C2075    1.0000 0.96260  0.72700  0.43595  Biso   1.000  C
  H2639    1.0000 0.90450  0.72450  0.46541  Biso   1.000  H
  H2640    1.0000 0.90311  0.65241  0.38271  Biso   1.000  H
  C2076    1.0000 0.96177  0.70492  0.41097  Biso   1.000  C
  C2077    1.0000 0.77529  0.73460  0.35073  Biso   1.000  C
  H2641    1.0000 0.82681  0.73500  0.38299  Biso   1.000  H
  H2642    1.0000 0.75132  0.71002  0.38859  Biso   1.000  H
  C2078    1.0000 0.76771  0.43829  0.41480  Biso   1.000  C
  H2643    1.0000 0.73932  0.49919  0.43209  Biso   1.000  H
  H2644    1.0000 0.81593  0.53551  0.42640  Biso   1.000  H
  H2645    1.0000 0.83312  0.80109  0.49929  Biso   1.000  H
  H2646    1.0000 0.86951  0.78121  0.47921  Biso   1.000  H
  C2079    1.0000 0.81672  0.81493  0.46489  Biso   1.000  C
  H2647    1.0000 0.82304  0.68913  0.52039  Biso   1.000  H
  H2648    1.0000 0.84251  0.66680  0.49511  Biso   1.000  H
  C2080    1.0000 0.75032  0.58722  0.51070  Biso   1.000  C
  C2081    1.0000 0.66321  0.71681  0.53736  Biso   1.000  C
  H2649    1.0000 0.76141  0.75053  0.53511  Biso   1.000  H
  H2650    1.0000 0.56452  0.67639  0.53100  Biso   1.000  H
  H2651    1.0000 0.24951  0.01089  0.53511  Biso   1.000  H
  C2082    1.0000 0.28322  0.94644  0.53736  Biso   1.000  C
  H2652    1.0000 0.20751  0.01309  0.44849  Biso   1.000  H
  C2083    1.0000 0.12158  0.00649  0.46439  Biso   1.000  C
  H2653    1.0000 0.17586  0.95773  0.46999  Biso   1.000  H
  H2654    1.0000 0.41361  0.12580  0.51881  Biso   1.000  H
  H2655    1.0000 0.43632  0.17121  0.49459  Biso   1.000  H
  C2084    1.0000 0.44693  0.21632  0.52530  Biso   1.000  C
  C2085    1.0000 0.31740  0.92126  0.52366  Biso   1.000  C
  H2656    1.0000 0.36421  0.92506  0.49130  Biso   1.000  H
  C2086    1.0000 0.51658  0.00275  0.37764  Biso   1.000  C
  H2657    1.0000 0.53441  0.07709  0.35230  Biso   1.000  H
  H2658    1.0000 0.48898  0.93975  0.40681  Biso   1.000  H
  H2659    1.0000 0.33591  0.89374  0.45251  Biso   1.000  H
  H2660    1.0000 0.38111  0.87865  0.43481  Biso   1.000  H
  C2087    1.0000 0.30939  0.89054  0.41340  Biso   1.000  C
  C2088    1.0000 0.52643  0.05291  0.46070  Biso   1.000  C
  H2661    1.0000 0.45033  0.97002  0.47479  Biso   1.000  H
  H2662    1.0000 0.48770  0.95684  0.45251  Biso   1.000  H
  H2663    1.0000 0.00331  0.75313  0.44419  Biso   1.000  H
  C2089    1.0000 0.02881  0.72650  0.39909  Biso   1.000  C
  H2664    1.0000 0.80489  0.73070  0.33860  Biso   1.000  H
  H2665    1.0000 0.72990  0.70732  0.34450  Biso   1.000  H
  C2090    1.0000 0.79151  0.80484  0.35178  Biso   1.000  C
  H2666    1.0000 0.80319  0.72930  0.33819  Biso   1.000  H
  H2667    1.0000 0.79012  0.78181  0.35220  Biso   1.000  H
  C2091    1.0000 0.70052  0.69503  0.34190  Biso   1.000  C
  H2668    1.0000 0.80258  0.44408  0.40310  Biso   1.000  H
  H2669    1.0000 0.72501  0.40791  0.40700  Biso   1.000  H
  C2092    1.0000 0.77510  0.40652  0.44081  Biso   1.000  C
  H2670    1.0000 0.72824  0.40252  0.42290  Biso   1.000  H
  H2671    1.0000 0.80691  0.43829  0.42139  Biso   1.000  H
  C2093    1.0000 0.76321  0.43050  0.38290  Biso   1.000  C
  H2672    1.0000 0.78181  0.82412  0.46999  Biso   1.000  H
  H2673    1.0000 0.80559  0.79250  0.44849  Biso   1.000  H
  C2094    1.0000 0.88494  0.87843  0.46439  Biso   1.000  C
  H2674    1.0000 0.71224  0.58642  0.51881  Biso   1.000  H
  H2675    1.0000 0.73492  0.56369  0.49459  Biso   1.000  H
  C2095    1.0000 0.76939  0.55310  0.52530  Biso   1.000  C
  C2096    1.0000 0.66259  0.73989  0.56378  Biso   1.000  C
  C2097    1.0000 0.26009  0.92276  0.56378  Biso   1.000  C
  H2676    1.0000 0.13271  0.05291  0.46380  Biso   1.000  H
  H2677    1.0000 0.09501  0.98616  0.47961  Biso   1.000  H
  C2098    1.0000 0.08220  0.96893  0.44001  Biso   1.000  C
  H2678    1.0000 0.42752  0.20873  0.54220  Biso   1.000  H
  H2679    1.0000 0.44709  0.25489  0.51791  Biso   1.000  H
  C2099    1.0000 0.52441  0.22841  0.52660  Biso   1.000  C
  H2680    1.0000 0.32364  0.88814  0.53100  Biso   1.000  H
  C2100    1.0000 0.55005  0.97537  0.36356  Biso   1.000  C
  H2681    1.0000 0.29056  0.91967  0.41399  Biso   1.000  H
  H2682    1.0000 0.33149  0.89624  0.39710  Biso   1.000  H
  C2101    1.0000 0.25660  0.81965  0.41720  Biso   1.000  C
  C2102    1.0000 0.58713  0.06060  0.47770  Biso   1.000  C
  H2683    1.0000 0.50988  0.08038  0.46810  Biso   1.000  H
  H2684    1.0000 0.54312  0.07019  0.44381  Biso   1.000  H
  N87      1.0000 0.03512  0.71801  0.37575  Biso   1.000  N
  H2685    1.0000 0.06674  0.74674  0.40929  Biso   1.000  H
  H2686    1.0000 0.83750  0.83262  0.35641  Biso   1.000  H
  H2687    1.0000 0.76361  0.80943  0.36430  Biso   1.000  H
  H2688    1.0000 0.78383  0.81813  0.33531  Biso   1.000  H
  H2689    1.0000 0.69652  0.71151  0.32550  Biso   1.000  H
  H2690    1.0000 0.67331  0.70222  0.35410  Biso   1.000  H
  H2691    1.0000 0.68593  0.64872  0.34079  Biso   1.000  H
  H2692    1.0000 0.74840  0.41091  0.45381  Biso   1.000  H
  H2693    1.0000 0.82110  0.42930  0.44601  Biso   1.000  H
  H2694    1.0000 0.76041  0.36000  0.43809  Biso   1.000  H
  H2695    1.0000 0.76101  0.38933  0.37810  Biso   1.000  H
  H2696    1.0000 0.80213  0.46732  0.37529  Biso   1.000  H
  H2697    1.0000 0.72401  0.43050  0.37690  Biso   1.000  H
  H2698    1.0000 0.92023  0.86734  0.46380  Biso   1.000  H
  H2699    1.0000 0.89113  0.90501  0.47961  Biso   1.000  H
  C2103    1.0000 0.88671  0.91780  0.44001  Biso   1.000  C
  H2700    1.0000 0.78122  0.57253  0.54220  Biso   1.000  H
  H2701    1.0000 0.80779  0.55290  0.51791  Biso   1.000  H
  C2104    1.0000 0.70399  0.47561  0.52660  Biso   1.000  C
  N88      1.0000 0.71620  0.77501  0.57656  Biso   1.000  N
  H2702    1.0000 0.62180  0.72840  0.57131  Biso   1.000  H
  N89      1.0000 0.22503  0.94125  0.57656  Biso   1.000  N
  H2703    1.0000 0.27164  0.89344  0.57131  Biso   1.000  H
  H2704    1.0000 0.10553  0.99395  0.42510  Biso   1.000  H
  H2705    1.0000 0.03838  0.96393  0.44050  Biso   1.000  H
  H2706    1.0000 0.07834  0.92556  0.43939  Biso   1.000  H
  H2707    1.0000 0.52280  0.18800  0.53230  Biso   1.000  H
  H2708    1.0000 0.55061  0.26368  0.53830  Biso   1.000  H
  H2709    1.0000 0.54429  0.23980  0.50990  Biso   1.000  H
  N90      1.0000 0.54542  0.91887  0.36866  Biso   1.000  N
  H2710    1.0000 0.57683  0.99985  0.34989  Biso   1.000  H
  H2711    1.0000 0.26309  0.80356  0.40100  Biso   1.000  H
  H2712    1.0000 0.28182  0.80856  0.42909  Biso   1.000  H
  C2105    1.0000 0.19243  0.76235  0.42271  Biso   1.000  C
  H2713    1.0000 0.61682  0.10691  0.48221  Biso   1.000  H
  H2714    1.0000 0.57101  0.03432  0.49320  Biso   1.000  H
  C2106    1.0000 0.62232  0.03442  0.46049  Biso   1.000  C
  C2107    1.0000 0.10290  0.74074  0.36703  Biso   1.000  C
  H2715    1.0000 0.88839  0.89451  0.42510  Biso   1.000  H
  H2716    1.0000 0.92553  0.96161  0.44050  Biso   1.000  H
  H2717    1.0000 0.84721  0.92169  0.43939  Biso   1.000  H
  H2718    1.0000 0.66520  0.47721  0.53230  Biso   1.000  H
  H2719    1.0000 0.71314  0.44943  0.53830  Biso   1.000  H
  H2720    1.0000 0.69552  0.45573  0.50990  Biso   1.000  H
  C2108    1.0000 0.70898  0.79200  0.60330  Biso   1.000  C
  C2109    1.0000 0.20800  0.91707  0.60330  Biso   1.000  C
  C2110    1.0000 0.57999  0.89524  0.35236  Biso   1.000  C
  H2721    1.0000 0.15766  0.77104  0.41730  Biso   1.000  H
  H2722    1.0000 0.18864  0.75365  0.44069  Biso   1.000  H
  H2723    1.0000 0.18812  0.72423  0.41371  Biso   1.000  H
  H2724    1.0000 0.65974  0.03682  0.46950  Biso   1.000  H
  H2725    1.0000 0.63769  0.06100  0.44530  Biso   1.000  H
  H2726    1.0000 0.59176  0.98886  0.45600  Biso   1.000  H
  H2727    1.0000 0.13223  0.75223  0.38200  Biso   1.000  H
  C2111    1.0000 0.12721  0.80139  0.35058  Biso   1.000  C
  C2112    1.0000 0.10480  0.68474  0.35236  Biso   1.000  C
  C2113    1.0000 0.74241  0.76687  0.62140  Biso   1.000  C
  H2728    1.0000 0.66153  0.77212  0.60760  Biso   1.000  H
  C2114    1.0000 0.74333  0.86884  0.60491  Biso   1.000  C
  C2115    1.0000 0.23310  0.97557  0.62140  Biso   1.000  C
  H2729    1.0000 0.22789  0.88944  0.60760  Biso   1.000  H
  C2116    1.0000 0.13119  0.87455  0.60491  Biso   1.000  C
  C2117    1.0000 0.63783  0.89713  0.36703  Biso   1.000  C
  H2730    1.0000 0.59769  0.92476  0.33751  Biso   1.000  H
  C2118    1.0000 0.53233  0.82474  0.34320  Biso   1.000  C
  H2731    1.0000 0.12662  0.83681  0.36031  Biso   1.000  H
  H2732    1.0000 0.09762  0.79110  0.33600  Biso   1.000  H
  C2119    1.0000 0.19893  0.82532  0.34100  Biso   1.000  C
  N91      1.0000 0.08124  0.62663  0.36866  Biso   1.000  N
  H2733    1.0000 0.07530  0.67300  0.33751  Biso   1.000  H
  C2120    1.0000 0.17531  0.70757  0.34320  Biso   1.000  C
  N92      1.0000 0.71096  0.69463  0.62003  Biso   1.000  N
  C2121    1.0000 0.73941  0.78830  0.64835  Biso   1.000  C
  H2734    1.0000 0.78943  0.78640  0.61639  Biso   1.000  H
  C2122    1.0000 0.73970  0.88952  0.63291  Biso   1.000  C
  H2735    1.0000 0.72113  0.88482  0.59359  Biso   1.000  H
  H2736    1.0000 0.78961  0.88862  0.59959  Biso   1.000  H
  N93      1.0000 0.30540  0.01634  0.62003  Biso   1.000  N
  H2737    1.0000 0.21359  0.00300  0.61639  Biso   1.000  H
  C2123    1.0000 0.21167  0.95114  0.64835  Biso   1.000  C
  C2124    1.0000 0.11051  0.85022  0.63291  Biso   1.000  C
  H2738    1.0000 0.11516  0.83633  0.59359  Biso   1.000  H
  H2739    1.0000 0.11142  0.90103  0.59959  Biso   1.000  H
  N94      1.0000 0.68289  0.96493  0.37575  Biso   1.000  N
  H2740    1.0000 0.61999  0.86786  0.38200  Biso   1.000  H
  C2125    1.0000 0.67419  0.87285  0.35058  Biso   1.000  C
  H2741    1.0000 0.49640  0.82444  0.33349  Biso   1.000  H
  H2742    1.0000 0.51285  0.79557  0.35780  Biso   1.000  H
  C2126    1.0000 0.56856  0.79857  0.32648  Biso   1.000  C
  H2743    1.0000 0.21321  0.86384  0.32990  Biso   1.000  H
  H2744    1.0000 0.22921  0.83881  0.35540  Biso   1.000  H
  C2127    1.0000 0.20152  0.77002  0.32648  Biso   1.000  C
  C2128    1.0000 0.02472  0.57478  0.36356  Biso   1.000  C
  H2745    1.0000 0.17561  0.67200  0.33349  Biso   1.000  H
  H2746    1.0000 0.20450  0.71731  0.35780  Biso   1.000  H
  C2129    1.0000 0.74891  0.67170  0.61540  Biso   1.000  C
  H2747    1.0000 0.69312  0.76762  0.65361  Biso   1.000  H
  H2748    1.0000 0.76170  0.77222  0.65961  Biso   1.000  H
  C2130    1.0000 0.77121  0.86229  0.65133  Biso   1.000  C
  H2749    1.0000 0.76291  0.93793  0.63409  Biso   1.000  H
  H2750    1.0000 0.69340  0.87263  0.63761  Biso   1.000  H
  C2131    1.0000 0.32833  0.07724  0.61540  Biso   1.000  C
  H2751    1.0000 0.23241  0.92556  0.65361  Biso   1.000  H
  H2752    1.0000 0.22781  0.98956  0.65961  Biso   1.000  H
  C2132    1.0000 0.13774  0.90892  0.65133  Biso   1.000  C
  H2753    1.0000 0.06213  0.82504  0.63409  Biso   1.000  H
  H2754    1.0000 0.12744  0.82085  0.63761  Biso   1.000  H
  C2133    1.0000 0.69775  0.97127  0.39909  Biso   1.000  C
  H2755    1.0000 0.71023  0.87345  0.36031  Biso   1.000  H
  H2756    1.0000 0.69352  0.90243  0.33600  Biso   1.000  H
  C2134    1.0000 0.62641  0.80116  0.34100  Biso   1.000  C
  H2757    1.0000 0.53753  0.75285  0.32139  Biso   1.000  H
  H2758    1.0000 0.58494  0.82544  0.31109  Biso   1.000  H
  H2759    1.0000 0.24720  0.78470  0.32139  Biso   1.000  H
  H2760    1.0000 0.17464  0.75953  0.31109  Biso   1.000  H
  C2135    1.0000 0.99723  0.51383  0.37764  Biso   1.000  C
  H2761    1.0000 0.00023  0.57703  0.34989  Biso   1.000  H
  C2136    1.0000 0.72281  0.59856  0.61469  Biso   1.000  C
  H2762    1.0000 0.79402  0.70092  0.61240  Biso   1.000  H
  H2763    1.0000 0.81872  0.88322  0.64789  Biso   1.000  H
  H2764    1.0000 0.76542  0.87293  0.66871  Biso   1.000  H
  C2137    1.0000 0.40146  0.12425  0.61469  Biso   1.000  C
  H2765    1.0000 0.29910  0.09312  0.61240  Biso   1.000  H
  H2766    1.0000 0.11683  0.93555  0.64789  Biso   1.000  H
  H2767    1.0000 0.12708  0.89254  0.66871  Biso   1.000  H
  C2138    1.0000 0.74319  0.03827  0.41097  Biso   1.000  C
  H2768    1.0000 0.68004  0.93335  0.40929  Biso   1.000  H
  H2769    1.0000 0.65056  0.78683  0.32990  Biso   1.000  H
  H2770    1.0000 0.60960  0.77084  0.35540  Biso   1.000  H
  C2139    1.0000 0.94133  0.45533  0.36789  Biso   1.000  C
  C2140    1.0000 0.02384  0.51123  0.40012  Biso   1.000  C
  C2141    1.0000 0.76554  0.57413  0.61487  Biso   1.000  C
  C2142    1.0000 0.65362  0.55270  0.61399  Biso   1.000  C
  C2143    1.0000 0.42590  0.19139  0.61487  Biso   1.000  C
  C2144    1.0000 0.44733  0.10092  0.61399  Biso   1.000  C
  C2145    1.0000 0.76457  0.09627  0.39905  Biso   1.000  C
  C2146    1.0000 0.76444  0.03742  0.43595  Biso   1.000  C
  C2147    1.0000 0.91382  0.39562  0.38099  Biso   1.000  C
  H2771    1.0000 0.92290  0.45732  0.35230  Biso   1.000  H
  C2148    1.0000 0.99562  0.44933  0.41373  Biso   1.000  C
  H2772    1.0000 0.06031  0.54930  0.40681  Biso   1.000  H
  H2773    1.0000 0.81151  0.60290  0.61559  Biso   1.000  H
  C2149    1.0000 0.73851  0.50319  0.61387  Biso   1.000  C
  C2150    1.0000 0.62691  0.48620  0.61397  Biso   1.000  C
  H2774    1.0000 0.62463  0.56973  0.61351  Biso   1.000  H
  H2775    1.0000 0.39714  0.20863  0.61559  Biso   1.000  H
  C2151    1.0000 0.49679  0.23531  0.61387  Biso   1.000  C
  C2152    1.0000 0.51382  0.14068  0.61397  Biso   1.000  C
  H2776    1.0000 0.43030  0.05490  0.61351  Biso   1.000  H
  C2153    1.0000 0.81062  0.15722  0.41115  Biso   1.000  C
  H2777    1.0000 0.74932  0.09692  0.38271  Biso   1.000  H
  C2154    1.0000 0.80701  0.09652  0.44864  Biso   1.000  C
  H2778    1.0000 0.74986  0.99675  0.44419  Biso   1.000  H
  C2155    1.0000 0.94371  0.39293  0.40356  Biso   1.000  C
  H2779    1.0000 0.87601  0.35801  0.37479  Biso   1.000  H
  C2156    1.0000 0.01893  0.43789  0.43938  Biso   1.000  C
  C2157    1.0000 0.67131  0.46182  0.61383  Biso   1.000  C
  C2158    1.0000 0.78030  0.46961  0.61416  Biso   1.000  C
  H2780    1.0000 0.58091  0.45762  0.61401  Biso   1.000  H
  C2159    1.0000 0.53824  0.20953  0.61383  Biso   1.000  C
  C2160    1.0000 0.53042  0.31069  0.61416  Biso   1.000  C
  H2781    1.0000 0.54242  0.12330  0.61401  Biso   1.000  H
  C2161    1.0000 0.83012  0.15692  0.43615  Biso   1.000  C
  C2162    1.0000 0.83323  0.22631  0.40029  Biso   1.000  C
  H2782    1.0000 0.82001  0.09552  0.46541  Biso   1.000  H
  C2163    1.0000 0.92583  0.33562  0.42242  Biso   1.000  C
  C2164    1.0000 0.96972  0.36440  0.44245  Biso   1.000  C
  C2165    1.0000 0.09344  0.45453  0.43670  Biso   1.000  C
  C2166    1.0000 0.01421  0.48530  0.45816  Biso   1.000  C
  C2167    1.0000 0.65911  0.38983  0.61274  Biso   1.000  C
  C2168    1.0000 0.82322  0.48735  0.63914  Biso   1.000  C
  C2169    1.0000 0.82319  0.49180  0.59063  Biso   1.000  C
  C2170    1.0000 0.72400  0.39707  0.61343  Biso   1.000  C
  C2171    1.0000 0.61024  0.26933  0.61274  Biso   1.000  C
  C2172    1.0000 0.60293  0.32688  0.61343  Biso   1.000  C
  C2173    1.0000 0.51268  0.33587  0.63914  Biso   1.000  C
  C2174    1.0000 0.50820  0.33143  0.59063  Biso   1.000  C
  C2175    1.0000 0.88090  0.22751  0.44301  Biso   1.000  C
  C2176    1.0000 0.88245  0.26903  0.42185  Biso   1.000  C
  C2177    1.0000 0.87002  0.23361  0.37460  Biso   1.000  C
  C2178    1.0000 0.77519  0.23770  0.39704  Biso   1.000  C
  C2179    1.0000 0.96913  0.32773  0.46374  Biso   1.000  C
  H2783    1.0000 0.10631  0.44219  0.45251  Biso   1.000  H
  H2784    1.0000 0.12140  0.50249  0.43481  Biso   1.000  H
  C2180    1.0000 0.10951  0.41891  0.41340  Biso   1.000  C
  C2181    1.0000 0.94713  0.47351  0.46070  Biso   1.000  C
  H2785    1.0000 0.03001  0.48031  0.47479  Biso   1.000  H
  H2786    1.0000 0.04320  0.53091  0.45251  Biso   1.000  H
  H2787    1.0000 0.85391  0.47051  0.63730  Biso   1.000  H
  H2788    1.0000 0.84990  0.53561  0.64030  Biso   1.000  H
  C2182    1.0000 0.78671  0.46192  0.66379  Biso   1.000  C
  H2789    1.0000 0.84902  0.46911  0.59019  Biso   1.000  H
  H2790    1.0000 0.85461  0.53931  0.59210  Biso   1.000  H
  C2183    1.0000 0.78583  0.47911  0.56535  Biso   1.000  C
  C2184    1.0000 0.73071  0.34092  0.61274  Biso   1.000  C
  C2185    1.0000 0.67312  0.27602  0.61343  Biso   1.000  C
  H2791    1.0000 0.52951  0.38338  0.63730  Biso   1.000  H
  H2792    1.0000 0.46442  0.31429  0.64030  Biso   1.000  H
  C2186    1.0000 0.53811  0.32478  0.66379  Biso   1.000  C
  H2793    1.0000 0.53092  0.37989  0.59019  Biso   1.000  H
  H2794    1.0000 0.46072  0.31529  0.59210  Biso   1.000  H
  C2187    1.0000 0.52089  0.30670  0.56535  Biso   1.000  C
  C2188    1.0000 0.92189  0.25619  0.46399  Biso   1.000  C
  H2795    1.0000 0.83789  0.20388  0.36210  Biso   1.000  H
  H2796    1.0000 0.88814  0.27902  0.36839  Biso   1.000  H
  C2189    1.0000 0.92571  0.21832  0.37653  Biso   1.000  C
  H2797    1.0000 0.79254  0.28322  0.39110  Biso   1.000  H
  H2798    1.0000 0.74689  0.20828  0.38361  Biso   1.000  H
  C2190    1.0000 0.73312  0.22781  0.41931  Biso   1.000  C
  C2191    1.0000 0.00512  0.33932  0.48813  Biso   1.000  C
  H2799    1.0000 0.08040  0.37090  0.41399  Biso   1.000  H
  H2800    1.0000 0.10381  0.43529  0.39710  Biso   1.000  H
  C2192    1.0000 0.18042  0.43699  0.41720  Biso   1.000  C
  C2193    1.0000 0.93941  0.52652  0.47770  Biso   1.000  C
  H2801    1.0000 0.91959  0.42950  0.46810  Biso   1.000  H
  H2802    1.0000 0.92983  0.47291  0.44381  Biso   1.000  H
  H2803    1.0000 0.75841  0.48120  0.66639  Biso   1.000  H
  H2804    1.0000 0.75802  0.41381  0.66249  Biso   1.000  H
  C2194    1.0000 0.83001  0.47661  0.68600  Biso   1.000  C
  H2805    1.0000 0.76471  0.50618  0.56420  Biso   1.000  H
  H2806    1.0000 0.75140  0.43249  0.56401  Biso   1.000  H
  C2195    1.0000 0.83809  0.49789  0.54369  Biso   1.000  C
  C2196    1.0000 0.79051  0.32873  0.61383  Biso   1.000  C
  C2197    1.0000 0.68932  0.21972  0.61416  Biso   1.000  C
  H2807    1.0000 0.51883  0.27722  0.66639  Biso   1.000  H
  H2808    1.0000 0.58620  0.34422  0.66249  Biso   1.000  H
  C2198    1.0000 0.52339  0.35341  0.68600  Biso   1.000  C
  H2809    1.0000 0.49380  0.25849  0.56420  Biso   1.000  H
  H2810    1.0000 0.56748  0.31889  0.56401  Biso   1.000  H
  C2199    1.0000 0.50213  0.34022  0.54369  Biso   1.000  C
  C2200    1.0000 0.92673  0.22312  0.48811  Biso   1.000  C
  C2201    1.0000 0.95933  0.22472  0.35073  Biso   1.000  C
  H2811    1.0000 0.90822  0.17321  0.38299  Biso   1.000  H
  H2812    1.0000 0.95873  0.24870  0.38859  Biso   1.000  H
  C2202    1.0000 0.67060  0.23231  0.41480  Biso   1.000  C
  H2813    1.0000 0.75990  0.26069  0.43209  Biso   1.000  H
  H2814    1.0000 0.71962  0.18410  0.42640  Biso   1.000  H
  C2203    1.0000 0.97974  0.27982  0.50161  Biso   1.000  C
  C2204    1.0000 0.05662  0.39862  0.49998  Biso   1.000  C
  H2815    1.0000 0.19654  0.45962  0.40100  Biso   1.000  H
  H2816    1.0000 0.19153  0.47331  0.42909  Biso   1.000  H
  C2205    1.0000 0.23772  0.43010  0.42271  Biso   1.000  C
  H2817    1.0000 0.89313  0.50993  0.48221  Biso   1.000  H
  H2818    1.0000 0.96571  0.53671  0.49320  Biso   1.000  H
  C2206    1.0000 0.96561  0.58792  0.46049  Biso   1.000  C
  H2819    1.0000 0.85953  0.45882  0.68300  Biso   1.000  H
  H2820    1.0000 0.85761  0.52472  0.68761  Biso   1.000  H
  C2207    1.0000 0.79544  0.45023  0.71006  Biso   1.000  C
  H2821    1.0000 0.86420  0.54620  0.54220  Biso   1.000  H
  H2822    1.0000 0.81523  0.48021  0.52760  Biso   1.000  H
  C2208    1.0000 0.88811  0.46812  0.54941  Biso   1.000  C
  C2209    1.0000 0.76471  0.26148  0.61387  Biso   1.000  C
  C2210    1.0000 0.85933  0.37309  0.61397  Biso   1.000  C
  C2211    1.0000 0.66414  0.17680  0.63914  Biso   1.000  C
  C2212    1.0000 0.66860  0.17680  0.59063  Biso   1.000  C
  H2823    1.0000 0.54121  0.40072  0.68300  Biso   1.000  H
  H2824    1.0000 0.47534  0.33293  0.68761  Biso   1.000  H
  C2213    1.0000 0.54980  0.34522  0.71006  Biso   1.000  C
  H2825    1.0000 0.45381  0.31799  0.54220  Biso   1.000  H
  H2826    1.0000 0.51982  0.33502  0.52760  Biso   1.000  H
  C2214    1.0000 0.53190  0.42000  0.54941  Biso   1.000  C
  C2215    1.0000 0.95103  0.17291  0.48318  Biso   1.000  C
  C2216    1.0000 0.86002  0.19449  0.50438  Biso   1.000  C
  H2827    1.0000 0.92582  0.19509  0.33860  Biso   1.000  H
  H2828    1.0000 0.97745  0.27013  0.34450  Biso   1.000  H
  H2829    1.0000 0.92611  0.19679  0.33819  Biso   1.000  H
  H2830    1.0000 0.99174  0.20993  0.35220  Biso   1.000  H
  C2217    1.0000 0.99451  0.29950  0.34190  Biso   1.000  C
  C2218    1.0000 0.01332  0.20853  0.35178  Biso   1.000  C
  H2831    1.0000 0.64151  0.19739  0.40310  Biso   1.000  H
  H2832    1.0000 0.68292  0.27502  0.40700  Biso   1.000  H
  C2219    1.0000 0.63143  0.22492  0.44081  Biso   1.000  C
  H2833    1.0000 0.67431  0.27183  0.42290  Biso   1.000  H
  H2834    1.0000 0.63140  0.19309  0.42139  Biso   1.000  H
  C2220    1.0000 0.66731  0.23681  0.38290  Biso   1.000  C
  C2221    1.0000 0.00533  0.27882  0.52636  Biso   1.000  C
  C2222    1.0000 0.07883  0.39622  0.52366  Biso   1.000  C
  H2835    1.0000 0.07500  0.43919  0.49130  Biso   1.000  H
  H2836    1.0000 0.22899  0.38668  0.41730  Biso   1.000  H
  H2837    1.0000 0.24640  0.43499  0.44069  Biso   1.000  H
  H2838    1.0000 0.27583  0.46392  0.41371  Biso   1.000  H
  H2839    1.0000 0.96320  0.62289  0.46950  Biso   1.000  H
  H2840    1.0000 0.93904  0.57673  0.44530  Biso   1.000  H
  H2841    1.0000 0.01123  0.60290  0.45600  Biso   1.000  H
  H2842    1.0000 0.76630  0.46792  0.71341  Biso   1.000  H
  H2843    1.0000 0.82740  0.46292  0.72360  Biso   1.000  H
  H2844    1.0000 0.76942  0.40242  0.70911  Biso   1.000  H
  H2845    1.0000 0.91082  0.48560  0.56531  Biso   1.000  H
  H2846    1.0000 0.92030  0.48110  0.53589  Biso   1.000  H
  H2847    1.0000 0.86251  0.42030  0.55030  Biso   1.000  H
  C2223    1.0000 0.80860  0.23451  0.61487  Biso   1.000  C
  H2848    1.0000 0.87671  0.41911  0.61401  Biso   1.000  H
  C2224    1.0000 0.89912  0.34642  0.61399  Biso   1.000  C
  H2849    1.0000 0.61659  0.14608  0.63730  Biso   1.000  H
  H2850    1.0000 0.68572  0.15013  0.64030  Biso   1.000  H
  C2225    1.0000 0.67522  0.21332  0.66379  Biso   1.000  C
  H2851    1.0000 0.62014  0.15103  0.59019  Biso   1.000  H
  H2852    1.0000 0.68468  0.14538  0.59210  Biso   1.000  H
  C2226    1.0000 0.69332  0.21422  0.56535  Biso   1.000  C
  H2853    1.0000 0.53210  0.29840  0.71341  Biso   1.000  H
  H2854    1.0000 0.53712  0.36450  0.72360  Biso   1.000  H
  H2855    1.0000 0.59760  0.36700  0.70911  Biso   1.000  H
  H2856    1.0000 0.51442  0.42520  0.56531  Biso   1.000  H
  H2857    1.0000 0.51891  0.43919  0.53589  Biso   1.000  H
  H2858    1.0000 0.57968  0.44219  0.55030  Biso   1.000  H
  H2859    1.0000 0.96802  0.16691  0.49929  Biso   1.000  H
  H2860    1.0000 0.91170  0.13049  0.47921  Biso   1.000  H
  C2227    1.0000 0.99820  0.18330  0.46489  Biso   1.000  C
  H2861    1.0000 0.86612  0.17700  0.52039  Biso   1.000  H
  H2862    1.0000 0.82431  0.15752  0.49511  Biso   1.000  H
  C2228    1.0000 0.83691  0.24969  0.51070  Biso   1.000  C
  H2863    1.0000 0.96283  0.31409  0.34079  Biso   1.000  H
  H2864    1.0000 0.01503  0.30350  0.32550  Biso   1.000  H
  H2865    1.0000 0.02891  0.32668  0.35410  Biso   1.000  H
  H2866    1.0000 0.99512  0.16252  0.35641  Biso   1.000  H
  H2867    1.0000 0.04582  0.23641  0.36430  Biso   1.000  H
  H2868    1.0000 0.03434  0.21622  0.33531  Biso   1.000  H
  H2869    1.0000 0.66251  0.25159  0.45381  Biso   1.000  H
  H2870    1.0000 0.60821  0.17890  0.44601  Biso   1.000  H
  H2871    1.0000 0.59962  0.23960  0.43809  Biso   1.000  H
  H2872    1.0000 0.62831  0.23900  0.37810  Biso   1.000  H
  H2873    1.0000 0.66521  0.19789  0.37529  Biso   1.000  H
  H2874    1.0000 0.70652  0.27602  0.37690  Biso   1.000  H
  H2875    1.0000 0.98912  0.23860  0.53511  Biso   1.000  H
  C2229    1.0000 0.05363  0.33682  0.53736  Biso   1.000  C
  H2876    1.0000 0.11192  0.43549  0.53100  Biso   1.000  H
  C2230    1.0000 0.87577  0.27722  0.61469  Biso   1.000  C
  H2877    1.0000 0.79143  0.18850  0.61559  Biso   1.000  H
  H2878    1.0000 0.94510  0.37539  0.61351  Biso   1.000  H
  H2879    1.0000 0.72280  0.24160  0.66639  Biso   1.000  H
  H2880    1.0000 0.65581  0.24200  0.66249  Biso   1.000  H
  C2231    1.0000 0.64659  0.17001  0.68600  Biso   1.000  C
  H2881    1.0000 0.74150  0.23531  0.56420  Biso   1.000  H
  H2882    1.0000 0.68113  0.24860  0.56401  Biso   1.000  H
  C2232    1.0000 0.65981  0.16192  0.54369  Biso   1.000  C
  H2883    1.0000 0.98691  0.19439  0.44849  Biso   1.000  H
  C2233    1.0000 0.99352  0.11511  0.46439  Biso   1.000  C
  H2884    1.0000 0.04231  0.21822  0.46999  Biso   1.000  H
  H2885    1.0000 0.87423  0.28781  0.51881  Biso   1.000  H
  H2886    1.0000 0.82882  0.26508  0.49459  Biso   1.000  H
  C2234    1.0000 0.78372  0.23061  0.52530  Biso   1.000  C
  C2235    1.0000 0.07733  0.33742  0.56378  Biso   1.000  C
  C2236    1.0000 0.92280  0.25109  0.61540  Biso   1.000  C
  H2887    1.0000 0.59930  0.14048  0.68300  Biso   1.000  H
  H2888    1.0000 0.66709  0.14238  0.68761  Biso   1.000  H
  C2237    1.0000 0.65479  0.20458  0.71006  Biso   1.000  C
  H2889    1.0000 0.68201  0.13579  0.54220  Biso   1.000  H
  H2890    1.0000 0.66502  0.18480  0.52760  Biso   1.000  H
  C2238    1.0000 0.58003  0.11191  0.54941  Biso   1.000  C
  H2891    1.0000 0.94709  0.07978  0.46380  Biso   1.000  H
  H2892    1.0000 0.01392  0.10891  0.47961  Biso   1.000  H
  C2239    1.0000 0.03113  0.11331  0.44001  Biso   1.000  C
  H2893    1.0000 0.79132  0.21882  0.54220  Biso   1.000  H
  H2894    1.0000 0.74512  0.19219  0.51791  Biso   1.000  H
  C2240    1.0000 0.77164  0.29601  0.52660  Biso   1.000  C
  N95      1.0000 0.05884  0.28382  0.57656  Biso   1.000  N
  H2895    1.0000 0.10663  0.37819  0.57131  Biso   1.000  H
  N96      1.0000 0.98367  0.28906  0.62003  Biso   1.000  N
  H2896    1.0000 0.90691  0.20598  0.61240  Biso   1.000  H
  H2897    1.0000 0.70163  0.23371  0.71341  Biso   1.000  H
  H2898    1.0000 0.63552  0.17261  0.72360  Biso   1.000  H
  H2899    1.0000 0.63302  0.23061  0.70911  Biso   1.000  H
  H2900    1.0000 0.57481  0.08918  0.56531  Biso   1.000  H
  H2901    1.0000 0.56080  0.07968  0.53589  Biso   1.000  H
  H2902    1.0000 0.55782  0.13749  0.55030  Biso   1.000  H
  H2903    1.0000 0.00614  0.11161  0.42510  Biso   1.000  H
  H2904    1.0000 0.03612  0.07449  0.44050  Biso   1.000  H
  H2905    1.0000 0.07451  0.15282  0.43939  Biso   1.000  H
  H2906    1.0000 0.81203  0.33482  0.53230  Biso   1.000  H
  H2907    1.0000 0.73633  0.28691  0.53830  Biso   1.000  H
  H2908    1.0000 0.76022  0.30450  0.50990  Biso   1.000  H
  C2241    1.0000 0.08303  0.29101  0.60330  Biso   1.000  C
  C2242    1.0000 0.02451  0.25764  0.62140  Biso   1.000  C
  H2909    1.0000 0.11064  0.33852  0.60760  Biso   1.000  H
  C2243    1.0000 0.12553  0.25669  0.60491  Biso   1.000  C
  H2910    1.0000 0.99702  0.21063  0.61639  Biso   1.000  H
  C2244    1.0000 0.04891  0.26059  0.64835  Biso   1.000  C
  C2245    1.0000 0.14983  0.26029  0.63291  Biso   1.000  C
  H2911    1.0000 0.16373  0.27892  0.59359  Biso   1.000  H
  H2912    1.0000 0.09903  0.21043  0.59959  Biso   1.000  H
  H2913    1.0000 0.07453  0.30690  0.65361  Biso   1.000  H
  H2914    1.0000 0.01051  0.23830  0.65961  Biso   1.000  H
  C2246    1.0000 0.09113  0.22881  0.65133  Biso   1.000  C
  H2915    1.0000 0.17501  0.23711  0.63409  Biso   1.000  H
  H2916    1.0000 0.17922  0.30660  0.63761  Biso   1.000  H
  H2917    1.0000 0.06452  0.18130  0.64789  Biso   1.000  H
  H2918    1.0000 0.10753  0.23461  0.66871  Biso   1.000  H
  C2247    1.0000 0.89669  0.76487  0.65980  Biso   1.000  C
  C2248    1.0000 0.84132  0.70692  0.67432  Biso   1.000  C
  C2249    1.0000 0.95911  0.80109  0.67654  Biso   1.000  C
  H2919    1.0000 0.88198  0.79585  0.65473  Biso   1.000  H
  H2920    1.0000 0.90716  0.74843  0.64443  Biso   1.000  H
  C2250    1.0000 0.86529  0.65916  0.68390  Biso   1.000  C
  H2921    1.0000 0.80284  0.68274  0.66324  Biso   1.000  H
  H2922    1.0000 0.82785  0.72375  0.68874  Biso   1.000  H
  C2251    1.0000 0.98196  0.75343  0.68568  Biso   1.000  C
  H2923    1.0000 0.99469  0.83696  0.66683  Biso   1.000  H
  H2924    1.0000 0.94935  0.82053  0.69112  Biso   1.000  H
  C2252    1.0000 0.92592  0.69553  0.70037  Biso   1.000  C
  H2925    1.0000 0.82985  0.62314  0.69363  Biso   1.000  H
  H2926    1.0000 0.87557  0.63982  0.66934  Biso   1.000  H
  N97      1.0000 0.04004  0.78790  0.70198  Biso   1.000  N
  H2927    1.0000 0.99366  0.73565  0.67083  Biso   1.000  H
  N98      1.0000 0.94867  0.65042  0.70909  Biso   1.000  N
  H2928    1.0000 0.91446  0.71336  0.71534  Biso   1.000  H
  C2253    1.0000 0.09191  0.78331  0.69690  Biso   1.000  C
  C2254    1.0000 0.94015  0.63563  0.73243  Biso   1.000  C
  C2255    1.0000 0.15284  0.81673  0.71098  Biso   1.000  C
  H2929    1.0000 0.08964  0.75653  0.68323  Biso   1.000  H
  C2256    1.0000 0.96176  0.59016  0.74431  Biso   1.000  C
  H2930    1.0000 0.91998  0.65336  0.74263  Biso   1.000  H
  C2257    1.0000 0.21138  0.81933  0.70122  Biso   1.000  C
  C2258    1.0000 0.15547  0.84595  0.73346  Biso   1.000  C
  C2259    1.0000 0.99836  0.56878  0.73237  Biso   1.000  C
  C2260    1.0000 0.93964  0.56893  0.76927  Biso   1.000  C
  C2261    1.0000 0.27106  0.85155  0.71431  Biso   1.000  C
  H2931    1.0000 0.20936  0.79894  0.68564  Biso   1.000  H
  C2262    1.0000 0.21734  0.87963  0.74707  Biso   1.000  C
  H2932    1.0000 0.11737  0.84436  0.74013  Biso   1.000  H
  C2263    1.0000 0.01327  0.52272  0.74447  Biso   1.000  C
  H2933    1.0000 0.01424  0.58402  0.71603  Biso   1.000  H
  C2264    1.0000 0.95617  0.52637  0.78197  Biso   1.000  C
  H2934    1.0000 0.91357  0.58352  0.77753  Biso   1.000  H
  C2265    1.0000 0.27378  0.88417  0.73688  Biso   1.000  C
  H2935    1.0000 0.30868  0.85135  0.70813  Biso   1.000  H
  C2266    1.0000 0.22877  0.91435  0.77272  Biso   1.000  C
  C2267    1.0000 0.05979  0.50014  0.73363  Biso   1.000  C
  C2268    1.0000 0.99345  0.50324  0.76949  Biso   1.000  C
  H2936    1.0000 0.94217  0.51333  0.79873  Biso   1.000  H
  C2269    1.0000 0.33106  0.92354  0.75576  Biso   1.000  C
  C2270    1.0000 0.30227  0.93863  0.77579  Biso   1.000  C
  C2271    1.0000 0.21217  0.97225  0.77004  Biso   1.000  C
  C2272    1.0000 0.18135  0.86224  0.79150  Biso   1.000  C
  C2273    1.0000 0.05327  0.45093  0.75519  Biso   1.000  C
  C2274    1.0000 0.03026  0.46332  0.70792  Biso   1.000  C
  C2275    1.0000 0.12915  0.55814  0.73038  Biso   1.000  C
  C2276    1.0000 0.01326  0.45243  0.77635  Biso   1.000  C
  C2277    1.0000 0.39767  0.94677  0.75519  Biso   1.000  C
  C2278    1.0000 0.33897  0.97475  0.79706  Biso   1.000  C
  H2937    1.0000 0.22445  0.99743  0.78583  Biso   1.000  H
  H2938    1.0000 0.16419  0.95227  0.76813  Biso   1.000  H
  C2279    1.0000 0.24777  0.02391  0.74674  Biso   1.000  C
  H2939    1.0000 0.18637  0.88302  0.80813  Biso   1.000  H
  H2940    1.0000 0.13576  0.84565  0.78583  Biso   1.000  H
  C2280    1.0000 0.19315  0.80694  0.79403  Biso   1.000  C
  C2281    1.0000 0.07649  0.40756  0.75576  Biso   1.000  C
  H2941    1.0000 0.03265  0.49544  0.69542  Biso   1.000  H
  H2942    1.0000 0.05756  0.44523  0.70173  Biso   1.000  H
  C2282    1.0000 0.95929  0.40766  0.70987  Biso   1.000  C
  H2943    1.0000 0.15737  0.54086  0.72444  Biso   1.000  H
  H2944    1.0000 0.12809  0.58647  0.71693  Biso   1.000  H
  C2283    1.0000 0.16138  0.60026  0.75263  Biso   1.000  C
  C2284    1.0000 0.00100  0.41146  0.79733  Biso   1.000  C
  C2285    1.0000 0.44035  0.94023  0.73363  Biso   1.000  C
  C2286    1.0000 0.43916  0.98674  0.77635  Biso   1.000  C
  C2287    1.0000 0.41047  0.99903  0.79733  Biso   1.000  C
  C2288    1.0000 0.32737  0.99913  0.82147  Biso   1.000  C
  H2945    1.0000 0.29577  0.04279  0.74733  Biso   1.000  H
  H2946    1.0000 0.23139  0.00178  0.73044  Biso   1.000  H
  C2289    1.0000 0.22966  0.07671  0.75053  Biso   1.000  C
  C2290    1.0000 0.14018  0.74624  0.81104  Biso   1.000  C
  H2947    1.0000 0.23718  0.82342  0.80144  Biso   1.000  H
  H2948    1.0000 0.19377  0.79025  0.77713  Biso   1.000  H
  C2291    1.0000 0.11585  0.38963  0.73688  Biso   1.000  C
  C2292    1.0000 0.06137  0.36365  0.77579  Biso   1.000  C
  C2293    1.0000 0.93206  0.37404  0.68407  Biso   1.000  C
  H2949    1.0000 0.93165  0.42515  0.71633  Biso   1.000  H
  H2950    1.0000 0.95667  0.37464  0.72193  Biso   1.000  H
  C2294    1.0000 0.22836  0.66276  0.74814  Biso   1.000  C
  H2951    1.0000 0.16747  0.57343  0.76543  Biso   1.000  H
  H2952    1.0000 0.13117  0.61375  0.75974  Biso   1.000  H
  C2295    1.0000 0.02529  0.36425  0.79706  Biso   1.000  C
  C2296    1.0000 0.96305  0.40662  0.82145  Biso   1.000  C
  C2297    1.0000 0.50946  0.98674  0.74447  Biso   1.000  C
  C2298    1.0000 0.43309  0.96975  0.70792  Biso   1.000  C
  C2299    1.0000 0.42897  0.87083  0.73038  Biso   1.000  C
  C2300    1.0000 0.50975  0.00652  0.76949  Biso   1.000  C
  C2301    1.0000 0.44360  0.03690  0.82145  Biso   1.000  C
  C2302    1.0000 0.26805  0.99133  0.83332  Biso   1.000  C
  C2303    1.0000 0.38689  0.03320  0.83495  Biso   1.000  C
  H2953    1.0000 0.20707  0.07022  0.73434  Biso   1.000  H
  H2954    1.0000 0.19333  0.05149  0.76243  Biso   1.000  H
  C2304    1.0000 0.23653  0.14091  0.75603  Biso   1.000  C
  H2955    1.0000 0.15679  0.71656  0.81553  Biso   1.000  H
  H2956    1.0000 0.12996  0.76232  0.82654  Biso   1.000  H
  C2305    1.0000 0.07876  0.71107  0.79383  Biso   1.000  C
  C2306    1.0000 0.14847  0.41956  0.71431  Biso   1.000  C
  C2307    1.0000 0.12036  0.33772  0.74707  Biso   1.000  C
  C2308    1.0000 0.08566  0.31444  0.77272  Biso   1.000  C
  H2957    1.0000 0.93597  0.40756  0.67194  Biso   1.000  H
  H2958    1.0000 0.95936  0.35596  0.67784  Biso   1.000  H
  C2309    1.0000 0.86187  0.32004  0.68510  Biso   1.000  C
  H2959    1.0000 0.93738  0.40727  0.67153  Biso   1.000  H
  H2960    1.0000 0.88487  0.34162  0.68552  Biso   1.000  H
  C2310    1.0000 0.97164  0.33882  0.67524  Biso   1.000  C
  H2961    1.0000 0.22257  0.69183  0.73644  Biso   1.000  H
  H2962    1.0000 0.25878  0.65047  0.74034  Biso   1.000  H
  C2311    1.0000 0.26015  0.70192  0.77413  Biso   1.000  C
  H2963    1.0000 0.26420  0.65906  0.75624  Biso   1.000  H
  H2964    1.0000 0.22835  0.70192  0.75473  Biso   1.000  H
  C2312    1.0000 0.23615  0.66605  0.71624  Biso   1.000  C
  C2313    1.0000 0.00087  0.32823  0.82147  Biso   1.000  C
  C2314    1.0000 0.96677  0.35366  0.83495  Biso   1.000  C
  C2315    1.0000 0.00119  0.47336  0.83772  Biso   1.000  C
  C2316    1.0000 0.88857  0.38234  0.81652  Biso   1.000  C
  C2317    1.0000 0.57040  0.00158  0.73237  Biso   1.000  C
  H2965    1.0000 0.46278  0.96735  0.69542  Biso   1.000  H
  H2966    1.0000 0.38767  0.94243  0.70173  Biso   1.000  H
  C2318    1.0000 0.44840  0.04069  0.70987  Biso   1.000  C
  H2967    1.0000 0.38347  0.84266  0.72444  Biso   1.000  H
  H2968    1.0000 0.45838  0.87193  0.71693  Biso   1.000  H
  C2319    1.0000 0.43889  0.83866  0.75263  Biso   1.000  C
  C2320    1.0000 0.57014  0.04379  0.78197  Biso   1.000  C
  C2321    1.0000 0.47216  0.99883  0.83772  Biso   1.000  C
  C2322    1.0000 0.49378  0.11139  0.81652  Biso   1.000  C
  H2969    1.0000 0.22749  0.96915  0.82462  Biso   1.000  H
  C2323    1.0000 0.27047  0.01591  0.85700  Biso   1.000  C
  C2324    1.0000 0.38785  0.05978  0.85970  Biso   1.000  C
  H2970    1.0000 0.28000  0.17558  0.75064  Biso   1.000  H
  H2971    1.0000 0.23164  0.14471  0.77403  Biso   1.000  H
  H2972    1.0000 0.20281  0.14521  0.74703  Biso   1.000  H
  H2973    1.0000 0.04378  0.67365  0.80284  Biso   1.000  H
  H2974    1.0000 0.08995  0.69563  0.77864  Biso   1.000  H
  H2975    1.0000 0.06376  0.74164  0.78932  Biso   1.000  H
  C2325    1.0000 0.18065  0.39203  0.70122  Biso   1.000  C
  H2976    1.0000 0.14866  0.45732  0.70813  Biso   1.000  H
  C2326    1.0000 0.15408  0.30955  0.73346  Biso   1.000  C
  C2327    1.0000 0.02778  0.23995  0.77004  Biso   1.000  C
  C2328    1.0000 0.13776  0.31914  0.79150  Biso   1.000  C
  H2977    1.0000 0.83406  0.33822  0.68973  Biso   1.000  H
  H2978    1.0000 0.85725  0.28751  0.69764  Biso   1.000  H
  H2979    1.0000 0.84857  0.29905  0.66863  Biso   1.000  H
  H2980    1.0000 0.01796  0.37055  0.67413  Biso   1.000  H
  H2981    1.0000 0.95517  0.31834  0.65882  Biso   1.000  H
  H2982    1.0000 0.96445  0.30445  0.68744  Biso   1.000  H
  H2983    1.0000 0.25577  0.67085  0.78713  Biso   1.000  H
  H2984    1.0000 0.23737  0.72515  0.77933  Biso   1.000  H
  H2985    1.0000 0.30669  0.73375  0.77143  Biso   1.000  H
  H2986    1.0000 0.27738  0.70507  0.71144  Biso   1.000  H
  H2987    1.0000 0.19939  0.66815  0.70863  Biso   1.000  H
  H2988    1.0000 0.23614  0.62683  0.71024  Biso   1.000  H
  C2329    1.0000 0.00865  0.27672  0.83332  Biso   1.000  C
  C2330    1.0000 0.94016  0.32803  0.85970  Biso   1.000  C
  C2331    1.0000 0.07948  0.49644  0.84404  Biso   1.000  C
  H2989    1.0000 0.97759  0.46727  0.85373  Biso   1.000  H
  H2990    1.0000 0.99985  0.50903  0.82843  Biso   1.000  H
  H2991    1.0000 0.86558  0.36535  0.83263  Biso   1.000  H
  H2992    1.0000 0.88547  0.42165  0.81253  Biso   1.000  H
  C2332    1.0000 0.85177  0.33512  0.79823  Biso   1.000  C
  C2333    1.0000 0.62839  0.03820  0.74431  Biso   1.000  C
  H2993    1.0000 0.56975  0.98574  0.71603  Biso   1.000  H
  C2334    1.0000 0.44198  0.06792  0.68407  Biso   1.000  C
  H2994    1.0000 0.49345  0.06832  0.71633  Biso   1.000  H
  H2995    1.0000 0.41794  0.04329  0.72193  Biso   1.000  H
  C2335    1.0000 0.43438  0.77167  0.74814  Biso   1.000  C
  H2996    1.0000 0.40599  0.83257  0.76543  Biso   1.000  H
  H2997    1.0000 0.48257  0.86884  0.75974  Biso   1.000  H
  C2336    1.0000 0.62930  0.06028  0.76927  Biso   1.000  C
  H2998    1.0000 0.57120  0.05778  0.79873  Biso   1.000  H
  C2337    1.0000 0.41696  0.92054  0.84404  Biso   1.000  C
  H2999    1.0000 0.48970  0.02241  0.85373  Biso   1.000  H
  H3000    1.0000 0.50912  0.00008  0.82843  Biso   1.000  H
  H3001    1.0000 0.49980  0.13442  0.83263  Biso   1.000  H
  H3002    1.0000 0.53617  0.11448  0.81253  Biso   1.000  H
  C2338    1.0000 0.48333  0.14821  0.79823  Biso   1.000  C
  H3003    1.0000 0.23120  0.00972  0.86434  Biso   1.000  H
  C2339    1.0000 0.32987  0.05009  0.87069  Biso   1.000  C
  H3004    1.0000 0.42807  0.08381  0.86843  Biso   1.000  H
  C2340    1.0000 0.18329  0.33612  0.71098  Biso   1.000  C
  H3005    1.0000 0.20108  0.41046  0.68564  Biso   1.000  H
  H3006    1.0000 0.15568  0.27303  0.74013  Biso   1.000  H
  H3007    1.0000 0.00257  0.22701  0.78583  Biso   1.000  H
  H3008    1.0000 0.04777  0.21193  0.76813  Biso   1.000  H
  C2341    1.0000 0.97605  0.22382  0.74674  Biso   1.000  C
  H3009    1.0000 0.11698  0.30335  0.80813  Biso   1.000  H
  H3010    1.0000 0.15438  0.29016  0.78583  Biso   1.000  H
  C2342    1.0000 0.19307  0.38623  0.79403  Biso   1.000  C
  H3011    1.0000 0.03087  0.25834  0.82462  Biso   1.000  H
  C2343    1.0000 0.98406  0.25454  0.85700  Biso   1.000  C
  C2344    1.0000 0.94984  0.27972  0.87069  Biso   1.000  C
  H3012    1.0000 0.91615  0.34422  0.86843  Biso   1.000  H
  H3013    1.0000 0.08025  0.45912  0.85213  Biso   1.000  H
  H3014    1.0000 0.10296  0.50454  0.82793  Biso   1.000  H
  C2345    1.0000 0.11357  0.54965  0.85863  Biso   1.000  C
  H3015    1.0000 0.84258  0.29106  0.80333  Biso   1.000  H
  H3016    1.0000 0.87416  0.34642  0.78183  Biso   1.000  H
  C2346    1.0000 0.78826  0.33982  0.79773  Biso   1.000  C
  C2347    1.0000 0.69542  0.05978  0.73243  Biso   1.000  C
  H3017    1.0000 0.47157  0.06403  0.67194  Biso   1.000  H
  H3018    1.0000 0.39656  0.04059  0.67784  Biso   1.000  H
  C2348    1.0000 0.45821  0.13811  0.68510  Biso   1.000  C
  H3019    1.0000 0.46992  0.06263  0.67153  Biso   1.000  H
  H3020    1.0000 0.45678  0.11508  0.68552  Biso   1.000  H
  C2349    1.0000 0.36718  0.02830  0.67524  Biso   1.000  C
  H3021    1.0000 0.46929  0.77746  0.73644  Biso   1.000  H
  H3022    1.0000 0.39169  0.74124  0.74034  Biso   1.000  H
  C2350    1.0000 0.44179  0.73984  0.77413  Biso   1.000  C
  H3023    1.0000 0.39488  0.73584  0.75624  Biso   1.000  H
  H3024    1.0000 0.47358  0.77167  0.75473  Biso   1.000  H
  C2351    1.0000 0.42985  0.76382  0.71624  Biso   1.000  C
  H3025    1.0000 0.66997  0.08641  0.77753  Biso   1.000  H
  H3026    1.0000 0.37888  0.91974  0.85213  Biso   1.000  H
  H3027    1.0000 0.40159  0.89706  0.82793  Biso   1.000  H
  C2352    1.0000 0.43610  0.88647  0.85863  Biso   1.000  C
  H3028    1.0000 0.44847  0.15740  0.80333  Biso   1.000  H
  H3029    1.0000 0.47227  0.12582  0.78183  Biso   1.000  H
  C2353    1.0000 0.55160  0.21170  0.79773  Biso   1.000  C
  C2354    1.0000 0.32924  0.07322  0.89712  Biso   1.000  C
  C2355    1.0000 0.21671  0.30865  0.69690  Biso   1.000  C
  H3030    1.0000 0.95717  0.25294  0.74733  Biso   1.000  H
  H3031    1.0000 0.99818  0.22956  0.73044  Biso   1.000  H
  C2356    1.0000 0.92326  0.15292  0.75053  Biso   1.000  C
  C2357    1.0000 0.25377  0.39393  0.81104  Biso   1.000  C
  H3032    1.0000 0.17659  0.41376  0.80144  Biso   1.000  H
  H3033    1.0000 0.20976  0.40352  0.77713  Biso   1.000  H
  H3034    1.0000 0.99026  0.22142  0.86434  Biso   1.000  H
  C2358    1.0000 0.92675  0.25604  0.89712  Biso   1.000  C
  H3035    1.0000 0.09416  0.54205  0.87554  Biso   1.000  H
  H3036    1.0000 0.11376  0.58827  0.85123  Biso   1.000  H
  C2359    1.0000 0.19105  0.56174  0.85993  Biso   1.000  C
  H3037    1.0000 0.79936  0.38623  0.79714  Biso   1.000  H
  H3038    1.0000 0.76167  0.31944  0.81293  Biso   1.000  H
  C2360    1.0000 0.74888  0.30225  0.77333  Biso   1.000  C
  N99      1.0000 0.70180  0.05134  0.70909  Biso   1.000  N
  H3039    1.0000 0.73340  0.08001  0.74263  Biso   1.000  H
  H3040    1.0000 0.50416  0.16589  0.68973  Biso   1.000  H
  H3041    1.0000 0.43031  0.14271  0.69764  Biso   1.000  H
  H3042    1.0000 0.45049  0.15140  0.66863  Biso   1.000  H
  H3043    1.0000 0.35257  0.98204  0.67413  Biso   1.000  H
  H3044    1.0000 0.36318  0.04479  0.65882  Biso   1.000  H
  H3045    1.0000 0.33997  0.03550  0.68744  Biso   1.000  H
  H3046    1.0000 0.41508  0.74424  0.78713  Biso   1.000  H
  H3047    1.0000 0.48775  0.76262  0.77933  Biso   1.000  H
  H3048    1.0000 0.42705  0.69333  0.77143  Biso   1.000  H
  H3049    1.0000 0.42770  0.72266  0.71144  Biso   1.000  H
  H3050    1.0000 0.46877  0.80064  0.70863  Biso   1.000  H
  H3051    1.0000 0.39065  0.76382  0.71024  Biso   1.000  H
  H3052    1.0000 0.44787  0.90586  0.87554  Biso   1.000  H
  H3053    1.0000 0.47450  0.88627  0.85123  Biso   1.000  H
  C2361    1.0000 0.37068  0.80893  0.85993  Biso   1.000  C
  H3054    1.0000 0.58689  0.20061  0.79714  Biso   1.000  H
  H3055    1.0000 0.55775  0.23828  0.81293  Biso   1.000  H
  C2362    1.0000 0.55335  0.25112  0.77333  Biso   1.000  C
  N100     1.0000 0.38290  0.10829  0.90990  Biso   1.000  N
  H3056    1.0000 0.28842  0.06168  0.90463  Biso   1.000  H
  N101     1.0000 0.21208  0.25214  0.70198  Biso   1.000  N
  H3057    1.0000 0.24345  0.33313  0.68323  Biso   1.000  H
  H3058    1.0000 0.92975  0.13684  0.73434  Biso   1.000  H
  H3059    1.0000 0.94847  0.14183  0.76243  Biso   1.000  H
  C2363    1.0000 0.85904  0.09562  0.75603  Biso   1.000  C
  H3060    1.0000 0.28346  0.44024  0.81553  Biso   1.000  H
  H3061    1.0000 0.23769  0.36765  0.82654  Biso   1.000  H
  C2364    1.0000 0.28897  0.36775  0.79383  Biso   1.000  C
  N102     1.0000 0.89164  0.27452  0.90990  Biso   1.000  N
  H3062    1.0000 0.93826  0.22671  0.90463  Biso   1.000  H
  H3063    1.0000 0.18945  0.52132  0.86564  Biso   1.000  H
  H3064    1.0000 0.21728  0.59706  0.87164  Biso   1.000  H
  H3065    1.0000 0.21098  0.57313  0.84324  Biso   1.000  H
  H3066    1.0000 0.77215  0.32723  0.75844  Biso   1.000  H
  H3067    1.0000 0.70507  0.29726  0.77384  Biso   1.000  H
  H3068    1.0000 0.74496  0.25884  0.77273  Biso   1.000  H
  C2365    1.0000 0.76959  0.07407  0.70037  Biso   1.000  C
  H3069    1.0000 0.33184  0.81053  0.86564  Biso   1.000  H
  H3070    1.0000 0.37978  0.78276  0.87164  Biso   1.000  H
  H3071    1.0000 0.36216  0.78905  0.84324  Biso   1.000  H
  H3072    1.0000 0.55510  0.22779  0.75844  Biso   1.000  H
  H3073    1.0000 0.59215  0.29489  0.77384  Biso   1.000  H
  H3074    1.0000 0.51385  0.25502  0.77273  Biso   1.000  H
  C2366    1.0000 0.37567  0.12532  0.93664  Biso   1.000  C
  C2367    1.0000 0.24663  0.22856  0.68568  Biso   1.000  C
  H3075    1.0000 0.82436  0.10431  0.75064  Biso   1.000  H
  H3076    1.0000 0.85526  0.08693  0.77403  Biso   1.000  H
  H3077    1.0000 0.85476  0.05755  0.74703  Biso   1.000  H
  H3078    1.0000 0.32638  0.37015  0.80284  Biso   1.000  H
  H3079    1.0000 0.30438  0.39433  0.77864  Biso   1.000  H
  H3080    1.0000 0.25837  0.32214  0.78932  Biso   1.000  H
  C2368    1.0000 0.87466  0.25034  0.93664  Biso   1.000  C
  C2369    1.0000 0.77148  0.01806  0.68568  Biso   1.000  C
  H3081    1.0000 0.79889  0.08551  0.71534  Biso   1.000  H
  C2370    1.0000 0.79392  0.13467  0.68390  Biso   1.000  C
  C2371    1.0000 0.40905  0.10020  0.95474  Biso   1.000  C
  H3082    1.0000 0.32819  0.10539  0.94094  Biso   1.000  H
  C2372    1.0000 0.40995  0.20211  0.93825  Biso   1.000  C
  C2373    1.0000 0.19894  0.15802  0.67654  Biso   1.000  C
  C2374    1.0000 0.30449  0.23041  0.70037  Biso   1.000  C
  H3083    1.0000 0.26435  0.25804  0.67083  Biso   1.000  H
  C2375    1.0000 0.89980  0.30885  0.95474  Biso   1.000  C
  H3084    1.0000 0.89455  0.22272  0.94094  Biso   1.000  H
  C2376    1.0000 0.79785  0.20783  0.93825  Biso   1.000  C
  N103     1.0000 0.74788  0.95996  0.70198  Biso   1.000  N
  H3085    1.0000 0.74194  0.00632  0.67083  Biso   1.000  H
  C2377    1.0000 0.84195  0.04089  0.67654  Biso   1.000  C
  H3086    1.0000 0.79324  0.17009  0.69363  Biso   1.000  H
  H3087    1.0000 0.76426  0.12443  0.66934  Biso   1.000  H
  C2378    1.0000 0.86561  0.15865  0.67432  Biso   1.000  C
  N104     1.0000 0.37762  0.02790  0.95335  Biso   1.000  N
  C2379    1.0000 0.40610  0.12163  0.98169  Biso   1.000  C
  H3088    1.0000 0.45609  0.11968  0.94973  Biso   1.000  H
  C2380    1.0000 0.40636  0.22279  0.96623  Biso   1.000  C
  H3089    1.0000 0.38779  0.21810  0.92693  Biso   1.000  H
  H3090    1.0000 0.45627  0.22190  0.93293  Biso   1.000  H
  C2381    1.0000 0.23518  0.13184  0.65980  Biso   1.000  C
  H3091    1.0000 0.16306  0.15772  0.66683  Biso   1.000  H
  H3092    1.0000 0.17947  0.12884  0.69112  Biso   1.000  H
  C2382    1.0000 0.34085  0.20613  0.68390  Biso   1.000  C
  N105     1.0000 0.34958  0.29825  0.70909  Biso   1.000  N
  H3093    1.0000 0.28665  0.20113  0.71534  Biso   1.000  H
  N106     1.0000 0.97204  0.34966  0.95335  Biso   1.000  N
  C2383    1.0000 0.87837  0.28442  0.98169  Biso   1.000  C
  H3094    1.0000 0.88027  0.33632  0.94973  Biso   1.000  H
  C2384    1.0000 0.77719  0.18355  0.96623  Biso   1.000  C
  H3095    1.0000 0.78188  0.16966  0.92693  Biso   1.000  H
  H3096    1.0000 0.77806  0.23436  0.93293  Biso   1.000  H
  C2385    1.0000 0.69136  0.90810  0.69690  Biso   1.000  C
  H3097    1.0000 0.84225  0.00532  0.66683  Biso   1.000  H
  H3098    1.0000 0.87120  0.05059  0.69112  Biso   1.000  H
  C2386    1.0000 0.86818  0.10329  0.65980  Biso   1.000  C
  H3099    1.0000 0.87991  0.19712  0.66324  Biso   1.000  H
  H3100    1.0000 0.89591  0.17209  0.68874  Biso   1.000  H
  C2387    1.0000 0.41557  0.00497  0.94874  Biso   1.000  C
  H3101    1.0000 0.35978  0.10089  0.98693  Biso   1.000  H
  H3102    1.0000 0.42840  0.10549  0.99293  Biso   1.000  H
  C2388    1.0000 0.43790  0.19562  0.98467  Biso   1.000  C
  H3103    1.0000 0.42953  0.27120  0.96743  Biso   1.000  H
  H3104    1.0000 0.36006  0.20591  0.97093  Biso   1.000  H
  C2389    1.0000 0.29311  0.13444  0.67432  Biso   1.000  C
  H3105    1.0000 0.20419  0.08613  0.65473  Biso   1.000  H
  H3106    1.0000 0.25156  0.15872  0.64443  Biso   1.000  H
  H3107    1.0000 0.37689  0.20673  0.69363  Biso   1.000  H
  H3108    1.0000 0.36017  0.23576  0.66934  Biso   1.000  H
  C2390    1.0000 0.36436  0.30455  0.73243  Biso   1.000  C
  C2391    1.0000 0.99497  0.41056  0.94874  Biso   1.000  C
  H3109    1.0000 0.89907  0.25884  0.98693  Biso   1.000  H
  H3110    1.0000 0.89447  0.32283  0.99293  Biso   1.000  H
  C2392    1.0000 0.80438  0.24225  0.98467  Biso   1.000  C
  H3111    1.0000 0.72875  0.15832  0.96743  Biso   1.000  H
  H3112    1.0000 0.79406  0.15412  0.97093  Biso   1.000  H
  C2393    1.0000 0.66387  0.84715  0.71098  Biso   1.000  C
  H3113    1.0000 0.66687  0.91035  0.68323  Biso   1.000  H
  H3114    1.0000 0.91390  0.11798  0.65473  Biso   1.000  H
  H3115    1.0000 0.84130  0.09280  0.64443  Biso   1.000  H
  C2394    1.0000 0.38945  0.93188  0.94803  Biso   1.000  C
  H3116    1.0000 0.46068  0.03420  0.94574  Biso   1.000  H
  H3117    1.0000 0.48533  0.21650  0.98123  Biso   1.000  H
  H3118    1.0000 0.43203  0.20621  0.00203  Biso   1.000  H
  H3119    1.0000 0.31729  0.12015  0.66324  Biso   1.000  H
  H3120    1.0000 0.27626  0.10411  0.68874  Biso   1.000  H
  H3121    1.0000 0.34666  0.26663  0.74263  Biso   1.000  H
  C2395    1.0000 0.40983  0.37159  0.74431  Biso   1.000  C
  C2396    1.0000 0.06810  0.45757  0.94803  Biso   1.000  C
  H3122    1.0000 0.96579  0.42645  0.94574  Biso   1.000  H
  H3123    1.0000 0.78344  0.26883  0.98123  Biso   1.000  H
  H3124    1.0000 0.79374  0.22581  0.00203  Biso   1.000  H
  C2397    1.0000 0.60797  0.78865  0.70122  Biso   1.000  C
  C2398    1.0000 0.69048  0.84456  0.73346  Biso   1.000  C
  C2399    1.0000 0.32029  0.88607  0.94731  Biso   1.000  C
  C2400    1.0000 0.43218  0.90745  0.94821  Biso   1.000  C
  C2401    1.0000 0.43121  0.42960  0.73237  Biso   1.000  C
  C2402    1.0000 0.43108  0.37075  0.76927  Biso   1.000  C
  C2403    1.0000 0.09254  0.52472  0.94821  Biso   1.000  C
  C2404    1.0000 0.11398  0.43424  0.94731  Biso   1.000  C
  C2405    1.0000 0.58050  0.72895  0.71431  Biso   1.000  C
  H3125    1.0000 0.58959  0.79065  0.68564  Biso   1.000  H
  C2406    1.0000 0.66230  0.78266  0.74707  Biso   1.000  C
  H3126    1.0000 0.72695  0.88262  0.74013  Biso   1.000  H
  C2407    1.0000 0.29355  0.81953  0.94731  Biso   1.000  C
  H3127    1.0000 0.29127  0.90306  0.94683  Biso   1.000  H
  C2408    1.0000 0.40521  0.83656  0.94721  Biso   1.000  C
  H3128    1.0000 0.47815  0.93623  0.94893  Biso   1.000  H
  C2409    1.0000 0.47726  0.49055  0.74447  Biso   1.000  C
  H3129    1.0000 0.41596  0.43025  0.71603  Biso   1.000  H
  H3130    1.0000 0.41647  0.33003  0.77753  Biso   1.000  H
  C2410    1.0000 0.47370  0.42985  0.78197  Biso   1.000  C
  H3131    1.0000 0.06378  0.54195  0.94893  Biso   1.000  H
  C2411    1.0000 0.16350  0.56868  0.94721  Biso   1.000  C
  C2412    1.0000 0.18048  0.47406  0.94731  Biso   1.000  C
  H3132    1.0000 0.09698  0.38823  0.94683  Biso   1.000  H
  C2413    1.0000 0.61039  0.72625  0.73688  Biso   1.000  C
  H3133    1.0000 0.54265  0.69133  0.70813  Biso   1.000  H
  C2414    1.0000 0.68559  0.77127  0.77272  Biso   1.000  C
  C2415    1.0000 0.33795  0.79515  0.94717  Biso   1.000  C
  H3134    1.0000 0.24759  0.79095  0.94733  Biso   1.000  H
  C2416    1.0000 0.44699  0.80294  0.94750  Biso   1.000  C
  C2417    1.0000 0.49676  0.49025  0.76949  Biso   1.000  C
  C2418    1.0000 0.49987  0.55964  0.73363  Biso   1.000  C
  H3135    1.0000 0.48669  0.42885  0.79873  Biso   1.000  H
  C2419    1.0000 0.20488  0.54285  0.94717  Biso   1.000  C
  C2420    1.0000 0.19706  0.64402  0.94750  Biso   1.000  C
  H3136    1.0000 0.20906  0.45662  0.94733  Biso   1.000  H
  C2421    1.0000 0.59247  0.66895  0.75576  Biso   1.000  C
  C2422    1.0000 0.63636  0.69773  0.77579  Biso   1.000  C
  C2423    1.0000 0.76008  0.78785  0.77004  Biso   1.000  C
  C2424    1.0000 0.68085  0.81863  0.79150  Biso   1.000  C
  C2425    1.0000 0.32580  0.72316  0.94606  Biso   1.000  C
  C2426    1.0000 0.39066  0.73045  0.94677  Biso   1.000  C
  C2427    1.0000 0.48986  0.82068  0.97248  Biso   1.000  C
  C2428    1.0000 0.48990  0.82517  0.92397  Biso   1.000  C
  C2429    1.0000 0.54759  0.56084  0.77635  Biso   1.000  C
  C2430    1.0000 0.54909  0.60235  0.75519  Biso   1.000  C
  C2431    1.0000 0.53666  0.56693  0.70792  Biso   1.000  C
  C2432    1.0000 0.44188  0.57103  0.73038  Biso   1.000  C
  C2433    1.0000 0.27688  0.60265  0.94606  Biso   1.000  C
  C2434    1.0000 0.26960  0.66026  0.94677  Biso   1.000  C
  C2435    1.0000 0.17934  0.66925  0.97248  Biso   1.000  C
  C2436    1.0000 0.17489  0.66475  0.92397  Biso   1.000  C
  C2437    1.0000 0.63577  0.66106  0.79706  Biso   1.000  C
  H3137    1.0000 0.77298  0.77556  0.78583  Biso   1.000  H
  H3138    1.0000 0.78807  0.83586  0.76813  Biso   1.000  H
  C2438    1.0000 0.77619  0.75223  0.74674  Biso   1.000  C
  H3139    1.0000 0.69665  0.81363  0.80813  Biso   1.000  H
  H3140    1.0000 0.70989  0.86424  0.78583  Biso   1.000  H
  C2439    1.0000 0.61378  0.80684  0.79403  Biso   1.000  C
  C2440    1.0000 0.39739  0.67425  0.94606  Biso   1.000  C
  H3141    1.0000 0.52055  0.80384  0.97062  Biso   1.000  H
  H3142    1.0000 0.51659  0.86894  0.97362  Biso   1.000  H
  C2441    1.0000 0.45339  0.79525  0.99713  Biso   1.000  C
  H3143    1.0000 0.51566  0.80244  0.92353  Biso   1.000  H
  H3144    1.0000 0.52125  0.87263  0.92544  Biso   1.000  H
  C2442    1.0000 0.45247  0.81243  0.89869  Biso   1.000  C
  C2443    1.0000 0.58860  0.58957  0.79733  Biso   1.000  C
  H3145    1.0000 0.50460  0.53726  0.69542  Biso   1.000  H
  H3146    1.0000 0.55478  0.61235  0.70173  Biso   1.000  H
  C2444    1.0000 0.59240  0.55165  0.70987  Biso   1.000  C
  H3147    1.0000 0.45918  0.61654  0.72444  Biso   1.000  H
  H3148    1.0000 0.41356  0.54165  0.71693  Biso   1.000  H
  C2445    1.0000 0.39977  0.56114  0.75263  Biso   1.000  C
  C2446    1.0000 0.33976  0.60935  0.94677  Biso   1.000  C
  H3149    1.0000 0.19618  0.71676  0.97062  Biso   1.000  H
  H3150    1.0000 0.13109  0.64767  0.97362  Biso   1.000  H
  C2447    1.0000 0.20478  0.65816  0.99713  Biso   1.000  C
  H3151    1.0000 0.19759  0.71326  0.92353  Biso   1.000  H
  H3152    1.0000 0.12739  0.64867  0.92544  Biso   1.000  H
  C2448    1.0000 0.18758  0.64002  0.89869  Biso   1.000  C
  C2449    1.0000 0.67176  0.67265  0.82147  Biso   1.000  C
  H3153    1.0000 0.74708  0.70422  0.74733  Biso   1.000  H
  H3154    1.0000 0.77048  0.76867  0.73044  Biso   1.000  H
  C2450    1.0000 0.84709  0.77037  0.75053  Biso   1.000  C
  C2451    1.0000 0.60606  0.85984  0.81104  Biso   1.000  C
  H3155    1.0000 0.58627  0.76282  0.80144  Biso   1.000  H
  H3156    1.0000 0.59647  0.80624  0.77713  Biso   1.000  H
  C2452    1.0000 0.45719  0.66206  0.94717  Biso   1.000  C
  H3157    1.0000 0.42505  0.81453  0.99973  Biso   1.000  H
  H3158    1.0000 0.42466  0.74714  0.99583  Biso   1.000  H
  C2453    1.0000 0.49665  0.80993  0.01934  Biso   1.000  C
  H3159    1.0000 0.43138  0.83956  0.89754  Biso   1.000  H
  H3160    1.0000 0.41807  0.76587  0.89733  Biso   1.000  H
  C2454    1.0000 0.50480  0.83127  0.87703  Biso   1.000  C
  C2455    1.0000 0.59337  0.55644  0.82145  Biso   1.000  C
  C2456    1.0000 0.62597  0.55804  0.68407  Biso   1.000  C
  H3161    1.0000 0.57486  0.50653  0.71633  Biso   1.000  H
  H3162    1.0000 0.62537  0.58202  0.72193  Biso   1.000  H
  C2457    1.0000 0.33729  0.56563  0.74814  Biso   1.000  C
  H3163    1.0000 0.42657  0.59406  0.76543  Biso   1.000  H
  H3164    1.0000 0.38626  0.51742  0.75974  Biso   1.000  H
  C2458    1.0000 0.35596  0.55305  0.94750  Biso   1.000  C
  H3165    1.0000 0.18547  0.61055  0.99973  Biso   1.000  H
  H3166    1.0000 0.25289  0.67754  0.99583  Biso   1.000  H
  C2459    1.0000 0.19008  0.68674  0.01934  Biso   1.000  C
  H3167    1.0000 0.16047  0.59186  0.89754  Biso   1.000  H
  H3168    1.0000 0.23419  0.65226  0.89733  Biso   1.000  H
  C2460    1.0000 0.16877  0.67355  0.87703  Biso   1.000  C
  C2461    1.0000 0.64638  0.61315  0.83495  Biso   1.000  C
  C2462    1.0000 0.72326  0.73195  0.83332  Biso   1.000  C
  H3169    1.0000 0.86318  0.79295  0.73434  Biso   1.000  H
  H3170    1.0000 0.85817  0.80664  0.76243  Biso   1.000  H
  C2463    1.0000 0.90436  0.76342  0.75603  Biso   1.000  C
  H3171    1.0000 0.55978  0.84326  0.81553  Biso   1.000  H
  H3172    1.0000 0.63235  0.87003  0.82654  Biso   1.000  H
  C2464    1.0000 0.63226  0.92124  0.79383  Biso   1.000  C
  C2465    1.0000 0.43136  0.59481  0.94721  Biso   1.000  C
  C2466    1.0000 0.52599  0.70647  0.94731  Biso   1.000  C
  H3173    1.0000 0.52617  0.79215  0.01634  Biso   1.000  H
  H3174    1.0000 0.52429  0.85804  0.02093  Biso   1.000  H
  C2467    1.0000 0.46208  0.78356  0.04339  Biso   1.000  C
  H3175    1.0000 0.53088  0.87953  0.87554  Biso   1.000  H
  H3176    1.0000 0.48187  0.81353  0.86094  Biso   1.000  H
  C2468    1.0000 0.55479  0.80144  0.88273  Biso   1.000  C
  C2469    1.0000 0.61767  0.50623  0.81652  Biso   1.000  C
  C2470    1.0000 0.52669  0.52787  0.83772  Biso   1.000  C
  H3177    1.0000 0.59249  0.52847  0.67194  Biso   1.000  H
  H3178    1.0000 0.64409  0.60345  0.67784  Biso   1.000  H
  C2471    1.0000 0.68000  0.54185  0.68510  Biso   1.000  C
  H3179    1.0000 0.59278  0.53016  0.67153  Biso   1.000  H
  H3180    1.0000 0.65838  0.54325  0.68552  Biso   1.000  H
  C2472    1.0000 0.66116  0.63283  0.67524  Biso   1.000  C
  H3181    1.0000 0.30817  0.53076  0.73644  Biso   1.000  H
  H3182    1.0000 0.34956  0.60835  0.74034  Biso   1.000  H
  C2473    1.0000 0.29807  0.55824  0.77413  Biso   1.000  C
  H3183    1.0000 0.34100  0.60515  0.75624  Biso   1.000  H
  H3184    1.0000 0.29811  0.52647  0.75473  Biso   1.000  H
  C2474    1.0000 0.33396  0.57013  0.71624  Biso   1.000  C
  C2475    1.0000 0.33078  0.51013  0.97248  Biso   1.000  C
  C2476    1.0000 0.33528  0.51013  0.92397  Biso   1.000  C
  H3185    1.0000 0.20789  0.73405  0.01634  Biso   1.000  H
  H3186    1.0000 0.14198  0.66625  0.02093  Biso   1.000  H
  C2477    1.0000 0.21648  0.67854  0.04339  Biso   1.000  C
  H3187    1.0000 0.12047  0.65136  0.87554  Biso   1.000  H
  H3188    1.0000 0.18647  0.66835  0.86094  Biso   1.000  H
  C2478    1.0000 0.19858  0.75333  0.88273  Biso   1.000  C
  C2479    1.0000 0.67197  0.61215  0.85970  Biso   1.000  C
  C2480    1.0000 0.74547  0.72955  0.85700  Biso   1.000  C
  H3189    1.0000 0.74171  0.77256  0.82462  Biso   1.000  H
  H3190    1.0000 0.89570  0.72006  0.75064  Biso   1.000  H
  H3191    1.0000 0.91311  0.76837  0.77403  Biso   1.000  H
  H3192    1.0000 0.94247  0.79724  0.74703  Biso   1.000  H
  H3193    1.0000 0.62986  0.95626  0.80284  Biso   1.000  H
  H3194    1.0000 0.60568  0.91005  0.77864  Biso   1.000  H
  H3195    1.0000 0.67787  0.93623  0.78932  Biso   1.000  H
  C2481    1.0000 0.47528  0.56783  0.94821  Biso   1.000  C
  C2482    1.0000 0.56576  0.67974  0.94731  Biso   1.000  C
  H3196    1.0000 0.54335  0.75243  0.94733  Biso   1.000  H
  H3197    1.0000 0.43298  0.80124  0.04673  Biso   1.000  H
  H3198    1.0000 0.49409  0.79625  0.05694  Biso   1.000  H
  H3199    1.0000 0.43606  0.73575  0.04243  Biso   1.000  H
  H3200    1.0000 0.57746  0.81893  0.89863  Biso   1.000  H
  H3201    1.0000 0.58698  0.81443  0.86923  Biso   1.000  H
  H3202    1.0000 0.52915  0.75363  0.88362  Biso   1.000  H
  H3203    1.0000 0.63466  0.50024  0.83263  Biso   1.000  H
  H3204    1.0000 0.57838  0.46382  0.81253  Biso   1.000  H
  C2483    1.0000 0.66488  0.51663  0.79823  Biso   1.000  C
  H3205    1.0000 0.53276  0.51033  0.85373  Biso   1.000  H
  H3206    1.0000 0.49096  0.49085  0.82843  Biso   1.000  H
  C2484    1.0000 0.50356  0.58302  0.84404  Biso   1.000  C
  H3207    1.0000 0.66176  0.49584  0.68973  Biso   1.000  H
  H3208    1.0000 0.71246  0.56973  0.69764  Biso   1.000  H
  H3209    1.0000 0.70098  0.54955  0.66863  Biso   1.000  H
  H3210    1.0000 0.68167  0.63683  0.65882  Biso   1.000  H
  H3211    1.0000 0.69558  0.66006  0.68744  Biso   1.000  H
  H3212    1.0000 0.62949  0.64747  0.67413  Biso   1.000  H
  H3213    1.0000 0.32915  0.58492  0.78713  Biso   1.000  H
  H3214    1.0000 0.27485  0.51223  0.77933  Biso   1.000  H
  H3215    1.0000 0.26626  0.57293  0.77143  Biso   1.000  H
  H3216    1.0000 0.29495  0.57233  0.71144  Biso   1.000  H
  H3217    1.0000 0.33187  0.53126  0.70863  Biso   1.000  H
  H3218    1.0000 0.37316  0.60935  0.71024  Biso   1.000  H
  H3219    1.0000 0.28330  0.47946  0.97062  Biso   1.000  H
  H3220    1.0000 0.35236  0.48345  0.97362  Biso   1.000  H
  C2485    1.0000 0.34186  0.54665  0.99713  Biso   1.000  C
  H3221    1.0000 0.28678  0.48435  0.92353  Biso   1.000  H
  H3222    1.0000 0.35139  0.47876  0.92544  Biso   1.000  H
  C2486    1.0000 0.35996  0.54755  0.89869  Biso   1.000  C
  H3223    1.0000 0.19875  0.63173  0.04673  Biso   1.000  H
  H3224    1.0000 0.20376  0.69783  0.05694  Biso   1.000  H
  H3225    1.0000 0.26428  0.70032  0.04243  Biso   1.000  H
  H3226    1.0000 0.18106  0.75853  0.89863  Biso   1.000  H
  H3227    1.0000 0.18557  0.77256  0.86923  Biso   1.000  H
  H3228    1.0000 0.24639  0.77556  0.88362  Biso   1.000  H
  C2487    1.0000 0.72027  0.67015  0.87069  Biso   1.000  C
  H3229    1.0000 0.65576  0.57193  0.86843  Biso   1.000  H
  H3230    1.0000 0.77858  0.76887  0.86434  Biso   1.000  H
  C2488    1.0000 0.54241  0.61055  0.94803  Biso   1.000  C
  H3231    1.0000 0.45807  0.52182  0.94893  Biso   1.000  H
  H3232    1.0000 0.61177  0.70877  0.94683  Biso   1.000  H
  H3233    1.0000 0.70899  0.55155  0.80333  Biso   1.000  H
  H3234    1.0000 0.65358  0.52777  0.78183  Biso   1.000  H
  C2489    1.0000 0.66016  0.44843  0.79773  Biso   1.000  C
  H3235    1.0000 0.54087  0.62114  0.85213  Biso   1.000  H
  H3236    1.0000 0.49548  0.59846  0.82793  Biso   1.000  H
  C2490    1.0000 0.45036  0.56394  0.85863  Biso   1.000  C
  H3237    1.0000 0.38948  0.57493  0.99973  Biso   1.000  H
  H3238    1.0000 0.32245  0.57533  0.99583  Biso   1.000  H
  C2491    1.0000 0.31328  0.50334  0.01934  Biso   1.000  C
  H3239    1.0000 0.40819  0.56863  0.89754  Biso   1.000  H
  H3240    1.0000 0.34777  0.58192  0.89733  Biso   1.000  H
  C2492    1.0000 0.32645  0.49524  0.87703  Biso   1.000  C
  C2493    1.0000 0.74398  0.67075  0.89712  Biso   1.000  C
  C2494    1.0000 0.58945  0.58442  0.94874  Biso   1.000  C
  H3241    1.0000 0.61380  0.41316  0.79714  Biso   1.000  H
  H3242    1.0000 0.68056  0.44224  0.81293  Biso   1.000  H
  C2495    1.0000 0.69777  0.44663  0.77333  Biso   1.000  C
  H3243    1.0000 0.45796  0.55215  0.87554  Biso   1.000  H
  H3244    1.0000 0.41177  0.52552  0.85123  Biso   1.000  H
  C2496    1.0000 0.43828  0.62933  0.85993  Biso   1.000  C
  H3245    1.0000 0.26596  0.47386  0.01634  Biso   1.000  H
  H3246    1.0000 0.33380  0.47576  0.02093  Biso   1.000  H
  C2497    1.0000 0.32146  0.53796  0.04339  Biso   1.000  C
  H3247    1.0000 0.34867  0.46916  0.87554  Biso   1.000  H
  H3248    1.0000 0.33166  0.51812  0.86094  Biso   1.000  H
  C2498    1.0000 0.24667  0.44523  0.88273  Biso   1.000  C
  N107     1.0000 0.72548  0.61714  0.90990  Biso   1.000  N
  H3249    1.0000 0.77330  0.71156  0.90463  Biso   1.000  H
  N108     1.0000 0.65038  0.62244  0.95335  Biso   1.000  N
  H3250    1.0000 0.57358  0.53936  0.94574  Biso   1.000  H
  H3251    1.0000 0.67278  0.44493  0.75844  Biso   1.000  H
  H3252    1.0000 0.70279  0.40786  0.77384  Biso   1.000  H
  H3253    1.0000 0.74119  0.48615  0.77273  Biso   1.000  H
  H3254    1.0000 0.47867  0.66815  0.86564  Biso   1.000  H
  H3255    1.0000 0.40297  0.62024  0.87164  Biso   1.000  H
  H3256    1.0000 0.42686  0.63783  0.84324  Biso   1.000  H
  H3257    1.0000 0.36827  0.56703  0.04673  Biso   1.000  H
  H3258    1.0000 0.30216  0.50593  0.05694  Biso   1.000  H
  H3259    1.0000 0.29966  0.56394  0.04243  Biso   1.000  H
  H3260    1.0000 0.24148  0.42255  0.89863  Biso   1.000  H
  H3261    1.0000 0.22747  0.41306  0.86923  Biso   1.000  H
  H3262    1.0000 0.22449  0.47086  0.88362  Biso   1.000  H
  C2499    1.0000 0.74967  0.62434  0.93664  Biso   1.000  C
  C2500    1.0000 0.69119  0.59096  0.95474  Biso   1.000  C
  H3263    1.0000 0.77728  0.67185  0.94094  Biso   1.000  H
  C2501    1.0000 0.79220  0.59006  0.93825  Biso   1.000  C
  C2502    1.0000 0.71558  0.59396  0.98169  Biso   1.000  C
  H3264    1.0000 0.66370  0.54395  0.94973  Biso   1.000  H
  C2503    1.0000 0.81650  0.59366  0.96623  Biso   1.000  C
  H3265    1.0000 0.83037  0.61225  0.92693  Biso   1.000  H
  H3266    1.0000 0.76567  0.54375  0.93293  Biso   1.000  H
  H3267    1.0000 0.74117  0.64022  0.98693  Biso   1.000  H
  H3268    1.0000 0.67715  0.57163  0.99293  Biso   1.000  H
  C2504    1.0000 0.75777  0.56214  0.98467  Biso   1.000  C
  H3269    1.0000 0.84166  0.57043  0.96743  Biso   1.000  H
  H3270    1.0000 0.84586  0.63992  0.97093  Biso   1.000  H
  H3271    1.0000 0.73116  0.51463  0.98123  Biso   1.000  H
  H3272    1.0000 0.77417  0.56793  0.00203  Biso   1.000  H
