data_image0
_cell_length_a       23.207
_cell_length_b       23.207
_cell_length_c       52.179
_cell_angle_alpha    90
_cell_angle_beta     90
_cell_angle_gamma    120

_symmetry_space_group_name_H-M    "P 1"
_symmetry_int_tables_number       1

loop_
  _symmetry_equiv_pos_as_xyz
  'x, y, z'

loop_
  _atom_site_label
  _atom_site_occupancy
  _atom_site_fract_x
  _atom_site_fract_y
  _atom_site_fract_z
  _atom_site_thermal_displace_type
  _atom_site_B_iso_or_equiv
  _atom_site_type_symbol
  C1       1.0000 0.33689  0.33949  0.48719  Biso   1.000  C
  C2       1.0000 0.35998  0.32620  0.46178  Biso   1.000  C
  C3       1.0000 0.30030  0.28018  0.50003  Biso   1.000  C
  C4       1.0000 0.34260  0.39770  0.49809  Biso   1.000  C
  C5       1.0000 0.33510  0.25610  0.46181  Biso   1.000  C
  C6       1.0000 0.39563  0.36372  0.44108  Biso   1.000  C
  C7       1.0000 0.29583  0.22082  0.48589  Biso   1.000  C
  C8       1.0000 0.27449  0.27829  0.52481  Biso   1.000  C
  H1       1.0000 0.36331  0.43860  0.48889  Biso   1.000  H
  C9       1.0000 0.31841  0.39422  0.52138  Biso   1.000  C
  C10      1.0000 0.34840  0.22798  0.44050  Biso   1.000  C
  C11      1.0000 0.40880  0.33541  0.42069  Biso   1.000  C
  C12      1.0000 0.42010  0.43791  0.43746  Biso   1.000  C
  C13      1.0000 0.33431  0.19420  0.50290  Biso   1.000  C
  C14      1.0000 0.22422  0.17111  0.48222  Biso   1.000  C
  C15      1.0000 0.28381  0.33700  0.53592  Biso   1.000  C
  H2       1.0000 0.25111  0.23739  0.53380  Biso   1.000  H
  H3       1.0000 0.32543  0.43462  0.52880  Biso   1.000  H
  C16      1.0000 0.38571  0.26829  0.42015  Biso   1.000  C
  C17      1.0000 0.32680  0.15668  0.43345  Biso   1.000  C
  C18      1.0000 0.44811  0.39129  0.40123  Biso   1.000  C
  C19      1.0000 0.45329  0.44990  0.41177  Biso   1.000  C
  C20      1.0000 0.47078  0.48050  0.45693  Biso   1.000  C
  C21      1.0000 0.36357  0.45378  0.43588  Biso   1.000  C
  H4       1.0000 0.31171  0.18062  0.51969  Biso   1.000  H
  H5       1.0000 0.32971  0.15380  0.49461  Biso   1.000  H
  C22      1.0000 0.40962  0.24261  0.50791  Biso   1.000  C
  H6       1.0000 0.20112  0.16489  0.49880  Biso   1.000  H
  H7       1.0000 0.22052  0.12802  0.47759  Biso   1.000  H
  C23      1.0000 0.18848  0.18788  0.46229  Biso   1.000  C
  C24      1.0000 0.26241  0.33730  0.56161  Biso   1.000  C
  C25      1.0000 0.39061  0.22535  0.39794  Biso   1.000  C
  C26      1.0000 0.34692  0.15728  0.40913  Biso   1.000  C
  C27      1.0000 0.29008  0.09608  0.44660  Biso   1.000  C
  C28      1.0000 0.48043  0.39482  0.37875  Biso   1.000  C
  C29      1.0000 0.48730  0.51000  0.39809  Biso   1.000  C
  H8       1.0000 0.48702  0.52762  0.45250  Biso   1.000  H
  H9       1.0000 0.44810  0.47219  0.47370  Biso   1.000  H
  C30      1.0000 0.52351  0.47289  0.45990  Biso   1.000  C
  H10      1.0000 0.38328  0.50259  0.43450  Biso   1.000  H
  H11      1.0000 0.33800  0.43960  0.45210  Biso   1.000  H
  C31      1.0000 0.31402  0.42000  0.41291  Biso   1.000  C
  H12      1.0000 0.41058  0.27779  0.51889  Biso   1.000  H
  H13      1.0000 0.42318  0.21699  0.51910  Biso   1.000  H
  C32      1.0000 0.46681  0.27899  0.49010  Biso   1.000  C
  H14      1.0000 0.21127  0.19778  0.44550  Biso   1.000  H
  H15      1.0000 0.18270  0.22570  0.46760  Biso   1.000  H
  C33      1.0000 0.11803  0.11772  0.46189  Biso   1.000  C
  N1       1.0000 0.22675  0.28311  0.57483  Biso   1.000  N
  H16      1.0000 0.27481  0.37890  0.56939  Biso   1.000  H
  C34      1.0000 0.36193  0.23142  0.37241  Biso   1.000  C
  C35      1.0000 0.46230  0.23739  0.39514  Biso   1.000  C
  C36      1.0000 0.33168  0.09708  0.39677  Biso   1.000  C
  C37      1.0000 0.27519  0.03821  0.43385  Biso   1.000  C
  H17      1.0000 0.27609  0.09499  0.46379  Biso   1.000  H
  H18      1.0000 0.48041  0.35661  0.37220  Biso   1.000  H
  C38      1.0000 0.51282  0.45443  0.36586  Biso   1.000  C
  C39      1.0000 0.51610  0.51209  0.37565  Biso   1.000  C
  H19      1.0000 0.48981  0.54931  0.40480  Biso   1.000  H
  H20      1.0000 0.54400  0.47612  0.44290  Biso   1.000  H
  H21      1.0000 0.50878  0.42801  0.46689  Biso   1.000  H
  C40      1.0000 0.57620  0.52553  0.47799  Biso   1.000  C
  H22      1.0000 0.31029  0.37651  0.40909  Biso   1.000  H
  H23      1.0000 0.33209  0.44831  0.39740  Biso   1.000  H
  C41      1.0000 0.23790  0.40850  0.41910  Biso   1.000  C
  H24      1.0000 0.27512  0.37770  0.41860  Biso   1.000  H
  H25      1.0000 0.33639  0.41019  0.39880  Biso   1.000  H
  C42      1.0000 0.29068  0.46950  0.40330  Biso   1.000  C
  C43      1.0000 0.54510  0.33138  0.49370  Biso   1.000  C
  H26      1.0000 0.45159  0.30242  0.47839  Biso   1.000  H
  H27      1.0000 0.46619  0.24311  0.47960  Biso   1.000  H
  H28      1.0000 0.12483  0.07901  0.46049  Biso   1.000  H
  H29      1.0000 0.09069  0.11260  0.47730  Biso   1.000  H
  C44      1.0000 0.08722  0.12782  0.43749  Biso   1.000  C
  C45      1.0000 0.20898  0.28938  0.60135  Biso   1.000  C
  C46      1.0000 0.29119  0.21689  0.37377  Biso   1.000  C
  H30      1.0000 0.38998  0.27709  0.36580  Biso   1.000  H
  H31      1.0000 0.36423  0.20052  0.35999  Biso   1.000  H
  H32      1.0000 0.46168  0.20669  0.38180  Biso   1.000  H
  H33      1.0000 0.49099  0.28331  0.38870  Biso   1.000  H
  C47      1.0000 0.49348  0.22918  0.41800  Biso   1.000  C
  H34      1.0000 0.34670  0.09772  0.37979  Biso   1.000  H
  C48      1.0000 0.29502  0.03762  0.40949  Biso   1.000  C
  H35      1.0000 0.24981  0.99701  0.44250  Biso   1.000  H
  H36      1.0000 0.53342  0.45652  0.34989  Biso   1.000  H
  C49      1.0000 0.54949  0.57449  0.36126  Biso   1.000  C
  H37      1.0000 0.56179  0.51369  0.49600  Biso   1.000  H
  H38      1.0000 0.58123  0.56961  0.47450  Biso   1.000  H
  C50      1.0000 0.64463  0.52802  0.47389  Biso   1.000  C
  H39      1.0000 0.24199  0.44761  0.42829  Biso   1.000  H
  H40      1.0000 0.21410  0.40372  0.40281  Biso   1.000  H
  C51      1.0000 0.19660  0.34312  0.43609  Biso   1.000  C
  H41      1.0000 0.27508  0.48329  0.41850  Biso   1.000  H
  H42      1.0000 0.25127  0.44368  0.39219  Biso   1.000  H
  C52      1.0000 0.34110  0.53672  0.38780  Biso   1.000  C
  H43      1.0000 0.55092  0.37352  0.50030  Biso   1.000  H
  H44      1.0000 0.56770  0.33909  0.47709  Biso   1.000  H
  H45      1.0000 0.56429  0.31332  0.50580  Biso   1.000  H
  H46      1.0000 0.07742  0.16380  0.44020  Biso   1.000  H
  H47      1.0000 0.04600  0.08658  0.43339  Biso   1.000  H
  H48      1.0000 0.11871  0.13952  0.42320  Biso   1.000  H
  C53      1.0000 0.23394  0.25664  0.61956  Biso   1.000  C
  H49      1.0000 0.22991  0.33770  0.60580  Biso   1.000  H
  C54      1.0000 0.13341  0.25759  0.60306  Biso   1.000  C
  C55      1.0000 0.26321  0.22470  0.34934  Biso   1.000  C
  H50      1.0000 0.26289  0.17071  0.37990  Biso   1.000  H
  H51      1.0000 0.28861  0.24679  0.38669  Biso   1.000  H
  H52      1.0000 0.46289  0.18480  0.42540  Biso   1.000  H
  H53      1.0000 0.49802  0.26281  0.43069  Biso   1.000  H
  C56      1.0000 0.56298  0.23520  0.41459  Biso   1.000  C
  C57      1.0000 0.27623  0.97239  0.39746  Biso   1.000  C
  N2       1.0000 0.54483  0.62489  0.36699  Biso   1.000  N
  H54      1.0000 0.57581  0.57723  0.34690  Biso   1.000  H
  H55      1.0000 0.65809  0.53891  0.45589  Biso   1.000  H
  H56      1.0000 0.64004  0.48523  0.47820  Biso   1.000  H
  H57      1.0000 0.67840  0.56290  0.48489  Biso   1.000  H
  H58      1.0000 0.19241  0.30441  0.42690  Biso   1.000  H
  H59      1.0000 0.15209  0.33650  0.43949  Biso   1.000  H
  H60      1.0000 0.21982  0.34820  0.45240  Biso   1.000  H
  H61      1.0000 0.38652  0.55379  0.39420  Biso   1.000  H
  H62      1.0000 0.32781  0.57031  0.39041  Biso   1.000  H
  H63      1.0000 0.33950  0.52662  0.36950  Biso   1.000  H
  N3       1.0000 0.30524  0.28869  0.61837  Biso   1.000  N
  C58      1.0000 0.21280  0.25978  0.64698  Biso   1.000  C
  H64      1.0000 0.21471  0.20888  0.61450  Biso   1.000  H
  C59      1.0000 0.11198  0.26008  0.63018  Biso   1.000  C
  H65      1.0000 0.11852  0.28142  0.59150  Biso   1.000  H
  H66      1.0000 0.11230  0.21072  0.59729  Biso   1.000  H
  H67      1.0000 0.26921  0.19748  0.33609  Biso   1.000  H
  H68      1.0000 0.28970  0.27182  0.34389  Biso   1.000  H
  C60      1.0000 0.19189  0.20589  0.34962  Biso   1.000  C
  H69      1.0000 0.59379  0.27889  0.40689  Biso   1.000  H
  H70      1.0000 0.55873  0.20032  0.40259  Biso   1.000  H
  C61      1.0000 0.59390  0.22808  0.44039  Biso   1.000  C
  N4       1.0000 0.28328  0.96631  0.37431  Biso   1.000  N
  H71      1.0000 0.25790  0.93382  0.40800  Biso   1.000  H
  C62      1.0000 0.57962  0.68361  0.35033  Biso   1.000  C
  C63      1.0000 0.33040  0.25033  0.61394  Biso   1.000  C
  H72      1.0000 0.23312  0.30680  0.65239  Biso   1.000  H
  H73      1.0000 0.22891  0.23719  0.65860  Biso   1.000  H
  C64      1.0000 0.13719  0.22629  0.64894  Biso   1.000  C
  H74      1.0000 0.06290  0.23749  0.63100  Biso   1.000  H
  H75      1.0000 0.12981  0.30710  0.63529  Biso   1.000  H
  H76      1.0000 0.17879  0.21271  0.33249  Biso   1.000  H
  H77      1.0000 0.18532  0.23371  0.36210  Biso   1.000  H
  H78      1.0000 0.16470  0.15902  0.35449  Biso   1.000  H
  H79      1.0000 0.60052  0.26391  0.45219  Biso   1.000  H
  H80      1.0000 0.63692  0.23122  0.43690  Biso   1.000  H
  H81      1.0000 0.56369  0.18499  0.44830  Biso   1.000  H
  C65      1.0000 0.26142  0.89760  0.36568  Biso   1.000  C
  C66      1.0000 0.63620  0.73859  0.36568  Biso   1.000  C
  H82      1.0000 0.59839  0.67211  0.33519  Biso   1.000  H
  C67      1.0000 0.53269  0.70669  0.34100  Biso   1.000  C
  C68      1.0000 0.40211  0.27620  0.61299  Biso   1.000  C
  H83      1.0000 0.30109  0.20410  0.61120  Biso   1.000  H
  H84      1.0000 0.12433  0.23022  0.66669  Biso   1.000  H
  H85      1.0000 0.11669  0.17848  0.64470  Biso   1.000  H
  H86      1.0000 0.24974  0.86760  0.38090  Biso   1.000  H
  C69      1.0000 0.20036  0.87382  0.34836  Biso   1.000  C
  C70      1.0000 0.31643  0.89601  0.35033  Biso   1.000  C
  N5       1.0000 0.68303  0.71669  0.37431  Biso   1.000  N
  H87      1.0000 0.61794  0.75033  0.38090  Biso   1.000  H
  C71      1.0000 0.67344  0.79964  0.34836  Biso   1.000  C
  H88      1.0000 0.51250  0.71639  0.35589  Biso   1.000  H
  H89      1.0000 0.49639  0.67082  0.33090  Biso   1.000  H
  C72      1.0000 0.56989  0.76929  0.32442  Biso   1.000  C
  C73      1.0000 0.42721  0.23470  0.61362  Biso   1.000  C
  C74      1.0000 0.44780  0.34491  0.61258  Biso   1.000  C
  H90      1.0000 0.16421  0.87511  0.35800  Biso   1.000  H
  H91      1.0000 0.21188  0.90392  0.33339  Biso   1.000  H
  C75      1.0000 0.17681  0.80421  0.33926  Biso   1.000  C
  N6       1.0000 0.37510  0.91994  0.36699  Biso   1.000  N
  H92      1.0000 0.32787  0.92631  0.33519  Biso   1.000  H
  C76      1.0000 0.29327  0.82600  0.34100  Biso   1.000  C
  C77      1.0000 0.69620  0.72381  0.39746  Biso   1.000  C
  H93      1.0000 0.71092  0.83581  0.35800  Biso   1.000  H
  H94      1.0000 0.69202  0.78809  0.33339  Biso   1.000  H
  C78      1.0000 0.62741  0.82322  0.33926  Biso   1.000  C
  H95      1.0000 0.58661  0.75869  0.30871  Biso   1.000  H
  H96      1.0000 0.53911  0.78511  0.31919  Biso   1.000  H
  H97      1.0000 0.39790  0.18788  0.61450  Biso   1.000  H
  C79      1.0000 0.49749  0.26072  0.61297  Biso   1.000  C
  H98      1.0000 0.43049  0.37432  0.61220  Biso   1.000  H
  C80      1.0000 0.51398  0.37178  0.61268  Biso   1.000  C
  H99      1.0000 0.13720  0.78938  0.32820  Biso   1.000  H
  H100     1.0000 0.16359  0.77381  0.35420  Biso   1.000  H
  C81      1.0000 0.23071  0.80058  0.32442  Biso   1.000  C
  C82      1.0000 0.42553  0.97502  0.36126  Biso   1.000  C
  H101     1.0000 0.28358  0.79610  0.35589  Biso   1.000  H
  H102     1.0000 0.32923  0.82560  0.33090  Biso   1.000  H
  H103     1.0000 0.67592  0.74212  0.40800  Biso   1.000  H
  C83      1.0000 0.74260  0.70500  0.40949  Biso   1.000  C
  H104     1.0000 0.65221  0.86283  0.32820  Biso   1.000  H
  H105     1.0000 0.61021  0.83641  0.35420  Biso   1.000  H
  C84      1.0000 0.53822  0.32770  0.61295  Biso   1.000  C
  C85      1.0000 0.53081  0.21972  0.61356  Biso   1.000  C
  H106     1.0000 0.54299  0.41860  0.61260  Biso   1.000  H
  H107     1.0000 0.24126  0.82789  0.30871  Biso   1.000  H
  H108     1.0000 0.21487  0.75400  0.31919  Biso   1.000  H
  C86      1.0000 0.48788  0.00398  0.37565  Biso   1.000  C
  H109     1.0000 0.42284  0.99861  0.34690  Biso   1.000  H
  C87      1.0000 0.76541  0.66833  0.39677  Biso   1.000  C
  C88      1.0000 0.76301  0.72480  0.43385  Biso   1.000  C
  C89      1.0000 0.61020  0.34048  0.61220  Biso   1.000  C
  C90      1.0000 0.60321  0.27680  0.61241  Biso   1.000  C
  C91      1.0000 0.51300  0.17728  0.63817  Biso   1.000  C
  C92      1.0000 0.50952  0.17619  0.58939  Biso   1.000  C
  C93      1.0000 0.54560  0.05841  0.36586  Biso   1.000  C
  C94      1.0000 0.48997  0.97731  0.39809  Biso   1.000  C
  C95      1.0000 0.81037  0.65310  0.40913  Biso   1.000  C
  H110     1.0000 0.75101  0.65330  0.37979  Biso   1.000  H
  H111     1.0000 0.74720  0.75023  0.44250  Biso   1.000  H
  C96      1.0000 0.80603  0.70993  0.44660  Biso   1.000  C
  C97      1.0000 0.67361  0.39681  0.61241  Biso   1.000  C
  C98      1.0000 0.65951  0.26968  0.61220  Biso   1.000  C
  H112     1.0000 0.46390  0.15061  0.63940  Biso   1.000  H
  H113     1.0000 0.52960  0.14559  0.63629  Biso   1.000  H
  C99      1.0000 0.53871  0.21311  0.66264  Biso   1.000  C
  H114     1.0000 0.53222  0.14972  0.58920  Biso   1.000  H
  H115     1.0000 0.46098  0.14469  0.59029  Biso   1.000  H
  C100     1.0000 0.52471  0.21450  0.56507  Biso   1.000  C
  C101     1.0000 0.60521  0.08558  0.37875  Biso   1.000  C
  H116     1.0000 0.54352  0.07692  0.34989  Biso   1.000  H
  C102     1.0000 0.55010  0.00338  0.41177  Biso   1.000  C
  H117     1.0000 0.45066  0.94049  0.40480  Biso   1.000  H
  C103     1.0000 0.82990  0.67321  0.43345  Biso   1.000  C
  C104     1.0000 0.83476  0.60942  0.39794  Biso   1.000  C
  H118     1.0000 0.81893  0.72391  0.46379  Biso   1.000  H
  C105     1.0000 0.73030  0.38979  0.61220  Biso   1.000  C
  C106     1.0000 0.68890  0.46920  0.61356  Biso   1.000  C
  C107     1.0000 0.72320  0.32640  0.61241  Biso   1.000  C
  C108     1.0000 0.67233  0.21052  0.61295  Biso   1.000  C
  C109     1.0000 0.52279  0.16982  0.68537  Biso   1.000  C
  H119     1.0000 0.52009  0.24301  0.66519  Biso   1.000  H
  H120     1.0000 0.58759  0.24142  0.66130  Biso   1.000  H
  H121     1.0000 0.57238  0.24848  0.56419  Biso   1.000  H
  H122     1.0000 0.49799  0.23689  0.56369  Biso   1.000  H
  C110     1.0000 0.50572  0.16161  0.54319  Biso   1.000  C
  C111     1.0000 0.60871  0.05682  0.40123  Biso   1.000  C
  H123     1.0000 0.64340  0.12379  0.37220  Biso   1.000  H
  C112     1.0000 0.56213  0.98219  0.43746  Biso   1.000  C
  C113     1.0000 0.87960  0.65161  0.44050  Biso   1.000  C
  C114     1.0000 0.88262  0.61429  0.42015  Biso   1.000  C
  C115     1.0000 0.86950  0.63813  0.37241  Biso   1.000  C
  C116     1.0000 0.77513  0.53772  0.39514  Biso   1.000  C
  C117     1.0000 0.78952  0.46179  0.61295  Biso   1.000  C
  C118     1.0000 0.76320  0.50249  0.61297  Biso   1.000  C
  C119     1.0000 0.66433  0.48702  0.63817  Biso   1.000  C
  C120     1.0000 0.66672  0.49050  0.58939  Biso   1.000  C
  C121     1.0000 0.78031  0.31108  0.61356  Biso   1.000  C
  C122     1.0000 0.73929  0.23679  0.61297  Biso   1.000  C
  C123     1.0000 0.62822  0.14220  0.61268  Biso   1.000  C
  H124     1.0000 0.47391  0.14161  0.68669  Biso   1.000  H
  H125     1.0000 0.54119  0.13992  0.68269  Biso   1.000  H
  C124     1.0000 0.54811  0.20460  0.70973  Biso   1.000  C
  H126     1.0000 0.53450  0.18599  0.52849  Biso   1.000  H
  H127     1.0000 0.45971  0.14862  0.53809  Biso   1.000  H
  C125     1.0000 0.50799  0.09479  0.54520  Biso   1.000  C
  C126     1.0000 0.66461  0.07339  0.42069  Biso   1.000  C
  C127     1.0000 0.63632  0.03189  0.44108  Biso   1.000  C
  C128     1.0000 0.51947  0.99030  0.45693  Biso   1.000  C
  C129     1.0000 0.54623  0.90979  0.43588  Biso   1.000  C
  C130     1.0000 0.92102  0.66490  0.46181  Biso   1.000  C
  C131     1.0000 0.92662  0.59121  0.42069  Biso   1.000  C
  C132     1.0000 0.92568  0.70878  0.37377  Biso   1.000  C
  H128     1.0000 0.88712  0.61002  0.36580  Biso   1.000  H
  H129     1.0000 0.83632  0.63579  0.35999  Biso   1.000  H
  H130     1.0000 0.74501  0.53832  0.38180  Biso   1.000  H
  H131     1.0000 0.79232  0.50901  0.38870  Biso   1.000  H
  C133     1.0000 0.73570  0.50652  0.41800  Biso   1.000  C
  C134     1.0000 0.85783  0.48602  0.61268  Biso   1.000  C
  C135     1.0000 0.80749  0.57280  0.61362  Biso   1.000  C
  H132     1.0000 0.68673  0.53613  0.63940  Biso   1.000  H
  H133     1.0000 0.61599  0.47040  0.63629  Biso   1.000  H
  C136     1.0000 0.67439  0.46129  0.66264  Biso   1.000  C
  H134     1.0000 0.61750  0.46781  0.58920  Biso   1.000  H
  H135     1.0000 0.68369  0.53901  0.59029  Biso   1.000  H
  C137     1.0000 0.68981  0.47532  0.56507  Biso   1.000  C
  C138     1.0000 0.82270  0.33571  0.63817  Biso   1.000  C
  C139     1.0000 0.82383  0.33332  0.58939  Biso   1.000  C
  C140     1.0000 0.76532  0.19251  0.61362  Biso   1.000  C
  C141     1.0000 0.65510  0.10290  0.61258  Biso   1.000  C
  H136     1.0000 0.58139  0.12439  0.61260  Biso   1.000  H
  H137     1.0000 0.52759  0.23182  0.71329  Biso   1.000  H
  H138     1.0000 0.59651  0.23331  0.70870  Biso   1.000  H
  H139     1.0000 0.53712  0.17201  0.72349  Biso   1.000  H
  H140     1.0000 0.47910  0.06812  0.55940  Biso   1.000  H
  H141     1.0000 0.55329  0.10499  0.54830  Biso   1.000  H
  H142     1.0000 0.49132  0.06981  0.52920  Biso   1.000  H
  C142     1.0000 0.73170  0.11743  0.42015  Biso   1.000  C
  C143     1.0000 0.67381  0.03378  0.46178  Biso   1.000  C
  C144     1.0000 0.52709  0.05060  0.45990  Biso   1.000  C
  H143     1.0000 0.47240  0.95940  0.45250  Biso   1.000  H
  H144     1.0000 0.52780  0.97592  0.47370  Biso   1.000  H
  H145     1.0000 0.49742  0.88068  0.43450  Biso   1.000  H
  H146     1.0000 0.56039  0.89840  0.45210  Biso   1.000  H
  C145     1.0000 0.58005  0.89402  0.41291  Biso   1.000  C
  C146     1.0000 0.92499  0.70420  0.48589  Biso   1.000  C
  C147     1.0000 0.96619  0.64002  0.46178  Biso   1.000  C
  C148     1.0000 0.94321  0.55190  0.40123  Biso   1.000  C
  C149     1.0000 0.96812  0.60439  0.44108  Biso   1.000  C
  C150     1.0000 0.96149  0.73680  0.34934  Biso   1.000  C
  H147     1.0000 0.90778  0.73709  0.37990  Biso   1.000  H
  H148     1.0000 0.95820  0.71142  0.38669  Biso   1.000  H
  H149     1.0000 0.72192  0.53712  0.42540  Biso   1.000  H
  H150     1.0000 0.76481  0.50199  0.43069  Biso   1.000  H
  C151     1.0000 0.67221  0.43701  0.41459  Biso   1.000  C
  C152     1.0000 0.89712  0.55220  0.61258  Biso   1.000  C
  H151     1.0000 0.87560  0.45701  0.61260  Biso   1.000  H
  C153     1.0000 0.87413  0.59792  0.61299  Biso   1.000  C
  H152     1.0000 0.79000  0.60210  0.61450  Biso   1.000  H
  C154     1.0000 0.64702  0.47722  0.68537  Biso   1.000  C
  H153     1.0000 0.72291  0.47990  0.66519  Biso   1.000  H
  H154     1.0000 0.65381  0.41238  0.66130  Biso   1.000  H
  H155     1.0000 0.67612  0.42761  0.56419  Biso   1.000  H
  H156     1.0000 0.73891  0.50199  0.56369  Biso   1.000  H
  C155     1.0000 0.65590  0.49428  0.54319  Biso   1.000  C
  H157     1.0000 0.84942  0.31332  0.63940  Biso   1.000  H
  H158     1.0000 0.85440  0.38402  0.63629  Biso   1.000  H
  C156     1.0000 0.78693  0.32561  0.66264  Biso   1.000  C
  H159     1.0000 0.85031  0.38248  0.58920  Biso   1.000  H
  H160     1.0000 0.85531  0.31630  0.59029  Biso   1.000  H
  C157     1.0000 0.78550  0.31018  0.56507  Biso   1.000  C
  C158     1.0000 0.72378  0.12588  0.61299  Biso   1.000  C
  H161     1.0000 0.81213  0.21002  0.61450  Biso   1.000  H
  H162     1.0000 0.62573  0.05622  0.61220  Biso   1.000  H
  C159     1.0000 0.77202  0.12041  0.44050  Biso   1.000  C
  C160     1.0000 0.77465  0.16524  0.39794  Biso   1.000  C
  C161     1.0000 0.74391  0.07901  0.46181  Biso   1.000  C
  C162     1.0000 0.66049  0.99741  0.48719  Biso   1.000  C
  H163     1.0000 0.52390  0.06792  0.44290  Biso   1.000  H
  H164     1.0000 0.57201  0.08080  0.46689  Biso   1.000  H
  C163     1.0000 0.47453  0.05070  0.47799  Biso   1.000  C
  H165     1.0000 0.62352  0.93382  0.40909  Biso   1.000  H
  H166     1.0000 0.55173  0.88382  0.39740  Biso   1.000  H
  C164     1.0000 0.59151  0.82938  0.41910  Biso   1.000  C
  H167     1.0000 0.62233  0.89740  0.41860  Biso   1.000  H
  H168     1.0000 0.58977  0.92621  0.39880  Biso   1.000  H
  C165     1.0000 0.53049  0.82117  0.40330  Biso   1.000  C
  C166     1.0000 0.97993  0.69973  0.50003  Biso   1.000  C
  C167     1.0000 0.85989  0.66569  0.50290  Biso   1.000  C
  C168     1.0000 0.94691  0.77580  0.48222  Biso   1.000  C
  C169     1.0000 0.00260  0.66311  0.48719  Biso   1.000  C
  C170     1.0000 0.91439  0.51961  0.37875  Biso   1.000  C
  C171     1.0000 0.99664  0.54673  0.41177  Biso   1.000  C
  C172     1.0000 0.01780  0.57991  0.43746  Biso   1.000  C
  H169     1.0000 0.92830  0.73082  0.33609  Biso   1.000  H
  H170     1.0000 0.98213  0.71032  0.34389  Biso   1.000  H
  C173     1.0000 0.01399  0.80810  0.34962  Biso   1.000  C
  H171     1.0000 0.68512  0.40621  0.40689  Biso   1.000  H
  H172     1.0000 0.64160  0.44129  0.40259  Biso   1.000  H
  C174     1.0000 0.63422  0.40611  0.44039  Biso   1.000  C
  H173     1.0000 0.94383  0.56951  0.61220  Biso   1.000  H
  C175     1.0000 0.91991  0.66957  0.61394  Biso   1.000  C
  H174     1.0000 0.66773  0.52613  0.68669  Biso   1.000  H
  H175     1.0000 0.59869  0.45881  0.68269  Biso   1.000  H
  C176     1.0000 0.65650  0.45189  0.70973  Biso   1.000  C
  H176     1.0000 0.65151  0.46552  0.52849  Biso   1.000  H
  H177     1.0000 0.68891  0.54031  0.53809  Biso   1.000  H
  C177     1.0000 0.58680  0.49199  0.54520  Biso   1.000  C
  C178     1.0000 0.83024  0.35302  0.68537  Biso   1.000  C
  H178     1.0000 0.75698  0.27709  0.66519  Biso   1.000  H
  H179     1.0000 0.75862  0.34621  0.66130  Biso   1.000  H
  H180     1.0000 0.75152  0.32392  0.56419  Biso   1.000  H
  H181     1.0000 0.76313  0.26112  0.56369  Biso   1.000  H
  C179     1.0000 0.83841  0.34412  0.54319  Biso   1.000  C
  C180     1.0000 0.74971  0.08011  0.61394  Biso   1.000  C
  C181     1.0000 0.84332  0.17012  0.43345  Biso   1.000  C
  C182     1.0000 0.84273  0.18962  0.40913  Biso   1.000  C
  C183     1.0000 0.76862  0.13051  0.37241  Biso   1.000  C
  C184     1.0000 0.76260  0.22490  0.39514  Biso   1.000  C
  C185     1.0000 0.77921  0.07498  0.48589  Biso   1.000  C
  C186     1.0000 0.71979  0.02010  0.50003  Biso   1.000  C
  C187     1.0000 0.60231  0.94492  0.49809  Biso   1.000  C
  H182     1.0000 0.48633  0.04811  0.49600  Biso   1.000  H
  H183     1.0000 0.43041  0.01159  0.47450  Biso   1.000  H
  C188     1.0000 0.47200  0.11658  0.47389  Biso   1.000  C
  H184     1.0000 0.55244  0.79441  0.42829  Biso   1.000  H
  H185     1.0000 0.59627  0.81038  0.40281  Biso   1.000  H
  C189     1.0000 0.65693  0.85352  0.43609  Biso   1.000  C
  H186     1.0000 0.51667  0.79182  0.41850  Biso   1.000  H
  H187     1.0000 0.55631  0.80759  0.39219  Biso   1.000  H
  C190     1.0000 0.46328  0.80441  0.38780  Biso   1.000  C
  C191     1.0000 0.00381  0.72550  0.52481  Biso   1.000  C
  H188     1.0000 0.86890  0.68828  0.51969  Biso   1.000  H
  H189     1.0000 0.82411  0.67032  0.49461  Biso   1.000  H
  C192     1.0000 0.83302  0.59041  0.50791  Biso   1.000  C
  H190     1.0000 0.96380  0.79889  0.49880  Biso   1.000  H
  H191     1.0000 0.90752  0.77949  0.47759  Biso   1.000  H
  C193     1.0000 0.99942  0.81153  0.46229  Biso   1.000  C
  C194     1.0000 0.05511  0.65738  0.49809  Biso   1.000  C
  H192     1.0000 0.87621  0.51961  0.37220  Biso   1.000  H
  C195     1.0000 0.94163  0.48722  0.36586  Biso   1.000  C
  C196     1.0000 0.02271  0.51269  0.39809  Biso   1.000  C
  C197     1.0000 0.00968  0.52921  0.45693  Biso   1.000  C
  C198     1.0000 0.09020  0.63639  0.43588  Biso   1.000  C
  H193     1.0000 0.99429  0.83531  0.35449  Biso   1.000  H
  H194     1.0000 0.03389  0.82118  0.33249  Biso   1.000  H
  H195     1.0000 0.04841  0.81471  0.36210  Biso   1.000  H
  H196     1.0000 0.66340  0.39950  0.45219  Biso   1.000  H
  H197     1.0000 0.59433  0.36312  0.43690  Biso   1.000  H
  H198     1.0000 0.62131  0.43632  0.44830  Biso   1.000  H
  N7       1.0000 0.98343  0.69475  0.61837  Biso   1.000  N
  H199     1.0000 0.90301  0.69893  0.61120  Biso   1.000  H
  H200     1.0000 0.70420  0.47239  0.71329  Biso   1.000  H
  H201     1.0000 0.63680  0.40353  0.70870  Biso   1.000  H
  H202     1.0000 0.63490  0.46289  0.72349  Biso   1.000  H
  H203     1.0000 0.58902  0.52090  0.55940  Biso   1.000  H
  H204     1.0000 0.55171  0.44671  0.54830  Biso   1.000  H
  H205     1.0000 0.57852  0.50871  0.52920  Biso   1.000  H
  H206     1.0000 0.85841  0.33232  0.68669  Biso   1.000  H
  H207     1.0000 0.86010  0.40129  0.68269  Biso   1.000  H
  C199     1.0000 0.79541  0.34352  0.70973  Biso   1.000  C
  H208     1.0000 0.81401  0.34849  0.52849  Biso   1.000  H
  H209     1.0000 0.85141  0.31108  0.53809  Biso   1.000  H
  C200     1.0000 0.90524  0.41323  0.54520  Biso   1.000  C
  N8       1.0000 0.71135  0.01657  0.61837  Biso   1.000  N
  H210     1.0000 0.79592  0.09703  0.61120  Biso   1.000  H
  C201     1.0000 0.90391  0.19400  0.44660  Biso   1.000  C
  C202     1.0000 0.90293  0.23460  0.39677  Biso   1.000  C
  C203     1.0000 0.78308  0.07429  0.37377  Biso   1.000  C
  H211     1.0000 0.72289  0.11290  0.36580  Biso   1.000  H
  H212     1.0000 0.79952  0.16370  0.35999  Biso   1.000  H
  H213     1.0000 0.79329  0.25500  0.38180  Biso   1.000  H
  H214     1.0000 0.71672  0.20768  0.38870  Biso   1.000  H
  C204     1.0000 0.77080  0.26431  0.41800  Biso   1.000  C
  C205     1.0000 0.80583  0.14011  0.50290  Biso   1.000  C
  C206     1.0000 0.82889  0.05309  0.48222  Biso   1.000  C
  C207     1.0000 0.72173  0.99622  0.52481  Biso   1.000  C
  H215     1.0000 0.56140  0.92472  0.48889  Biso   1.000  H
  C208     1.0000 0.60580  0.92422  0.52138  Biso   1.000  C
  H216     1.0000 0.46113  0.11922  0.45589  Biso   1.000  H
  H217     1.0000 0.51481  0.15479  0.47820  Biso   1.000  H
  H218     1.0000 0.43711  0.11548  0.48489  Biso   1.000  H
  H219     1.0000 0.69558  0.88800  0.42690  Biso   1.000  H
  H220     1.0000 0.66352  0.81560  0.43949  Biso   1.000  H
  H221     1.0000 0.65178  0.87158  0.45240  Biso   1.000  H
  H222     1.0000 0.44620  0.83272  0.39420  Biso   1.000  H
  H223     1.0000 0.42970  0.75749  0.39041  Biso   1.000  H
  H224     1.0000 0.47344  0.81292  0.36950  Biso   1.000  H
  H225     1.0000 0.98628  0.74889  0.53380  Biso   1.000  H
  C209     1.0000 0.05319  0.71620  0.53592  Biso   1.000  C
  H226     1.0000 0.86721  0.58942  0.51889  Biso   1.000  H
  H227     1.0000 0.79382  0.57683  0.51910  Biso   1.000  H
  C210     1.0000 0.81221  0.53319  0.49010  Biso   1.000  C
  H228     1.0000 0.98649  0.78869  0.44550  Biso   1.000  H
  C211     1.0000 0.99970  0.88198  0.46189  Biso   1.000  C
  H229     1.0000 0.04299  0.81730  0.46760  Biso   1.000  H
  H230     1.0000 0.07527  0.63668  0.48889  Biso   1.000  H
  C212     1.0000 0.07580  0.68162  0.52138  Biso   1.000  C
  C213     1.0000 0.99598  0.48388  0.37565  Biso   1.000  C
  H231     1.0000 0.92310  0.46662  0.34989  Biso   1.000  H
  H232     1.0000 0.05951  0.51020  0.40480  Biso   1.000  H
  C214     1.0000 0.94942  0.47652  0.45990  Biso   1.000  C
  H233     1.0000 0.04061  0.51299  0.45250  Biso   1.000  H
  H234     1.0000 0.02409  0.55190  0.47370  Biso   1.000  H
  H235     1.0000 0.11930  0.61668  0.43450  Biso   1.000  H
  H236     1.0000 0.10159  0.66201  0.45210  Biso   1.000  H
  C215     1.0000 0.10600  0.68599  0.41291  Biso   1.000  C
  C216     1.0000 0.02270  0.76605  0.61956  Biso   1.000  C
  H237     1.0000 0.76819  0.29580  0.71329  Biso   1.000  H
  H238     1.0000 0.76674  0.36322  0.70870  Biso   1.000  H
  H239     1.0000 0.82801  0.36511  0.72349  Biso   1.000  H
  H240     1.0000 0.93191  0.41099  0.55940  Biso   1.000  H
  H241     1.0000 0.89503  0.44831  0.54830  Biso   1.000  H
  H242     1.0000 0.93018  0.42149  0.52920  Biso   1.000  H
  C217     1.0000 0.74338  0.97731  0.61956  Biso   1.000  C
  C218     1.0000 0.96182  0.23699  0.43385  Biso   1.000  C
  H243     1.0000 0.90501  0.18111  0.46379  Biso   1.000  H
  H244     1.0000 0.90232  0.24898  0.37979  Biso   1.000  H
  C219     1.0000 0.96241  0.25739  0.40949  Biso   1.000  C
  C220     1.0000 0.77532  0.03851  0.34934  Biso   1.000  C
  H245     1.0000 0.82931  0.09220  0.37990  Biso   1.000  H
  H246     1.0000 0.75322  0.04180  0.38669  Biso   1.000  H
  H247     1.0000 0.81522  0.27809  0.42540  Biso   1.000  H
  H248     1.0000 0.73720  0.23520  0.43069  Biso   1.000  H
  C221     1.0000 0.76479  0.32780  0.41459  Biso   1.000  C
  H249     1.0000 0.81942  0.13111  0.51969  Biso   1.000  H
  H250     1.0000 0.84621  0.17589  0.49461  Biso   1.000  H
  C222     1.0000 0.75738  0.16698  0.50791  Biso   1.000  C
  H251     1.0000 0.83511  0.03622  0.49880  Biso   1.000  H
  H252     1.0000 0.87199  0.09250  0.47759  Biso   1.000  H
  C223     1.0000 0.81212  0.00060  0.46229  Biso   1.000  C
  H253     1.0000 0.76260  0.01368  0.53380  Biso   1.000  H
  C224     1.0000 0.66298  0.94681  0.53592  Biso   1.000  C
  H254     1.0000 0.56542  0.89078  0.52880  Biso   1.000  H
  C225     1.0000 0.07488  0.73759  0.56161  Biso   1.000  C
  C226     1.0000 0.78630  0.45492  0.49370  Biso   1.000  C
  H255     1.0000 0.85080  0.54842  0.47839  Biso   1.000  H
  H256     1.0000 0.77691  0.53379  0.47960  Biso   1.000  H
  H257     1.0000 0.95422  0.87522  0.46049  Biso   1.000  H
  H258     1.0000 0.02189  0.90930  0.47730  Biso   1.000  H
  C227     1.0000 0.04057  0.91278  0.43749  Biso   1.000  C
  H259     1.0000 0.10918  0.67460  0.52880  Biso   1.000  H
  C228     1.0000 0.02503  0.45055  0.36126  Biso   1.000  C
  H260     1.0000 0.93211  0.45602  0.44290  Biso   1.000  H
  H261     1.0000 0.91919  0.49120  0.46689  Biso   1.000  H
  C229     1.0000 0.94932  0.42383  0.47799  Biso   1.000  C
  H262     1.0000 0.06620  0.68973  0.40909  Biso   1.000  H
  H263     1.0000 0.11621  0.66788  0.39740  Biso   1.000  H
  C230     1.0000 0.17061  0.76212  0.41910  Biso   1.000  C
  H264     1.0000 0.10262  0.72490  0.41860  Biso   1.000  H
  H265     1.0000 0.07382  0.66360  0.39880  Biso   1.000  H
  C231     1.0000 0.17881  0.70933  0.40330  Biso   1.000  C
  C232     1.0000 0.08039  0.79103  0.60135  Biso   1.000  C
  H266     1.0000 0.99420  0.78531  0.61450  Biso   1.000  H
  C233     1.0000 0.04698  0.78720  0.64698  Biso   1.000  C
  C234     1.0000 0.71060  0.91959  0.60135  Biso   1.000  C
  H267     1.0000 0.79112  0.00582  0.61450  Biso   1.000  H
  C235     1.0000 0.74023  0.95298  0.64698  Biso   1.000  C
  H268     1.0000 0.00300  0.25281  0.44250  Biso   1.000  H
  C236     1.0000 0.02763  0.30381  0.39746  Biso   1.000  C
  H269     1.0000 0.80251  0.07170  0.33609  Biso   1.000  H
  H270     1.0000 0.72822  0.01791  0.34389  Biso   1.000  H
  C237     1.0000 0.79410  0.98602  0.34962  Biso   1.000  C
  H271     1.0000 0.72112  0.31491  0.40689  Biso   1.000  H
  H272     1.0000 0.79970  0.35840  0.40259  Biso   1.000  H
  C238     1.0000 0.77191  0.36581  0.44039  Biso   1.000  C
  H273     1.0000 0.72219  0.13280  0.51889  Biso   1.000  H
  H274     1.0000 0.78302  0.20619  0.51910  Biso   1.000  H
  C239     1.0000 0.72099  0.18778  0.49010  Biso   1.000  C
  H275     1.0000 0.80219  0.01348  0.44550  Biso   1.000  H
  C240     1.0000 0.88230  0.00030  0.46189  Biso   1.000  C
  H276     1.0000 0.77430  0.95701  0.46760  Biso   1.000  H
  C241     1.0000 0.66269  0.92512  0.56161  Biso   1.000  C
  N9       1.0000 0.05635  0.77327  0.57483  Biso   1.000  N
  H277     1.0000 0.10410  0.72520  0.56939  Biso   1.000  H
  H278     1.0000 0.82260  0.44910  0.50030  Biso   1.000  H
  H279     1.0000 0.77141  0.43229  0.47709  Biso   1.000  H
  H280     1.0000 0.74904  0.43572  0.50580  Biso   1.000  H
  H281     1.0000 0.08641  0.92259  0.44020  Biso   1.000  H
  H282     1.0000 0.04060  0.95403  0.43339  Biso   1.000  H
  H283     1.0000 0.02077  0.88129  0.42320  Biso   1.000  H
  N10      1.0000 0.08004  0.45517  0.36699  Biso   1.000  N
  H284     1.0000 0.00140  0.42422  0.34690  Biso   1.000  H
  H285     1.0000 0.95190  0.43821  0.49600  Biso   1.000  H
  H286     1.0000 0.98839  0.41880  0.47450  Biso   1.000  H
  C242     1.0000 0.88340  0.35541  0.47389  Biso   1.000  C
  H287     1.0000 0.20560  0.75799  0.42829  Biso   1.000  H
  H288     1.0000 0.18961  0.78590  0.40281  Biso   1.000  H
  C243     1.0000 0.14653  0.80342  0.43609  Biso   1.000  C
  H289     1.0000 0.20819  0.72490  0.41850  Biso   1.000  H
  H290     1.0000 0.19237  0.74869  0.39219  Biso   1.000  H
  C244     1.0000 0.19562  0.65893  0.38780  Biso   1.000  C
  H291     1.0000 0.10780  0.77008  0.60580  Biso   1.000  H
  C245     1.0000 0.12422  0.86661  0.60306  Biso   1.000  C
  H292     1.0000 0.07371  0.76690  0.65239  Biso   1.000  H
  H293     1.0000 0.00831  0.77113  0.65860  Biso   1.000  H
  C246     1.0000 0.08910  0.86283  0.64894  Biso   1.000  C
  N11      1.0000 0.71691  0.94368  0.57483  Biso   1.000  N
  H294     1.0000 0.66225  0.89218  0.60580  Biso   1.000  H
  C247     1.0000 0.74245  0.87581  0.60306  Biso   1.000  C
  H295     1.0000 0.69319  0.92631  0.65239  Biso   1.000  H
  H296     1.0000 0.76281  0.99169  0.65860  Biso   1.000  H
  C248     1.0000 0.77369  0.91089  0.64894  Biso   1.000  C
  N12      1.0000 0.03367  0.31700  0.37431  Biso   1.000  N
  H297     1.0000 0.06622  0.32411  0.40800  Biso   1.000  H
  H298     1.0000 0.84101  0.00572  0.35449  Biso   1.000  H
  H299     1.0000 0.78734  0.96612  0.33249  Biso   1.000  H
  H300     1.0000 0.76633  0.95159  0.36210  Biso   1.000  H
  H301     1.0000 0.73610  0.33660  0.45219  Biso   1.000  H
  H302     1.0000 0.76881  0.40572  0.43690  Biso   1.000  H
  H303     1.0000 0.81502  0.37870  0.44830  Biso   1.000  H
  C249     1.0000 0.66862  0.21370  0.49370  Biso   1.000  C
  H304     1.0000 0.69761  0.14922  0.47839  Biso   1.000  H
  H305     1.0000 0.75692  0.22311  0.47960  Biso   1.000  H
  H306     1.0000 0.92098  0.04578  0.46049  Biso   1.000  H
  H307     1.0000 0.88745  0.97811  0.47730  Biso   1.000  H
  C250     1.0000 0.87219  0.95940  0.43749  Biso   1.000  C
  H308     1.0000 0.62107  0.89591  0.56939  Biso   1.000  H
  C251     1.0000 0.10402  0.42039  0.35033  Biso   1.000  C
  H309     1.0000 0.88084  0.34193  0.45589  Biso   1.000  H
  H310     1.0000 0.84518  0.35999  0.47820  Biso   1.000  H
  H311     1.0000 0.88452  0.32163  0.48489  Biso   1.000  H
  H312     1.0000 0.11199  0.80760  0.42690  Biso   1.000  H
  H313     1.0000 0.18441  0.84790  0.43949  Biso   1.000  H
  H314     1.0000 0.12840  0.78018  0.45240  Biso   1.000  H
  H315     1.0000 0.16731  0.61350  0.39420  Biso   1.000  H
  H316     1.0000 0.24251  0.67221  0.39041  Biso   1.000  H
  H317     1.0000 0.18711  0.66052  0.36950  Biso   1.000  H
  C252     1.0000 0.14810  0.88801  0.63018  Biso   1.000  C
  H318     1.0000 0.16290  0.88149  0.59150  Biso   1.000  H
  H319     1.0000 0.09840  0.88771  0.59729  Biso   1.000  H
  H320     1.0000 0.10589  0.87572  0.66669  Biso   1.000  H
  H321     1.0000 0.06182  0.88333  0.64470  Biso   1.000  H
  C253     1.0000 0.73994  0.85192  0.63018  Biso   1.000  C
  H322     1.0000 0.71861  0.83710  0.59150  Biso   1.000  H
  H323     1.0000 0.78929  0.90158  0.59729  Biso   1.000  H
  H324     1.0000 0.76978  0.89412  0.66669  Biso   1.000  H
  H325     1.0000 0.82152  0.93820  0.64470  Biso   1.000  H
  C254     1.0000 0.10238  0.36377  0.36568  Biso   1.000  C
  H326     1.0000 0.62650  0.17738  0.50030  Biso   1.000  H
  H327     1.0000 0.66089  0.22858  0.47709  Biso   1.000  H
  H328     1.0000 0.68672  0.25102  0.50580  Biso   1.000  H
  H329     1.0000 0.83624  0.91362  0.44020  Biso   1.000  H
  H330     1.0000 0.91343  0.95940  0.43339  Biso   1.000  H
  H331     1.0000 0.86054  0.97920  0.42320  Biso   1.000  H
  H332     1.0000 0.07368  0.40159  0.33519  Biso   1.000  H
  C255     1.0000 0.17402  0.46731  0.34100  Biso   1.000  C
  H333     1.0000 0.17459  0.93712  0.63100  Biso   1.000  H
  H334     1.0000 0.17729  0.87019  0.63529  Biso   1.000  H
  H335     1.0000 0.76249  0.82540  0.63100  Biso   1.000  H
  H336     1.0000 0.69289  0.82272  0.63529  Biso   1.000  H
  H337     1.0000 0.13239  0.38208  0.38090  Biso   1.000  H
  C256     1.0000 0.12618  0.32655  0.34836  Biso   1.000  C
  C257     1.0000 0.19941  0.43010  0.32442  Biso   1.000  C
  H338     1.0000 0.20390  0.48751  0.35589  Biso   1.000  H
  H339     1.0000 0.17440  0.50359  0.33090  Biso   1.000  H
  H340     1.0000 0.12489  0.28909  0.35800  Biso   1.000  H
  H341     1.0000 0.09608  0.30799  0.33339  Biso   1.000  H
  C258     1.0000 0.19579  0.37263  0.33926  Biso   1.000  C
  H342     1.0000 0.17211  0.41343  0.30871  Biso   1.000  H
  H343     1.0000 0.24600  0.46090  0.31919  Biso   1.000  H
  H344     1.0000 0.21061  0.34780  0.32820  Biso   1.000  H
  H345     1.0000 0.22618  0.38979  0.35420  Biso   1.000  H
  C259     1.0000 0.12874  0.01015  0.37640  Biso   1.000  C
  C260     1.0000 0.16353  0.01965  0.35204  Biso   1.000  C
  H346     1.0000 0.10003  0.02985  0.37536  Biso   1.000  H
  H347     1.0000 0.16130  0.03174  0.39016  Biso   1.000  H
  H348     1.0000 0.10155  0.96248  0.37996  Biso   1.000  H
  C261     1.0000 0.12024  0.99229  0.32931  Biso   1.000  C
  H349     1.0000 0.19342  0.06797  0.34936  Biso   1.000  H
  H350     1.0000 0.19175  0.99896  0.35336  Biso   1.000  H
  C262     1.0000 0.15606  0.00239  0.30484  Biso   1.000  C
  H351     1.0000 0.09193  0.01289  0.32797  Biso   1.000  H
  H352     1.0000 0.09030  0.94378  0.33186  Biso   1.000  H
  C263     1.0000 0.11358  0.97776  0.28023  Biso   1.000  C
  H353     1.0000 0.18773  0.05065  0.30296  Biso   1.000  H
  H354     1.0000 0.18272  0.97995  0.30606  Biso   1.000  H
  C264     1.0000 0.05657  0.99308  0.27908  Biso   1.000  C
  C265     1.0000 0.07258  0.90342  0.27963  Biso   1.000  C
  C266     1.0000 0.15713  0.99995  0.25606  Biso   1.000  C
  C267     1.0000 0.06366  0.05647  0.27887  Biso   1.000  C
  C268     1.0000 0.99287  0.93636  0.27887  Biso   1.000  C
  C269     1.0000 0.00562  0.87715  0.27961  Biso   1.000  C
  C270     1.0000 0.09868  0.85919  0.28029  Biso   1.000  C
  H355     1.0000 0.18363  0.04916  0.25587  Biso   1.000  H
  H356     1.0000 0.18863  0.98298  0.25696  Biso   1.000  H
  C271     1.0000 0.11882  0.97686  0.23174  Biso   1.000  C
  C272     1.0000 0.12284  0.12847  0.27961  Biso   1.000  C
  C273     1.0000 0.00692  0.06349  0.27908  Biso   1.000  C
  C274     1.0000 0.93653  0.94348  0.27908  Biso   1.000  C
  C275     1.0000 0.96154  0.80889  0.27935  Biso   1.000  C
  C276     1.0000 0.05710  0.79256  0.27965  Biso   1.000  C
  H357     1.0000 0.14542  0.87665  0.28117  Biso   1.000  H
  C277     1.0000 0.17175  0.01075  0.20987  Biso   1.000  C
  H358     1.0000 0.08486  0.99055  0.23086  Biso   1.000  H
  H359     1.0000 0.09642  0.92775  0.23036  Biso   1.000  H
  C278     1.0000 0.19112  0.15265  0.27935  Biso   1.000  C
  C279     1.0000 0.09657  0.16917  0.27963  Biso   1.000  C
  C280     1.0000 0.02222  0.13589  0.28023  Biso   1.000  C
  C281     1.0000 0.94356  0.00716  0.27887  Biso   1.000  C
  C282     1.0000 0.86411  0.88636  0.28023  Biso   1.000  C
  C283     1.0000 0.98842  0.76958  0.27925  Biso   1.000  C
  H360     1.0000 0.91475  0.79107  0.27927  Biso   1.000  H
  C284     1.0000 0.08296  0.74674  0.28061  Biso   1.000  C
  H361     1.0000 0.14733  0.01518  0.19517  Biso   1.000  H
  C285     1.0000 0.23853  0.07986  0.21187  Biso   1.000  C
  H362     1.0000 0.18473  0.97776  0.20476  Biso   1.000  H
  C286     1.0000 0.23044  0.21888  0.27925  Biso   1.000  C
  H363     1.0000 0.20893  0.12365  0.27927  Biso   1.000  H
  C287     1.0000 0.14085  0.23948  0.28029  Biso   1.000  C
  C288     1.0000 0.00004  0.15718  0.25606  Biso   1.000  C
  C289     1.0000 0.99762  0.15365  0.30484  Biso   1.000  C
  C290     1.0000 0.87154  0.99438  0.27961  Biso   1.000  C
  C291     1.0000 0.83085  0.92741  0.27963  Biso   1.000  C
  C292     1.0000 0.84631  0.84396  0.30484  Biso   1.000  C
  C293     1.0000 0.84288  0.84287  0.25606  Biso   1.000  C
  H364     1.0000 0.95903  0.72286  0.27887  Biso   1.000  H
  N13      1.0000 0.04467  0.68325  0.28504  Biso   1.000  N
  H365     1.0000 0.12925  0.76366  0.27787  Biso   1.000  H
  H366     1.0000 0.26523  0.07767  0.22607  Biso   1.000  H
  H367     1.0000 0.22835  0.11499  0.21497  Biso   1.000  H
  H368     1.0000 0.26354  0.08817  0.19586  Biso   1.000  H
  C294     1.0000 0.20743  0.26456  0.27965  Biso   1.000  C
  H369     1.0000 0.27712  0.23614  0.27887  Biso   1.000  H
  H370     1.0000 0.12336  0.26878  0.28117  Biso   1.000  H
  H371     1.0000 0.01703  0.20564  0.25696  Biso   1.000  H
  C295     1.0000 0.02315  0.14196  0.23174  Biso   1.000  C
  H372     1.0000 0.95086  0.13449  0.25587  Biso   1.000  H
  H373     1.0000 0.02002  0.20276  0.30606  Biso   1.000  H
  C296     1.0000 0.00775  0.12797  0.32931  Biso   1.000  C
  H374     1.0000 0.94935  0.13708  0.30296  Biso   1.000  H
  C297     1.0000 0.84734  0.03846  0.27935  Biso   1.000  C
  C298     1.0000 0.76058  0.90138  0.28029  Biso   1.000  C
  H375     1.0000 0.79719  0.81724  0.30606  Biso   1.000  H
  H376     1.0000 0.86296  0.81227  0.30296  Biso   1.000  H
  C299     1.0000 0.87203  0.87979  0.32931  Biso   1.000  C
  H377     1.0000 0.86551  0.81635  0.25587  Biso   1.000  H
  H378     1.0000 0.79434  0.81137  0.25696  Biso   1.000  H
  C300     1.0000 0.85807  0.88118  0.23174  Biso   1.000  C
  C301     1.0000 0.07664  0.64394  0.28623  Biso   1.000  C
  C302     1.0000 0.25323  0.33625  0.28061  Biso   1.000  C
  H379     1.0000 0.00944  0.09429  0.23086  Biso   1.000  H
  H380     1.0000 0.07223  0.16867  0.23036  Biso   1.000  H
  C303     1.0000 0.98926  0.16096  0.20987  Biso   1.000  C
  H381     1.0000 0.05623  0.14658  0.33186  Biso   1.000  H
  C304     1.0000 0.98031  0.14385  0.35204  Biso   1.000  C
  H382     1.0000 0.98713  0.07906  0.32797  Biso   1.000  H
  C305     1.0000 0.78114  0.01154  0.27925  Biso   1.000  C
  H383     1.0000 0.87636  0.08528  0.27927  Biso   1.000  H
  C306     1.0000 0.73548  0.94288  0.27965  Biso   1.000  C
  H384     1.0000 0.73122  0.85456  0.28117  Biso   1.000  H
  C307     1.0000 0.85609  0.83645  0.35204  Biso   1.000  C
  H385     1.0000 0.85345  0.90969  0.33186  Biso   1.000  H
  H386     1.0000 0.92093  0.90805  0.32797  Biso   1.000  H
  H387     1.0000 0.90570  0.91517  0.23086  Biso   1.000  H
  H388     1.0000 0.83131  0.90357  0.23036  Biso   1.000  H
  C308     1.0000 0.83908  0.82829  0.20987  Biso   1.000  C
  C309     1.0000 0.07354  0.61966  0.31365  Biso   1.000  C
  H389     1.0000 0.12446  0.67245  0.28117  Biso   1.000  H
  C310     1.0000 0.04397  0.58627  0.26802  Biso   1.000  C
  N14      1.0000 0.31675  0.36143  0.28504  Biso   1.000  N
  H390     1.0000 0.23634  0.36556  0.27787  Biso   1.000  H
  H391     1.0000 0.02223  0.20699  0.20476  Biso   1.000  H
  H392     1.0000 0.98485  0.13215  0.19517  Biso   1.000  H
  C311     1.0000 0.92016  0.15867  0.21187  Biso   1.000  C
  H393     1.0000 0.00102  0.19276  0.35336  Biso   1.000  H
  H394     1.0000 0.93205  0.12549  0.34936  Biso   1.000  H
  C312     1.0000 0.98982  0.11857  0.37640  Biso   1.000  C
  H395     1.0000 0.76383  0.04095  0.27887  Biso   1.000  H
  C313     1.0000 0.66376  0.91701  0.28061  Biso   1.000  C
  H396     1.0000 0.80728  0.80829  0.35336  Biso   1.000  H
  H397     1.0000 0.87453  0.80655  0.34936  Biso   1.000  H
  C314     1.0000 0.88143  0.87128  0.37640  Biso   1.000  C
  H398     1.0000 0.86786  0.85267  0.19517  Biso   1.000  H
  H399     1.0000 0.79305  0.81525  0.20476  Biso   1.000  H
  C315     1.0000 0.84135  0.76147  0.21187  Biso   1.000  C
  H400     1.0000 0.02649  0.59294  0.31906  Biso   1.000  H
  H401     1.0000 0.09617  0.65837  0.32526  Biso   1.000  H
  C316     1.0000 0.10705  0.57757  0.31561  Biso   1.000  C
  H402     1.0000 0.99566  0.55886  0.27247  Biso   1.000  H
  N15      1.0000 0.05025  0.61031  0.24150  Biso   1.000  N
  C317     1.0000 0.07572  0.54249  0.26973  Biso   1.000  C
  C318     1.0000 0.35607  0.43273  0.28623  Biso   1.000  C
  H403     1.0000 0.92233  0.18758  0.22607  Biso   1.000  H
  H404     1.0000 0.88504  0.11335  0.21497  Biso   1.000  H
  H405     1.0000 0.91184  0.17539  0.19586  Biso   1.000  H
  H406     1.0000 0.03752  0.13907  0.37996  Biso   1.000  H
  H407     1.0000 0.97014  0.07016  0.37536  Biso   1.000  H
  H408     1.0000 0.96826  0.12957  0.39016  Biso   1.000  H
  N16      1.0000 0.63854  0.95532  0.28504  Biso   1.000  N
  H409     1.0000 0.63445  0.87078  0.27787  Biso   1.000  H
  H410     1.0000 0.86089  0.89845  0.37996  Biso   1.000  H
  H411     1.0000 0.92983  0.89999  0.37536  Biso   1.000  H
  H412     1.0000 0.87044  0.83869  0.39016  Biso   1.000  H
  H413     1.0000 0.81239  0.73475  0.22607  Biso   1.000  H
  H414     1.0000 0.88661  0.77167  0.21497  Biso   1.000  H
  H415     1.0000 0.82464  0.73649  0.19586  Biso   1.000  H
  H416     1.0000 0.10312  0.56075  0.33337  Biso   1.000  H
  H417     1.0000 0.15484  0.60488  0.31137  Biso   1.000  H
  C319     1.0000 0.07319  0.51856  0.29684  Biso   1.000  C
  C320     1.0000 0.99607  0.59175  0.22827  Biso   1.000  C
  H418     1.0000 0.05193  0.50378  0.25817  Biso   1.000  H
  H419     1.0000 0.12265  0.56826  0.26396  Biso   1.000  H
  C321     1.0000 0.38034  0.45388  0.31365  Biso   1.000  C
  H420     1.0000 0.32756  0.45199  0.28117  Biso   1.000  H
  C322     1.0000 0.41373  0.45766  0.26802  Biso   1.000  C
  C323     1.0000 0.56730  0.92333  0.28623  Biso   1.000  C
  H421     1.0000 0.09581  0.49209  0.29767  Biso   1.000  H
  H422     1.0000 0.02623  0.48935  0.30196  Biso   1.000  H
  C324     1.0000 0.99636  0.61344  0.20259  Biso   1.000  C
  H423     1.0000 0.95445  0.56254  0.23607  Biso   1.000  H
  H424     1.0000 0.40703  0.43358  0.31906  Biso   1.000  H
  H425     1.0000 0.34164  0.43776  0.32526  Biso   1.000  H
  C325     1.0000 0.42244  0.52946  0.31561  Biso   1.000  C
  N17      1.0000 0.38968  0.43990  0.24150  Biso   1.000  N
  H426     1.0000 0.44112  0.43676  0.27247  Biso   1.000  H
  C326     1.0000 0.45754  0.53329  0.26973  Biso   1.000  C
  C327     1.0000 0.54611  0.92646  0.31365  Biso   1.000  C
  H427     1.0000 0.54807  0.87556  0.28117  Biso   1.000  H
  C328     1.0000 0.54234  0.95606  0.26802  Biso   1.000  C
  C329     1.0000 0.93909  0.59085  0.18806  Biso   1.000  C
  C330     1.0000 0.05502  0.66285  0.19148  Biso   1.000  C
  H428     1.0000 0.43923  0.54235  0.33337  Biso   1.000  H
  H429     1.0000 0.39512  0.54996  0.31137  Biso   1.000  H
  C331     1.0000 0.48146  0.55469  0.29684  Biso   1.000  C
  C332     1.0000 0.40824  0.40427  0.22827  Biso   1.000  C
  H430     1.0000 0.49622  0.54817  0.25817  Biso   1.000  H
  H431     1.0000 0.43176  0.55439  0.26396  Biso   1.000  H
  H432     1.0000 0.56644  0.97348  0.31906  Biso   1.000  H
  H433     1.0000 0.56227  0.90387  0.32526  Biso   1.000  H
  C333     1.0000 0.47051  0.89297  0.31561  Biso   1.000  C
  N18      1.0000 0.56004  0.94975  0.24150  Biso   1.000  N
  C334     1.0000 0.46677  0.92427  0.26973  Biso   1.000  C
  H434     1.0000 0.56323  0.00438  0.27247  Biso   1.000  H
  C335     1.0000 0.93565  0.61155  0.16476  Biso   1.000  C
  H435     1.0000 0.89870  0.55747  0.19546  Biso   1.000  H
  C336     1.0000 0.05311  0.68678  0.16671  Biso   1.000  C
  H436     1.0000 0.09597  0.68036  0.20046  Biso   1.000  H
  H437     1.0000 0.50796  0.60380  0.29767  Biso   1.000  H
  H438     1.0000 0.51065  0.53687  0.30196  Biso   1.000  H
  C337     1.0000 0.38655  0.38288  0.20259  Biso   1.000  C
  H439     1.0000 0.43746  0.39188  0.23607  Biso   1.000  H
  H440     1.0000 0.45767  0.89685  0.33337  Biso   1.000  H
  H441     1.0000 0.45005  0.84516  0.31137  Biso   1.000  H
  C338     1.0000 0.44530  0.92676  0.29684  Biso   1.000  C
  C339     1.0000 0.59573  0.00398  0.22827  Biso   1.000  C
  H442     1.0000 0.45186  0.94805  0.25817  Biso   1.000  H
  H443     1.0000 0.44559  0.87735  0.26396  Biso   1.000  H
  C340     1.0000 0.99387  0.66404  0.15387  Biso   1.000  C
  H444     1.0000 0.89474  0.59135  0.15556  Biso   1.000  H
  C341     1.0000 0.11253  0.74166  0.15255  Biso   1.000  C
  C342     1.0000 0.33713  0.39218  0.19148  Biso   1.000  C
  C343     1.0000 0.40914  0.34825  0.18806  Biso   1.000  C
  H445     1.0000 0.39626  0.90417  0.29767  Biso   1.000  H
  H446     1.0000 0.46312  0.97378  0.30196  Biso   1.000  H
  C344     1.0000 0.61713  0.00368  0.20259  Biso   1.000  C
  H447     1.0000 0.60813  0.04558  0.23607  Biso   1.000  H
  C345     1.0000 0.00717  0.70047  0.12844  Biso   1.000  C
  C346     1.0000 0.07724  0.74564  0.12848  Biso   1.000  C
  C347     1.0000 0.13912  0.80675  0.16957  Biso   1.000  C
  C348     1.0000 0.16221  0.71977  0.14889  Biso   1.000  C
  C349     1.0000 0.31323  0.36636  0.16671  Biso   1.000  C
  H448     1.0000 0.31965  0.41557  0.20046  Biso   1.000  H
  C350     1.0000 0.38843  0.32406  0.16476  Biso   1.000  C
  H449     1.0000 0.44254  0.34128  0.19546  Biso   1.000  H
  C351     1.0000 0.60781  0.94497  0.19148  Biso   1.000  C
  C352     1.0000 0.65175  0.06085  0.18806  Biso   1.000  C
  C353     1.0000 0.96964  0.69857  0.10776  Biso   1.000  C
  C354     1.0000 0.10531  0.78704  0.10717  Biso   1.000  C
  H450     1.0000 0.15274  0.79779  0.18636  Biso   1.000  H
  H451     1.0000 0.17957  0.84257  0.16127  Biso   1.000  H
  C355     1.0000 0.09070  0.83366  0.17457  Biso   1.000  C
  H452     1.0000 0.16840  0.70285  0.16547  Biso   1.000  H
  H453     1.0000 0.20531  0.75918  0.14427  Biso   1.000  H
  C356     1.0000 0.14544  0.66728  0.12896  Biso   1.000  C
  C357     1.0000 0.33596  0.32979  0.15387  Biso   1.000  C
  C358     1.0000 0.25835  0.37089  0.15255  Biso   1.000  C
  H454     1.0000 0.40863  0.30337  0.15556  Biso   1.000  H
  C359     1.0000 0.63362  0.94686  0.16671  Biso   1.000  C
  H455     1.0000 0.58447  0.90407  0.20046  Biso   1.000  H
  C360     1.0000 0.67596  0.06438  0.16476  Biso   1.000  C
  H456     1.0000 0.65872  0.10125  0.19546  Biso   1.000  H
  C361     1.0000 0.99797  0.74007  0.08735  Biso   1.000  C
  C362     1.0000 0.89540  0.64887  0.10412  Biso   1.000  C
  C363     1.0000 0.17666  0.83675  0.10012  Biso   1.000  C
  C364     1.0000 0.06499  0.78406  0.08682  Biso   1.000  C
  H457     1.0000 0.05551  0.79948  0.18557  Biso   1.000  H
  H458     1.0000 0.11634  0.87287  0.18576  Biso   1.000  H
  C365     1.0000 0.05435  0.85446  0.15677  Biso   1.000  C
  H459     1.0000 0.13551  0.68016  0.11217  Biso   1.000  H
  H460     1.0000 0.10759  0.62364  0.13427  Biso   1.000  H
  C366     1.0000 0.21562  0.66698  0.12856  Biso   1.000  C
  C367     1.0000 0.29953  0.30665  0.12844  Biso   1.000  C
  C368     1.0000 0.25434  0.33158  0.12848  Biso   1.000  C
  C369     1.0000 0.19325  0.33237  0.16957  Biso   1.000  C
  C370     1.0000 0.28023  0.44249  0.14889  Biso   1.000  C
  C371     1.0000 0.62912  0.88745  0.15255  Biso   1.000  C
  C372     1.0000 0.67025  0.00617  0.15387  Biso   1.000  C
  H461     1.0000 0.69663  0.10528  0.15556  Biso   1.000  H
  C373     1.0000 0.94200  0.72345  0.06790  Biso   1.000  C
  C374     1.0000 0.88342  0.67006  0.07844  Biso   1.000  C
  C375     1.0000 0.85288  0.65698  0.12361  Biso   1.000  C
  C376     1.0000 0.87954  0.57647  0.10255  Biso   1.000  C
  C377     1.0000 0.17605  0.85630  0.07580  Biso   1.000  C
  C378     1.0000 0.23723  0.86068  0.11328  Biso   1.000  C
  C379     1.0000 0.10799  0.83187  0.06462  Biso   1.000  C
  C380     1.0000 0.00194  0.88039  0.16037  Biso   1.000  C
  H462     1.0000 0.03091  0.81585  0.14506  Biso   1.000  H
  H463     1.0000 0.09024  0.88979  0.14627  Biso   1.000  H
  H464     1.0000 0.25434  0.71246  0.12716  Biso   1.000  H
  H465     1.0000 0.22077  0.64479  0.14397  Biso   1.000  H
  C381     1.0000 0.20551  0.62608  0.10416  Biso   1.000  C
  C382     1.0000 0.30144  0.27107  0.10776  Biso   1.000  C
  C383     1.0000 0.21297  0.31829  0.10717  Biso   1.000  C
  H466     1.0000 0.20222  0.35496  0.18636  Biso   1.000  H
  H467     1.0000 0.15744  0.33695  0.16127  Biso   1.000  H
  C384     1.0000 0.16634  0.25709  0.17457  Biso   1.000  C
  H468     1.0000 0.29712  0.46557  0.16547  Biso   1.000  H
  H469     1.0000 0.24084  0.44617  0.14427  Biso   1.000  H
  C385     1.0000 0.33272  0.47816  0.12896  Biso   1.000  C
  C386     1.0000 0.66846  0.92278  0.12848  Biso   1.000  C
  C387     1.0000 0.66767  0.86088  0.16957  Biso   1.000  C
  C388     1.0000 0.55752  0.83774  0.14889  Biso   1.000  C
  C389     1.0000 0.69330  0.99288  0.12844  Biso   1.000  C
  C390     1.0000 0.93853  0.75226  0.04542  Biso   1.000  C
  C391     1.0000 0.82335  0.64394  0.06476  Biso   1.000  C
  H470     1.0000 0.80571  0.62608  0.11917  Biso   1.000  H
  H471     1.0000 0.86109  0.64255  0.14036  Biso   1.000  H
  C392     1.0000 0.86045  0.71728  0.12656  Biso   1.000  C
  H472     1.0000 0.83078  0.54736  0.10117  Biso   1.000  H
  H473     1.0000 0.89371  0.56508  0.11876  Biso   1.000  H
  C393     1.0000 0.91334  0.56065  0.07957  Biso   1.000  C
  C394     1.0000 0.23624  0.90128  0.06345  Biso   1.000  C
  C395     1.0000 0.29509  0.90367  0.10052  Biso   1.000  C
  H474     1.0000 0.23835  0.84774  0.13047  Biso   1.000  H
  C396     1.0000 0.10196  0.79714  0.03908  Biso   1.000  C
  C397     1.0000 0.09596  0.89158  0.06181  Biso   1.000  C
  H475     1.0000 0.95982  0.84406  0.16696  Biso   1.000  H
  H476     1.0000 0.99421  0.89526  0.14377  Biso   1.000  H
  H477     1.0000 0.02006  0.91765  0.17246  Biso   1.000  H
  H478     1.0000 0.16954  0.58025  0.10686  Biso   1.000  H
  H479     1.0000 0.24675  0.62608  0.10006  Biso   1.000  H
  H480     1.0000 0.19382  0.64588  0.08986  Biso   1.000  H
  C398     1.0000 0.25994  0.25789  0.08735  Biso   1.000  C
  C399     1.0000 0.35116  0.24659  0.10412  Biso   1.000  C
  C400     1.0000 0.16326  0.33989  0.10012  Biso   1.000  C
  C401     1.0000 0.21594  0.28098  0.08682  Biso   1.000  C
  H481     1.0000 0.20054  0.25605  0.18557  Biso   1.000  H
  H482     1.0000 0.12712  0.24346  0.18576  Biso   1.000  H
  C402     1.0000 0.14553  0.19987  0.15677  Biso   1.000  C
  H483     1.0000 0.31986  0.45537  0.11217  Biso   1.000  H
  H484     1.0000 0.37635  0.48398  0.13427  Biso   1.000  H
  C403     1.0000 0.33302  0.54867  0.12856  Biso   1.000  C
  C404     1.0000 0.68177  0.89467  0.10717  Biso   1.000  C
  H485     1.0000 0.64504  0.84725  0.18636  Biso   1.000  H
  H486     1.0000 0.66303  0.82048  0.16127  Biso   1.000  H
  C405     1.0000 0.74296  0.90924  0.17457  Biso   1.000  C
  H487     1.0000 0.53444  0.83157  0.16547  Biso   1.000  H
  H488     1.0000 0.55385  0.79465  0.14427  Biso   1.000  H
  C406     1.0000 0.52184  0.85456  0.12896  Biso   1.000  C
  C407     1.0000 0.72893  0.03035  0.10776  Biso   1.000  C
  H489     1.0000 0.97672  0.79048  0.03887  Biso   1.000  H
  C408     1.0000 0.87894  0.72505  0.03252  Biso   1.000  C
  C409     1.0000 0.82120  0.67066  0.04232  Biso   1.000  C
  H490     1.0000 0.78402  0.60717  0.07147  Biso   1.000  H
  H491     1.0000 0.85719  0.73455  0.10957  Biso   1.000  H
  H492     1.0000 0.90537  0.74749  0.13356  Biso   1.000  H
  C410     1.0000 0.80789  0.71738  0.14468  Biso   1.000  C
  H493     1.0000 0.95686  0.60045  0.07576  Biso   1.000  H
  H494     1.0000 0.88506  0.55045  0.06407  Biso   1.000  H
  C411     1.0000 0.92488  0.49607  0.08576  Biso   1.000  C
  H495     1.0000 0.95565  0.56408  0.08526  Biso   1.000  H
  H496     1.0000 0.92315  0.59284  0.06547  Biso   1.000  H
  C412     1.0000 0.86385  0.48786  0.06997  Biso   1.000  C
  C413     1.0000 0.29577  0.92407  0.07616  Biso   1.000  C
  H497     1.0000 0.23564  0.91566  0.04647  Biso   1.000  H
  H498     1.0000 0.33629  0.91944  0.10916  Biso   1.000  H
  C414     1.0000 0.11640  0.74097  0.04044  Biso   1.000  C
  H499     1.0000 0.05620  0.77958  0.03247  Biso   1.000  H
  H500     1.0000 0.13284  0.83038  0.02666  Biso   1.000  H
  H501     1.0000 0.12665  0.92168  0.04847  Biso   1.000  H
  H502     1.0000 0.05004  0.87436  0.05537  Biso   1.000  H
  C415     1.0000 0.10412  0.93099  0.08467  Biso   1.000  C
  C416     1.0000 0.27652  0.21858  0.06790  Biso   1.000  C
  C417     1.0000 0.32993  0.21336  0.07844  Biso   1.000  C
  C418     1.0000 0.34304  0.19589  0.12361  Biso   1.000  C
  C419     1.0000 0.42352  0.30307  0.10255  Biso   1.000  C
  C420     1.0000 0.14369  0.31979  0.07580  Biso   1.000  C
  C421     1.0000 0.13933  0.37656  0.11328  Biso   1.000  C
  C422     1.0000 0.16810  0.27605  0.06462  Biso   1.000  C
  C423     1.0000 0.11964  0.12156  0.16037  Biso   1.000  C
  H503     1.0000 0.18414  0.21505  0.14506  Biso   1.000  H
  H504     1.0000 0.11023  0.20047  0.14627  Biso   1.000  H
  H505     1.0000 0.28751  0.54185  0.12716  Biso   1.000  H
  H506     1.0000 0.35526  0.57598  0.14397  Biso   1.000  H
  C424     1.0000 0.37393  0.57946  0.10416  Biso   1.000  C
  C425     1.0000 0.66012  0.82336  0.10012  Biso   1.000  C
  C426     1.0000 0.71902  0.93497  0.08682  Biso   1.000  C
  H507     1.0000 0.74394  0.94447  0.18557  Biso   1.000  H
  H508     1.0000 0.75650  0.88367  0.18576  Biso   1.000  H
  C427     1.0000 0.80013  0.94567  0.15677  Biso   1.000  C
  H509     1.0000 0.54463  0.86446  0.11217  Biso   1.000  H
  H510     1.0000 0.51606  0.89238  0.13427  Biso   1.000  H
  C428     1.0000 0.45136  0.78436  0.12856  Biso   1.000  C
  C429     1.0000 0.74216  0.00209  0.08735  Biso   1.000  C
  C430     1.0000 0.75346  0.10459  0.10412  Biso   1.000  C
  H511     1.0000 0.87682  0.74355  0.01656  Biso   1.000  H
  C431     1.0000 0.75886  0.64165  0.02792  Biso   1.000  C
  H512     1.0000 0.81967  0.71475  0.16267  Biso   1.000  H
  H513     1.0000 0.76373  0.67827  0.14117  Biso   1.000  H
  C432     1.0000 0.80536  0.78326  0.14057  Biso   1.000  C
  H514     1.0000 0.88576  0.46109  0.09496  Biso   1.000  H
  H515     1.0000 0.92959  0.47706  0.06947  Biso   1.000  H
  C433     1.0000 0.99022  0.52015  0.10276  Biso   1.000  C
  H516     1.0000 0.85005  0.45845  0.08517  Biso   1.000  H
  H517     1.0000 0.88963  0.47427  0.05887  Biso   1.000  H
  C434     1.0000 0.79669  0.47109  0.05447  Biso   1.000  C
  C435     1.0000 0.36100  0.97049  0.06413  Biso   1.000  C
  C436     1.0000 0.10861  0.70514  0.01600  Biso   1.000  C
  H518     1.0000 0.16263  0.75888  0.04657  Biso   1.000  H
  H519     1.0000 0.08654  0.70848  0.05337  Biso   1.000  H
  H520     1.0000 0.14854  0.94477  0.09207  Biso   1.000  H
  H521     1.0000 0.07056  0.90188  0.09736  Biso   1.000  H
  C437     1.0000 0.09811  0.99448  0.08126  Biso   1.000  C
  C438     1.0000 0.24775  0.18629  0.04542  Biso   1.000  C
  C439     1.0000 0.35603  0.17937  0.06476  Biso   1.000  C
  H522     1.0000 0.37393  0.17967  0.11917  Biso   1.000  H
  H523     1.0000 0.35745  0.21858  0.14036  Biso   1.000  H
  C440     1.0000 0.28272  0.14315  0.12656  Biso   1.000  C
  H524     1.0000 0.45262  0.28336  0.10117  Biso   1.000  H
  H525     1.0000 0.43495  0.32869  0.11876  Biso   1.000  H
  C441     1.0000 0.43932  0.35267  0.07957  Biso   1.000  C
  C442     1.0000 0.09871  0.33496  0.06345  Biso   1.000  C
  C443     1.0000 0.09633  0.39148  0.10052  Biso   1.000  C
  H526     1.0000 0.15225  0.39059  0.13047  Biso   1.000  H
  C444     1.0000 0.20284  0.30476  0.03908  Biso   1.000  C
  C445     1.0000 0.10842  0.20435  0.06181  Biso   1.000  C
  H527     1.0000 0.15592  0.11578  0.16696  Biso   1.000  H
  H528     1.0000 0.10472  0.09897  0.14377  Biso   1.000  H
  H529     1.0000 0.08233  0.10235  0.17246  Biso   1.000  H
  H530     1.0000 0.41973  0.58927  0.10686  Biso   1.000  H
  H531     1.0000 0.37393  0.62066  0.10006  Biso   1.000  H
  H532     1.0000 0.35413  0.54797  0.08986  Biso   1.000  H
  C446     1.0000 0.68022  0.82391  0.07580  Biso   1.000  C
  C447     1.0000 0.62340  0.76276  0.11328  Biso   1.000  C
  C448     1.0000 0.72393  0.89203  0.06462  Biso   1.000  C
  C449     1.0000 0.87842  0.99806  0.16037  Biso   1.000  C
  H533     1.0000 0.78489  0.96905  0.14506  Biso   1.000  H
  H534     1.0000 0.79951  0.90979  0.14627  Biso   1.000  H
  H535     1.0000 0.45816  0.74564  0.12716  Biso   1.000  H
  H536     1.0000 0.42400  0.77928  0.14397  Biso   1.000  H
  C450     1.0000 0.42056  0.79446  0.10416  Biso   1.000  C
  C451     1.0000 0.78143  0.05797  0.06790  Biso   1.000  C
  C452     1.0000 0.78665  0.11658  0.07844  Biso   1.000  C
  C453     1.0000 0.80415  0.14718  0.12361  Biso   1.000  C
  C454     1.0000 0.69693  0.12046  0.10255  Biso   1.000  C
  N19      1.0000 0.70840  0.58657  0.03365  Biso   1.000  N
  H537     1.0000 0.75612  0.66529  0.01357  Biso   1.000  H
  H538     1.0000 0.79446  0.78585  0.12256  Biso   1.000  H
  H539     1.0000 0.84817  0.82147  0.14487  Biso   1.000  H
  H540     1.0000 0.77043  0.78217  0.15157  Biso   1.000  H
  H541     1.0000 0.99684  0.48228  0.10617  Biso   1.000  H
  H542     1.0000 0.98514  0.53826  0.11907  Biso   1.000  H
  H543     1.0000 0.02890  0.55468  0.09356  Biso   1.000  H
  H544     1.0000 0.77954  0.49935  0.06087  Biso   1.000  H
  H545     1.0000 0.76306  0.42417  0.05707  Biso   1.000  H
  H546     1.0000 0.80674  0.47955  0.03616  Biso   1.000  H
  N20      1.0000 0.36703  0.98368  0.04097  Biso   1.000  N
  H547     1.0000 0.39956  0.99075  0.07467  Biso   1.000  H
  H548     1.0000 0.13588  0.73838  0.00276  Biso   1.000  H
  H549     1.0000 0.06152  0.68454  0.01056  Biso   1.000  H
  C455     1.0000 0.12740  0.65265  0.01629  Biso   1.000  C
  H550     1.0000 0.13302  0.02508  0.06926  Biso   1.000  H
  C456     1.0000 0.10523  0.03249  0.10707  Biso   1.000  C
  H551     1.0000 0.05448  0.98159  0.07357  Biso   1.000  H
  H552     1.0000 0.20953  0.18629  0.03887  Biso   1.000  H
  C457     1.0000 0.27492  0.15385  0.03252  Biso   1.000  C
  C458     1.0000 0.32934  0.15056  0.04232  Biso   1.000  C
  H553     1.0000 0.39283  0.17688  0.07147  Biso   1.000  H
  H554     1.0000 0.26544  0.12265  0.10957  Biso   1.000  H
  H555     1.0000 0.25255  0.15788  0.13356  Biso   1.000  H
  C459     1.0000 0.28261  0.09046  0.14468  Biso   1.000  C
  H556     1.0000 0.39953  0.35636  0.07576  Biso   1.000  H
  H557     1.0000 0.44952  0.33456  0.06407  Biso   1.000  H
  C460     1.0000 0.50394  0.42875  0.08576  Biso   1.000  C
  H558     1.0000 0.43594  0.39158  0.08526  Biso   1.000  H
  H559     1.0000 0.40714  0.33028  0.06547  Biso   1.000  H
  C461     1.0000 0.51215  0.37596  0.06997  Biso   1.000  C
  H560     1.0000 0.08433  0.31998  0.04647  Biso   1.000  H
  C462     1.0000 0.07596  0.37168  0.07616  Biso   1.000  C
  H561     1.0000 0.08054  0.41686  0.10916  Biso   1.000  H
  C463     1.0000 0.25905  0.37546  0.04044  Biso   1.000  C
  H562     1.0000 0.22041  0.27665  0.03247  Biso   1.000  H
  H563     1.0000 0.16963  0.30247  0.02666  Biso   1.000  H
  H564     1.0000 0.07834  0.20495  0.04847  Biso   1.000  H
  H565     1.0000 0.12564  0.17569  0.05537  Biso   1.000  H
  C464     1.0000 0.06904  0.17315  0.08467  Biso   1.000  C
  C465     1.0000 0.66505  0.76376  0.06345  Biso   1.000  C
  C466     1.0000 0.60853  0.70484  0.10052  Biso   1.000  C
  H566     1.0000 0.60945  0.76167  0.13047  Biso   1.000  H
  C467     1.0000 0.69526  0.89805  0.03908  Biso   1.000  C
  C468     1.0000 0.79562  0.90407  0.06181  Biso   1.000  C
  H567     1.0000 0.89763  0.97995  0.17246  Biso   1.000  H
  H568     1.0000 0.88426  0.04015  0.16696  Biso   1.000  H
  H569     1.0000 0.90106  0.00577  0.14377  Biso   1.000  H
  H570     1.0000 0.41078  0.83048  0.10686  Biso   1.000  H
  H571     1.0000 0.37936  0.75326  0.10006  Biso   1.000  H
  H572     1.0000 0.45205  0.80615  0.08986  Biso   1.000  H
  C469     1.0000 0.81372  0.06145  0.04542  Biso   1.000  C
  C470     1.0000 0.82066  0.17669  0.06476  Biso   1.000  C
  H573     1.0000 0.82031  0.19425  0.11917  Biso   1.000  H
  H574     1.0000 0.78146  0.13887  0.14036  Biso   1.000  H
  C471     1.0000 0.85683  0.13957  0.12656  Biso   1.000  C
  H575     1.0000 0.71664  0.16927  0.10117  Biso   1.000  H
  H576     1.0000 0.67136  0.10628  0.11876  Biso   1.000  H
  C472     1.0000 0.64734  0.08668  0.07957  Biso   1.000  C
  C473     1.0000 0.64972  0.56264  0.01700  Biso   1.000  C
  C474     1.0000 0.43570  0.03045  0.03235  Biso   1.000  C
  H577     1.0000 0.12064  0.63275  0.99916  Biso   1.000  H
  H578     1.0000 0.09965  0.61827  0.02877  Biso   1.000  H
  H579     1.0000 0.17435  0.67235  0.02116  Biso   1.000  H
  H580     1.0000 0.06942  0.00328  0.11886  Biso   1.000  H
  H581     1.0000 0.10214  0.07235  0.10357  Biso   1.000  H
  H582     1.0000 0.14834  0.04538  0.11497  Biso   1.000  H
  H583     1.0000 0.25644  0.13325  0.01656  Biso   1.000  H
  C475     1.0000 0.35833  0.11718  0.02792  Biso   1.000  C
  H584     1.0000 0.28526  0.10489  0.16267  Biso   1.000  H
  H585     1.0000 0.32175  0.08548  0.14117  Biso   1.000  H
  C476     1.0000 0.21673  0.02204  0.14057  Biso   1.000  C
  H586     1.0000 0.53892  0.42467  0.09496  Biso   1.000  H
  H587     1.0000 0.52293  0.45259  0.06947  Biso   1.000  H
  C477     1.0000 0.47982  0.47005  0.10276  Biso   1.000  C
  H588     1.0000 0.54155  0.39158  0.08517  Biso   1.000  H
  H589     1.0000 0.52573  0.41537  0.05887  Biso   1.000  H
  C478     1.0000 0.52892  0.32556  0.05447  Biso   1.000  C
  C479     1.0000 0.02952  0.39049  0.06413  Biso   1.000  C
  C480     1.0000 0.29486  0.40348  0.01600  Biso   1.000  C
  H590     1.0000 0.24114  0.40377  0.04657  Biso   1.000  H
  H591     1.0000 0.29154  0.37805  0.05337  Biso   1.000  H
  H592     1.0000 0.05521  0.20375  0.09207  Biso   1.000  H
  H593     1.0000 0.09813  0.16867  0.09736  Biso   1.000  H
  C481     1.0000 0.00554  0.10364  0.08126  Biso   1.000  C
  H594     1.0000 0.68004  0.76435  0.04647  Biso   1.000  H
  C482     1.0000 0.62831  0.70425  0.07616  Biso   1.000  C
  H595     1.0000 0.58315  0.66365  0.10916  Biso   1.000  H
  C483     1.0000 0.62455  0.88357  0.04044  Biso   1.000  C
  H596     1.0000 0.72330  0.94378  0.03247  Biso   1.000  H
  H597     1.0000 0.69753  0.86715  0.02666  Biso   1.000  H
  H598     1.0000 0.79500  0.87337  0.04847  Biso   1.000  H
  H599     1.0000 0.82429  0.94994  0.05537  Biso   1.000  H
  C484     1.0000 0.82680  0.89586  0.08467  Biso   1.000  C
  C485     1.0000 0.84615  0.12106  0.03252  Biso   1.000  C
  H600     1.0000 0.81373  0.02329  0.03887  Biso   1.000  H
  C486     1.0000 0.84946  0.17878  0.04232  Biso   1.000  C
  H601     1.0000 0.82317  0.21599  0.07147  Biso   1.000  H
  H602     1.0000 0.87734  0.14275  0.10957  Biso   1.000  H
  H603     1.0000 0.84215  0.09469  0.13356  Biso   1.000  H
  C487     1.0000 0.90954  0.19216  0.14468  Biso   1.000  C
  H604     1.0000 0.64365  0.04319  0.07576  Biso   1.000  H
  H605     1.0000 0.66546  0.11499  0.06407  Biso   1.000  H
  C488     1.0000 0.57127  0.07518  0.08576  Biso   1.000  C
  H606     1.0000 0.60844  0.04438  0.08526  Biso   1.000  H
  H607     1.0000 0.66976  0.07687  0.06547  Biso   1.000  H
  C489     1.0000 0.62404  0.13618  0.06997  Biso   1.000  C
  C490     1.0000 0.59474  0.56428  0.03235  Biso   1.000  C
  H608     1.0000 0.66121  0.59294  0.00186  Biso   1.000  H
  C491     1.0000 0.62668  0.49268  0.00767  Biso   1.000  C
  C492     1.0000 0.43734  0.08707  0.01700  Biso   1.000  C
  H609     1.0000 0.46571  0.04876  0.04757  Biso   1.000  H
  C493     1.0000 0.45949  0.99323  0.01503  Biso   1.000  C
  N21      1.0000 0.41341  0.12185  0.03365  Biso   1.000  N
  H610     1.0000 0.33474  0.09086  0.01357  Biso   1.000  H
  H611     1.0000 0.21413  0.00856  0.12256  Biso   1.000  H
  H612     1.0000 0.17854  0.02667  0.14487  Biso   1.000  H
  H613     1.0000 0.21781  0.98826  0.15157  Biso   1.000  H
  H614     1.0000 0.44535  0.47428  0.09356  Biso   1.000  H
  H615     1.0000 0.51773  0.51458  0.10617  Biso   1.000  H
  H616     1.0000 0.46172  0.44686  0.11907  Biso   1.000  H
  H617     1.0000 0.50063  0.28018  0.06087  Biso   1.000  H
  H618     1.0000 0.57583  0.33889  0.05707  Biso   1.000  H
  H619     1.0000 0.52041  0.32715  0.03616  Biso   1.000  H
  N22      1.0000 0.01635  0.38337  0.04097  Biso   1.000  N
  H620     1.0000 0.00922  0.40875  0.07467  Biso   1.000  H
  H621     1.0000 0.26164  0.39746  0.00276  Biso   1.000  H
  H622     1.0000 0.31542  0.37696  0.01056  Biso   1.000  H
  C494     1.0000 0.34736  0.47478  0.01629  Biso   1.000  C
  H623     1.0000 0.01841  0.07284  0.07357  Biso   1.000  H
  H624     1.0000 0.97496  0.10797  0.06926  Biso   1.000  H
  C495     1.0000 0.96751  0.07274  0.10707  Biso   1.000  C
  C496     1.0000 0.60955  0.63907  0.06413  Biso   1.000  C
  C497     1.0000 0.59657  0.89138  0.01600  Biso   1.000  C
  H625     1.0000 0.59618  0.83735  0.04657  Biso   1.000  H
  H626     1.0000 0.62197  0.91347  0.05337  Biso   1.000  H
  H627     1.0000 0.79621  0.85148  0.09207  Biso   1.000  H
  H628     1.0000 0.83136  0.92945  0.09736  Biso   1.000  H
  C498     1.0000 0.89630  0.90188  0.08126  Biso   1.000  C
  H629     1.0000 0.86672  0.12315  0.01656  Biso   1.000  H
  C499     1.0000 0.88281  0.24117  0.02792  Biso   1.000  C
  H630     1.0000 0.89516  0.18037  0.16267  Biso   1.000  H
  H631     1.0000 0.91452  0.23624  0.14117  Biso   1.000  H
  C500     1.0000 0.97792  0.19465  0.14057  Biso   1.000  C
  H632     1.0000 0.57535  0.11429  0.09496  Biso   1.000  H
  H633     1.0000 0.54744  0.07036  0.06947  Biso   1.000  H
  C501     1.0000 0.52993  0.00975  0.10276  Biso   1.000  C
  H634     1.0000 0.60844  0.14997  0.08517  Biso   1.000  H
  H635     1.0000 0.58463  0.11036  0.05887  Biso   1.000  H
  C502     1.0000 0.67444  0.20336  0.05447  Biso   1.000  C
  N23      1.0000 0.61664  0.63300  0.04097  Biso   1.000  N
  H636     1.0000 0.58306  0.53428  0.04757  Biso   1.000  H
  C503     1.0000 0.53370  0.54045  0.01503  Biso   1.000  C
  H637     1.0000 0.66255  0.49228  0.99757  Biso   1.000  H
  C504     1.0000 0.56402  0.46726  0.99109  Biso   1.000  C
  H638     1.0000 0.61698  0.46278  0.02256  Biso   1.000  H
  H639     1.0000 0.40704  0.06827  0.00186  Biso   1.000  H
  C505     1.0000 0.50731  0.13394  0.00767  Biso   1.000  C
  C506     1.0000 0.52913  0.03926  0.00592  Biso   1.000  C
  H640     1.0000 0.45826  0.95577  0.02467  Biso   1.000  H
  H641     1.0000 0.42940  0.97467  0.00006  Biso   1.000  H
  C507     1.0000 0.96956  0.40527  0.03235  Biso   1.000  C
  H642     1.0000 0.38173  0.48139  0.02877  Biso   1.000  H
  H643     1.0000 0.32765  0.50199  0.02116  Biso   1.000  H
  H644     1.0000 0.36721  0.48786  0.99916  Biso   1.000  H
  H645     1.0000 0.99676  0.06618  0.11886  Biso   1.000  H
  H646     1.0000 0.92762  0.02975  0.10357  Biso   1.000  H
  H647     1.0000 0.95465  0.10295  0.11497  Biso   1.000  H
  H648     1.0000 0.59120  0.60045  0.07467  Biso   1.000  H
  H649     1.0000 0.60257  0.86416  0.00276  Biso   1.000  H
  H650     1.0000 0.62304  0.93845  0.01056  Biso   1.000  H
  C508     1.0000 0.52520  0.87257  0.01629  Biso   1.000  C
  H651     1.0000 0.92711  0.94557  0.07357  Biso   1.000  H
  H652     1.0000 0.89202  0.86695  0.06926  Biso   1.000  H
  C509     1.0000 0.92722  0.89476  0.10707  Biso   1.000  C
  N24      1.0000 0.87815  0.29157  0.03365  Biso   1.000  N
  H653     1.0000 0.90915  0.24386  0.01357  Biso   1.000  H
  H654     1.0000 0.01172  0.22958  0.15157  Biso   1.000  H
  H655     1.0000 0.99143  0.20554  0.12256  Biso   1.000  H
  H656     1.0000 0.97333  0.15186  0.14487  Biso   1.000  H
  H657     1.0000 0.52573  0.97109  0.09356  Biso   1.000  H
  H658     1.0000 0.48545  0.00318  0.10617  Biso   1.000  H
  H659     1.0000 0.55314  0.01488  0.11907  Biso   1.000  H
  H660     1.0000 0.71984  0.22047  0.06087  Biso   1.000  H
  H661     1.0000 0.66113  0.23699  0.05707  Biso   1.000  H
  H662     1.0000 0.67283  0.19325  0.03616  Biso   1.000  H
  H663     1.0000 0.49755  0.54174  0.02467  Biso   1.000  H
  H664     1.0000 0.54522  0.57055  0.00006  Biso   1.000  H
  C510     1.0000 0.51010  0.47084  0.00592  Biso   1.000  C
  H665     1.0000 0.57467  0.49457  0.97535  Biso   1.000  H
  H666     1.0000 0.54828  0.42068  0.98586  Biso   1.000  H
  H667     1.0000 0.53724  0.15415  0.02256  Biso   1.000  H
  H668     1.0000 0.50772  0.17027  0.99757  Biso   1.000  H
  C511     1.0000 0.53272  0.09678  0.99109  Biso   1.000  C
  H669     1.0000 0.55954  0.05647  0.02087  Biso   1.000  H
  H670     1.0000 0.54393  0.01448  0.99486  Biso   1.000  H
  C512     1.0000 0.00676  0.46632  0.01503  Biso   1.000  C
  H671     1.0000 0.95123  0.41696  0.04757  Biso   1.000  H
  C513     1.0000 0.91294  0.35029  0.01700  Biso   1.000  C
  H672     1.0000 0.51215  0.87939  0.99916  Biso   1.000  H
  H673     1.0000 0.51869  0.90039  0.02877  Biso   1.000  H
  H674     1.0000 0.49799  0.82565  0.02116  Biso   1.000  H
  H675     1.0000 0.93384  0.93059  0.11886  Biso   1.000  H
  H676     1.0000 0.97021  0.89785  0.10357  Biso   1.000  H
  H677     1.0000 0.89705  0.85168  0.11497  Biso   1.000  H
  H678     1.0000 0.47052  0.45606  0.99486  Biso   1.000  H
  H679     1.0000 0.49691  0.44049  0.02087  Biso   1.000  H
  H680     1.0000 0.50545  0.08006  0.97535  Biso   1.000  H
  H681     1.0000 0.57932  0.12758  0.98586  Biso   1.000  H
  H682     1.0000 0.04424  0.50249  0.02467  Biso   1.000  H
  H683     1.0000 0.02534  0.45477  0.00006  Biso   1.000  H
  C514     1.0000 0.96075  0.48985  0.00592  Biso   1.000  C
  H684     1.0000 0.93175  0.33879  0.00186  Biso   1.000  H
  C515     1.0000 0.86605  0.37337  0.00767  Biso   1.000  C
  H685     1.0000 0.98555  0.52946  0.99486  Biso   1.000  H
  C516     1.0000 0.90325  0.43597  0.99109  Biso   1.000  C
  H686     1.0000 0.94353  0.50309  0.02087  Biso   1.000  H
  H687     1.0000 0.82973  0.33745  0.99757  Biso   1.000  H
  H688     1.0000 0.84582  0.38308  0.02256  Biso   1.000  H
  H689     1.0000 0.91993  0.42537  0.97535  Biso   1.000  H
  H690     1.0000 0.87247  0.45179  0.98586  Biso   1.000  H
  C517     1.0000 0.44196  0.37183  0.68267  Biso   1.000  C
  H691     1.0000 0.46915  0.40502  0.66943  Biso   1.000  H
  H692     1.0000 0.39486  0.35123  0.67723  Biso   1.000  H
  C518     1.0000 0.46078  0.31934  0.68296  Biso   1.000  C
  C519     1.0000 0.44979  0.40766  0.70710  Biso   1.000  C
  H693     1.0000 0.45398  0.29943  0.66582  Biso   1.000  H
  H694     1.0000 0.43299  0.28496  0.69543  Biso   1.000  H
  H695     1.0000 0.50769  0.33904  0.68782  Biso   1.000  H
  H696     1.0000 0.49595  0.42552  0.71324  Biso   1.000  H
  H697     1.0000 0.41986  0.37511  0.72002  Biso   1.000  H
  C520     1.0000 0.43526  0.46383  0.70574  Biso   1.000  C
  C521     1.0000 0.44129  0.49856  0.73127  Biso   1.000  C
  H698     1.0000 0.38957  0.44622  0.69913  Biso   1.000  H
  H699     1.0000 0.46616  0.49702  0.69332  Biso   1.000  H
  C522     1.0000 0.50944  0.52299  0.74246  Biso   1.000  C
  C523     1.0000 0.39838  0.45074  0.75348  Biso   1.000  C
  C524     1.0000 0.42928  0.55822  0.72847  Biso   1.000  C
  C525     1.0000 0.56959  0.56797  0.73010  Biso   1.000  C
  C526     1.0000 0.50996  0.50344  0.76678  Biso   1.000  C
  C527     1.0000 0.43865  0.45373  0.77384  Biso   1.000  C
  C528     1.0000 0.33127  0.40676  0.75402  Biso   1.000  C
  H700     1.0000 0.45997  0.58832  0.71513  Biso   1.000  H
  H701     1.0000 0.38338  0.54105  0.72203  Biso   1.000  H
  C529     1.0000 0.43748  0.59763  0.75134  Biso   1.000  C
  H702     1.0000 0.56898  0.58235  0.71312  Biso   1.000  H
  C530     1.0000 0.62907  0.59076  0.74281  Biso   1.000  C
  C531     1.0000 0.57055  0.52732  0.77993  Biso   1.000  C
  C532     1.0000 0.41059  0.41233  0.79513  Biso   1.000  C
  C533     1.0000 0.27539  0.39014  0.73457  Biso   1.000  C
  C534     1.0000 0.30296  0.36521  0.77441  Biso   1.000  C
  H703     1.0000 0.48188  0.61146  0.75873  Biso   1.000  H
  H704     1.0000 0.40388  0.56852  0.76402  Biso   1.000  H
  C535     1.0000 0.43148  0.66112  0.74793  Biso   1.000  C
  C536     1.0000 0.69430  0.63718  0.73079  Biso   1.000  C
  C537     1.0000 0.62848  0.57036  0.76719  Biso   1.000  C
  H705     1.0000 0.57169  0.51443  0.79712  Biso   1.000  H
  C538     1.0000 0.44587  0.40835  0.81922  Biso   1.000  C
  C539     1.0000 0.34047  0.36715  0.79509  Biso   1.000  C
  C540     1.0000 0.27187  0.41895  0.71209  Biso   1.000  C
  C541     1.0000 0.21677  0.33675  0.74509  Biso   1.000  C
  C542     1.0000 0.22879  0.31556  0.77079  Biso   1.000  C
  H706     1.0000 0.38776  0.64823  0.74022  Biso   1.000  H
  H707     1.0000 0.46634  0.69172  0.73593  Biso   1.000  H
  C543     1.0000 0.43855  0.69913  0.77372  Biso   1.000  C
  N25      1.0000 0.70035  0.65032  0.70764  Biso   1.000  N
  H708     1.0000 0.73286  0.65743  0.74133  Biso   1.000  H
  H709     1.0000 0.66968  0.58613  0.77583  Biso   1.000  H
  C544     1.0000 0.38647  0.35342  0.83336  Biso   1.000  C
  C545     1.0000 0.47246  0.47343  0.83624  Biso   1.000  C
  C546     1.0000 0.49560  0.38646  0.81556  Biso   1.000  C
  C547     1.0000 0.32717  0.33073  0.82052  Biso   1.000  C
  H710     1.0000 0.31004  0.45711  0.70553  Biso   1.000  H
  C548     1.0000 0.21228  0.39173  0.69917  Biso   1.000  C
  C549     1.0000 0.15665  0.31063  0.73142  Biso   1.000  C
  C550     1.0000 0.18615  0.32362  0.79026  Biso   1.000  C
  C551     1.0000 0.21286  0.24311  0.76922  Biso   1.000  C
  H711     1.0000 0.40274  0.66992  0.78553  Biso   1.000  H
  H712     1.0000 0.43549  0.73903  0.77023  Biso   1.000  H
  H713     1.0000 0.48166  0.71202  0.78164  Biso   1.000  H
  C552     1.0000 0.76905  0.69714  0.69902  Biso   1.000  C
  C553     1.0000 0.38837  0.32954  0.85814  Biso   1.000  C
  H714     1.0000 0.48606  0.46443  0.85303  Biso   1.000  H
  H715     1.0000 0.51287  0.50926  0.82792  Biso   1.000  H
  C554     1.0000 0.42409  0.50035  0.84122  Biso   1.000  C
  H716     1.0000 0.50179  0.36954  0.83214  Biso   1.000  H
  H717     1.0000 0.53867  0.42582  0.81092  Biso   1.000  H
  C555     1.0000 0.47876  0.33392  0.79563  Biso   1.000  C
  C556     1.0000 0.26895  0.27824  0.83143  Biso   1.000  C
  C557     1.0000 0.15458  0.33735  0.70898  Biso   1.000  C
  H718     1.0000 0.21016  0.41024  0.68323  Biso   1.000  H
  H719     1.0000 0.11737  0.27386  0.73813  Biso   1.000  H
  H720     1.0000 0.13908  0.29272  0.78583  Biso   1.000  H
  H721     1.0000 0.19448  0.30924  0.80703  Biso   1.000  H
  C558     1.0000 0.19377  0.38392  0.79323  Biso   1.000  C
  H722     1.0000 0.16408  0.21405  0.76782  Biso   1.000  H
  H723     1.0000 0.22707  0.23172  0.78543  Biso   1.000  H
  C559     1.0000 0.24669  0.22734  0.74622  Biso   1.000  C
  H724     1.0000 0.79906  0.71545  0.71423  Biso   1.000  H
  C560     1.0000 0.79288  0.65992  0.68169  Biso   1.000  C
  C561     1.0000 0.77066  0.75371  0.68367  Biso   1.000  C
  C562     1.0000 0.32966  0.28013  0.86926  Biso   1.000  C
  H725     1.0000 0.42927  0.34705  0.86713  Biso   1.000  H
  H726     1.0000 0.38887  0.46612  0.85222  Biso   1.000  H
  H727     1.0000 0.44968  0.53956  0.85243  Biso   1.000  H
  C563     1.0000 0.38769  0.52115  0.82343  Biso   1.000  C
  H728     1.0000 0.46890  0.34685  0.77882  Biso   1.000  H
  H729     1.0000 0.44098  0.29033  0.80094  Biso   1.000  H
  C564     1.0000 0.54898  0.33362  0.79522  Biso   1.000  C
  H730     1.0000 0.22808  0.25804  0.82223  Biso   1.000  H
  C565     1.0000 0.27248  0.25754  0.85471  Biso   1.000  C
  C566     1.0000 0.09221  0.30834  0.69457  Biso   1.000  C
  H731     1.0000 0.19058  0.40124  0.77623  Biso   1.000  H
  H732     1.0000 0.23865  0.41412  0.80023  Biso   1.000  H
  C567     1.0000 0.14116  0.38402  0.81132  Biso   1.000  C
  H733     1.0000 0.29016  0.26714  0.74243  Biso   1.000  H
  H734     1.0000 0.21836  0.21714  0.73073  Biso   1.000  H
  C568     1.0000 0.25818  0.16275  0.75243  Biso   1.000  C
  H735     1.0000 0.28897  0.23072  0.75193  Biso   1.000  H
  H736     1.0000 0.25645  0.25953  0.73213  Biso   1.000  H
  C569     1.0000 0.19719  0.15454  0.73662  Biso   1.000  C
  H737     1.0000 0.79160  0.62245  0.69133  Biso   1.000  H
  H738     1.0000 0.76279  0.64136  0.66672  Biso   1.000  H
  C570     1.0000 0.86247  0.70595  0.67257  Biso   1.000  C
  N26      1.0000 0.74675  0.78854  0.70030  Biso   1.000  N
  H739     1.0000 0.74038  0.73495  0.66853  Biso   1.000  H
  C571     1.0000 0.84066  0.80063  0.67433  Biso   1.000  C
  C572     1.0000 0.32937  0.25844  0.89492  Biso   1.000  C
  C573     1.0000 0.33526  0.54702  0.82702  Biso   1.000  C
  H740     1.0000 0.36425  0.48254  0.81173  Biso   1.000  H
  H741     1.0000 0.42356  0.55643  0.81293  Biso   1.000  H
  H742     1.0000 0.58769  0.37915  0.79383  Biso   1.000  H
  H743     1.0000 0.55408  0.31143  0.81063  Biso   1.000  H
  C574     1.0000 0.53887  0.29272  0.77083  Biso   1.000  C
  H744     1.0000 0.23208  0.22415  0.86213  Biso   1.000  H
  N27      1.0000 0.04179  0.25326  0.70030  Biso   1.000  N
  H745     1.0000 0.08948  0.33193  0.68024  Biso   1.000  H
  H746     1.0000 0.15297  0.38143  0.82932  Biso   1.000  H
  H747     1.0000 0.09705  0.34491  0.80783  Biso   1.000  H
  C575     1.0000 0.13866  0.44995  0.80722  Biso   1.000  C
  H748     1.0000 0.21907  0.12773  0.76163  Biso   1.000  H
  H749     1.0000 0.26298  0.14375  0.73612  Biso   1.000  H
  C576     1.0000 0.32356  0.18684  0.76943  Biso   1.000  C
  H750     1.0000 0.18335  0.12514  0.75184  Biso   1.000  H
  H751     1.0000 0.22295  0.14091  0.72552  Biso   1.000  H
  C577     1.0000 0.12997  0.13773  0.72113  Biso   1.000  C
  H752     1.0000 0.87725  0.68112  0.66153  Biso   1.000  H
  H753     1.0000 0.89289  0.72316  0.68754  Biso   1.000  H
  C578     1.0000 0.86607  0.76346  0.65776  Biso   1.000  C
  C579     1.0000 0.69167  0.78386  0.69457  Biso   1.000  C
  H754     1.0000 0.87058  0.82083  0.68922  Biso   1.000  H
  H755     1.0000 0.84107  0.83696  0.66423  Biso   1.000  H
  N28      1.0000 0.38355  0.27699  0.90816  Biso   1.000  N
  H756     1.0000 0.28775  0.22923  0.90272  Biso   1.000  H
  H757     1.0000 0.29317  0.51075  0.83363  Biso   1.000  H
  H758     1.0000 0.32756  0.56195  0.81042  Biso   1.000  H
  H759     1.0000 0.35336  0.58434  0.83913  Biso   1.000  H
  H760     1.0000 0.50288  0.24694  0.77353  Biso   1.000  H
  H761     1.0000 0.58006  0.29272  0.76673  Biso   1.000  H
  H762     1.0000 0.52718  0.31252  0.75653  Biso   1.000  H
  C580     1.0000 0.98307  0.22933  0.68367  Biso   1.000  C
  H763     1.0000 0.12776  0.45254  0.78923  Biso   1.000  H
  H764     1.0000 0.18147  0.48816  0.81153  Biso   1.000  H
  H765     1.0000 0.10377  0.44885  0.81822  Biso   1.000  H
  H766     1.0000 0.36226  0.22132  0.76023  Biso   1.000  H
  H767     1.0000 0.33016  0.14892  0.77282  Biso   1.000  H
  H768     1.0000 0.31849  0.20495  0.78572  Biso   1.000  H
  H769     1.0000 0.11288  0.16604  0.72753  Biso   1.000  H
  H770     1.0000 0.09636  0.09086  0.72372  Biso   1.000  H
  H771     1.0000 0.14008  0.14623  0.70283  Biso   1.000  H
  H772     1.0000 0.83879  0.74675  0.64202  Biso   1.000  H
  H773     1.0000 0.91267  0.79426  0.65252  Biso   1.000  H
  H774     1.0000 0.66808  0.75754  0.68024  Biso   1.000  H
  C581     1.0000 0.66269  0.81725  0.70898  Biso   1.000  C
  C582     1.0000 0.37724  0.25291  0.93469  Biso   1.000  C
  C583     1.0000 0.92808  0.23097  0.69902  Biso   1.000  C
  H775     1.0000 0.99455  0.25963  0.66853  Biso   1.000  H
  C584     1.0000 0.95995  0.15932  0.67433  Biso   1.000  C
  C585     1.0000 0.60827  0.82054  0.69917  Biso   1.000  C
  C586     1.0000 0.68937  0.84606  0.73142  Biso   1.000  C
  C587     1.0000 0.41002  0.31063  0.95289  Biso   1.000  C
  H776     1.0000 0.32896  0.22555  0.93913  Biso   1.000  H
  C588     1.0000 0.40908  0.20913  0.93639  Biso   1.000  C
  N29      1.0000 0.94999  0.29968  0.70764  Biso   1.000  N
  H777     1.0000 0.91638  0.20092  0.71423  Biso   1.000  H
  C589     1.0000 0.86704  0.20714  0.68169  Biso   1.000  C
  H778     1.0000 0.95026  0.12942  0.68922  Biso   1.000  H
  H779     1.0000 0.99587  0.15892  0.66423  Biso   1.000  H
  C590     1.0000 0.89737  0.13394  0.65776  Biso   1.000  C
  C591     1.0000 0.58107  0.85293  0.71209  Biso   1.000  C
  H780     1.0000 0.58978  0.79994  0.68323  Biso   1.000  H
  C592     1.0000 0.66327  0.88004  0.74509  Biso   1.000  C
  H781     1.0000 0.72615  0.84352  0.73813  Biso   1.000  H
  N30      1.0000 0.37801  0.34994  0.95170  Biso   1.000  N
  C593     1.0000 0.40689  0.28635  0.98032  Biso   1.000  C
  H782     1.0000 0.45776  0.33914  0.94783  Biso   1.000  H
  C594     1.0000 0.40658  0.18524  0.96351  Biso   1.000  C
  H783     1.0000 0.38525  0.17042  0.92484  Biso   1.000  H
  H784     1.0000 0.45599  0.23495  0.93062  Biso   1.000  H
  C595     1.0000 0.94287  0.30570  0.73079  Biso   1.000  C
  H785     1.0000 0.83089  0.20843  0.69133  Biso   1.000  H
  H786     1.0000 0.87856  0.23724  0.66672  Biso   1.000  H
  C596     1.0000 0.84349  0.13753  0.67257  Biso   1.000  C
  H787     1.0000 0.90794  0.16121  0.64202  Biso   1.000  H
  H788     1.0000 0.88156  0.08732  0.65252  Biso   1.000  H
  C597     1.0000 0.60984  0.88522  0.73457  Biso   1.000  C
  H789     1.0000 0.54285  0.85293  0.70553  Biso   1.000  H
  C598     1.0000 0.68448  0.91323  0.77079  Biso   1.000  C
  C599     1.0000 0.41635  0.41343  0.94726  Biso   1.000  C
  H790     1.0000 0.35987  0.25963  0.98572  Biso   1.000  H
  H791     1.0000 0.42948  0.32506  0.99193  Biso   1.000  H
  C600     1.0000 0.44039  0.24425  0.98227  Biso   1.000  C
  H792     1.0000 0.42917  0.15872  0.96433  Biso   1.000  H
  H793     1.0000 0.35957  0.15604  0.96863  Biso   1.000  H
  H794     1.0000 0.92458  0.26714  0.74133  Biso   1.000  H
  C601     1.0000 0.96166  0.37094  0.74281  Biso   1.000  C
  H795     1.0000 0.80387  0.12275  0.66153  Biso   1.000  H
  H796     1.0000 0.83027  0.10713  0.68754  Biso   1.000  H
  C602     1.0000 0.59326  0.92453  0.75402  Biso   1.000  C
  C603     1.0000 0.63478  0.93776  0.77441  Biso   1.000  C
  C604     1.0000 0.67636  0.86253  0.79026  Biso   1.000  C
  C605     1.0000 0.75686  0.96976  0.76922  Biso   1.000  C
  C606     1.0000 0.39048  0.45925  0.94632  Biso   1.000  C
  H797     1.0000 0.46255  0.43034  0.94452  Biso   1.000  H
  H798     1.0000 0.48815  0.27152  0.97802  Biso   1.000  H
  H799     1.0000 0.43647  0.22744  0.00004  Biso   1.000  H
  C607     1.0000 0.99837  0.43039  0.73010  Biso   1.000  C
  C608     1.0000 0.94187  0.37153  0.76719  Biso   1.000  C
  C609     1.0000 0.54928  0.94766  0.75348  Biso   1.000  C
  C610     1.0000 0.63287  0.97334  0.79509  Biso   1.000  C
  H800     1.0000 0.70727  0.84636  0.78583  Biso   1.000  H
  H801     1.0000 0.69077  0.88522  0.80703  Biso   1.000  H
  C611     1.0000 0.61606  0.80984  0.79323  Biso   1.000  C
  H802     1.0000 0.78597  0.95005  0.76782  Biso   1.000  H
  H803     1.0000 0.76827  0.99533  0.78543  Biso   1.000  H
  C612     1.0000 0.77271  0.01936  0.74622  Biso   1.000  C
  C613     1.0000 0.43196  0.52583  0.94695  Biso   1.000  C
  C614     1.0000 0.32174  0.43622  0.94592  Biso   1.000  C
  C615     1.0000 0.01356  0.49060  0.74246  Biso   1.000  C
  H804     1.0000 0.01338  0.43104  0.71312  Biso   1.000  H
  H805     1.0000 0.91649  0.33033  0.77583  Biso   1.000  H
  C616     1.0000 0.95679  0.42945  0.77993  Biso   1.000  C
  C617     1.0000 0.54629  0.98493  0.77384  Biso   1.000  C
  C618     1.0000 0.50145  0.94274  0.73127  Biso   1.000  C
  C619     1.0000 0.58768  0.99827  0.79513  Biso   1.000  C
  C620     1.0000 0.66928  0.99642  0.82052  Biso   1.000  C
  H806     1.0000 0.59879  0.78934  0.77623  Biso   1.000  H
  H807     1.0000 0.58587  0.82452  0.80023  Biso   1.000  H
  C621     1.0000 0.61596  0.75715  0.81132  Biso   1.000  C
  H808     1.0000 0.74046  0.99692  0.73213  Biso   1.000  H
  H809     1.0000 0.73292  0.02304  0.74243  Biso   1.000  H
  H810     1.0000 0.78291  0.00125  0.73073  Biso   1.000  H
  C622     1.0000 0.83729  0.09544  0.75243  Biso   1.000  C
  H811     1.0000 0.76930  0.05822  0.75193  Biso   1.000  H
  C623     1.0000 0.84545  0.04265  0.73662  Biso   1.000  C
  H812     1.0000 0.47876  0.54334  0.94783  Biso   1.000  H
  C624     1.0000 0.40597  0.57011  0.94630  Biso   1.000  C
  H813     1.0000 0.29237  0.38954  0.94553  Biso   1.000  H
  C625     1.0000 0.29486  0.47552  0.94601  Biso   1.000  C
  C626     1.0000 0.05727  0.55872  0.73127  Biso   1.000  C
  C627     1.0000 0.99346  0.49005  0.76678  Biso   1.000  C
  H814     1.0000 0.94279  0.42835  0.79712  Biso   1.000  H
  C628     1.0000 0.49658  0.00653  0.76678  Biso   1.000  C
  C629     1.0000 0.47701  0.98642  0.74246  Biso   1.000  C
  C630     1.0000 0.53618  0.97145  0.70574  Biso   1.000  C
  C631     1.0000 0.44177  0.87104  0.72847  Biso   1.000  C
  C632     1.0000 0.59167  0.03752  0.81922  Biso   1.000  C
  C633     1.0000 0.72177  0.99075  0.83143  Biso   1.000  C
  C634     1.0000 0.64657  0.03305  0.83336  Biso   1.000  C
  H815     1.0000 0.61858  0.77153  0.82932  Biso   1.000  H
  H816     1.0000 0.65507  0.75212  0.80783  Biso   1.000  H
  C635     1.0000 0.55008  0.68873  0.80722  Biso   1.000  C
  H817     1.0000 0.87231  0.09136  0.76163  Biso   1.000  H
  H818     1.0000 0.85629  0.11922  0.73612  Biso   1.000  H
  C636     1.0000 0.81317  0.13674  0.76943  Biso   1.000  C
  C637     1.0000 0.86226  0.99225  0.72113  Biso   1.000  C
  H819     1.0000 0.87487  0.05822  0.75184  Biso   1.000  H
  H820     1.0000 0.85908  0.08206  0.72552  Biso   1.000  H
  C638     1.0000 0.33897  0.54384  0.94628  Biso   1.000  C
  C639     1.0000 0.44697  0.64445  0.94689  Biso   1.000  C
  H821     1.0000 0.24810  0.45776  0.94592  Biso   1.000  H
  C640     1.0000 0.05237  0.60166  0.75348  Biso   1.000  C
  C641     1.0000 0.02857  0.56474  0.70574  Biso   1.000  C
  C642     1.0000 0.12896  0.57076  0.72847  Biso   1.000  C
  C643     1.0000 0.01507  0.56135  0.77384  Biso   1.000  C
  C644     1.0000 0.47272  0.04325  0.77993  Biso   1.000  C
  C645     1.0000 0.43210  0.00165  0.73010  Biso   1.000  C
  H822     1.0000 0.55375  0.94333  0.69913  Biso   1.000  H
  H823     1.0000 0.50298  0.96916  0.69332  Biso   1.000  H
  C646     1.0000 0.59239  0.04215  0.70710  Biso   1.000  C
  H824     1.0000 0.41169  0.87164  0.71513  Biso   1.000  H
  H825     1.0000 0.45895  0.84233  0.72203  Biso   1.000  H
  C647     1.0000 0.40238  0.83984  0.75134  Biso   1.000  C
  C648     1.0000 0.52659  0.99906  0.83624  Biso   1.000  C
  C649     1.0000 0.61355  0.10912  0.81556  Biso   1.000  C
  H826     1.0000 0.74198  0.97005  0.82223  Biso   1.000  H
  C650     1.0000 0.74248  0.01493  0.85471  Biso   1.000  C
  C651     1.0000 0.67044  0.05882  0.85814  Biso   1.000  C
  H827     1.0000 0.54747  0.67525  0.78923  Biso   1.000  H
  H828     1.0000 0.51189  0.69336  0.81153  Biso   1.000  H
  H829     1.0000 0.55116  0.65495  0.81822  Biso   1.000  H
  H830     1.0000 0.77867  0.14092  0.76023  Biso   1.000  H
  H831     1.0000 0.85109  0.18122  0.77282  Biso   1.000  H
  H832     1.0000 0.79507  0.11355  0.78572  Biso   1.000  H
  H833     1.0000 0.83395  0.94682  0.72753  Biso   1.000  H
  H834     1.0000 0.85375  0.99384  0.70283  Biso   1.000  H
  H835     1.0000 0.90915  0.00553  0.72372  Biso   1.000  H
  C652     1.0000 0.32617  0.60305  0.94553  Biso   1.000  C
  C653     1.0000 0.38984  0.65972  0.94574  Biso   1.000  C
  C654     1.0000 0.48938  0.66903  0.97150  Biso   1.000  C
  C655     1.0000 0.49047  0.66664  0.92273  Biso   1.000  C
  C656     1.0000 0.07548  0.66873  0.75402  Biso   1.000  C
  H836     1.0000 0.05669  0.61046  0.69913  Biso   1.000  H
  H837     1.0000 0.03087  0.53384  0.69332  Biso   1.000  H
  C657     1.0000 0.95790  0.55026  0.70710  Biso   1.000  C
  H838     1.0000 0.12839  0.54006  0.71513  Biso   1.000  H
  H839     1.0000 0.15767  0.61663  0.72203  Biso   1.000  H
  C658     1.0000 0.16019  0.56255  0.75134  Biso   1.000  C
  C659     1.0000 0.00174  0.58942  0.79513  Biso   1.000  C
  C660     1.0000 0.42965  0.05812  0.76719  Biso   1.000  C
  H840     1.0000 0.48557  0.05723  0.79712  Biso   1.000  H
  H841     1.0000 0.41764  0.98662  0.71312  Biso   1.000  H
  C661     1.0000 0.40928  0.03832  0.74281  Biso   1.000  C
  C662     1.0000 0.62816  0.07016  0.68267  Biso   1.000  C
  H842     1.0000 0.57444  0.07046  0.71324  Biso   1.000  H
  H843     1.0000 0.62484  0.04474  0.72002  Biso   1.000  H
  H844     1.0000 0.38855  0.87044  0.75873  Biso   1.000  H
  H845     1.0000 0.43147  0.83536  0.76402  Biso   1.000  H
  C663     1.0000 0.33889  0.77033  0.74793  Biso   1.000  C
  C664     1.0000 0.49966  0.92373  0.84122  Biso   1.000  C
  H846     1.0000 0.53560  0.02165  0.85303  Biso   1.000  H
  H847     1.0000 0.49075  0.00364  0.82792  Biso   1.000  H
  H848     1.0000 0.63051  0.13226  0.83214  Biso   1.000  H
  H849     1.0000 0.57418  0.11286  0.81092  Biso   1.000  H
  C665     1.0000 0.66610  0.14485  0.79563  Biso   1.000  C
  C666     1.0000 0.71985  0.04956  0.86926  Biso   1.000  C
  H850     1.0000 0.77590  0.00792  0.86213  Biso   1.000  H
  H851     1.0000 0.65295  0.08225  0.86713  Biso   1.000  H
  C667     1.0000 0.26985  0.61011  0.94574  Biso   1.000  C
  C668     1.0000 0.39700  0.72316  0.94553  Biso   1.000  C
  H852     1.0000 0.51606  0.64664  0.97273  Biso   1.000  H
  H853     1.0000 0.52108  0.71734  0.96962  Biso   1.000  H
  C669     1.0000 0.45356  0.65893  0.99596  Biso   1.000  C
  H854     1.0000 0.51697  0.71585  0.92252  Biso   1.000  H
  H855     1.0000 0.52195  0.64962  0.92363  Biso   1.000  H
  C670     1.0000 0.45217  0.64355  0.89839  Biso   1.000  C
  C671     1.0000 0.11477  0.72465  0.73457  Biso   1.000  C
  C672     1.0000 0.06227  0.69704  0.77441  Biso   1.000  C
  C673     1.0000 0.92985  0.55802  0.68267  Biso   1.000  C
  H856     1.0000 0.92957  0.50403  0.71324  Biso   1.000  H
  H857     1.0000 0.95527  0.58016  0.72002  Biso   1.000  H
  H858     1.0000 0.12957  0.51812  0.75873  Biso   1.000  H
  H859     1.0000 0.16466  0.59613  0.76402  Biso   1.000  H
  C674     1.0000 0.22966  0.56852  0.74793  Biso   1.000  C
  C675     1.0000 0.02666  0.65952  0.79509  Biso   1.000  C
  C676     1.0000 0.96247  0.55414  0.81922  Biso   1.000  C
  H860     1.0000 0.41384  0.08355  0.77583  Biso   1.000  H
  C677     1.0000 0.36288  0.05713  0.73079  Biso   1.000  C
  H861     1.0000 0.59498  0.06414  0.66943  Biso   1.000  H
  H862     1.0000 0.64877  0.04364  0.67723  Biso   1.000  H
  C678     1.0000 0.68066  0.14147  0.68296  Biso   1.000  C
  H863     1.0000 0.35175  0.73953  0.74022  Biso   1.000  H
  H864     1.0000 0.30826  0.77466  0.73593  Biso   1.000  H
  C679     1.0000 0.30086  0.73943  0.77372  Biso   1.000  C
  H865     1.0000 0.53389  0.92274  0.85222  Biso   1.000  H
  H866     1.0000 0.46046  0.91015  0.85243  Biso   1.000  H
  C680     1.0000 0.47887  0.86656  0.82343  Biso   1.000  C
  H867     1.0000 0.65320  0.12206  0.77882  Biso   1.000  H
  H868     1.0000 0.70967  0.15062  0.80094  Biso   1.000  H
  C681     1.0000 0.66641  0.21535  0.79522  Biso   1.000  C
  C682     1.0000 0.74162  0.07096  0.89492  Biso   1.000  C
  C683     1.0000 0.27686  0.67385  0.94553  Biso   1.000  C
  C684     1.0000 0.19745  0.55304  0.94689  Biso   1.000  C
  C685     1.0000 0.34024  0.73013  0.94574  Biso   1.000  C
  C686     1.0000 0.45618  0.79516  0.94628  Biso   1.000  C
  H869     1.0000 0.42369  0.61046  0.99852  Biso   1.000  H
  H870     1.0000 0.42525  0.67953  0.99463  Biso   1.000  H
  C687     1.0000 0.49687  0.68634  0.01870  Biso   1.000  C
  H871     1.0000 0.41816  0.65723  0.89753  Biso   1.000  H
  H872     1.0000 0.42977  0.59444  0.89703  Biso   1.000  H
  C688     1.0000 0.50509  0.67744  0.87652  Biso   1.000  C
  C689     1.0000 0.14707  0.72814  0.71209  Biso   1.000  C
  C690     1.0000 0.11997  0.78322  0.74509  Biso   1.000  C
  C691     1.0000 0.08678  0.77123  0.77079  Biso   1.000  C
  H873     1.0000 0.93587  0.53085  0.66943  Biso   1.000  H
  H874     1.0000 0.95638  0.60514  0.67723  Biso   1.000  H
  C692     1.0000 0.85859  0.53926  0.68296  Biso   1.000  C
  H875     1.0000 0.26049  0.61225  0.74022  Biso   1.000  H
  H876     1.0000 0.22537  0.53364  0.73593  Biso   1.000  H
  C693     1.0000 0.26056  0.56145  0.77372  Biso   1.000  C
  C694     1.0000 0.00356  0.67286  0.82052  Biso   1.000  C
  C695     1.0000 0.00095  0.52752  0.83624  Biso   1.000  C
  C696     1.0000 0.96696  0.61355  0.83336  Biso   1.000  C
  C697     1.0000 0.89086  0.50443  0.81556  Biso   1.000  C
  N31      1.0000 0.34967  0.05001  0.70764  Biso   1.000  N
  H877     1.0000 0.34256  0.07544  0.74133  Biso   1.000  H
  H878     1.0000 0.70056  0.15455  0.66582  Biso   1.000  H
  H879     1.0000 0.71505  0.14803  0.69543  Biso   1.000  H
  H880     1.0000 0.66093  0.16863  0.68782  Biso   1.000  H
  H881     1.0000 0.33006  0.73286  0.78553  Biso   1.000  H
  H882     1.0000 0.26096  0.69644  0.77023  Biso   1.000  H
  H883     1.0000 0.28795  0.76963  0.78164  Biso   1.000  H
  C698     1.0000 0.45298  0.78824  0.82702  Biso   1.000  C
  H884     1.0000 0.51748  0.88174  0.81173  Biso   1.000  H
  H885     1.0000 0.44358  0.86716  0.81293  Biso   1.000  H
  H886     1.0000 0.62090  0.20854  0.79383  Biso   1.000  H
  H887     1.0000 0.68853  0.24262  0.81063  Biso   1.000  H
  C699     1.0000 0.70728  0.24615  0.77083  Biso   1.000  C
  N32      1.0000 0.72298  0.10659  0.90816  Biso   1.000  N
  H888     1.0000 0.77074  0.05852  0.90272  Biso   1.000  H
  C700     1.0000 0.20486  0.66102  0.94628  Biso   1.000  C
  C701     1.0000 0.16417  0.59404  0.94630  Biso   1.000  C
  C702     1.0000 0.17966  0.51065  0.97150  Biso   1.000  C
  C703     1.0000 0.17618  0.50956  0.92273  Biso   1.000  C
  C704     1.0000 0.35554  0.80252  0.94689  Biso   1.000  C
  C705     1.0000 0.42991  0.83586  0.94630  Biso   1.000  C
  C706     1.0000 0.52446  0.81934  0.94601  Biso   1.000  C
  H889     1.0000 0.52509  0.66564  0.02003  Biso   1.000  H
  H890     1.0000 0.52676  0.73466  0.01604  Biso   1.000  H
  C707     1.0000 0.46209  0.67684  0.04308  Biso   1.000  C
  H891     1.0000 0.48067  0.68186  0.86182  Biso   1.000  H
  H892     1.0000 0.51807  0.64445  0.87142  Biso   1.000  H
  C708     1.0000 0.57188  0.74655  0.87853  Biso   1.000  C
  H893     1.0000 0.14705  0.68992  0.70553  Biso   1.000  H
  C709     1.0000 0.17945  0.78775  0.69917  Biso   1.000  C
  C710     1.0000 0.15394  0.84332  0.73142  Biso   1.000  C
  C711     1.0000 0.13746  0.81382  0.79026  Biso   1.000  C
  C712     1.0000 0.03028  0.78715  0.76922  Biso   1.000  C
  H894     1.0000 0.84547  0.54603  0.66582  Biso   1.000  H
  H895     1.0000 0.85196  0.56703  0.69543  Biso   1.000  H
  H896     1.0000 0.83138  0.49234  0.68782  Biso   1.000  H
  H897     1.0000 0.26716  0.59723  0.78553  Biso   1.000  H
  H898     1.0000 0.30356  0.56454  0.77023  Biso   1.000  H
  H899     1.0000 0.23037  0.51831  0.78164  Biso   1.000  H
  C713     1.0000 0.00924  0.73102  0.83143  Biso   1.000  C
  C714     1.0000 0.07626  0.57593  0.84122  Biso   1.000  C
  H900     1.0000 0.97839  0.51394  0.85303  Biso   1.000  H
  H901     1.0000 0.99635  0.48712  0.82792  Biso   1.000  H
  C715     1.0000 0.94120  0.61166  0.85814  Biso   1.000  C
  H902     1.0000 0.86778  0.49826  0.83214  Biso   1.000  H
  H903     1.0000 0.88720  0.46134  0.81092  Biso   1.000  H
  C716     1.0000 0.85519  0.52125  0.79563  Biso   1.000  C
  C717     1.0000 0.30286  0.07196  0.69902  Biso   1.000  C
  H904     1.0000 0.48924  0.78242  0.83363  Biso   1.000  H
  H905     1.0000 0.43807  0.76565  0.81042  Biso   1.000  H
  H906     1.0000 0.41567  0.76904  0.83913  Biso   1.000  H
  H907     1.0000 0.75311  0.25596  0.77353  Biso   1.000  H
  H908     1.0000 0.70728  0.28735  0.76673  Biso   1.000  H
  H909     1.0000 0.68752  0.21466  0.75653  Biso   1.000  H
  C718     1.0000 0.74712  0.12435  0.93469  Biso   1.000  C
  C719     1.0000 0.18069  0.70515  0.94601  Biso   1.000  C
  C720     1.0000 0.09385  0.56802  0.94695  Biso   1.000  C
  H910     1.0000 0.13058  0.48393  0.97273  Biso   1.000  H
  H911     1.0000 0.19626  0.47896  0.96962  Biso   1.000  H
  C721     1.0000 0.20535  0.54643  0.99596  Biso   1.000  C
  H912     1.0000 0.19886  0.48304  0.92252  Biso   1.000  H
  H913     1.0000 0.12768  0.47806  0.92363  Biso   1.000  H
  C722     1.0000 0.19135  0.54782  0.89839  Biso   1.000  C
  C723     1.0000 0.33097  0.82034  0.97150  Biso   1.000  C
  C724     1.0000 0.33336  0.82382  0.92273  Biso   1.000  C
  C725     1.0000 0.47417  0.90612  0.94695  Biso   1.000  C
  C726     1.0000 0.56376  0.88552  0.94592  Biso   1.000  C
  H914     1.0000 0.54228  0.79033  0.94592  Biso   1.000  H
  H915     1.0000 0.43487  0.62912  0.04663  Biso   1.000  H
  H916     1.0000 0.43337  0.69654  0.04203  Biso   1.000  H
  H917     1.0000 0.49465  0.69843  0.05682  Biso   1.000  H
  H918     1.0000 0.59858  0.74436  0.89273  Biso   1.000  H
  H919     1.0000 0.56167  0.78163  0.88162  Biso   1.000  H
  H920     1.0000 0.59689  0.75486  0.86253  Biso   1.000  H
  C727     1.0000 0.18276  0.84546  0.70898  Biso   1.000  C
  H921     1.0000 0.20006  0.78984  0.68323  Biso   1.000  H
  H922     1.0000 0.15644  0.88263  0.73813  Biso   1.000  H
  H923     1.0000 0.15366  0.86094  0.78583  Biso   1.000  H
  H924     1.0000 0.11476  0.80556  0.80703  Biso   1.000  H
  C728     1.0000 0.19017  0.80626  0.79323  Biso   1.000  C
  H925     1.0000 0.04999  0.83596  0.76782  Biso   1.000  H
  H926     1.0000 0.00463  0.77292  0.78543  Biso   1.000  H
  C729     1.0000 0.98068  0.75336  0.74622  Biso   1.000  C
  H927     1.0000 0.02995  0.77192  0.82223  Biso   1.000  H
  C730     1.0000 0.98509  0.72754  0.85471  Biso   1.000  C
  H928     1.0000 0.07729  0.61116  0.85222  Biso   1.000  H
  H929     1.0000 0.08989  0.55036  0.85243  Biso   1.000  H
  C731     1.0000 0.13347  0.61235  0.82343  Biso   1.000  C
  C732     1.0000 0.95045  0.67032  0.86926  Biso   1.000  C
  H930     1.0000 0.91777  0.57076  0.86713  Biso   1.000  H
  H931     1.0000 0.87798  0.53115  0.77882  Biso   1.000  H
  H932     1.0000 0.84938  0.55901  0.80094  Biso   1.000  H
  C733     1.0000 0.78466  0.45104  0.79522  Biso   1.000  C
  H933     1.0000 0.28457  0.08365  0.71423  Biso   1.000  H
  C734     1.0000 0.34015  0.13301  0.68169  Biso   1.000  C
  C735     1.0000 0.24628  0.01697  0.68367  Biso   1.000  C
  C736     1.0000 0.68934  0.09937  0.95289  Biso   1.000  C
  H934     1.0000 0.77450  0.10345  0.93913  Biso   1.000  H
  C737     1.0000 0.79090  0.19993  0.93639  Biso   1.000  C
  C738     1.0000 0.11449  0.67823  0.94592  Biso   1.000  C
  H935     1.0000 0.20967  0.75192  0.94592  Biso   1.000  H
  C739     1.0000 0.06875  0.60952  0.94632  Biso   1.000  C
  H936     1.0000 0.06456  0.52125  0.94783  Biso   1.000  H
  H937     1.0000 0.18677  0.57633  0.99852  Biso   1.000  H
  H938     1.0000 0.25428  0.57474  0.99463  Biso   1.000  H
  C740     1.0000 0.18948  0.50314  0.01870  Biso   1.000  C
  H939     1.0000 0.23909  0.58185  0.89753  Biso   1.000  H
  H940     1.0000 0.16469  0.57026  0.89703  Biso   1.000  H
  C741     1.0000 0.17236  0.49493  0.87652  Biso   1.000  C
  H941     1.0000 0.35337  0.86945  0.97273  Biso   1.000  H
  H942     1.0000 0.28267  0.80372  0.96962  Biso   1.000  H
  C742     1.0000 0.34110  0.79466  0.99596  Biso   1.000  C
  H943     1.0000 0.28418  0.80113  0.92252  Biso   1.000  H
  H944     1.0000 0.35037  0.87233  0.92363  Biso   1.000  H
  C743     1.0000 0.35649  0.80864  0.89839  Biso   1.000  C
  C744     1.0000 0.54077  0.93124  0.94632  Biso   1.000  C
  H945     1.0000 0.45668  0.93542  0.94783  Biso   1.000  H
  H946     1.0000 0.61046  0.90283  0.94553  Biso   1.000  H
  C745     1.0000 0.21613  0.90781  0.69457  Biso   1.000  C
  H947     1.0000 0.21068  0.80944  0.77623  Biso   1.000  H
  H948     1.0000 0.17547  0.76133  0.80023  Biso   1.000  H
  C746     1.0000 0.24289  0.85885  0.81132  Biso   1.000  C
  H949     1.0000 0.00310  0.74356  0.73213  Biso   1.000  H
  H950     1.0000 0.97697  0.70983  0.74243  Biso   1.000  H
  H951     1.0000 0.99878  0.78163  0.73073  Biso   1.000  H
  C747     1.0000 0.90459  0.74182  0.75243  Biso   1.000  C
  H952     1.0000 0.94176  0.71102  0.75193  Biso   1.000  H
  C748     1.0000 0.95736  0.80282  0.73662  Biso   1.000  C
  H953     1.0000 0.99206  0.76794  0.86213  Biso   1.000  H
  C749     1.0000 0.21176  0.66475  0.82702  Biso   1.000  C
  H954     1.0000 0.11827  0.63574  0.81173  Biso   1.000  H
  H955     1.0000 0.13287  0.57643  0.81293  Biso   1.000  H
  C750     1.0000 0.92905  0.67062  0.89492  Biso   1.000  C
  H956     1.0000 0.79146  0.41233  0.79383  Biso   1.000  H
  H957     1.0000 0.75737  0.44592  0.81063  Biso   1.000  H
  C751     1.0000 0.75386  0.46114  0.77083  Biso   1.000  C
  H958     1.0000 0.37760  0.16913  0.69133  Biso   1.000  H
  H959     1.0000 0.35868  0.12146  0.66672  Biso   1.000  H
  C752     1.0000 0.29405  0.15654  0.67257  Biso   1.000  C
  N33      1.0000 0.21147  0.95821  0.70030  Biso   1.000  N
  H960     1.0000 0.26503  0.00543  0.66853  Biso   1.000  H
  C753     1.0000 0.19939  0.04006  0.67433  Biso   1.000  C
  N34      1.0000 0.65011  0.02807  0.95170  Biso   1.000  N
  C754     1.0000 0.71370  0.12052  0.98032  Biso   1.000  C
  H961     1.0000 0.66088  0.11863  0.94783  Biso   1.000  H
  C755     1.0000 0.81478  0.22132  0.96351  Biso   1.000  C
  H962     1.0000 0.82956  0.21486  0.92484  Biso   1.000  H
  H963     1.0000 0.76508  0.22103  0.93062  Biso   1.000  H
  H964     1.0000 0.09717  0.70764  0.94553  Biso   1.000  H
  C756     1.0000 0.99708  0.58364  0.94726  Biso   1.000  C
  H965     1.0000 0.14055  0.47493  0.02003  Biso   1.000  H
  H966     1.0000 0.20788  0.47323  0.01604  Biso   1.000  H
  C757     1.0000 0.21475  0.53792  0.04308  Biso   1.000  C
  H967     1.0000 0.20116  0.51936  0.86182  Biso   1.000  H
  H968     1.0000 0.12635  0.48194  0.87142  Biso   1.000  H
  C758     1.0000 0.17469  0.42816  0.87853  Biso   1.000  C
  H969     1.0000 0.38955  0.81322  0.99852  Biso   1.000  H
  H970     1.0000 0.32048  0.74575  0.99463  Biso   1.000  H
  C759     1.0000 0.31366  0.81053  0.01870  Biso   1.000  C
  H971     1.0000 0.34276  0.76093  0.89753  Biso   1.000  H
  H972     1.0000 0.40557  0.83536  0.89703  Biso   1.000  H
  C760     1.0000 0.32256  0.82765  0.87652  Biso   1.000  C
  C761     1.0000 0.58662  0.00294  0.94726  Biso   1.000  C
  H973     1.0000 0.24249  0.91055  0.68024  Biso   1.000  H
  H974     1.0000 0.22846  0.84706  0.82932  Biso   1.000  H
  H975     1.0000 0.24786  0.90293  0.80783  Biso   1.000  H
  C762     1.0000 0.31126  0.86134  0.80722  Biso   1.000  C
  H976     1.0000 0.90867  0.78093  0.76163  Biso   1.000  H
  H977     1.0000 0.88078  0.73704  0.73612  Biso   1.000  H
  C763     1.0000 0.86328  0.67644  0.76943  Biso   1.000  C
  C764     1.0000 0.00778  0.87004  0.72113  Biso   1.000  C
  H978     1.0000 0.94179  0.81665  0.75184  Biso   1.000  H
  H979     1.0000 0.91798  0.77705  0.72552  Biso   1.000  H
  H980     1.0000 0.21756  0.70684  0.83363  Biso   1.000  H
  H981     1.0000 0.23436  0.67246  0.81042  Biso   1.000  H
  H982     1.0000 0.23098  0.64664  0.83913  Biso   1.000  H
  N35      1.0000 0.89343  0.61643  0.90816  Biso   1.000  N
  H983     1.0000 0.94145  0.71222  0.90272  Biso   1.000  H
  H984     1.0000 0.74406  0.49712  0.77353  Biso   1.000  H
  H985     1.0000 0.71267  0.41995  0.76673  Biso   1.000  H
  H986     1.0000 0.78539  0.47284  0.75653  Biso   1.000  H
  H987     1.0000 0.31889  0.19615  0.66153  Biso   1.000  H
  H988     1.0000 0.27690  0.16973  0.68754  Biso   1.000  H
  C765     1.0000 0.23659  0.10266  0.65776  Biso   1.000  C
  H989     1.0000 0.17917  0.04976  0.68922  Biso   1.000  H
  H990     1.0000 0.16308  0.00414  0.66423  Biso   1.000  H
  H991     1.0000 0.74035  0.10022  0.98572  Biso   1.000  H
  H992     1.0000 0.67499  0.10445  0.99193  Biso   1.000  H
  C766     1.0000 0.75574  0.19615  0.98227  Biso   1.000  C
  H993     1.0000 0.84128  0.27043  0.96433  Biso   1.000  H
  H994     1.0000 0.84395  0.20356  0.96863  Biso   1.000  H
  N36      1.0000 0.97192  0.62201  0.95170  Biso   1.000  N
  H995     1.0000 0.96777  0.53742  0.94452  Biso   1.000  H
  H996     1.0000 0.19428  0.56514  0.04663  Biso   1.000  H
  H997     1.0000 0.26315  0.56663  0.04203  Biso   1.000  H
  H998     1.0000 0.20376  0.50533  0.05682  Biso   1.000  H
  H999     1.0000 0.14578  0.40144  0.89273  Biso   1.000  H
  H1000    1.0000 0.22000  0.43836  0.88162  Biso   1.000  H
  H1001    1.0000 0.15796  0.40313  0.86253  Biso   1.000  H
  H1002    1.0000 0.33436  0.85945  0.02003  Biso   1.000  H
  H1003    1.0000 0.26537  0.79212  0.01604  Biso   1.000  H
  C767     1.0000 0.32317  0.78526  0.04308  Biso   1.000  C
  H1004    1.0000 0.31815  0.79884  0.86182  Biso   1.000  H
  H1005    1.0000 0.35554  0.87363  0.87142  Biso   1.000  H
  C768     1.0000 0.25346  0.82536  0.87853  Biso   1.000  C
  H1006    1.0000 0.56964  0.03225  0.94452  Biso   1.000  H
  H1007    1.0000 0.32477  0.87223  0.78923  Biso   1.000  H
  H1008    1.0000 0.30667  0.81855  0.81153  Biso   1.000  H
  H1009    1.0000 0.34506  0.89626  0.81822  Biso   1.000  H
  H1010    1.0000 0.85909  0.63773  0.76023  Biso   1.000  H
  H1011    1.0000 0.81877  0.66982  0.77282  Biso   1.000  H
  H1012    1.0000 0.88646  0.68152  0.78572  Biso   1.000  H
  H1013    1.0000 0.05318  0.88716  0.72753  Biso   1.000  H
  H1014    1.0000 0.00618  0.85994  0.70283  Biso   1.000  H
  H1015    1.0000 0.99445  0.90363  0.72372  Biso   1.000  H
  C769     1.0000 0.87569  0.62275  0.93469  Biso   1.000  C
  H1016    1.0000 0.25332  0.09206  0.64202  Biso   1.000  H
  H1017    1.0000 0.20574  0.11843  0.65252  Biso   1.000  H
  H1018    1.0000 0.72846  0.21665  0.97802  Biso   1.000  H
  H1019    1.0000 0.77261  0.20903  0.00004  Biso   1.000  H
  C770     1.0000 0.90064  0.59001  0.95289  Biso   1.000  C
  H1020    1.0000 0.37086  0.80576  0.04663  Biso   1.000  H
  H1021    1.0000 0.30349  0.73684  0.04203  Biso   1.000  H
  H1022    1.0000 0.30156  0.79625  0.05682  Biso   1.000  H
  H1023    1.0000 0.25565  0.85422  0.89273  Biso   1.000  H
  H1024    1.0000 0.21834  0.78003  0.88162  Biso   1.000  H
  H1025    1.0000 0.24516  0.84203  0.86253  Biso   1.000  H
  H1026    1.0000 0.89655  0.67102  0.93913  Biso   1.000  H
  C771     1.0000 0.80007  0.59096  0.93639  Biso   1.000  C
  C772     1.0000 0.87946  0.59315  0.98032  Biso   1.000  C
  H1027    1.0000 0.88137  0.54225  0.94783  Biso   1.000  H
  C773     1.0000 0.77869  0.59345  0.96351  Biso   1.000  C
  H1028    1.0000 0.78516  0.61474  0.92484  Biso   1.000  H
  H1029    1.0000 0.77898  0.54404  0.93062  Biso   1.000  H
  H1030    1.0000 0.89975  0.64012  0.98572  Biso   1.000  H
  H1031    1.0000 0.89557  0.57056  0.99193  Biso   1.000  H
  C774     1.0000 0.80390  0.55966  0.98227  Biso   1.000  C
  H1032    1.0000 0.72956  0.57086  0.96433  Biso   1.000  H
  H1033    1.0000 0.79644  0.64042  0.96863  Biso   1.000  H
  H1034    1.0000 0.78339  0.51185  0.97802  Biso   1.000  H
  H1035    1.0000 0.79097  0.56354  0.00004  Biso   1.000  H
