data_image0
_cell_length_a       23.207
_cell_length_b       23.207
_cell_length_c       52.179
_cell_angle_alpha    90
_cell_angle_beta     90
_cell_angle_gamma    120

_symmetry_space_group_name_H-M    "P 1"
_symmetry_int_tables_number       1

loop_
  _symmetry_equiv_pos_as_xyz
  'x, y, z'

loop_
  _atom_site_label
  _atom_site_occupancy
  _atom_site_fract_x
  _atom_site_fract_y
  _atom_site_fract_z
  _atom_site_thermal_displace_type
  _atom_site_B_iso_or_equiv
  _atom_site_type_symbol
  C1       1.0000 0.67344  0.79964  0.34836  Biso   1.000  C
  C2       1.0000 0.63620  0.73859  0.36568  Biso   1.000  C
  H1       1.0000 0.71092  0.83581  0.35800  Biso   1.000  H
  H2       1.0000 0.69202  0.78809  0.33339  Biso   1.000  H
  C3       1.0000 0.62741  0.82322  0.33926  Biso   1.000  C
  C4       1.0000 0.57962  0.68361  0.35033  Biso   1.000  C
  N1       1.0000 0.68303  0.71669  0.37431  Biso   1.000  N
  H3       1.0000 0.61794  0.75033  0.38090  Biso   1.000  H
  C5       1.0000 0.56989  0.76929  0.32442  Biso   1.000  C
  H4       1.0000 0.65221  0.86283  0.32820  Biso   1.000  H
  H5       1.0000 0.61021  0.83641  0.35420  Biso   1.000  H
  N2       1.0000 0.54483  0.62489  0.36699  Biso   1.000  N
  H6       1.0000 0.59839  0.67211  0.33519  Biso   1.000  H
  C6       1.0000 0.53269  0.70669  0.34100  Biso   1.000  C
  C7       1.0000 0.69620  0.72381  0.39746  Biso   1.000  C
  H7       1.0000 0.58661  0.75869  0.30871  Biso   1.000  H
  H8       1.0000 0.53911  0.78511  0.31919  Biso   1.000  H
  C8       1.0000 0.54949  0.57449  0.36126  Biso   1.000  C
  H9       1.0000 0.51250  0.71639  0.35589  Biso   1.000  H
  H10      1.0000 0.49639  0.67082  0.33090  Biso   1.000  H
  H11      1.0000 0.67592  0.74212  0.40800  Biso   1.000  H
  C9       1.0000 0.74260  0.70500  0.40949  Biso   1.000  C
  C10      1.0000 0.51610  0.51209  0.37565  Biso   1.000  C
  H12      1.0000 0.57581  0.57723  0.34690  Biso   1.000  H
  C11      1.0000 0.76541  0.66833  0.39677  Biso   1.000  C
  C12      1.0000 0.76301  0.72480  0.43385  Biso   1.000  C
  C13      1.0000 0.51282  0.45443  0.36586  Biso   1.000  C
  C14      1.0000 0.48730  0.51000  0.39809  Biso   1.000  C
  C15      1.0000 0.81037  0.65310  0.40913  Biso   1.000  C
  H13      1.0000 0.75101  0.65330  0.37979  Biso   1.000  H
  H14      1.0000 0.74720  0.75023  0.44250  Biso   1.000  H
  C16      1.0000 0.80603  0.70993  0.44660  Biso   1.000  C
  C17      1.0000 0.48043  0.39482  0.37875  Biso   1.000  C
  H15      1.0000 0.53342  0.45652  0.34989  Biso   1.000  H
  C18      1.0000 0.45329  0.44990  0.41177  Biso   1.000  C
  H16      1.0000 0.48981  0.54931  0.40480  Biso   1.000  H
  C19      1.0000 0.82990  0.67321  0.43345  Biso   1.000  C
  C20      1.0000 0.83476  0.60942  0.39794  Biso   1.000  C
  H17      1.0000 0.81893  0.72391  0.46379  Biso   1.000  H
  C21      1.0000 0.44811  0.39129  0.40123  Biso   1.000  C
  H18      1.0000 0.48041  0.35661  0.37220  Biso   1.000  H
  C22      1.0000 0.42010  0.43791  0.43746  Biso   1.000  C
  C23      1.0000 0.87960  0.65161  0.44050  Biso   1.000  C
  C24      1.0000 0.88262  0.61429  0.42015  Biso   1.000  C
  C25      1.0000 0.86950  0.63813  0.37241  Biso   1.000  C
  C26      1.0000 0.77513  0.53772  0.39514  Biso   1.000  C
  C27      1.0000 0.40880  0.33541  0.42069  Biso   1.000  C
  C28      1.0000 0.39563  0.36372  0.44108  Biso   1.000  C
  C29      1.0000 0.47078  0.48050  0.45693  Biso   1.000  C
  C30      1.0000 0.36357  0.45378  0.43588  Biso   1.000  C
  C31      1.0000 0.92102  0.66490  0.46181  Biso   1.000  C
  C32      1.0000 0.92662  0.59121  0.42069  Biso   1.000  C
  C33      1.0000 0.92568  0.70878  0.37377  Biso   1.000  C
  H19      1.0000 0.88712  0.61002  0.36580  Biso   1.000  H
  H20      1.0000 0.83632  0.63579  0.35999  Biso   1.000  H
  H21      1.0000 0.74501  0.53832  0.38180  Biso   1.000  H
  H22      1.0000 0.79232  0.50901  0.38870  Biso   1.000  H
  C34      1.0000 0.73570  0.50652  0.41800  Biso   1.000  C
  C35      1.0000 0.38571  0.26829  0.42015  Biso   1.000  C
  C36      1.0000 0.35998  0.32620  0.46178  Biso   1.000  C
  H23      1.0000 0.48702  0.52762  0.45250  Biso   1.000  H
  H24      1.0000 0.44810  0.47219  0.47370  Biso   1.000  H
  C37      1.0000 0.52351  0.47289  0.45990  Biso   1.000  C
  H25      1.0000 0.38328  0.50259  0.43450  Biso   1.000  H
  H26      1.0000 0.33800  0.43960  0.45210  Biso   1.000  H
  C38      1.0000 0.31402  0.42000  0.41291  Biso   1.000  C
  C39      1.0000 0.92499  0.70420  0.48589  Biso   1.000  C
  C40      1.0000 0.96619  0.64002  0.46178  Biso   1.000  C
  C41      1.0000 0.94321  0.55190  0.40123  Biso   1.000  C
  C42      1.0000 0.96812  0.60439  0.44108  Biso   1.000  C
  C43      1.0000 0.96149  0.73680  0.34934  Biso   1.000  C
  H27      1.0000 0.90778  0.73709  0.37990  Biso   1.000  H
  H28      1.0000 0.95820  0.71142  0.38669  Biso   1.000  H
  H29      1.0000 0.72192  0.53712  0.42540  Biso   1.000  H
  H30      1.0000 0.76481  0.50199  0.43069  Biso   1.000  H
  C44      1.0000 0.67221  0.43701  0.41459  Biso   1.000  C
  C45      1.0000 0.39061  0.22535  0.39794  Biso   1.000  C
  C46      1.0000 0.34840  0.22798  0.44050  Biso   1.000  C
  C47      1.0000 0.33510  0.25610  0.46181  Biso   1.000  C
  C48      1.0000 0.33689  0.33949  0.48719  Biso   1.000  C
  H31      1.0000 0.54400  0.47612  0.44290  Biso   1.000  H
  H32      1.0000 0.50878  0.42801  0.46689  Biso   1.000  H
  C49      1.0000 0.57620  0.52553  0.47799  Biso   1.000  C
  H33      1.0000 0.31029  0.37651  0.40909  Biso   1.000  H
  H34      1.0000 0.33209  0.44831  0.39740  Biso   1.000  H
  C50      1.0000 0.23790  0.40850  0.41910  Biso   1.000  C
  H35      1.0000 0.27512  0.37770  0.41860  Biso   1.000  H
  H36      1.0000 0.33639  0.41019  0.39880  Biso   1.000  H
  C51      1.0000 0.29068  0.46950  0.40330  Biso   1.000  C
  C52      1.0000 0.97993  0.69973  0.50003  Biso   1.000  C
  C53      1.0000 0.85989  0.66569  0.50290  Biso   1.000  C
  C54      1.0000 0.94691  0.77580  0.48222  Biso   1.000  C
  C55      1.0000 0.00260  0.66311  0.48719  Biso   1.000  C
  C56      1.0000 0.91439  0.51961  0.37875  Biso   1.000  C
  C57      1.0000 0.99664  0.54673  0.41177  Biso   1.000  C
  C58      1.0000 0.01780  0.57991  0.43746  Biso   1.000  C
  H37      1.0000 0.92830  0.73082  0.33609  Biso   1.000  H
  H38      1.0000 0.98213  0.71032  0.34389  Biso   1.000  H
  C59      1.0000 0.01399  0.80810  0.34962  Biso   1.000  C
  H39      1.0000 0.68512  0.40621  0.40689  Biso   1.000  H
  H40      1.0000 0.64160  0.44129  0.40259  Biso   1.000  H
  C60      1.0000 0.63422  0.40611  0.44039  Biso   1.000  C
  C61      1.0000 0.36193  0.23142  0.37241  Biso   1.000  C
  C62      1.0000 0.34692  0.15728  0.40913  Biso   1.000  C
  C63      1.0000 0.46230  0.23739  0.39514  Biso   1.000  C
  C64      1.0000 0.32680  0.15668  0.43345  Biso   1.000  C
  C65      1.0000 0.29583  0.22082  0.48589  Biso   1.000  C
  C66      1.0000 0.30030  0.28018  0.50003  Biso   1.000  C
  C67      1.0000 0.34260  0.39770  0.49809  Biso   1.000  C
  H41      1.0000 0.56179  0.51369  0.49600  Biso   1.000  H
  H42      1.0000 0.58123  0.56961  0.47450  Biso   1.000  H
  C68      1.0000 0.64463  0.52802  0.47389  Biso   1.000  C
  H43      1.0000 0.24199  0.44761  0.42829  Biso   1.000  H
  H44      1.0000 0.21410  0.40372  0.40281  Biso   1.000  H
  C69      1.0000 0.19660  0.34312  0.43609  Biso   1.000  C
  H45      1.0000 0.27508  0.48329  0.41850  Biso   1.000  H
  H46      1.0000 0.25127  0.44368  0.39219  Biso   1.000  H
  C70      1.0000 0.34110  0.53672  0.38780  Biso   1.000  C
  C71      1.0000 0.00381  0.72550  0.52481  Biso   1.000  C
  H47      1.0000 0.86890  0.68828  0.51969  Biso   1.000  H
  H48      1.0000 0.82411  0.67032  0.49461  Biso   1.000  H
  C72      1.0000 0.83302  0.59041  0.50791  Biso   1.000  C
  H49      1.0000 0.96380  0.79889  0.49880  Biso   1.000  H
  H50      1.0000 0.90752  0.77949  0.47759  Biso   1.000  H
  C73      1.0000 0.99942  0.81153  0.46229  Biso   1.000  C
  C74      1.0000 0.05511  0.65738  0.49809  Biso   1.000  C
  H51      1.0000 0.87621  0.51961  0.37220  Biso   1.000  H
  C75      1.0000 0.94163  0.48722  0.36586  Biso   1.000  C
  C76      1.0000 0.02271  0.51269  0.39809  Biso   1.000  C
  C77      1.0000 0.00973  0.52921  0.45693  Biso   1.000  C
  C78      1.0000 0.09020  0.63639  0.43588  Biso   1.000  C
  H52      1.0000 0.99429  0.83531  0.35449  Biso   1.000  H
  H53      1.0000 0.03389  0.82118  0.33249  Biso   1.000  H
  H54      1.0000 0.04841  0.81471  0.36210  Biso   1.000  H
  H55      1.0000 0.66340  0.39950  0.45219  Biso   1.000  H
  H56      1.0000 0.59433  0.36312  0.43690  Biso   1.000  H
  H57      1.0000 0.62131  0.43632  0.44830  Biso   1.000  H
  C79      1.0000 0.29119  0.21689  0.37377  Biso   1.000  C
  H58      1.0000 0.38998  0.27709  0.36580  Biso   1.000  H
  H59      1.0000 0.36423  0.20052  0.35999  Biso   1.000  H
  C80      1.0000 0.33168  0.09708  0.39677  Biso   1.000  C
  H60      1.0000 0.46168  0.20669  0.38180  Biso   1.000  H
  H61      1.0000 0.49099  0.28331  0.38870  Biso   1.000  H
  C81      1.0000 0.49348  0.22918  0.41800  Biso   1.000  C
  C82      1.0000 0.29008  0.09608  0.44660  Biso   1.000  C
  C83      1.0000 0.33431  0.19420  0.50290  Biso   1.000  C
  C84      1.0000 0.22422  0.17111  0.48222  Biso   1.000  C
  C85      1.0000 0.27449  0.27829  0.52481  Biso   1.000  C
  H62      1.0000 0.36331  0.43860  0.48889  Biso   1.000  H
  C86      1.0000 0.31841  0.39422  0.52138  Biso   1.000  C
  H63      1.0000 0.65809  0.53891  0.45589  Biso   1.000  H
  H64      1.0000 0.64004  0.48523  0.47820  Biso   1.000  H
  H65      1.0000 0.67840  0.56290  0.48489  Biso   1.000  H
  H66      1.0000 0.19241  0.30441  0.42690  Biso   1.000  H
  H67      1.0000 0.15209  0.33650  0.43949  Biso   1.000  H
  H68      1.0000 0.21982  0.34820  0.45240  Biso   1.000  H
  H69      1.0000 0.38652  0.55379  0.39420  Biso   1.000  H
  H70      1.0000 0.32781  0.57031  0.39041  Biso   1.000  H
  H71      1.0000 0.33950  0.52662  0.36950  Biso   1.000  H
  H72      1.0000 0.98628  0.74889  0.53380  Biso   1.000  H
  C87      1.0000 0.05319  0.71620  0.53592  Biso   1.000  C
  H73      1.0000 0.86721  0.58942  0.51889  Biso   1.000  H
  H74      1.0000 0.79382  0.57683  0.51910  Biso   1.000  H
  C88      1.0000 0.81221  0.53319  0.49010  Biso   1.000  C
  H75      1.0000 0.98649  0.78869  0.44550  Biso   1.000  H
  C89      1.0000 0.99970  0.88198  0.46189  Biso   1.000  C
  H76      1.0000 0.04299  0.81730  0.46760  Biso   1.000  H
  H77      1.0000 0.07531  0.63668  0.48889  Biso   1.000  H
  C90      1.0000 0.07580  0.68162  0.52138  Biso   1.000  C
  C91      1.0000 0.99598  0.48388  0.37565  Biso   1.000  C
  H78      1.0000 0.92310  0.46662  0.34989  Biso   1.000  H
  H79      1.0000 0.05951  0.51020  0.40480  Biso   1.000  H
  C92      1.0000 0.94942  0.47652  0.45990  Biso   1.000  C
  H80      1.0000 0.04061  0.51299  0.45250  Biso   1.000  H
  H81      1.0000 0.02409  0.55190  0.47370  Biso   1.000  H
  H82      1.0000 0.11930  0.61668  0.43450  Biso   1.000  H
  H83      1.0000 0.10159  0.66201  0.45210  Biso   1.000  H
  C93      1.0000 0.10600  0.68599  0.41291  Biso   1.000  C
  C94      1.0000 0.26321  0.22470  0.34934  Biso   1.000  C
  H84      1.0000 0.26289  0.17071  0.37990  Biso   1.000  H
  H85      1.0000 0.28861  0.24679  0.38669  Biso   1.000  H
  H86      1.0000 0.34670  0.09772  0.37979  Biso   1.000  H
  C95      1.0000 0.29502  0.03762  0.40949  Biso   1.000  C
  H87      1.0000 0.46289  0.18480  0.42540  Biso   1.000  H
  H88      1.0000 0.49802  0.26281  0.43069  Biso   1.000  H
  C96      1.0000 0.56298  0.23520  0.41459  Biso   1.000  C
  C97      1.0000 0.27519  0.03821  0.43385  Biso   1.000  C
  H89      1.0000 0.27609  0.09499  0.46379  Biso   1.000  H
  H90      1.0000 0.31171  0.18062  0.51969  Biso   1.000  H
  H91      1.0000 0.32971  0.15380  0.49461  Biso   1.000  H
  C98      1.0000 0.40962  0.24261  0.50791  Biso   1.000  C
  H92      1.0000 0.20112  0.16489  0.49880  Biso   1.000  H
  H93      1.0000 0.22052  0.12802  0.47759  Biso   1.000  H
  C99      1.0000 0.18848  0.18788  0.46229  Biso   1.000  C
  C100     1.0000 0.28381  0.33700  0.53592  Biso   1.000  C
  H94      1.0000 0.25111  0.23739  0.53380  Biso   1.000  H
  H95      1.0000 0.32543  0.43462  0.52880  Biso   1.000  H
  C101     1.0000 0.07492  0.73759  0.56161  Biso   1.000  C
  C102     1.0000 0.78630  0.45492  0.49370  Biso   1.000  C
  H96      1.0000 0.85080  0.54842  0.47839  Biso   1.000  H
  H97      1.0000 0.77691  0.53379  0.47960  Biso   1.000  H
  H98      1.0000 0.95422  0.87522  0.46049  Biso   1.000  H
  H99      1.0000 0.02189  0.90930  0.47730  Biso   1.000  H
  C103     1.0000 0.04061  0.91278  0.43749  Biso   1.000  C
  H100     1.0000 0.10922  0.67460  0.52880  Biso   1.000  H
  C104     1.0000 0.02503  0.45055  0.36126  Biso   1.000  C
  H101     1.0000 0.93211  0.45602  0.44290  Biso   1.000  H
  H102     1.0000 0.91919  0.49120  0.46689  Biso   1.000  H
  C105     1.0000 0.94932  0.42383  0.47799  Biso   1.000  C
  H103     1.0000 0.06624  0.68973  0.40909  Biso   1.000  H
  H104     1.0000 0.11621  0.66788  0.39740  Biso   1.000  H
  C106     1.0000 0.17061  0.76212  0.41910  Biso   1.000  C
  H105     1.0000 0.10262  0.72490  0.41860  Biso   1.000  H
  H106     1.0000 0.07382  0.66360  0.39880  Biso   1.000  H
  C107     1.0000 0.17881  0.70933  0.40330  Biso   1.000  C
  H107     1.0000 0.26921  0.19748  0.33609  Biso   1.000  H
  H108     1.0000 0.28970  0.27182  0.34389  Biso   1.000  H
  C108     1.0000 0.19189  0.20589  0.34962  Biso   1.000  C
  C109     1.0000 0.27615  0.97239  0.39746  Biso   1.000  C
  H109     1.0000 0.59379  0.27889  0.40689  Biso   1.000  H
  H110     1.0000 0.55873  0.20032  0.40259  Biso   1.000  H
  C110     1.0000 0.59390  0.22808  0.44039  Biso   1.000  C
  H111     1.0000 0.24981  0.99701  0.44250  Biso   1.000  H
  H112     1.0000 0.41058  0.27779  0.51889  Biso   1.000  H
  H113     1.0000 0.42318  0.21699  0.51910  Biso   1.000  H
  C111     1.0000 0.46681  0.27899  0.49010  Biso   1.000  C
  H114     1.0000 0.21127  0.19778  0.44550  Biso   1.000  H
  H115     1.0000 0.18270  0.22570  0.46760  Biso   1.000  H
  C112     1.0000 0.11803  0.11772  0.46189  Biso   1.000  C
  C113     1.0000 0.26241  0.33730  0.56161  Biso   1.000  C
  N3       1.0000 0.05635  0.77327  0.57483  Biso   1.000  N
  H116     1.0000 0.10410  0.72520  0.56939  Biso   1.000  H
  H117     1.0000 0.82260  0.44910  0.50030  Biso   1.000  H
  H118     1.0000 0.77141  0.43229  0.47709  Biso   1.000  H
  H119     1.0000 0.74904  0.43572  0.50580  Biso   1.000  H
  H120     1.0000 0.08641  0.92259  0.44020  Biso   1.000  H
  H121     1.0000 0.04064  0.95403  0.43339  Biso   1.000  H
  H122     1.0000 0.02081  0.88129  0.42320  Biso   1.000  H
  N4       1.0000 0.08009  0.45517  0.36699  Biso   1.000  N
  H123     1.0000 0.00140  0.42422  0.34690  Biso   1.000  H
  H124     1.0000 0.95190  0.43821  0.49600  Biso   1.000  H
  H125     1.0000 0.98839  0.41880  0.47450  Biso   1.000  H
  C114     1.0000 0.88340  0.35541  0.47389  Biso   1.000  C
  H126     1.0000 0.20560  0.75799  0.42829  Biso   1.000  H
  H127     1.0000 0.18961  0.78590  0.40281  Biso   1.000  H
  C115     1.0000 0.14653  0.80342  0.43609  Biso   1.000  C
  H128     1.0000 0.20819  0.72490  0.41850  Biso   1.000  H
  H129     1.0000 0.19237  0.74869  0.39219  Biso   1.000  H
  C116     1.0000 0.19562  0.65893  0.38780  Biso   1.000  C
  H130     1.0000 0.17879  0.21271  0.33249  Biso   1.000  H
  H131     1.0000 0.18532  0.23371  0.36210  Biso   1.000  H
  H132     1.0000 0.16470  0.15902  0.35449  Biso   1.000  H
  N5       1.0000 0.28328  0.96631  0.37431  Biso   1.000  N
  H133     1.0000 0.25790  0.93382  0.40800  Biso   1.000  H
  H134     1.0000 0.60052  0.26391  0.45219  Biso   1.000  H
  H135     1.0000 0.63692  0.23122  0.43690  Biso   1.000  H
  H136     1.0000 0.56369  0.18499  0.44830  Biso   1.000  H
  C117     1.0000 0.54510  0.33138  0.49370  Biso   1.000  C
  H137     1.0000 0.45159  0.30242  0.47839  Biso   1.000  H
  H138     1.0000 0.46619  0.24311  0.47960  Biso   1.000  H
  H139     1.0000 0.12483  0.07901  0.46049  Biso   1.000  H
  H140     1.0000 0.09069  0.11260  0.47730  Biso   1.000  H
  C118     1.0000 0.08722  0.12782  0.43749  Biso   1.000  C
  N6       1.0000 0.22675  0.28311  0.57483  Biso   1.000  N
  H141     1.0000 0.27481  0.37890  0.56939  Biso   1.000  H
  C119     1.0000 0.08044  0.79103  0.60135  Biso   1.000  C
  C120     1.0000 0.10402  0.42039  0.35033  Biso   1.000  C
  H142     1.0000 0.88084  0.34193  0.45589  Biso   1.000  H
  H143     1.0000 0.84518  0.35999  0.47820  Biso   1.000  H
  H144     1.0000 0.88452  0.32163  0.48489  Biso   1.000  H
  H145     1.0000 0.11199  0.80760  0.42690  Biso   1.000  H
  H146     1.0000 0.18441  0.84790  0.43949  Biso   1.000  H
  H147     1.0000 0.12840  0.78018  0.45240  Biso   1.000  H
  H148     1.0000 0.16731  0.61350  0.39420  Biso   1.000  H
  H149     1.0000 0.24251  0.67221  0.39041  Biso   1.000  H
  H150     1.0000 0.18711  0.66052  0.36950  Biso   1.000  H
  C121     1.0000 0.26134  0.89760  0.36568  Biso   1.000  C
  H151     1.0000 0.55092  0.37352  0.50030  Biso   1.000  H
  H152     1.0000 0.56770  0.33909  0.47709  Biso   1.000  H
  H153     1.0000 0.56429  0.31332  0.50580  Biso   1.000  H
  H154     1.0000 0.07742  0.16380  0.44020  Biso   1.000  H
  H155     1.0000 0.04600  0.08658  0.43339  Biso   1.000  H
  H156     1.0000 0.11871  0.13952  0.42320  Biso   1.000  H
  C122     1.0000 0.20898  0.28938  0.60135  Biso   1.000  C
  C123     1.0000 0.02270  0.76605  0.61956  Biso   1.000  C
  H157     1.0000 0.10780  0.77008  0.60580  Biso   1.000  H
  C124     1.0000 0.12422  0.86661  0.60306  Biso   1.000  C
  C125     1.0000 0.10238  0.36377  0.36568  Biso   1.000  C
  H158     1.0000 0.07372  0.40159  0.33519  Biso   1.000  H
  C126     1.0000 0.17402  0.46731  0.34100  Biso   1.000  C
  H159     1.0000 0.24965  0.86760  0.38090  Biso   1.000  H
  C127     1.0000 0.20036  0.87382  0.34836  Biso   1.000  C
  C128     1.0000 0.31638  0.89601  0.35033  Biso   1.000  C
  C129     1.0000 0.23394  0.25664  0.61956  Biso   1.000  C
  H160     1.0000 0.22991  0.33770  0.60580  Biso   1.000  H
  C130     1.0000 0.13341  0.25759  0.60306  Biso   1.000  C
  N7       1.0000 0.98343  0.69475  0.61837  Biso   1.000  N
  H161     1.0000 0.99420  0.78531  0.61450  Biso   1.000  H
  C131     1.0000 0.04702  0.78720  0.64698  Biso   1.000  C
  C132     1.0000 0.14810  0.88801  0.63018  Biso   1.000  C
  H162     1.0000 0.16290  0.88149  0.59150  Biso   1.000  H
  H163     1.0000 0.09840  0.88771  0.59729  Biso   1.000  H
  N8       1.0000 0.03367  0.31700  0.37431  Biso   1.000  N
  H164     1.0000 0.13239  0.38208  0.38090  Biso   1.000  H
  C133     1.0000 0.12622  0.32655  0.34836  Biso   1.000  C
  C134     1.0000 0.19941  0.43010  0.32442  Biso   1.000  C
  H165     1.0000 0.20390  0.48751  0.35589  Biso   1.000  H
  H166     1.0000 0.17440  0.50359  0.33090  Biso   1.000  H
  H167     1.0000 0.16421  0.87511  0.35800  Biso   1.000  H
  H168     1.0000 0.21188  0.90392  0.33339  Biso   1.000  H
  C135     1.0000 0.17681  0.80421  0.33926  Biso   1.000  C
  N9       1.0000 0.37506  0.91994  0.36699  Biso   1.000  N
  H169     1.0000 0.32787  0.92631  0.33519  Biso   1.000  H
  C136     1.0000 0.29327  0.82600  0.34100  Biso   1.000  C
  N10      1.0000 0.30524  0.28869  0.61837  Biso   1.000  N
  C137     1.0000 0.21280  0.25978  0.64698  Biso   1.000  C
  H170     1.0000 0.21471  0.20888  0.61450  Biso   1.000  H
  C138     1.0000 0.11198  0.26008  0.63018  Biso   1.000  C
  H171     1.0000 0.11852  0.28142  0.59150  Biso   1.000  H
  H172     1.0000 0.11230  0.21072  0.59729  Biso   1.000  H
  C139     1.0000 0.91991  0.66957  0.61394  Biso   1.000  C
  H173     1.0000 0.07371  0.76690  0.65239  Biso   1.000  H
  H174     1.0000 0.00831  0.77113  0.65860  Biso   1.000  H
  C140     1.0000 0.08910  0.86283  0.64894  Biso   1.000  C
  H175     1.0000 0.17459  0.93712  0.63100  Biso   1.000  H
  H176     1.0000 0.17729  0.87019  0.63529  Biso   1.000  H
  C141     1.0000 0.02763  0.30381  0.39746  Biso   1.000  C
  H177     1.0000 0.12489  0.28909  0.35800  Biso   1.000  H
  H178     1.0000 0.09613  0.30799  0.33339  Biso   1.000  H
  C142     1.0000 0.19584  0.37263  0.33926  Biso   1.000  C
  H179     1.0000 0.17211  0.41343  0.30871  Biso   1.000  H
  H180     1.0000 0.24600  0.46090  0.31919  Biso   1.000  H
  H181     1.0000 0.13720  0.78938  0.32820  Biso   1.000  H
  H182     1.0000 0.16354  0.77381  0.35420  Biso   1.000  H
  C143     1.0000 0.23071  0.80058  0.32442  Biso   1.000  C
  C144     1.0000 0.42553  0.97502  0.36126  Biso   1.000  C
  H183     1.0000 0.28358  0.79610  0.35589  Biso   1.000  H
  H184     1.0000 0.32914  0.82560  0.33090  Biso   1.000  H
  C145     1.0000 0.33040  0.25033  0.61394  Biso   1.000  C
  H185     1.0000 0.23312  0.30680  0.65239  Biso   1.000  H
  H186     1.0000 0.22891  0.23719  0.65860  Biso   1.000  H
  C146     1.0000 0.13719  0.22629  0.64894  Biso   1.000  C
  H187     1.0000 0.06290  0.23749  0.63100  Biso   1.000  H
  H188     1.0000 0.12981  0.30710  0.63529  Biso   1.000  H
  C147     1.0000 0.87413  0.59792  0.61299  Biso   1.000  C
  H189     1.0000 0.90301  0.69893  0.61120  Biso   1.000  H
  H190     1.0000 0.10593  0.87572  0.66669  Biso   1.000  H
  H191     1.0000 0.06182  0.88333  0.64470  Biso   1.000  H
  C148     1.0000 0.96241  0.25739  0.40949  Biso   1.000  C
  H192     1.0000 0.06622  0.32411  0.40800  Biso   1.000  H
  H193     1.0000 0.21061  0.34780  0.32820  Biso   1.000  H
  H194     1.0000 0.22622  0.38979  0.35420  Biso   1.000  H
  H195     1.0000 0.24126  0.82789  0.30871  Biso   1.000  H
  H196     1.0000 0.21487  0.75400  0.31919  Biso   1.000  H
  C149     1.0000 0.48788  0.00398  0.37565  Biso   1.000  C
  H197     1.0000 0.42280  0.99861  0.34690  Biso   1.000  H
  C150     1.0000 0.40211  0.27620  0.61299  Biso   1.000  C
  H198     1.0000 0.30109  0.20410  0.61120  Biso   1.000  H
  H199     1.0000 0.12433  0.23022  0.66669  Biso   1.000  H
  H200     1.0000 0.11669  0.17848  0.64470  Biso   1.000  H
  C151     1.0000 0.80749  0.57280  0.61362  Biso   1.000  C
  C152     1.0000 0.89712  0.55220  0.61258  Biso   1.000  C
  C153     1.0000 0.90293  0.23460  0.39677  Biso   1.000  C
  C154     1.0000 0.96182  0.23699  0.43385  Biso   1.000  C
  C155     1.0000 0.54560  0.05841  0.36586  Biso   1.000  C
  C156     1.0000 0.48997  0.97731  0.39809  Biso   1.000  C
  C157     1.0000 0.42721  0.23470  0.61362  Biso   1.000  C
  C158     1.0000 0.44780  0.34491  0.61258  Biso   1.000  C
  C159     1.0000 0.76320  0.50249  0.61297  Biso   1.000  C
  H201     1.0000 0.79000  0.60210  0.61450  Biso   1.000  H
  C160     1.0000 0.85783  0.48602  0.61268  Biso   1.000  C
  H202     1.0000 0.94383  0.56951  0.61220  Biso   1.000  H
  C161     1.0000 0.84273  0.18962  0.40913  Biso   1.000  C
  H203     1.0000 0.90232  0.24898  0.37979  Biso   1.000  H
  C162     1.0000 0.90391  0.19400  0.44660  Biso   1.000  C
  H204     1.0000 0.00300  0.25281  0.44250  Biso   1.000  H
  C163     1.0000 0.60521  0.08558  0.37875  Biso   1.000  C
  H205     1.0000 0.54352  0.07692  0.34989  Biso   1.000  H
  C164     1.0000 0.55010  0.00338  0.41177  Biso   1.000  C
  H206     1.0000 0.45066  0.94049  0.40480  Biso   1.000  H
  H207     1.0000 0.39790  0.18788  0.61450  Biso   1.000  H
  C165     1.0000 0.49749  0.26072  0.61297  Biso   1.000  C
  H208     1.0000 0.43049  0.37432  0.61220  Biso   1.000  H
  C166     1.0000 0.51398  0.37178  0.61268  Biso   1.000  C
  C167     1.0000 0.68890  0.46920  0.61356  Biso   1.000  C
  C168     1.0000 0.78952  0.46179  0.61295  Biso   1.000  C
  H209     1.0000 0.87560  0.45701  0.61260  Biso   1.000  H
  C169     1.0000 0.77465  0.16524  0.39794  Biso   1.000  C
  C170     1.0000 0.84332  0.17012  0.43345  Biso   1.000  C
  H210     1.0000 0.90501  0.18111  0.46379  Biso   1.000  H
  C171     1.0000 0.60871  0.05682  0.40123  Biso   1.000  C
  H211     1.0000 0.64340  0.12379  0.37220  Biso   1.000  H
  C172     1.0000 0.56209  0.98219  0.43746  Biso   1.000  C
  C173     1.0000 0.53822  0.32770  0.61295  Biso   1.000  C
  C174     1.0000 0.53081  0.21972  0.61356  Biso   1.000  C
  H212     1.0000 0.54299  0.41860  0.61260  Biso   1.000  H
  C175     1.0000 0.67361  0.39681  0.61241  Biso   1.000  C
  C176     1.0000 0.66433  0.48702  0.63817  Biso   1.000  C
  C177     1.0000 0.66672  0.49050  0.58939  Biso   1.000  C
  C178     1.0000 0.73030  0.38979  0.61220  Biso   1.000  C
  C179     1.0000 0.73170  0.11743  0.42015  Biso   1.000  C
  C180     1.0000 0.76862  0.13051  0.37241  Biso   1.000  C
  C181     1.0000 0.76260  0.22490  0.39514  Biso   1.000  C
  C182     1.0000 0.77202  0.12041  0.44050  Biso   1.000  C
  C183     1.0000 0.66461  0.07339  0.42069  Biso   1.000  C
  C184     1.0000 0.63632  0.03189  0.44108  Biso   1.000  C
  C185     1.0000 0.51947  0.99030  0.45693  Biso   1.000  C
  C186     1.0000 0.54618  0.90979  0.43588  Biso   1.000  C
  C187     1.0000 0.61020  0.34048  0.61220  Biso   1.000  C
  C188     1.0000 0.51300  0.17728  0.63817  Biso   1.000  C
  C189     1.0000 0.50952  0.17619  0.58939  Biso   1.000  C
  C190     1.0000 0.60321  0.27680  0.61241  Biso   1.000  C
  H213     1.0000 0.68673  0.53613  0.63940  Biso   1.000  H
  H214     1.0000 0.61599  0.47040  0.63629  Biso   1.000  H
  C191     1.0000 0.67439  0.46129  0.66264  Biso   1.000  C
  H215     1.0000 0.61750  0.46781  0.58920  Biso   1.000  H
  H216     1.0000 0.68369  0.53901  0.59029  Biso   1.000  H
  C192     1.0000 0.68981  0.47532  0.56507  Biso   1.000  C
  C193     1.0000 0.72320  0.32640  0.61241  Biso   1.000  C
  C194     1.0000 0.78308  0.07429  0.37377  Biso   1.000  C
  H217     1.0000 0.72289  0.11290  0.36580  Biso   1.000  H
  H218     1.0000 0.79952  0.16370  0.35999  Biso   1.000  H
  H219     1.0000 0.79329  0.25500  0.38180  Biso   1.000  H
  H220     1.0000 0.71672  0.20768  0.38870  Biso   1.000  H
  C195     1.0000 0.77080  0.26431  0.41800  Biso   1.000  C
  C196     1.0000 0.74391  0.07901  0.46181  Biso   1.000  C
  C197     1.0000 0.67381  0.03378  0.46178  Biso   1.000  C
  C198     1.0000 0.52709  0.05060  0.45990  Biso   1.000  C
  H221     1.0000 0.47240  0.95940  0.45250  Biso   1.000  H
  H222     1.0000 0.52775  0.97592  0.47370  Biso   1.000  H
  H223     1.0000 0.49742  0.88068  0.43450  Biso   1.000  H
  H224     1.0000 0.56039  0.89840  0.45210  Biso   1.000  H
  C199     1.0000 0.58001  0.89402  0.41291  Biso   1.000  C
  H225     1.0000 0.46390  0.15061  0.63940  Biso   1.000  H
  H226     1.0000 0.52960  0.14559  0.63629  Biso   1.000  H
  C200     1.0000 0.53871  0.21311  0.66264  Biso   1.000  C
  H227     1.0000 0.53222  0.14972  0.58920  Biso   1.000  H
  H228     1.0000 0.46098  0.14469  0.59029  Biso   1.000  H
  C201     1.0000 0.52471  0.21450  0.56507  Biso   1.000  C
  C202     1.0000 0.65951  0.26968  0.61220  Biso   1.000  C
  C203     1.0000 0.64702  0.47722  0.68537  Biso   1.000  C
  H229     1.0000 0.72291  0.47990  0.66519  Biso   1.000  H
  H230     1.0000 0.65381  0.41238  0.66130  Biso   1.000  H
  H231     1.0000 0.67612  0.42761  0.56419  Biso   1.000  H
  H232     1.0000 0.73891  0.50199  0.56369  Biso   1.000  H
  C204     1.0000 0.65590  0.49428  0.54319  Biso   1.000  C
  C205     1.0000 0.78031  0.31108  0.61356  Biso   1.000  C
  C206     1.0000 0.77532  0.03851  0.34934  Biso   1.000  C
  H233     1.0000 0.82931  0.09220  0.37990  Biso   1.000  H
  H234     1.0000 0.75322  0.04180  0.38669  Biso   1.000  H
  H235     1.0000 0.81522  0.27809  0.42540  Biso   1.000  H
  H236     1.0000 0.73720  0.23520  0.43069  Biso   1.000  H
  C207     1.0000 0.76479  0.32780  0.41459  Biso   1.000  C
  C208     1.0000 0.77921  0.07498  0.48589  Biso   1.000  C
  C209     1.0000 0.66049  0.99741  0.48719  Biso   1.000  C
  H237     1.0000 0.52390  0.06792  0.44290  Biso   1.000  H
  H238     1.0000 0.57201  0.08080  0.46689  Biso   1.000  H
  C210     1.0000 0.47453  0.05070  0.47799  Biso   1.000  C
  H239     1.0000 0.62352  0.93382  0.40909  Biso   1.000  H
  H240     1.0000 0.55173  0.88382  0.39740  Biso   1.000  H
  C211     1.0000 0.59151  0.82938  0.41910  Biso   1.000  C
  H241     1.0000 0.62233  0.89740  0.41860  Biso   1.000  H
  H242     1.0000 0.58977  0.92621  0.39880  Biso   1.000  H
  C212     1.0000 0.53049  0.82117  0.40330  Biso   1.000  C
  C213     1.0000 0.52279  0.16982  0.68537  Biso   1.000  C
  H243     1.0000 0.52009  0.24301  0.66519  Biso   1.000  H
  H244     1.0000 0.58759  0.24142  0.66130  Biso   1.000  H
  H245     1.0000 0.57238  0.24848  0.56419  Biso   1.000  H
  H246     1.0000 0.49799  0.23689  0.56369  Biso   1.000  H
  C214     1.0000 0.50572  0.16161  0.54319  Biso   1.000  C
  C215     1.0000 0.67233  0.21052  0.61295  Biso   1.000  C
  H247     1.0000 0.66773  0.52613  0.68669  Biso   1.000  H
  H248     1.0000 0.59869  0.45881  0.68269  Biso   1.000  H
  C216     1.0000 0.65650  0.45189  0.70973  Biso   1.000  C
  H249     1.0000 0.65151  0.46552  0.52849  Biso   1.000  H
  H250     1.0000 0.68891  0.54031  0.53809  Biso   1.000  H
  C217     1.0000 0.58680  0.49199  0.54520  Biso   1.000  C
  C218     1.0000 0.73929  0.23679  0.61297  Biso   1.000  C
  C219     1.0000 0.82270  0.33571  0.63817  Biso   1.000  C
  C220     1.0000 0.82383  0.33332  0.58939  Biso   1.000  C
  H251     1.0000 0.80251  0.07170  0.33609  Biso   1.000  H
  H252     1.0000 0.72822  0.01791  0.34389  Biso   1.000  H
  C221     1.0000 0.79406  0.98602  0.34962  Biso   1.000  C
  H253     1.0000 0.72112  0.31491  0.40689  Biso   1.000  H
  H254     1.0000 0.79970  0.35840  0.40259  Biso   1.000  H
  C222     1.0000 0.77191  0.36581  0.44039  Biso   1.000  C
  C223     1.0000 0.71979  0.02010  0.50003  Biso   1.000  C
  C224     1.0000 0.80583  0.14011  0.50290  Biso   1.000  C
  C225     1.0000 0.82889  0.05309  0.48222  Biso   1.000  C
  C226     1.0000 0.60231  0.94492  0.49809  Biso   1.000  C
  H255     1.0000 0.48633  0.04811  0.49600  Biso   1.000  H
  H256     1.0000 0.43041  0.01159  0.47450  Biso   1.000  H
  C227     1.0000 0.47200  0.11658  0.47389  Biso   1.000  C
  H257     1.0000 0.55235  0.79441  0.42829  Biso   1.000  H
  H258     1.0000 0.59627  0.81038  0.40281  Biso   1.000  H
  C228     1.0000 0.65693  0.85352  0.43609  Biso   1.000  C
  H259     1.0000 0.51667  0.79182  0.41850  Biso   1.000  H
  H260     1.0000 0.55631  0.80759  0.39219  Biso   1.000  H
  C229     1.0000 0.46328  0.80441  0.38780  Biso   1.000  C
  H261     1.0000 0.47391  0.14161  0.68669  Biso   1.000  H
  H262     1.0000 0.54119  0.13992  0.68269  Biso   1.000  H
  C230     1.0000 0.54811  0.20460  0.70973  Biso   1.000  C
  H263     1.0000 0.53450  0.18599  0.52849  Biso   1.000  H
  H264     1.0000 0.45971  0.14862  0.53809  Biso   1.000  H
  C231     1.0000 0.50799  0.09479  0.54520  Biso   1.000  C
  C232     1.0000 0.62822  0.14220  0.61268  Biso   1.000  C
  H265     1.0000 0.70420  0.47239  0.71329  Biso   1.000  H
  H266     1.0000 0.63680  0.40353  0.70870  Biso   1.000  H
  H267     1.0000 0.63490  0.46289  0.72349  Biso   1.000  H
  H268     1.0000 0.58902  0.52090  0.55940  Biso   1.000  H
  H269     1.0000 0.55171  0.44671  0.54830  Biso   1.000  H
  H270     1.0000 0.57852  0.50871  0.52920  Biso   1.000  H
  C233     1.0000 0.76532  0.19251  0.61362  Biso   1.000  C
  H271     1.0000 0.84942  0.31332  0.63940  Biso   1.000  H
  H272     1.0000 0.85440  0.38402  0.63629  Biso   1.000  H
  C234     1.0000 0.78693  0.32561  0.66264  Biso   1.000  C
  H273     1.0000 0.85031  0.38248  0.58920  Biso   1.000  H
  H274     1.0000 0.85531  0.31630  0.59029  Biso   1.000  H
  C235     1.0000 0.78550  0.31018  0.56507  Biso   1.000  C
  H275     1.0000 0.84101  0.00572  0.35449  Biso   1.000  H
  H276     1.0000 0.78725  0.96612  0.33249  Biso   1.000  H
  H277     1.0000 0.76629  0.95159  0.36210  Biso   1.000  H
  H278     1.0000 0.73610  0.33660  0.45219  Biso   1.000  H
  H279     1.0000 0.76881  0.40572  0.43690  Biso   1.000  H
  H280     1.0000 0.81502  0.37870  0.44830  Biso   1.000  H
  C236     1.0000 0.72173  0.99622  0.52481  Biso   1.000  C
  H281     1.0000 0.81942  0.13111  0.51969  Biso   1.000  H
  H282     1.0000 0.84621  0.17589  0.49461  Biso   1.000  H
  C237     1.0000 0.75738  0.16698  0.50791  Biso   1.000  C
  H283     1.0000 0.83511  0.03622  0.49880  Biso   1.000  H
  H284     1.0000 0.87199  0.09250  0.47759  Biso   1.000  H
  C238     1.0000 0.81212  0.00060  0.46229  Biso   1.000  C
  H285     1.0000 0.56140  0.92472  0.48889  Biso   1.000  H
  C239     1.0000 0.60580  0.92422  0.52138  Biso   1.000  C
  H286     1.0000 0.46113  0.11922  0.45589  Biso   1.000  H
  H287     1.0000 0.51481  0.15479  0.47820  Biso   1.000  H
  H288     1.0000 0.43711  0.11548  0.48489  Biso   1.000  H
  H289     1.0000 0.69558  0.88800  0.42690  Biso   1.000  H
  H290     1.0000 0.66352  0.81560  0.43949  Biso   1.000  H
  H291     1.0000 0.65178  0.87158  0.45240  Biso   1.000  H
  H292     1.0000 0.44620  0.83272  0.39420  Biso   1.000  H
  H293     1.0000 0.42970  0.75749  0.39041  Biso   1.000  H
  H294     1.0000 0.47344  0.81292  0.36950  Biso   1.000  H
  H295     1.0000 0.52759  0.23182  0.71329  Biso   1.000  H
  H296     1.0000 0.59651  0.23331  0.70870  Biso   1.000  H
  H297     1.0000 0.53712  0.17201  0.72349  Biso   1.000  H
  H298     1.0000 0.47910  0.06812  0.55940  Biso   1.000  H
  H299     1.0000 0.55329  0.10499  0.54830  Biso   1.000  H
  H300     1.0000 0.49132  0.06981  0.52920  Biso   1.000  H
  C240     1.0000 0.65510  0.10290  0.61258  Biso   1.000  C
  H301     1.0000 0.58139  0.12439  0.61260  Biso   1.000  H
  C241     1.0000 0.72378  0.12588  0.61299  Biso   1.000  C
  H302     1.0000 0.81213  0.21002  0.61450  Biso   1.000  H
  C242     1.0000 0.83024  0.35302  0.68537  Biso   1.000  C
  H303     1.0000 0.75698  0.27709  0.66519  Biso   1.000  H
  H304     1.0000 0.75862  0.34621  0.66130  Biso   1.000  H
  H305     1.0000 0.75152  0.32392  0.56419  Biso   1.000  H
  H306     1.0000 0.76313  0.26112  0.56369  Biso   1.000  H
  C243     1.0000 0.83841  0.34412  0.54319  Biso   1.000  C
  H307     1.0000 0.76260  0.01368  0.53380  Biso   1.000  H
  C244     1.0000 0.66298  0.94681  0.53592  Biso   1.000  C
  H308     1.0000 0.72219  0.13280  0.51889  Biso   1.000  H
  H309     1.0000 0.78302  0.20619  0.51910  Biso   1.000  H
  C245     1.0000 0.72099  0.18778  0.49010  Biso   1.000  C
  H310     1.0000 0.80219  0.01348  0.44550  Biso   1.000  H
  C246     1.0000 0.88230  0.00030  0.46189  Biso   1.000  C
  H311     1.0000 0.77430  0.95701  0.46760  Biso   1.000  H
  H312     1.0000 0.56533  0.89078  0.52880  Biso   1.000  H
  H313     1.0000 0.62573  0.05622  0.61220  Biso   1.000  H
  C247     1.0000 0.74971  0.08011  0.61394  Biso   1.000  C
  H314     1.0000 0.85841  0.33232  0.68669  Biso   1.000  H
  H315     1.0000 0.86010  0.40129  0.68269  Biso   1.000  H
  C248     1.0000 0.79541  0.34352  0.70973  Biso   1.000  C
  H316     1.0000 0.81401  0.34849  0.52849  Biso   1.000  H
  H317     1.0000 0.85141  0.31108  0.53809  Biso   1.000  H
  C249     1.0000 0.90524  0.41323  0.54520  Biso   1.000  C
  C250     1.0000 0.66269  0.92512  0.56161  Biso   1.000  C
  C251     1.0000 0.66862  0.21370  0.49370  Biso   1.000  C
  H318     1.0000 0.69761  0.14922  0.47839  Biso   1.000  H
  H319     1.0000 0.75692  0.22311  0.47960  Biso   1.000  H
  H320     1.0000 0.92098  0.04578  0.46049  Biso   1.000  H
  H321     1.0000 0.88740  0.97811  0.47730  Biso   1.000  H
  C252     1.0000 0.87219  0.95940  0.43749  Biso   1.000  C
  N11      1.0000 0.71135  0.01657  0.61837  Biso   1.000  N
  H322     1.0000 0.79592  0.09703  0.61120  Biso   1.000  H
  H323     1.0000 0.76819  0.29580  0.71329  Biso   1.000  H
  H324     1.0000 0.76674  0.36322  0.70870  Biso   1.000  H
  H325     1.0000 0.82801  0.36511  0.72349  Biso   1.000  H
  H326     1.0000 0.93191  0.41099  0.55940  Biso   1.000  H
  H327     1.0000 0.89503  0.44831  0.54830  Biso   1.000  H
  H328     1.0000 0.93018  0.42149  0.52920  Biso   1.000  H
  N12      1.0000 0.71691  0.94368  0.57483  Biso   1.000  N
  H329     1.0000 0.62107  0.89591  0.56939  Biso   1.000  H
  H330     1.0000 0.62650  0.17738  0.50030  Biso   1.000  H
  H331     1.0000 0.66089  0.22858  0.47709  Biso   1.000  H
  H332     1.0000 0.68672  0.25102  0.50580  Biso   1.000  H
  H333     1.0000 0.83616  0.91362  0.44020  Biso   1.000  H
  H334     1.0000 0.91343  0.95940  0.43339  Biso   1.000  H
  H335     1.0000 0.86046  0.97920  0.42320  Biso   1.000  H
  C253     1.0000 0.74334  0.97731  0.61956  Biso   1.000  C
  C254     1.0000 0.71060  0.91959  0.60135  Biso   1.000  C
  H336     1.0000 0.79112  0.00582  0.61450  Biso   1.000  H
  C255     1.0000 0.74018  0.95298  0.64698  Biso   1.000  C
  H337     1.0000 0.66225  0.89218  0.60580  Biso   1.000  H
  C256     1.0000 0.74236  0.87581  0.60306  Biso   1.000  C
  H338     1.0000 0.69319  0.92631  0.65239  Biso   1.000  H
  H339     1.0000 0.76281  0.99169  0.65860  Biso   1.000  H
  C257     1.0000 0.77364  0.91089  0.64894  Biso   1.000  C
  C258     1.0000 0.73992  0.85187  0.63018  Biso   1.000  C
  H340     1.0000 0.71861  0.83710  0.59150  Biso   1.000  H
  H341     1.0000 0.78929  0.90158  0.59729  Biso   1.000  H
  H342     1.0000 0.76978  0.89412  0.66669  Biso   1.000  H
  H343     1.0000 0.82152  0.93820  0.64470  Biso   1.000  H
  H344     1.0000 0.76249  0.82540  0.63100  Biso   1.000  H
  H345     1.0000 0.69289  0.82272  0.63529  Biso   1.000  H
  C259     1.0000 0.86607  0.76346  0.65776  Biso   1.000  C
  C260     1.0000 0.86247  0.70595  0.67257  Biso   1.000  C
  C261     1.0000 0.84066  0.80063  0.67433  Biso   1.000  C
  H346     1.0000 0.83879  0.74675  0.64202  Biso   1.000  H
  H347     1.0000 0.91267  0.79426  0.65252  Biso   1.000  H
  C262     1.0000 0.79288  0.65992  0.68169  Biso   1.000  C
  H348     1.0000 0.87725  0.68112  0.66153  Biso   1.000  H
  H349     1.0000 0.89289  0.72316  0.68754  Biso   1.000  H
  C263     1.0000 0.77066  0.75371  0.68367  Biso   1.000  C
  H350     1.0000 0.87058  0.82083  0.68922  Biso   1.000  H
  H351     1.0000 0.84107  0.83696  0.66423  Biso   1.000  H
  C264     1.0000 0.76905  0.69714  0.69902  Biso   1.000  C
  H352     1.0000 0.79160  0.62245  0.69133  Biso   1.000  H
  H353     1.0000 0.76279  0.64136  0.66672  Biso   1.000  H
  N13      1.0000 0.74675  0.78854  0.70030  Biso   1.000  N
  H354     1.0000 0.74038  0.73495  0.66853  Biso   1.000  H
  N14      1.0000 0.70035  0.65032  0.70764  Biso   1.000  N
  H355     1.0000 0.79906  0.71545  0.71423  Biso   1.000  H
  C265     1.0000 0.69167  0.78386  0.69457  Biso   1.000  C
  C266     1.0000 0.69430  0.63718  0.73079  Biso   1.000  C
  H356     1.0000 0.66808  0.75754  0.68024  Biso   1.000  H
  C267     1.0000 0.66269  0.81725  0.70898  Biso   1.000  C
  C268     1.0000 0.62907  0.59076  0.74281  Biso   1.000  C
  H357     1.0000 0.73286  0.65743  0.74133  Biso   1.000  H
  C269     1.0000 0.60827  0.82054  0.69917  Biso   1.000  C
  C270     1.0000 0.68937  0.84606  0.73142  Biso   1.000  C
  C271     1.0000 0.56959  0.56797  0.73010  Biso   1.000  C
  C272     1.0000 0.62848  0.57036  0.76719  Biso   1.000  C
  C273     1.0000 0.58107  0.85293  0.71209  Biso   1.000  C
  H358     1.0000 0.58978  0.79994  0.68323  Biso   1.000  H
  C274     1.0000 0.66327  0.88004  0.74509  Biso   1.000  C
  H359     1.0000 0.72615  0.84352  0.73813  Biso   1.000  H
  C275     1.0000 0.50944  0.52299  0.74246  Biso   1.000  C
  H360     1.0000 0.56898  0.58235  0.71312  Biso   1.000  H
  C276     1.0000 0.57055  0.52732  0.77993  Biso   1.000  C
  H361     1.0000 0.66968  0.58613  0.77583  Biso   1.000  H
  C277     1.0000 0.60984  0.88522  0.73457  Biso   1.000  C
  H362     1.0000 0.54285  0.85293  0.70553  Biso   1.000  H
  C278     1.0000 0.68448  0.91323  0.77079  Biso   1.000  C
  C279     1.0000 0.44129  0.49856  0.73127  Biso   1.000  C
  C280     1.0000 0.50996  0.50344  0.76678  Biso   1.000  C
  H363     1.0000 0.57169  0.51443  0.79712  Biso   1.000  H
  C281     1.0000 0.59326  0.92453  0.75402  Biso   1.000  C
  C282     1.0000 0.63478  0.93776  0.77441  Biso   1.000  C
  C283     1.0000 0.67636  0.86253  0.79026  Biso   1.000  C
  C284     1.0000 0.75686  0.96976  0.76922  Biso   1.000  C
  C285     1.0000 0.43526  0.46383  0.70574  Biso   1.000  C
  C286     1.0000 0.39838  0.45074  0.75348  Biso   1.000  C
  C287     1.0000 0.42928  0.55822  0.72847  Biso   1.000  C
  C288     1.0000 0.43865  0.45373  0.77384  Biso   1.000  C
  C289     1.0000 0.54928  0.94766  0.75348  Biso   1.000  C
  C290     1.0000 0.63287  0.97334  0.79509  Biso   1.000  C
  H364     1.0000 0.70727  0.84636  0.78583  Biso   1.000  H
  H365     1.0000 0.69077  0.88522  0.80703  Biso   1.000  H
  C291     1.0000 0.61606  0.80984  0.79323  Biso   1.000  C
  H366     1.0000 0.78597  0.95005  0.76782  Biso   1.000  H
  H367     1.0000 0.76827  0.99533  0.78543  Biso   1.000  H
  C292     1.0000 0.77271  0.01936  0.74622  Biso   1.000  C
  C293     1.0000 0.44979  0.40766  0.70710  Biso   1.000  C
  H368     1.0000 0.38957  0.44622  0.69913  Biso   1.000  H
  H369     1.0000 0.46616  0.49702  0.69332  Biso   1.000  H
  C294     1.0000 0.33127  0.40676  0.75402  Biso   1.000  C
  H370     1.0000 0.45997  0.58832  0.71513  Biso   1.000  H
  H371     1.0000 0.38338  0.54105  0.72203  Biso   1.000  H
  C295     1.0000 0.43748  0.59763  0.75134  Biso   1.000  C
  C296     1.0000 0.41059  0.41233  0.79513  Biso   1.000  C
  C297     1.0000 0.54629  0.98493  0.77384  Biso   1.000  C
  C298     1.0000 0.50145  0.94274  0.73127  Biso   1.000  C
  C299     1.0000 0.58768  0.99827  0.79513  Biso   1.000  C
  C300     1.0000 0.66928  0.99642  0.82052  Biso   1.000  C
  H372     1.0000 0.59879  0.78934  0.77623  Biso   1.000  H
  H373     1.0000 0.58587  0.82452  0.80023  Biso   1.000  H
  C301     1.0000 0.61596  0.75715  0.81132  Biso   1.000  C
  H374     1.0000 0.74046  0.99692  0.73213  Biso   1.000  H
  H375     1.0000 0.73292  0.02304  0.74243  Biso   1.000  H
  H376     1.0000 0.78291  0.00125  0.73073  Biso   1.000  H
  C302     1.0000 0.83733  0.09544  0.75243  Biso   1.000  C
  H377     1.0000 0.76930  0.05822  0.75193  Biso   1.000  H
  C303     1.0000 0.84545  0.04265  0.73662  Biso   1.000  C
  C304     1.0000 0.44196  0.37183  0.68267  Biso   1.000  C
  H378     1.0000 0.49595  0.42552  0.71324  Biso   1.000  H
  H379     1.0000 0.41986  0.37511  0.72002  Biso   1.000  H
  C305     1.0000 0.27539  0.39014  0.73457  Biso   1.000  C
  C306     1.0000 0.30296  0.36521  0.77441  Biso   1.000  C
  H380     1.0000 0.48188  0.61146  0.75873  Biso   1.000  H
  H381     1.0000 0.40388  0.56852  0.76402  Biso   1.000  H
  C307     1.0000 0.43148  0.66112  0.74793  Biso   1.000  C
  C308     1.0000 0.44587  0.40835  0.81922  Biso   1.000  C
  C309     1.0000 0.34047  0.36715  0.79509  Biso   1.000  C
  C310     1.0000 0.49663  0.00653  0.76678  Biso   1.000  C
  C311     1.0000 0.47701  0.98642  0.74246  Biso   1.000  C
  C312     1.0000 0.53618  0.97145  0.70574  Biso   1.000  C
  C313     1.0000 0.44177  0.87104  0.72847  Biso   1.000  C
  C314     1.0000 0.59167  0.03752  0.81922  Biso   1.000  C
  C315     1.0000 0.72177  0.99075  0.83143  Biso   1.000  C
  C316     1.0000 0.64657  0.03305  0.83336  Biso   1.000  C
  H382     1.0000 0.61858  0.77153  0.82932  Biso   1.000  H
  H383     1.0000 0.65507  0.75212  0.80783  Biso   1.000  H
  C317     1.0000 0.55008  0.68873  0.80722  Biso   1.000  C
  H384     1.0000 0.87231  0.09136  0.76163  Biso   1.000  H
  H385     1.0000 0.85629  0.11922  0.73612  Biso   1.000  H
  C318     1.0000 0.81317  0.13674  0.76943  Biso   1.000  C
  C319     1.0000 0.86226  0.99225  0.72113  Biso   1.000  C
  H386     1.0000 0.87487  0.05822  0.75184  Biso   1.000  H
  H387     1.0000 0.85908  0.08206  0.72552  Biso   1.000  H
  H388     1.0000 0.46915  0.40502  0.66943  Biso   1.000  H
  H389     1.0000 0.39486  0.35123  0.67723  Biso   1.000  H
  C320     1.0000 0.46078  0.31934  0.68296  Biso   1.000  C
  C321     1.0000 0.27187  0.41895  0.71209  Biso   1.000  C
  C322     1.0000 0.21677  0.33675  0.74509  Biso   1.000  C
  C323     1.0000 0.22879  0.31556  0.77079  Biso   1.000  C
  H390     1.0000 0.38776  0.64823  0.74022  Biso   1.000  H
  H391     1.0000 0.46634  0.69172  0.73593  Biso   1.000  H
  C324     1.0000 0.43855  0.69913  0.77372  Biso   1.000  C
  C325     1.0000 0.38647  0.35342  0.83336  Biso   1.000  C
  C326     1.0000 0.47246  0.47343  0.83624  Biso   1.000  C
  C327     1.0000 0.49560  0.38646  0.81556  Biso   1.000  C
  C328     1.0000 0.32717  0.33073  0.82052  Biso   1.000  C
  C329     1.0000 0.47272  0.04325  0.77993  Biso   1.000  C
  C330     1.0000 0.43210  0.00165  0.73010  Biso   1.000  C
  H392     1.0000 0.55375  0.94333  0.69913  Biso   1.000  H
  H393     1.0000 0.50298  0.96916  0.69332  Biso   1.000  H
  C331     1.0000 0.59239  0.04215  0.70710  Biso   1.000  C
  H394     1.0000 0.41169  0.87164  0.71513  Biso   1.000  H
  H395     1.0000 0.45895  0.84233  0.72203  Biso   1.000  H
  C332     1.0000 0.40238  0.83984  0.75134  Biso   1.000  C
  C333     1.0000 0.52659  0.99906  0.83624  Biso   1.000  C
  C334     1.0000 0.61355  0.10912  0.81556  Biso   1.000  C
  H396     1.0000 0.74198  0.97005  0.82223  Biso   1.000  H
  C335     1.0000 0.74253  0.01493  0.85471  Biso   1.000  C
  C336     1.0000 0.67044  0.05882  0.85814  Biso   1.000  C
  H397     1.0000 0.54747  0.67525  0.78923  Biso   1.000  H
  H398     1.0000 0.51189  0.69336  0.81153  Biso   1.000  H
  H399     1.0000 0.55116  0.65495  0.81822  Biso   1.000  H
  H400     1.0000 0.77870  0.14097  0.76023  Biso   1.000  H
  H401     1.0000 0.85109  0.18122  0.77282  Biso   1.000  H
  H402     1.0000 0.79507  0.11355  0.78572  Biso   1.000  H
  H403     1.0000 0.83395  0.94682  0.72753  Biso   1.000  H
  H404     1.0000 0.85375  0.99384  0.70283  Biso   1.000  H
  H405     1.0000 0.90915  0.00553  0.72372  Biso   1.000  H
  H406     1.0000 0.45398  0.29943  0.66582  Biso   1.000  H
  H407     1.0000 0.43299  0.28496  0.69543  Biso   1.000  H
  H408     1.0000 0.50769  0.33904  0.68782  Biso   1.000  H
  H409     1.0000 0.31004  0.45711  0.70553  Biso   1.000  H
  C337     1.0000 0.21228  0.39173  0.69917  Biso   1.000  C
  C338     1.0000 0.15665  0.31063  0.73142  Biso   1.000  C
  C339     1.0000 0.18615  0.32362  0.79026  Biso   1.000  C
  C340     1.0000 0.21286  0.24311  0.76922  Biso   1.000  C
  H410     1.0000 0.40274  0.66992  0.78553  Biso   1.000  H
  H411     1.0000 0.43549  0.73903  0.77023  Biso   1.000  H
  H412     1.0000 0.48166  0.71202  0.78164  Biso   1.000  H
  C341     1.0000 0.38837  0.32954  0.85814  Biso   1.000  C
  H413     1.0000 0.48606  0.46443  0.85303  Biso   1.000  H
  H414     1.0000 0.51287  0.50926  0.82792  Biso   1.000  H
  C342     1.0000 0.42409  0.50035  0.84122  Biso   1.000  C
  H415     1.0000 0.50179  0.36954  0.83214  Biso   1.000  H
  H416     1.0000 0.53867  0.42582  0.81092  Biso   1.000  H
  C343     1.0000 0.47876  0.33392  0.79563  Biso   1.000  C
  C344     1.0000 0.26895  0.27824  0.83143  Biso   1.000  C
  C345     1.0000 0.42965  0.05812  0.76719  Biso   1.000  C
  H417     1.0000 0.48557  0.05723  0.79712  Biso   1.000  H
  H418     1.0000 0.41764  0.98662  0.71312  Biso   1.000  H
  C346     1.0000 0.40928  0.03832  0.74281  Biso   1.000  C
  C347     1.0000 0.62824  0.07016  0.68267  Biso   1.000  C
  H419     1.0000 0.57449  0.07046  0.71324  Biso   1.000  H
  H420     1.0000 0.62492  0.04474  0.72002  Biso   1.000  H
  H421     1.0000 0.38855  0.87044  0.75873  Biso   1.000  H
  H422     1.0000 0.43147  0.83536  0.76402  Biso   1.000  H
  C348     1.0000 0.33889  0.77033  0.74793  Biso   1.000  C
  C349     1.0000 0.49966  0.92373  0.84122  Biso   1.000  C
  H423     1.0000 0.53560  0.02165  0.85303  Biso   1.000  H
  H424     1.0000 0.49079  0.00364  0.82792  Biso   1.000  H
  H425     1.0000 0.63051  0.13226  0.83214  Biso   1.000  H
  H426     1.0000 0.57418  0.11286  0.81092  Biso   1.000  H
  C350     1.0000 0.66610  0.14485  0.79563  Biso   1.000  C
  C351     1.0000 0.71994  0.04956  0.86926  Biso   1.000  C
  H427     1.0000 0.77590  0.00792  0.86213  Biso   1.000  H
  H428     1.0000 0.65299  0.08225  0.86713  Biso   1.000  H
  C352     1.0000 0.15458  0.33735  0.70898  Biso   1.000  C
  H429     1.0000 0.21016  0.41024  0.68323  Biso   1.000  H
  H430     1.0000 0.11737  0.27386  0.73813  Biso   1.000  H
  H431     1.0000 0.13908  0.29272  0.78583  Biso   1.000  H
  H432     1.0000 0.19448  0.30924  0.80703  Biso   1.000  H
  C353     1.0000 0.19377  0.38392  0.79323  Biso   1.000  C
  H433     1.0000 0.16408  0.21405  0.76782  Biso   1.000  H
  H434     1.0000 0.22707  0.23172  0.78543  Biso   1.000  H
  C354     1.0000 0.24669  0.22734  0.74622  Biso   1.000  C
  C355     1.0000 0.32966  0.28013  0.86926  Biso   1.000  C
  H435     1.0000 0.42927  0.34705  0.86713  Biso   1.000  H
  H436     1.0000 0.38887  0.46612  0.85222  Biso   1.000  H
  H437     1.0000 0.44968  0.53956  0.85243  Biso   1.000  H
  C356     1.0000 0.38769  0.52115  0.82343  Biso   1.000  C
  H438     1.0000 0.46890  0.34685  0.77882  Biso   1.000  H
  H439     1.0000 0.44098  0.29033  0.80094  Biso   1.000  H
  C357     1.0000 0.54898  0.33362  0.79522  Biso   1.000  C
  H440     1.0000 0.22808  0.25804  0.82223  Biso   1.000  H
  C358     1.0000 0.27248  0.25754  0.85471  Biso   1.000  C
  H441     1.0000 0.41392  0.08355  0.77583  Biso   1.000  H
  C359     1.0000 0.36288  0.05713  0.73079  Biso   1.000  C
  H442     1.0000 0.59498  0.06414  0.66943  Biso   1.000  H
  H443     1.0000 0.64877  0.04364  0.67723  Biso   1.000  H
  C360     1.0000 0.68074  0.14147  0.68296  Biso   1.000  C
  H444     1.0000 0.35175  0.73953  0.74022  Biso   1.000  H
  H445     1.0000 0.30826  0.77466  0.73593  Biso   1.000  H
  C361     1.0000 0.30086  0.73943  0.77372  Biso   1.000  C
  H446     1.0000 0.53389  0.92274  0.85222  Biso   1.000  H
  H447     1.0000 0.46046  0.91015  0.85243  Biso   1.000  H
  C362     1.0000 0.47887  0.86656  0.82343  Biso   1.000  C
  H448     1.0000 0.65320  0.12206  0.77882  Biso   1.000  H
  H449     1.0000 0.70971  0.15062  0.80094  Biso   1.000  H
  C363     1.0000 0.66641  0.21535  0.79522  Biso   1.000  C
  C364     1.0000 0.74162  0.07096  0.89492  Biso   1.000  C
  C365     1.0000 0.09221  0.30834  0.69457  Biso   1.000  C
  H450     1.0000 0.19058  0.40124  0.77623  Biso   1.000  H
  H451     1.0000 0.23865  0.41412  0.80023  Biso   1.000  H
  C366     1.0000 0.14116  0.38402  0.81132  Biso   1.000  C
  H452     1.0000 0.29016  0.26714  0.74243  Biso   1.000  H
  H453     1.0000 0.21836  0.21714  0.73073  Biso   1.000  H
  C367     1.0000 0.25818  0.16275  0.75243  Biso   1.000  C
  H454     1.0000 0.28897  0.23072  0.75193  Biso   1.000  H
  H455     1.0000 0.25645  0.25953  0.73213  Biso   1.000  H
  C368     1.0000 0.19719  0.15454  0.73662  Biso   1.000  C
  C369     1.0000 0.32937  0.25844  0.89492  Biso   1.000  C
  C370     1.0000 0.33526  0.54702  0.82702  Biso   1.000  C
  H456     1.0000 0.36425  0.48254  0.81173  Biso   1.000  H
  H457     1.0000 0.42356  0.55643  0.81293  Biso   1.000  H
  H458     1.0000 0.58769  0.37915  0.79383  Biso   1.000  H
  H459     1.0000 0.55408  0.31143  0.81063  Biso   1.000  H
  C371     1.0000 0.53887  0.29272  0.77083  Biso   1.000  C
  H460     1.0000 0.23208  0.22415  0.86213  Biso   1.000  H
  N15      1.0000 0.34967  0.05001  0.70764  Biso   1.000  N
  H461     1.0000 0.34256  0.07544  0.74133  Biso   1.000  H
  H462     1.0000 0.70056  0.15455  0.66582  Biso   1.000  H
  H463     1.0000 0.71505  0.14803  0.69543  Biso   1.000  H
  H464     1.0000 0.66102  0.16863  0.68782  Biso   1.000  H
  H465     1.0000 0.33006  0.73286  0.78553  Biso   1.000  H
  H466     1.0000 0.26096  0.69644  0.77023  Biso   1.000  H
  H467     1.0000 0.28795  0.76963  0.78164  Biso   1.000  H
  C372     1.0000 0.45298  0.78824  0.82702  Biso   1.000  C
  H468     1.0000 0.51748  0.88174  0.81173  Biso   1.000  H
  H469     1.0000 0.44358  0.86716  0.81293  Biso   1.000  H
  H470     1.0000 0.62090  0.20854  0.79383  Biso   1.000  H
  H471     1.0000 0.68862  0.24262  0.81063  Biso   1.000  H
  C373     1.0000 0.70728  0.24615  0.77083  Biso   1.000  C
  N16      1.0000 0.72303  0.10659  0.90816  Biso   1.000  N
  H472     1.0000 0.77083  0.05852  0.90272  Biso   1.000  H
  N17      1.0000 0.04179  0.25326  0.70030  Biso   1.000  N
  H473     1.0000 0.08948  0.33193  0.68024  Biso   1.000  H
  H474     1.0000 0.15297  0.38143  0.82932  Biso   1.000  H
  H475     1.0000 0.09705  0.34491  0.80783  Biso   1.000  H
  C374     1.0000 0.13866  0.44995  0.80722  Biso   1.000  C
  H476     1.0000 0.21907  0.12773  0.76163  Biso   1.000  H
  H477     1.0000 0.26298  0.14375  0.73612  Biso   1.000  H
  C375     1.0000 0.32356  0.18684  0.76943  Biso   1.000  C
  H478     1.0000 0.18335  0.12514  0.75184  Biso   1.000  H
  H479     1.0000 0.22295  0.14091  0.72552  Biso   1.000  H
  C376     1.0000 0.12997  0.13773  0.72113  Biso   1.000  C
  N18      1.0000 0.38355  0.27699  0.90816  Biso   1.000  N
  H480     1.0000 0.28775  0.22923  0.90272  Biso   1.000  H
  H481     1.0000 0.29317  0.51075  0.83363  Biso   1.000  H
  H482     1.0000 0.32756  0.56195  0.81042  Biso   1.000  H
  H483     1.0000 0.35336  0.58434  0.83913  Biso   1.000  H
  H484     1.0000 0.50288  0.24694  0.77353  Biso   1.000  H
  H485     1.0000 0.58006  0.29272  0.76673  Biso   1.000  H
  H486     1.0000 0.52718  0.31252  0.75653  Biso   1.000  H
  C377     1.0000 0.30290  0.07196  0.69902  Biso   1.000  C
  H487     1.0000 0.48924  0.78242  0.83363  Biso   1.000  H
  H488     1.0000 0.43807  0.76565  0.81042  Biso   1.000  H
  H489     1.0000 0.41567  0.76904  0.83913  Biso   1.000  H
  H490     1.0000 0.75311  0.25596  0.77353  Biso   1.000  H
  H491     1.0000 0.70728  0.28735  0.76673  Biso   1.000  H
  H492     1.0000 0.68752  0.21466  0.75653  Biso   1.000  H
  C378     1.0000 0.74712  0.12435  0.93469  Biso   1.000  C
  C379     1.0000 0.98307  0.22933  0.68367  Biso   1.000  C
  H493     1.0000 0.12776  0.45254  0.78923  Biso   1.000  H
  H494     1.0000 0.18147  0.48816  0.81153  Biso   1.000  H
  H495     1.0000 0.10377  0.44885  0.81822  Biso   1.000  H
  H496     1.0000 0.36226  0.22132  0.76023  Biso   1.000  H
  H497     1.0000 0.33016  0.14892  0.77282  Biso   1.000  H
  H498     1.0000 0.31849  0.20495  0.78572  Biso   1.000  H
  H499     1.0000 0.11288  0.16604  0.72753  Biso   1.000  H
  H500     1.0000 0.09636  0.09086  0.72372  Biso   1.000  H
  H501     1.0000 0.14008  0.14623  0.70283  Biso   1.000  H
  C380     1.0000 0.37724  0.25291  0.93469  Biso   1.000  C
  H502     1.0000 0.28457  0.08365  0.71423  Biso   1.000  H
  C381     1.0000 0.34015  0.13301  0.68169  Biso   1.000  C
  C382     1.0000 0.24628  0.01697  0.68367  Biso   1.000  C
  C383     1.0000 0.68943  0.09937  0.95289  Biso   1.000  C
  H503     1.0000 0.77450  0.10345  0.93913  Biso   1.000  H
  C384     1.0000 0.79090  0.19993  0.93639  Biso   1.000  C
  C385     1.0000 0.92808  0.23097  0.69902  Biso   1.000  C
  H504     1.0000 0.99455  0.25963  0.66853  Biso   1.000  H
  C386     1.0000 0.95995  0.15932  0.67433  Biso   1.000  C
  C387     1.0000 0.41002  0.31063  0.95289  Biso   1.000  C
  H505     1.0000 0.32896  0.22555  0.93913  Biso   1.000  H
  C388     1.0000 0.40908  0.20913  0.93639  Biso   1.000  C
  H506     1.0000 0.37760  0.16913  0.69133  Biso   1.000  H
  H507     1.0000 0.35868  0.12146  0.66672  Biso   1.000  H
  C389     1.0000 0.29409  0.15654  0.67257  Biso   1.000  C
  N19      1.0000 0.21147  0.95821  0.70030  Biso   1.000  N
  H508     1.0000 0.26511  0.00543  0.66853  Biso   1.000  H
  C390     1.0000 0.19939  0.04006  0.67433  Biso   1.000  C
  N20      1.0000 0.65011  0.02807  0.95170  Biso   1.000  N
  C391     1.0000 0.71373  0.12057  0.98032  Biso   1.000  C
  H509     1.0000 0.66088  0.11863  0.94783  Biso   1.000  H
  C392     1.0000 0.81478  0.22132  0.96351  Biso   1.000  C
  H510     1.0000 0.82956  0.21486  0.92484  Biso   1.000  H
  H511     1.0000 0.76508  0.22103  0.93062  Biso   1.000  H
  N21      1.0000 0.94999  0.29968  0.70764  Biso   1.000  N
  H512     1.0000 0.91638  0.20092  0.71423  Biso   1.000  H
  C393     1.0000 0.86704  0.20714  0.68169  Biso   1.000  C
  H513     1.0000 0.95026  0.12942  0.68922  Biso   1.000  H
  H514     1.0000 0.99587  0.15892  0.66423  Biso   1.000  H
  C394     1.0000 0.89737  0.13394  0.65776  Biso   1.000  C
  N22      1.0000 0.37801  0.34994  0.95170  Biso   1.000  N
  C395     1.0000 0.40689  0.28635  0.98032  Biso   1.000  C
  H515     1.0000 0.45776  0.33914  0.94783  Biso   1.000  H
  C396     1.0000 0.40658  0.18524  0.96351  Biso   1.000  C
  H516     1.0000 0.38525  0.17042  0.92484  Biso   1.000  H
  H517     1.0000 0.45599  0.23495  0.93062  Biso   1.000  H
  H518     1.0000 0.31889  0.19615  0.66153  Biso   1.000  H
  H519     1.0000 0.27690  0.16973  0.68754  Biso   1.000  H
  C397     1.0000 0.23664  0.10266  0.65776  Biso   1.000  C
  C398     1.0000 0.21613  0.90781  0.69457  Biso   1.000  C
  H520     1.0000 0.17917  0.04976  0.68922  Biso   1.000  H
  H521     1.0000 0.16308  0.00414  0.66423  Biso   1.000  H
  C399     1.0000 0.58662  0.00294  0.94726  Biso   1.000  C
  H522     1.0000 0.74038  0.10027  0.98572  Biso   1.000  H
  H523     1.0000 0.67499  0.10445  0.99193  Biso   1.000  H
  C400     1.0000 0.75578  0.19615  0.98227  Biso   1.000  C
  H524     1.0000 0.84128  0.27043  0.96433  Biso   1.000  H
  H525     1.0000 0.84404  0.20356  0.96863  Biso   1.000  H
  C401     1.0000 0.94287  0.30570  0.73079  Biso   1.000  C
  H526     1.0000 0.83085  0.20843  0.69133  Biso   1.000  H
  H527     1.0000 0.87856  0.23724  0.66672  Biso   1.000  H
  C402     1.0000 0.84344  0.13753  0.67257  Biso   1.000  C
  H528     1.0000 0.90794  0.16121  0.64202  Biso   1.000  H
  H529     1.0000 0.88156  0.08732  0.65252  Biso   1.000  H
  C403     1.0000 0.41635  0.41343  0.94726  Biso   1.000  C
  H530     1.0000 0.35987  0.25963  0.98572  Biso   1.000  H
  H531     1.0000 0.42948  0.32506  0.99193  Biso   1.000  H
  C404     1.0000 0.44039  0.24425  0.98227  Biso   1.000  C
  H532     1.0000 0.42917  0.15872  0.96433  Biso   1.000  H
  H533     1.0000 0.35957  0.15604  0.96863  Biso   1.000  H
  H534     1.0000 0.25332  0.09206  0.64202  Biso   1.000  H
  H535     1.0000 0.20574  0.11843  0.65252  Biso   1.000  H
  C405     1.0000 0.18276  0.84546  0.70898  Biso   1.000  C
  H536     1.0000 0.24249  0.91055  0.68024  Biso   1.000  H
  C406     1.0000 0.54077  0.93124  0.94632  Biso   1.000  C
  H537     1.0000 0.56973  0.03225  0.94452  Biso   1.000  H
  H538     1.0000 0.72846  0.21665  0.97802  Biso   1.000  H
  H539     1.0000 0.77261  0.20903  0.00002  Biso   1.000  H
  H540     1.0000 0.92458  0.26714  0.74133  Biso   1.000  H
  C407     1.0000 0.96166  0.37094  0.74281  Biso   1.000  C
  H541     1.0000 0.80387  0.12275  0.66153  Biso   1.000  H
  H542     1.0000 0.83027  0.10713  0.68754  Biso   1.000  H
  C408     1.0000 0.39048  0.45925  0.94632  Biso   1.000  C
  H543     1.0000 0.46255  0.43034  0.94452  Biso   1.000  H
  H544     1.0000 0.48815  0.27152  0.97802  Biso   1.000  H
  H545     1.0000 0.43647  0.22744  0.00002  Biso   1.000  H
  C409     1.0000 0.17945  0.78775  0.69917  Biso   1.000  C
  C410     1.0000 0.15394  0.84332  0.73142  Biso   1.000  C
  C411     1.0000 0.47417  0.90612  0.94695  Biso   1.000  C
  C412     1.0000 0.56376  0.88552  0.94592  Biso   1.000  C
  C413     1.0000 0.99837  0.43039  0.73010  Biso   1.000  C
  C414     1.0000 0.94187  0.37153  0.76719  Biso   1.000  C
  C415     1.0000 0.43196  0.52583  0.94695  Biso   1.000  C
  C416     1.0000 0.32174  0.43622  0.94592  Biso   1.000  C
  C417     1.0000 0.14707  0.72814  0.71209  Biso   1.000  C
  H546     1.0000 0.20006  0.78984  0.68323  Biso   1.000  H
  C418     1.0000 0.11997  0.78322  0.74509  Biso   1.000  C
  H547     1.0000 0.15644  0.88263  0.73813  Biso   1.000  H
  C419     1.0000 0.42991  0.83586  0.94630  Biso   1.000  C
  H548     1.0000 0.45668  0.93542  0.94783  Biso   1.000  H
  C420     1.0000 0.52446  0.81934  0.94601  Biso   1.000  C
  H549     1.0000 0.61046  0.90283  0.94553  Biso   1.000  H
  C421     1.0000 0.01356  0.49060  0.74246  Biso   1.000  C
  H550     1.0000 0.01338  0.43104  0.71312  Biso   1.000  H
  H551     1.0000 0.91645  0.33033  0.77583  Biso   1.000  H
  C422     1.0000 0.95679  0.42945  0.77993  Biso   1.000  C
  H552     1.0000 0.47876  0.54334  0.94783  Biso   1.000  H
  C423     1.0000 0.40597  0.57011  0.94630  Biso   1.000  C
  H553     1.0000 0.29237  0.38954  0.94553  Biso   1.000  H
  C424     1.0000 0.29486  0.47552  0.94601  Biso   1.000  C
  C425     1.0000 0.11477  0.72465  0.73457  Biso   1.000  C
  H554     1.0000 0.14705  0.68992  0.70553  Biso   1.000  H
  C426     1.0000 0.08678  0.77123  0.77079  Biso   1.000  C
  C427     1.0000 0.45618  0.79516  0.94628  Biso   1.000  C
  C428     1.0000 0.35554  0.80252  0.94689  Biso   1.000  C
  H555     1.0000 0.54228  0.79033  0.94592  Biso   1.000  H
  C429     1.0000 0.05727  0.55872  0.73127  Biso   1.000  C
  C430     1.0000 0.99346  0.49005  0.76678  Biso   1.000  C
  H556     1.0000 0.94279  0.42835  0.79712  Biso   1.000  H
  C431     1.0000 0.33897  0.54384  0.94628  Biso   1.000  C
  C432     1.0000 0.44697  0.64445  0.94689  Biso   1.000  C
  H557     1.0000 0.24810  0.45776  0.94592  Biso   1.000  H
  C433     1.0000 0.07548  0.66873  0.75402  Biso   1.000  C
  C434     1.0000 0.06227  0.69704  0.77441  Biso   1.000  C
  C435     1.0000 0.13746  0.81382  0.79026  Biso   1.000  C
  C436     1.0000 0.03028  0.78715  0.76922  Biso   1.000  C
  C437     1.0000 0.39700  0.72316  0.94553  Biso   1.000  C
  C438     1.0000 0.34024  0.73013  0.94574  Biso   1.000  C
  C439     1.0000 0.33097  0.82034  0.97150  Biso   1.000  C
  C440     1.0000 0.33336  0.82382  0.92273  Biso   1.000  C
  C441     1.0000 0.05237  0.60166  0.75348  Biso   1.000  C
  C442     1.0000 0.02857  0.56474  0.70574  Biso   1.000  C
  C443     1.0000 0.12896  0.57076  0.72847  Biso   1.000  C
  C444     1.0000 0.01507  0.56135  0.77384  Biso   1.000  C
  C445     1.0000 0.32617  0.60305  0.94553  Biso   1.000  C
  C446     1.0000 0.48938  0.66903  0.97150  Biso   1.000  C
  C447     1.0000 0.49047  0.66664  0.92273  Biso   1.000  C
  C448     1.0000 0.38984  0.65972  0.94574  Biso   1.000  C
  C449     1.0000 0.02666  0.65952  0.79509  Biso   1.000  C
  H558     1.0000 0.15366  0.86094  0.78583  Biso   1.000  H
  H559     1.0000 0.11476  0.80556  0.80703  Biso   1.000  H
  C450     1.0000 0.19017  0.80626  0.79323  Biso   1.000  C
  H560     1.0000 0.04999  0.83596  0.76782  Biso   1.000  H
  H561     1.0000 0.00463  0.77292  0.78543  Biso   1.000  H
  C451     1.0000 0.98068  0.75336  0.74622  Biso   1.000  C
  C452     1.0000 0.27686  0.67385  0.94553  Biso   1.000  C
  H562     1.0000 0.35337  0.86945  0.97273  Biso   1.000  H
  H563     1.0000 0.28267  0.80372  0.96962  Biso   1.000  H
  C453     1.0000 0.34110  0.79466  0.99596  Biso   1.000  C
  H564     1.0000 0.28418  0.80113  0.92252  Biso   1.000  H
  H565     1.0000 0.35037  0.87233  0.92363  Biso   1.000  H
  C454     1.0000 0.35649  0.80864  0.89839  Biso   1.000  C
  H566     1.0000 0.05669  0.61046  0.69913  Biso   1.000  H
  H567     1.0000 0.03087  0.53384  0.69332  Biso   1.000  H
  C455     1.0000 0.95790  0.55026  0.70710  Biso   1.000  C
  H568     1.0000 0.12839  0.54006  0.71513  Biso   1.000  H
  H569     1.0000 0.15767  0.61663  0.72203  Biso   1.000  H
  C456     1.0000 0.16019  0.56255  0.75134  Biso   1.000  C
  C457     1.0000 0.00174  0.58942  0.79513  Biso   1.000  C
  C458     1.0000 0.26985  0.61011  0.94574  Biso   1.000  C
  H570     1.0000 0.51606  0.64664  0.97273  Biso   1.000  H
  H571     1.0000 0.52108  0.71734  0.96962  Biso   1.000  H
  C459     1.0000 0.45356  0.65893  0.99596  Biso   1.000  C
  H572     1.0000 0.51697  0.71585  0.92252  Biso   1.000  H
  H573     1.0000 0.52195  0.64962  0.92363  Biso   1.000  H
  C460     1.0000 0.45217  0.64355  0.89839  Biso   1.000  C
  C461     1.0000 0.00356  0.67286  0.82052  Biso   1.000  C
  H574     1.0000 0.21068  0.80944  0.77623  Biso   1.000  H
  H575     1.0000 0.17547  0.76133  0.80023  Biso   1.000  H
  C462     1.0000 0.24289  0.85885  0.81132  Biso   1.000  C
  H576     1.0000 0.00310  0.74356  0.73213  Biso   1.000  H
  H577     1.0000 0.97697  0.70983  0.74243  Biso   1.000  H
  H578     1.0000 0.99878  0.78163  0.73073  Biso   1.000  H
  C463     1.0000 0.90454  0.74182  0.75243  Biso   1.000  C
  H579     1.0000 0.94176  0.71102  0.75193  Biso   1.000  H
  C464     1.0000 0.95736  0.80282  0.73662  Biso   1.000  C
  C465     1.0000 0.20486  0.66102  0.94628  Biso   1.000  C
  H580     1.0000 0.38955  0.81322  0.99852  Biso   1.000  H
  H581     1.0000 0.32048  0.74575  0.99463  Biso   1.000  H
  C466     1.0000 0.31366  0.81053  0.01870  Biso   1.000  C
  H582     1.0000 0.34276  0.76093  0.89753  Biso   1.000  H
  H583     1.0000 0.40557  0.83536  0.89703  Biso   1.000  H
  C467     1.0000 0.32256  0.82765  0.87652  Biso   1.000  C
  C468     1.0000 0.92985  0.55802  0.68267  Biso   1.000  C
  H584     1.0000 0.92957  0.50403  0.71324  Biso   1.000  H
  H585     1.0000 0.95527  0.58016  0.72002  Biso   1.000  H
  H586     1.0000 0.12957  0.51812  0.75873  Biso   1.000  H
  H587     1.0000 0.16466  0.59613  0.76402  Biso   1.000  H
  C469     1.0000 0.22966  0.56852  0.74793  Biso   1.000  C
  C470     1.0000 0.96247  0.55414  0.81922  Biso   1.000  C
  C471     1.0000 0.19745  0.55304  0.94689  Biso   1.000  C
  H588     1.0000 0.42369  0.61046  0.99852  Biso   1.000  H
  H589     1.0000 0.42525  0.67953  0.99463  Biso   1.000  H
  C472     1.0000 0.49687  0.68634  0.01870  Biso   1.000  C
  H590     1.0000 0.41816  0.65723  0.89753  Biso   1.000  H
  H591     1.0000 0.42977  0.59444  0.89703  Biso   1.000  H
  C473     1.0000 0.50509  0.67744  0.87652  Biso   1.000  C
  C474     1.0000 0.96696  0.61355  0.83336  Biso   1.000  C
  C475     1.0000 0.00924  0.73102  0.83143  Biso   1.000  C
  H592     1.0000 0.22846  0.84706  0.82932  Biso   1.000  H
  H593     1.0000 0.24786  0.90293  0.80783  Biso   1.000  H
  C476     1.0000 0.31126  0.86134  0.80722  Biso   1.000  C
  H594     1.0000 0.90867  0.78093  0.76163  Biso   1.000  H
  H595     1.0000 0.88078  0.73704  0.73612  Biso   1.000  H
  C477     1.0000 0.86328  0.67644  0.76943  Biso   1.000  C
  C478     1.0000 0.00778  0.87004  0.72113  Biso   1.000  C
  H596     1.0000 0.94179  0.81665  0.75184  Biso   1.000  H
  H597     1.0000 0.91798  0.77705  0.72552  Biso   1.000  H
  C479     1.0000 0.16417  0.59404  0.94630  Biso   1.000  C
  C480     1.0000 0.18069  0.70515  0.94601  Biso   1.000  C
  H598     1.0000 0.33436  0.85945  0.02003  Biso   1.000  H
  H599     1.0000 0.26537  0.79212  0.01602  Biso   1.000  H
  C481     1.0000 0.32317  0.78526  0.04306  Biso   1.000  C
  H600     1.0000 0.31815  0.79884  0.86182  Biso   1.000  H
  H601     1.0000 0.35554  0.87363  0.87142  Biso   1.000  H
  C482     1.0000 0.25346  0.82536  0.87853  Biso   1.000  C
  H602     1.0000 0.93587  0.53085  0.66943  Biso   1.000  H
  H603     1.0000 0.95638  0.60514  0.67723  Biso   1.000  H
  C483     1.0000 0.85859  0.53926  0.68296  Biso   1.000  C
  H604     1.0000 0.26049  0.61225  0.74022  Biso   1.000  H
  H605     1.0000 0.22537  0.53364  0.73593  Biso   1.000  H
  C484     1.0000 0.26056  0.56145  0.77372  Biso   1.000  C
  C485     1.0000 0.00095  0.52752  0.83624  Biso   1.000  C
  C486     1.0000 0.89086  0.50443  0.81556  Biso   1.000  C
  C487     1.0000 0.17966  0.51065  0.97150  Biso   1.000  C
  C488     1.0000 0.17618  0.50956  0.92273  Biso   1.000  C
  H606     1.0000 0.52509  0.66564  0.02003  Biso   1.000  H
  H607     1.0000 0.52676  0.73466  0.01602  Biso   1.000  H
  C489     1.0000 0.46209  0.67684  0.04306  Biso   1.000  C
  H608     1.0000 0.48067  0.68186  0.86182  Biso   1.000  H
  H609     1.0000 0.51807  0.64445  0.87142  Biso   1.000  H
  C490     1.0000 0.57188  0.74655  0.87853  Biso   1.000  C
  C491     1.0000 0.94115  0.61166  0.85814  Biso   1.000  C
  H610     1.0000 0.02995  0.77192  0.82223  Biso   1.000  H
  C492     1.0000 0.98505  0.72754  0.85471  Biso   1.000  C
  H611     1.0000 0.32477  0.87223  0.78923  Biso   1.000  H
  H612     1.0000 0.30667  0.81855  0.81153  Biso   1.000  H
  H613     1.0000 0.34506  0.89626  0.81822  Biso   1.000  H
  H614     1.0000 0.85905  0.63773  0.76023  Biso   1.000  H
  H615     1.0000 0.81877  0.66982  0.77282  Biso   1.000  H
  H616     1.0000 0.88646  0.68152  0.78572  Biso   1.000  H
  H617     1.0000 0.05318  0.88716  0.72753  Biso   1.000  H
  H618     1.0000 0.00618  0.85994  0.70283  Biso   1.000  H
  H619     1.0000 0.99445  0.90363  0.72372  Biso   1.000  H
  C493     1.0000 0.09385  0.56802  0.94695  Biso   1.000  C
  C494     1.0000 0.11449  0.67823  0.94592  Biso   1.000  C
  H620     1.0000 0.20967  0.75192  0.94592  Biso   1.000  H
  H621     1.0000 0.37086  0.80576  0.04663  Biso   1.000  H
  H622     1.0000 0.30349  0.73684  0.04203  Biso   1.000  H
  H623     1.0000 0.30156  0.79625  0.05682  Biso   1.000  H
  H624     1.0000 0.25565  0.85422  0.89273  Biso   1.000  H
  H625     1.0000 0.21834  0.78003  0.88162  Biso   1.000  H
  H626     1.0000 0.24516  0.84203  0.86253  Biso   1.000  H
  H627     1.0000 0.84547  0.54603  0.66582  Biso   1.000  H
  H628     1.0000 0.85196  0.56703  0.69543  Biso   1.000  H
  H629     1.0000 0.83138  0.49234  0.68782  Biso   1.000  H
  H630     1.0000 0.26716  0.59723  0.78553  Biso   1.000  H
  H631     1.0000 0.30356  0.56454  0.77023  Biso   1.000  H
  H632     1.0000 0.23037  0.51831  0.78164  Biso   1.000  H
  C495     1.0000 0.07626  0.57593  0.84122  Biso   1.000  C
  H633     1.0000 0.97834  0.51394  0.85303  Biso   1.000  H
  H634     1.0000 0.99635  0.48712  0.82792  Biso   1.000  H
  H635     1.0000 0.86778  0.49826  0.83214  Biso   1.000  H
  H636     1.0000 0.88715  0.46134  0.81092  Biso   1.000  H
  C496     1.0000 0.85519  0.52125  0.79563  Biso   1.000  C
  H637     1.0000 0.13058  0.48393  0.97273  Biso   1.000  H
  H638     1.0000 0.19626  0.47896  0.96962  Biso   1.000  H
  C497     1.0000 0.20535  0.54643  0.99596  Biso   1.000  C
  H639     1.0000 0.19886  0.48304  0.92252  Biso   1.000  H
  H640     1.0000 0.12768  0.47806  0.92363  Biso   1.000  H
  C498     1.0000 0.19135  0.54782  0.89839  Biso   1.000  C
  H641     1.0000 0.43487  0.62912  0.04663  Biso   1.000  H
  H642     1.0000 0.43337  0.69654  0.04203  Biso   1.000  H
  H643     1.0000 0.49465  0.69843  0.05682  Biso   1.000  H
  H644     1.0000 0.59858  0.74436  0.89273  Biso   1.000  H
  H645     1.0000 0.56167  0.78163  0.88162  Biso   1.000  H
  H646     1.0000 0.59689  0.75486  0.86253  Biso   1.000  H
  C499     1.0000 0.95045  0.67032  0.86926  Biso   1.000  C
  H647     1.0000 0.91777  0.57076  0.86713  Biso   1.000  H
  H648     1.0000 0.99206  0.76794  0.86213  Biso   1.000  H
  C500     1.0000 0.06875  0.60952  0.94632  Biso   1.000  C
  H649     1.0000 0.06456  0.52125  0.94783  Biso   1.000  H
  H650     1.0000 0.09717  0.70764  0.94553  Biso   1.000  H
  H651     1.0000 0.07729  0.61116  0.85222  Biso   1.000  H
  H652     1.0000 0.08989  0.55036  0.85243  Biso   1.000  H
  C501     1.0000 0.13347  0.61235  0.82343  Biso   1.000  C
  H653     1.0000 0.87798  0.53115  0.77882  Biso   1.000  H
  H654     1.0000 0.84934  0.55901  0.80094  Biso   1.000  H
  C502     1.0000 0.78466  0.45104  0.79522  Biso   1.000  C
  H655     1.0000 0.18677  0.57633  0.99852  Biso   1.000  H
  H656     1.0000 0.25428  0.57474  0.99463  Biso   1.000  H
  C503     1.0000 0.18948  0.50314  0.01870  Biso   1.000  C
  H657     1.0000 0.23909  0.58185  0.89753  Biso   1.000  H
  H658     1.0000 0.16469  0.57026  0.89703  Biso   1.000  H
  C504     1.0000 0.17236  0.49493  0.87652  Biso   1.000  C
  C505     1.0000 0.92905  0.67062  0.89492  Biso   1.000  C
  C506     1.0000 0.99708  0.58364  0.94726  Biso   1.000  C
  C507     1.0000 0.21176  0.66475  0.82702  Biso   1.000  C
  H659     1.0000 0.11827  0.63574  0.81173  Biso   1.000  H
  H660     1.0000 0.13287  0.57643  0.81293  Biso   1.000  H
  H661     1.0000 0.79146  0.41233  0.79383  Biso   1.000  H
  H662     1.0000 0.75737  0.44592  0.81063  Biso   1.000  H
  C508     1.0000 0.75386  0.46114  0.77083  Biso   1.000  C
  H663     1.0000 0.14055  0.47493  0.02003  Biso   1.000  H
  H664     1.0000 0.20788  0.47323  0.01602  Biso   1.000  H
  C509     1.0000 0.21475  0.53792  0.04306  Biso   1.000  C
  H665     1.0000 0.20116  0.51936  0.86182  Biso   1.000  H
  H666     1.0000 0.12635  0.48194  0.87142  Biso   1.000  H
  C510     1.0000 0.17469  0.42816  0.87853  Biso   1.000  C
  N23      1.0000 0.89343  0.61643  0.90816  Biso   1.000  N
  H667     1.0000 0.94145  0.71222  0.90272  Biso   1.000  H
  N24      1.0000 0.97192  0.62201  0.95170  Biso   1.000  N
  H668     1.0000 0.96777  0.53742  0.94452  Biso   1.000  H
  H669     1.0000 0.21756  0.70684  0.83363  Biso   1.000  H
  H670     1.0000 0.23436  0.67246  0.81042  Biso   1.000  H
  H671     1.0000 0.23098  0.64664  0.83913  Biso   1.000  H
  H672     1.0000 0.74406  0.49712  0.77353  Biso   1.000  H
  H673     1.0000 0.71267  0.41995  0.76673  Biso   1.000  H
  H674     1.0000 0.78535  0.47284  0.75653  Biso   1.000  H
  H675     1.0000 0.19428  0.56514  0.04663  Biso   1.000  H
  H676     1.0000 0.26315  0.56663  0.04203  Biso   1.000  H
  H677     1.0000 0.20376  0.50533  0.05682  Biso   1.000  H
  H678     1.0000 0.14578  0.40144  0.89273  Biso   1.000  H
  H679     1.0000 0.22000  0.43836  0.88162  Biso   1.000  H
  H680     1.0000 0.15796  0.40313  0.86253  Biso   1.000  H
  C511     1.0000 0.87569  0.62275  0.93469  Biso   1.000  C
  C512     1.0000 0.90064  0.59001  0.95289  Biso   1.000  C
  H681     1.0000 0.89655  0.67102  0.93913  Biso   1.000  H
  C513     1.0000 0.80007  0.59096  0.93639  Biso   1.000  C
  C514     1.0000 0.87946  0.59315  0.98032  Biso   1.000  C
  H682     1.0000 0.88137  0.54225  0.94783  Biso   1.000  H
  C515     1.0000 0.77869  0.59345  0.96351  Biso   1.000  C
  H683     1.0000 0.78516  0.61474  0.92484  Biso   1.000  H
  H684     1.0000 0.77898  0.54404  0.93062  Biso   1.000  H
  H685     1.0000 0.89975  0.64012  0.98572  Biso   1.000  H
  H686     1.0000 0.89557  0.57056  0.99193  Biso   1.000  H
  C516     1.0000 0.80390  0.55966  0.98227  Biso   1.000  C
  H687     1.0000 0.72956  0.57086  0.96433  Biso   1.000  H
  H688     1.0000 0.79644  0.64042  0.96863  Biso   1.000  H
  H689     1.0000 0.78335  0.51185  0.97802  Biso   1.000  H
  H690     1.0000 0.79097  0.56354  0.00002  Biso   1.000  H
  Ne1      1.0000 0.66667  0.33334  0.48141  Biso   1.000  Ne
  He1      1.0000 0.45693  0.17378  0.50728  Biso   1.000  He
  He2      1.0000 0.71655  0.53713  0.50613  Biso   1.000  He
  He3      1.0000 0.66666  0.33333  0.40551  Biso   1.000  He
  Ar1      1.0000 0.66635  0.33332  0.48277  Biso   1.000  Ar
  Ne2      1.0000 0.33334  0.66667  0.81474  Biso   1.000  Ne
  He4      1.0000 0.12357  0.50710  0.84062  Biso   1.000  He
  He5      1.0000 0.38320  0.87046  0.83946  Biso   1.000  He
  He6      1.0000 0.33335  0.66668  0.73884  Biso   1.000  He
  Ar2      1.0000 0.33334  0.66669  0.81621  Biso   1.000  Ar
