data_image0
_cell_length_a       23.121
_cell_length_b       23.121
_cell_length_c       51.666
_cell_angle_alpha    90
_cell_angle_beta     90
_cell_angle_gamma    120

_symmetry_space_group_name_H-M    "P 1"
_symmetry_int_tables_number       1

loop_
  _symmetry_equiv_pos_as_xyz
  'x, y, z'

loop_
  _atom_site_label
  _atom_site_occupancy
  _atom_site_fract_x
  _atom_site_fract_y
  _atom_site_fract_z
  _atom_site_thermal_displace_type
  _atom_site_B_iso_or_equiv
  _atom_site_type_symbol
  C1       1.0000 0.10463  0.19862  0.77254  Biso   1.000  C
  C2       1.0000 0.16380  0.26939  0.77451  Biso   1.000  C
  C3       1.0000 0.16378  0.26944  0.77451  Biso   1.000  C
  H1       1.0000 0.07481  0.19832  0.75930  Biso   1.000  H
  H2       1.0000 0.12119  0.16980  0.76660  Biso   1.000  H
  C4       1.0000 0.06462  0.16860  0.79642  Biso   1.000  C
  C5       1.0000 0.06458  0.16860  0.79642  Biso   1.000  C
  C6       1.0000 0.20092  0.29830  0.74906  Biso   1.000  C
  C7       1.0000 0.20088  0.29830  0.74906  Biso   1.000  C
  C8       1.0000 0.14021  0.31588  0.78516  Biso   1.000  C
  C9       1.0000 0.21269  0.27408  0.79627  Biso   1.000  C
  C10      1.0000 0.14019  0.31593  0.78516  Biso   1.000  C
  C11      1.0000 0.21271  0.27413  0.79627  Biso   1.000  C
  C12      1.0000 0.10459  0.19862  0.77254  Biso   1.000  C
  H3       1.0000 0.09251  0.16261  0.80891  Biso   1.000  H
  H4       1.0000 0.05291  0.20002  0.80380  Biso   1.000  H
  C13      1.0000 0.00240  0.10358  0.79300  Biso   1.000  C
  H5       1.0000 0.09246  0.16261  0.80891  Biso   1.000  H
  C14      1.0000 0.00238  0.10363  0.79300  Biso   1.000  C
  C15      1.0000 0.25941  0.36762  0.75059  Biso   1.000  C
  C16      1.0000 0.25937  0.36762  0.75059  Biso   1.000  C
  H6       1.0000 0.21628  0.26899  0.74250  Biso   1.000  H
  H7       1.0000 0.16951  0.29810  0.73660  Biso   1.000  H
  H8       1.0000 0.21630  0.26904  0.74250  Biso   1.000  H
  H9       1.0000 0.16947  0.29810  0.73660  Biso   1.000  H
  C17      1.0000 0.09761  0.33181  0.77345  Biso   1.000  C
  C18      1.0000 0.16388  0.33521  0.81082  Biso   1.000  C
  C19      1.0000 0.09757  0.33181  0.77345  Biso   1.000  C
  C20      1.0000 0.25559  0.24951  0.79669  Biso   1.000  C
  C21      1.0000 0.21170  0.31398  0.81768  Biso   1.000  C
  C22      1.0000 0.21169  0.31403  0.81768  Biso   1.000  C
  H10      1.0000 0.01329  0.07182  0.78551  Biso   1.000  H
  H11      1.0000 0.97330  0.10922  0.78100  Biso   1.000  H
  C23      1.0000 0.96349  0.07411  0.81949  Biso   1.000  C
  C24      1.0000 0.29399  0.39629  0.72496  Biso   1.000  C
  H12      1.0000 0.29171  0.36752  0.76259  Biso   1.000  H
  H13      1.0000 0.24441  0.39669  0.75769  Biso   1.000  H
  C25      1.0000 0.29401  0.39634  0.72496  Biso   1.000  C
  H14      1.0000 0.29167  0.36752  0.76259  Biso   1.000  H
  H15      1.0000 0.24439  0.39674  0.75769  Biso   1.000  H
  C26      1.0000 0.07601  0.37062  0.78618  Biso   1.000  C
  H16      1.0000 0.08259  0.31648  0.75680  Biso   1.000  H
  C27      1.0000 0.07597  0.37062  0.78618  Biso   1.000  C
  H17      1.0000 0.08258  0.31653  0.75680  Biso   1.000  H
  C28      1.0000 0.14362  0.37651  0.82338  Biso   1.000  C
  C29      1.0000 0.14358  0.37651  0.82338  Biso   1.000  C
  C30      1.0000 0.27022  0.20871  0.77838  Biso   1.000  C
  C31      1.0000 0.30251  0.26619  0.81804  Biso   1.000  C
  C32      1.0000 0.27018  0.20871  0.77838  Biso   1.000  C
  C33      1.0000 0.30249  0.26624  0.81804  Biso   1.000  C
  C34      1.0000 0.25381  0.32632  0.83875  Biso   1.000  C
  C35      1.0000 0.25377  0.32632  0.83875  Biso   1.000  C
  H18      1.0000 0.95131  0.10468  0.82679  Biso   1.000  H
  H19      1.0000 0.99179  0.06792  0.83140  Biso   1.000  H
  H20      1.0000 0.92402  0.03211  0.81630  Biso   1.000  H
  H21      1.0000 0.95129  0.10473  0.82679  Biso   1.000  H
  H22      1.0000 0.92398  0.03211  0.81630  Biso   1.000  H
  H23      1.0000 0.31252  0.36942  0.71860  Biso   1.000  H
  H24      1.0000 0.26091  0.39259  0.71250  Biso   1.000  H
  C36      1.0000 0.34791  0.46650  0.72597  Biso   1.000  C
  H25      1.0000 0.31247  0.36942  0.71860  Biso   1.000  H
  H26      1.0000 0.26089  0.39264  0.71250  Biso   1.000  H
  C37      1.0000 0.34787  0.46650  0.72597  Biso   1.000  C
  C38      1.0000 0.03289  0.39189  0.77384  Biso   1.000  C
  C39      1.0000 0.09991  0.39099  0.81167  Biso   1.000  C
  C40      1.0000 0.03292  0.39194  0.77384  Biso   1.000  C
  C41      1.0000 0.09989  0.39104  0.81167  Biso   1.000  C
  H27      1.0000 0.16030  0.39379  0.83970  Biso   1.000  H
  H28      1.0000 0.16029  0.39384  0.83970  Biso   1.000  H
  C42      1.0000 0.32741  0.20691  0.78721  Biso   1.000  C
  C43      1.0000 0.23928  0.17460  0.75555  Biso   1.000  C
  C44      1.0000 0.32736  0.20691  0.78721  Biso   1.000  C
  C45      1.0000 0.30001  0.30350  0.83869  Biso   1.000  C
  C46      1.0000 0.35140  0.24192  0.81301  Biso   1.000  C
  C47      1.0000 0.29997  0.30350  0.83869  Biso   1.000  C
  C48      1.0000 0.26143  0.36742  0.86322  Biso   1.000  C
  C49      1.0000 0.26139  0.36742  0.86322  Biso   1.000  C
  H29      1.0000 0.32960  0.49432  0.73069  Biso   1.000  H
  H30      1.0000 0.36878  0.47979  0.70931  Biso   1.000  H
  H31      1.0000 0.38050  0.47130  0.73861  Biso   1.000  H
  H32      1.0000 0.36881  0.47984  0.70931  Biso   1.000  H
  N1       1.0000 0.01958  0.38560  0.74982  Biso   1.000  N
  H33      1.0000 0.01409  0.41112  0.78419  Biso   1.000  H
  H34      1.0000 0.08480  0.41551  0.82091  Biso   1.000  H
  C50      1.0000 0.35249  0.17300  0.77397  Biso   1.000  C
  C51      1.0000 0.26629  0.14099  0.74236  Biso   1.000  C
  H35      1.0000 0.20142  0.17430  0.74929  Biso   1.000  H
  C52      1.0000 0.26631  0.14104  0.74236  Biso   1.000  C
  H36      1.0000 0.20137  0.17430  0.74929  Biso   1.000  H
  C53      1.0000 0.33793  0.32492  0.86366  Biso   1.000  C
  C54      1.0000 0.33789  0.32492  0.86366  Biso   1.000  C
  C55      1.0000 0.42359  0.29920  0.80953  Biso   1.000  C
  C56      1.0000 0.34690  0.18958  0.83221  Biso   1.000  C
  C57      1.0000 0.34688  0.18963  0.83221  Biso   1.000  C
  C58      1.0000 0.31608  0.36228  0.87717  Biso   1.000  C
  C59      1.0000 0.19340  0.32772  0.87977  Biso   1.000  C
  C60      1.0000 0.28378  0.43989  0.85784  Biso   1.000  C
  C61      1.0000 0.31611  0.36233  0.87717  Biso   1.000  C
  C62      1.0000 0.28381  0.43994  0.85784  Biso   1.000  C
  C63      1.0000 0.97541  0.40772  0.74080  Biso   1.000  C
  C64      1.0000 0.32241  0.14009  0.75067  Biso   1.000  C
  H37      1.0000 0.38952  0.17180  0.78040  Biso   1.000  H
  C65      1.0000 0.32239  0.14014  0.75067  Biso   1.000  C
  H38      1.0000 0.38948  0.17180  0.78040  Biso   1.000  H
  H39      1.0000 0.24552  0.11821  0.72731  Biso   1.000  H
  H40      1.0000 0.24547  0.11821  0.72731  Biso   1.000  H
  C66      1.0000 0.39067  0.32038  0.87319  Biso   1.000  C
  C67      1.0000 0.39070  0.32043  0.87319  Biso   1.000  C
  H41      1.0000 0.43952  0.32092  0.82619  Biso   1.000  H
  H42      1.0000 0.45089  0.27992  0.80471  Biso   1.000  H
  C68      1.0000 0.43491  0.35089  0.79031  Biso   1.000  C
  H43      1.0000 0.43947  0.32092  0.82619  Biso   1.000  H
  C69      1.0000 0.43489  0.35094  0.79031  Biso   1.000  C
  H44      1.0000 0.37462  0.17210  0.82590  Biso   1.000  H
  H45      1.0000 0.36552  0.21160  0.84860  Biso   1.000  H
  C70      1.0000 0.27980  0.13349  0.83695  Biso   1.000  C
  H46      1.0000 0.37458  0.17210  0.82590  Biso   1.000  H
  H47      1.0000 0.36548  0.21160  0.84860  Biso   1.000  H
  C71      1.0000 0.27976  0.13349  0.83695  Biso   1.000  C
  C72      1.0000 0.34181  0.38830  0.90187  Biso   1.000  C
  C73      1.0000 0.34176  0.38830  0.90187  Biso   1.000  C
  H48      1.0000 0.20091  0.34939  0.89651  Biso   1.000  H
  H49      1.0000 0.15920  0.33311  0.87100  Biso   1.000  H
  C74      1.0000 0.16422  0.24921  0.88466  Biso   1.000  C
  H50      1.0000 0.20089  0.34944  0.89651  Biso   1.000  H
  C75      1.0000 0.16418  0.24921  0.88466  Biso   1.000  C
  H51      1.0000 0.24569  0.44268  0.85170  Biso   1.000  H
  H52      1.0000 0.29802  0.46431  0.87400  Biso   1.000  H
  C76      1.0000 0.33748  0.47290  0.83929  Biso   1.000  C
  H53      1.0000 0.24567  0.44273  0.85170  Biso   1.000  H
  H54      1.0000 0.29798  0.46431  0.87400  Biso   1.000  H
  C77      1.0000 0.01370  0.47150  0.72419  Biso   1.000  C
  C78      1.0000 0.01366  0.47150  0.72419  Biso   1.000  C
  H55      1.0000 0.95502  0.41711  0.75570  Biso   1.000  H
  C79      1.0000 0.92018  0.35149  0.72425  Biso   1.000  C
  C80      1.0000 0.92020  0.35154  0.72425  Biso   1.000  C
  H56      1.0000 0.95498  0.41711  0.75570  Biso   1.000  H
  C81      1.0000 0.35069  0.10678  0.73586  Biso   1.000  C
  C82      1.0000 0.35067  0.10683  0.73586  Biso   1.000  C
  C83      1.0000 0.41371  0.34310  0.89866  Biso   1.000  C
  H57      1.0000 0.41119  0.30260  0.86310  Biso   1.000  H
  C84      1.0000 0.41367  0.34310  0.89866  Biso   1.000  C
  H58      1.0000 0.40133  0.36392  0.79271  Biso   1.000  H
  H59      1.0000 0.42869  0.33171  0.77310  Biso   1.000  H
  C85      1.0000 0.50261  0.41242  0.79160  Biso   1.000  C
  H60      1.0000 0.40129  0.36392  0.79271  Biso   1.000  H
  C86      1.0000 0.50265  0.41242  0.79160  Biso   1.000  C
  H61      1.0000 0.25799  0.11651  0.82040  Biso   1.000  H
  H62      1.0000 0.25441  0.14992  0.84630  Biso   1.000  H
  C87      1.0000 0.27763  0.07491  0.85261  Biso   1.000  C
  C88      1.0000 0.27758  0.07491  0.85261  Biso   1.000  C
  H63      1.0000 0.32662  0.41312  0.91079  Biso   1.000  H
  C89      1.0000 0.38899  0.37731  0.91259  Biso   1.000  C
  H64      1.0000 0.32658  0.41312  0.91079  Biso   1.000  H
  H65      1.0000 0.20272  0.24611  0.89010  Biso   1.000  H
  H66      1.0000 0.15307  0.22968  0.86750  Biso   1.000  H
  C90      1.0000 0.10290  0.19482  0.90321  Biso   1.000  C
  H67      1.0000 0.20268  0.24611  0.89010  Biso   1.000  H
  H68      1.0000 0.15310  0.22973  0.86750  Biso   1.000  H
  H69      1.0000 0.32678  0.44648  0.82360  Biso   1.000  H
  H70      1.0000 0.37860  0.47789  0.84640  Biso   1.000  H
  C91      1.0000 0.34621  0.54312  0.83320  Biso   1.000  C
  H71      1.0000 0.32681  0.44653  0.82360  Biso   1.000  H
  H72      1.0000 0.37858  0.47794  0.84640  Biso   1.000  H
  C92      1.0000 0.34617  0.54312  0.83320  Biso   1.000  C
  H73      1.0000 0.04798  0.50711  0.73460  Biso   1.000  H
  H74      1.0000 0.03531  0.46291  0.70981  Biso   1.000  H
  H75      1.0000 0.03527  0.46291  0.70981  Biso   1.000  H
  C93      1.0000 0.96610  0.49272  0.71411  Biso   1.000  C
  C94      1.0000 0.96614  0.49272  0.71411  Biso   1.000  C
  C95      1.0000 0.87321  0.37581  0.71432  Biso   1.000  C
  N2       1.0000 0.88271  0.29161  0.74041  Biso   1.000  N
  H76      1.0000 0.94029  0.34120  0.70960  Biso   1.000  H
  C96      1.0000 0.87317  0.37581  0.71432  Biso   1.000  C
  N3       1.0000 0.88267  0.29161  0.74041  Biso   1.000  N
  N4       1.0000 0.40890  0.11731  0.74041  Biso   1.000  N
  H77      1.0000 0.32552  0.07711  0.72280  Biso   1.000  H
  H78      1.0000 0.32548  0.07711  0.72280  Biso   1.000  H
  H79      1.0000 0.44570  0.33511  0.90611  Biso   1.000  H
  H80      1.0000 0.51159  0.43679  0.77540  Biso   1.000  H
  H81      1.0000 0.53628  0.39948  0.79369  Biso   1.000  H
  C97      1.0000 0.50781  0.45871  0.81431  Biso   1.000  C
  H82      1.0000 0.51162  0.43684  0.77540  Biso   1.000  H
  H83      1.0000 0.53630  0.39953  0.79369  Biso   1.000  H
  H84      1.0000 0.30680  0.09209  0.86750  Biso   1.000  H
  H85      1.0000 0.23249  0.04510  0.85871  Biso   1.000  H
  C98      1.0000 0.30010  0.03751  0.83500  Biso   1.000  C
  H86      1.0000 0.30679  0.09214  0.86750  Biso   1.000  H
  C99      1.0000 0.41228  0.39818  0.93938  Biso   1.000  C
  C100     1.0000 0.41230  0.39823  0.93938  Biso   1.000  C
  H87      1.0000 0.07191  0.20921  0.89771  Biso   1.000  H
  H88      1.0000 0.09211  0.15732  0.89181  Biso   1.000  H
  C101     1.0000 0.05538  0.14848  0.92639  Biso   1.000  C
  H89      1.0000 0.07186  0.20921  0.89771  Biso   1.000  H
  H90      1.0000 0.09207  0.15732  0.89181  Biso   1.000  H
  C102     1.0000 0.05541  0.14853  0.92639  Biso   1.000  C
  H91      1.0000 0.30260  0.53912  0.83111  Biso   1.000  H
  H92      1.0000 0.36868  0.57318  0.84750  Biso   1.000  H
  C103     1.0000 0.38748  0.57228  0.80800  Biso   1.000  C
  H93      1.0000 0.36870  0.57323  0.84750  Biso   1.000  H
  C104     1.0000 0.38750  0.57233  0.80800  Biso   1.000  C
  H94      1.0000 0.94691  0.50401  0.72860  Biso   1.000  H
  H95      1.0000 0.99051  0.53238  0.70350  Biso   1.000  H
  C105     1.0000 0.91108  0.43909  0.69835  Biso   1.000  C
  H96      1.0000 0.94687  0.50401  0.72860  Biso   1.000  H
  H97      1.0000 0.99049  0.53243  0.70350  Biso   1.000  H
  C106     1.0000 0.91110  0.43914  0.69835  Biso   1.000  C
  H98      1.0000 0.83829  0.34100  0.70381  Biso   1.000  H
  H99      1.0000 0.85211  0.38420  0.72889  Biso   1.000  H
  H100     1.0000 0.83834  0.34100  0.70381  Biso   1.000  H
  H101     1.0000 0.85206  0.38420  0.72889  Biso   1.000  H
  C107     1.0000 0.89320  0.24391  0.73586  Biso   1.000  C
  C108     1.0000 0.43132  0.07981  0.72425  Biso   1.000  C
  C109     1.0000 0.43128  0.07981  0.72425  Biso   1.000  C
  H102     1.0000 0.48071  0.47839  0.81059  Biso   1.000  H
  H103     1.0000 0.55353  0.49332  0.81640  Biso   1.000  H
  H104     1.0000 0.49239  0.43299  0.82991  Biso   1.000  H
  H105     1.0000 0.48069  0.47844  0.81059  Biso   1.000  H
  H106     1.0000 0.55348  0.49332  0.81640  Biso   1.000  H
  H107     1.0000 0.27489  0.02602  0.81920  Biso   1.000  H
  H108     1.0000 0.34670  0.06522  0.83120  Biso   1.000  H
  H109     1.0000 0.29294  0.99740  0.84349  Biso   1.000  H
  N5       1.0000 0.39361  0.43369  0.95213  Biso   1.000  N
  H110     1.0000 0.44071  0.38560  0.94710  Biso   1.000  H
  N6       1.0000 0.39359  0.43374  0.95213  Biso   1.000  N
  H111     1.0000 0.44067  0.38560  0.94710  Biso   1.000  H
  H112     1.0000 0.07202  0.17120  0.94271  Biso   1.000  H
  H113     1.0000 0.05550  0.10702  0.92670  Biso   1.000  H
  H114     1.0000 0.01068  0.13979  0.92380  Biso   1.000  H
  H115     1.0000 0.07198  0.17120  0.94271  Biso   1.000  H
  H116     1.0000 0.01071  0.13984  0.92380  Biso   1.000  H
  H117     1.0000 0.36512  0.54262  0.79391  Biso   1.000  H
  H118     1.0000 0.43098  0.57728  0.81020  Biso   1.000  H
  H119     1.0000 0.39201  0.61508  0.80449  Biso   1.000  H
  H120     1.0000 0.36508  0.54262  0.79391  Biso   1.000  H
  H121     1.0000 0.43100  0.57733  0.81020  Biso   1.000  H
  H122     1.0000 0.39199  0.61513  0.80449  Biso   1.000  H
  H123     1.0000 0.92968  0.43010  0.68310  Biso   1.000  H
  H124     1.0000 0.88071  0.45412  0.69270  Biso   1.000  H
  C110     1.0000 0.85988  0.18229  0.75067  Biso   1.000  C
  H125     1.0000 0.92292  0.24841  0.72280  Biso   1.000  H
  C111     1.0000 0.85991  0.18234  0.75067  Biso   1.000  C
  H126     1.0000 0.92287  0.24841  0.72280  Biso   1.000  H
  C112     1.0000 0.43232  0.02462  0.74080  Biso   1.000  C
  C113     1.0000 0.50261  0.12680  0.71432  Biso   1.000  C
  H127     1.0000 0.40089  0.05968  0.70960  Biso   1.000  H
  C114     1.0000 0.43228  0.02462  0.74080  Biso   1.000  C
  C115     1.0000 0.50257  0.12680  0.71432  Biso   1.000  C
  H128     1.0000 0.40091  0.05973  0.70960  Biso   1.000  H
  C116     1.0000 0.41912  0.45122  0.97888  Biso   1.000  C
  C117     1.0000 0.41907  0.45122  0.97888  Biso   1.000  C
  C118     1.0000 0.82700  0.17949  0.77397  Biso   1.000  C
  C119     1.0000 0.85898  0.12530  0.74236  Biso   1.000  C
  C120     1.0000 0.82698  0.17954  0.77397  Biso   1.000  C
  C121     1.0000 0.85903  0.12530  0.74236  Biso   1.000  C
  H129     1.0000 0.46210  0.04500  0.75570  Biso   1.000  H
  H130     1.0000 0.46206  0.04500  0.75570  Biso   1.000  H
  N7       1.0000 0.36606  0.98042  0.74982  Biso   1.000  N
  C122     1.0000 0.45780  0.98632  0.72419  Biso   1.000  C
  N8       1.0000 0.36597  0.98042  0.74982  Biso   1.000  N
  H131     1.0000 0.50272  0.16171  0.70381  Biso   1.000  H
  H132     1.0000 0.53209  0.14788  0.72889  Biso   1.000  H
  C123     1.0000 0.52799  0.08890  0.69835  Biso   1.000  C
  H133     1.0000 0.50268  0.16171  0.70381  Biso   1.000  H
  H134     1.0000 0.53208  0.14793  0.72889  Biso   1.000  H
  C124     1.0000 0.35861  0.42900  0.99605  Biso   1.000  C
  H135     1.0000 0.44141  0.42610  0.98361  Biso   1.000  H
  C125     1.0000 0.46671  0.52279  0.98142  Biso   1.000  C
  C126     1.0000 0.35857  0.42900  0.99605  Biso   1.000  C
  H136     1.0000 0.44137  0.42610  0.98361  Biso   1.000  H
  C127     1.0000 0.46669  0.52284  0.98142  Biso   1.000  C
  C128     1.0000 0.79309  0.12051  0.78721  Biso   1.000  C
  H137     1.0000 0.82819  0.21770  0.78040  Biso   1.000  H
  H138     1.0000 0.88178  0.12730  0.72731  Biso   1.000  H
  C129     1.0000 0.82541  0.06472  0.75555  Biso   1.000  C
  C130     1.0000 0.82545  0.06472  0.75555  Biso   1.000  C
  C131     1.0000 0.35900  0.96709  0.77384  Biso   1.000  C
  C132     1.0000 0.35903  0.96714  0.77384  Biso   1.000  C
  C133     1.0000 0.52662  0.03391  0.71411  Biso   1.000  C
  C134     1.0000 0.52658  0.03391  0.71411  Biso   1.000  C
  H139     1.0000 0.45916  0.95201  0.73460  Biso   1.000  H
  H140     1.0000 0.42766  0.96469  0.70981  Biso   1.000  H
  H141     1.0000 0.45907  0.95201  0.73460  Biso   1.000  H
  H142     1.0000 0.42759  0.96474  0.70981  Biso   1.000  H
  H143     1.0000 0.50041  0.07032  0.68310  Biso   1.000  H
  H144     1.0000 0.57339  0.11931  0.69270  Biso   1.000  H
  H145     1.0000 0.50045  0.07032  0.68310  Biso   1.000  H
  N9       1.0000 0.31408  0.35758  0.99450  Biso   1.000  N
  H146     1.0000 0.33451  0.45172  0.99050  Biso   1.000  H
  N10      1.0000 0.31410  0.35763  0.99450  Biso   1.000  N
  C135     1.0000 0.38250  0.44962  0.02410  Biso   1.000  C
  H147     1.0000 0.44651  0.54771  0.97461  Biso   1.000  H
  H148     1.0000 0.50590  0.53398  0.97101  Biso   1.000  H
  H149     1.0000 0.44647  0.54771  0.97461  Biso   1.000  H
  H150     1.0000 0.50589  0.53403  0.97101  Biso   1.000  H
  C136     1.0000 0.48809  0.54401  0.00902  Biso   1.000  C
  C137     1.0000 0.79130  0.06148  0.77838  Biso   1.000  C
  C138     1.0000 0.75810  0.10952  0.81301  Biso   1.000  C
  C139     1.0000 0.79128  0.06153  0.77838  Biso   1.000  C
  H151     1.0000 0.82572  0.02712  0.74929  Biso   1.000  H
  H152     1.0000 0.82568  0.02712  0.74929  Biso   1.000  H
  C140     1.0000 0.29464  0.92399  0.78618  Biso   1.000  C
  H153     1.0000 0.39701  0.98592  0.78419  Biso   1.000  H
  C141     1.0000 0.29466  0.92404  0.78618  Biso   1.000  C
  H154     1.0000 0.55710  0.05309  0.72860  Biso   1.000  H
  H155     1.0000 0.54188  0.00949  0.70350  Biso   1.000  H
  H156     1.0000 0.55708  0.05314  0.72860  Biso   1.000  H
  H157     1.0000 0.54190  0.00954  0.70350  Biso   1.000  H
  H158     1.0000 0.55713  0.05314  0.72860  Biso   1.000  H
  C142     1.0000 0.25361  0.33810  0.98833  Biso   1.000  C
  C143     1.0000 0.25356  0.33810  0.98833  Biso   1.000  C
  H159     1.0000 0.34409  0.43569  0.03530  Biso   1.000  H
  H160     1.0000 0.40600  0.42690  0.02981  Biso   1.000  H
  C144     1.0000 0.42690  0.52199  0.02659  Biso   1.000  C
  H161     1.0000 0.34412  0.43574  0.03530  Biso   1.000  H
  H162     1.0000 0.40596  0.42690  0.02981  Biso   1.000  H
  C145     1.0000 0.42689  0.52204  0.02659  Biso   1.000  C
  C146     1.0000 0.42693  0.52204  0.02659  Biso   1.000  C
  H163     1.0000 0.51629  0.59221  0.00979  Biso   1.000  H
  H164     1.0000 0.51399  0.52429  0.01510  Biso   1.000  H
  H165     1.0000 0.51402  0.52434  0.01510  Biso   1.000  H
  H166     1.0000 0.51634  0.59221  0.00979  Biso   1.000  H
  C147     1.0000 0.75051  0.00609  0.79669  Biso   1.000  C
  C148     1.0000 0.75049  0.00614  0.79669  Biso   1.000  C
  C149     1.0000 0.73382  0.03631  0.81804  Biso   1.000  C
  C150     1.0000 0.70080  0.12440  0.80953  Biso   1.000  C
  C151     1.0000 0.81042  0.15732  0.83221  Biso   1.000  C
  C152     1.0000 0.73378  0.03631  0.81804  Biso   1.000  C
  C153     1.0000 0.70084  0.12440  0.80953  Biso   1.000  C
  C154     1.0000 0.81037  0.15732  0.83221  Biso   1.000  C
  C155     1.0000 0.23420  0.90241  0.77345  Biso   1.000  C
  C156     1.0000 0.29113  0.90012  0.81167  Biso   1.000  C
  H167     1.0000 0.24329  0.37162  0.98531  Biso   1.000  H
  C157     1.0000 0.19759  0.26829  0.98535  Biso   1.000  C
  C158     1.0000 0.19762  0.26834  0.98535  Biso   1.000  C
  H168     1.0000 0.44121  0.53338  0.04440  Biso   1.000  H
  H169     1.0000 0.40330  0.54511  0.02160  Biso   1.000  H
  H170     1.0000 0.44119  0.53343  0.04440  Biso   1.000  H
  C159     1.0000 0.72590  0.93862  0.79627  Biso   1.000  C
  C160     1.0000 0.69653  0.99650  0.83869  Biso   1.000  C
  H171     1.0000 0.67909  0.11861  0.82619  Biso   1.000  H
  H172     1.0000 0.72012  0.17100  0.80471  Biso   1.000  H
  C161     1.0000 0.64911  0.08400  0.79031  Biso   1.000  C
  H173     1.0000 0.67913  0.11861  0.82619  Biso   1.000  H
  H174     1.0000 0.72007  0.17100  0.80471  Biso   1.000  H
  C162     1.0000 0.64907  0.08400  0.79031  Biso   1.000  C
  H175     1.0000 0.82791  0.20251  0.82590  Biso   1.000  H
  H176     1.0000 0.78839  0.15392  0.84860  Biso   1.000  H
  C163     1.0000 0.86649  0.14628  0.83695  Biso   1.000  C
  H177     1.0000 0.82787  0.20251  0.82590  Biso   1.000  H
  C164     1.0000 0.86651  0.14633  0.83695  Biso   1.000  C
  H178     1.0000 0.23395  0.91740  0.75680  Biso   1.000  H
  C165     1.0000 0.17574  0.85981  0.78516  Biso   1.000  C
  H179     1.0000 0.23386  0.91740  0.75680  Biso   1.000  H
  H180     1.0000 0.33072  0.91520  0.82091  Biso   1.000  H
  C166     1.0000 0.23291  0.85642  0.82338  Biso   1.000  C
  C167     1.0000 0.20210  0.21070  0.98682  Biso   1.000  C
  C168     1.0000 0.13581  0.26374  0.98206  Biso   1.000  C
  C169     1.0000 0.20206  0.21070  0.98682  Biso   1.000  C
  C170     1.0000 0.13576  0.26374  0.98206  Biso   1.000  C
  C171     1.0000 0.73061  0.89442  0.77451  Biso   1.000  C
  C172     1.0000 0.68603  0.89772  0.81768  Biso   1.000  C
  C173     1.0000 0.67375  0.92748  0.83875  Biso   1.000  C
  C174     1.0000 0.67368  0.92753  0.83875  Biso   1.000  C
  C175     1.0000 0.67511  0.01298  0.86366  Biso   1.000  C
  C176     1.0000 0.67513  0.01303  0.86366  Biso   1.000  C
  C177     1.0000 0.67509  0.01303  0.86366  Biso   1.000  C
  H181     1.0000 0.63611  0.03741  0.79271  Biso   1.000  H
  H182     1.0000 0.66828  0.09699  0.77310  Biso   1.000  H
  C178     1.0000 0.58759  0.09019  0.79160  Biso   1.000  C
  H183     1.0000 0.63606  0.03741  0.79271  Biso   1.000  H
  H184     1.0000 0.66830  0.09704  0.77310  Biso   1.000  H
  H185     1.0000 0.88351  0.14148  0.82040  Biso   1.000  H
  H186     1.0000 0.85009  0.10448  0.84630  Biso   1.000  H
  C179     1.0000 0.92511  0.20271  0.85261  Biso   1.000  C
  H187     1.0000 0.88349  0.14153  0.82040  Biso   1.000  H
  H188     1.0000 0.85011  0.10453  0.84630  Biso   1.000  H
  C180     1.0000 0.92507  0.20271  0.85261  Biso   1.000  C
  C181     1.0000 0.17132  0.83609  0.81082  Biso   1.000  C
  C182     1.0000 0.10559  0.83619  0.77451  Biso   1.000  C
  C183     1.0000 0.17135  0.83614  0.81082  Biso   1.000  C
  C184     1.0000 0.10561  0.83624  0.77451  Biso   1.000  C
  H189     1.0000 0.23354  0.83969  0.83970  Biso   1.000  H
  H190     1.0000 0.23352  0.83974  0.83970  Biso   1.000  H
  H191     1.0000 0.24339  0.21370  0.98901  Biso   1.000  H
  C185     1.0000 0.14459  0.14828  0.98502  Biso   1.000  C
  C186     1.0000 0.14458  0.14833  0.98502  Biso   1.000  C
  C187     1.0000 0.07840  0.20151  0.98026  Biso   1.000  C
  H192     1.0000 0.13290  0.30240  0.98111  Biso   1.000  H
  H193     1.0000 0.13286  0.30240  0.98111  Biso   1.000  H
  C188     1.0000 0.68413  0.82431  0.78516  Biso   1.000  C
  C189     1.0000 0.70171  0.90261  0.74906  Biso   1.000  C
  C190     1.0000 0.80141  0.90601  0.77254  Biso   1.000  C
  C191     1.0000 0.80137  0.90601  0.77254  Biso   1.000  C
  C192     1.0000 0.66484  0.82870  0.81082  Biso   1.000  C
  C193     1.0000 0.63262  0.89402  0.86322  Biso   1.000  C
  C194     1.0000 0.63769  0.95380  0.87717  Biso   1.000  C
  C195     1.0000 0.67959  0.07032  0.87319  Biso   1.000  C
  H194     1.0000 0.56321  0.07481  0.77540  Biso   1.000  H
  H195     1.0000 0.60051  0.13679  0.79369  Biso   1.000  H
  C196     1.0000 0.54131  0.04909  0.81431  Biso   1.000  C
  H196     1.0000 0.60049  0.13684  0.79369  Biso   1.000  H
  C197     1.0000 0.54129  0.04914  0.81431  Biso   1.000  C
  H197     1.0000 0.90792  0.21470  0.86750  Biso   1.000  H
  H198     1.0000 0.95490  0.18738  0.85871  Biso   1.000  H
  C198     1.0000 0.96249  0.26259  0.83500  Biso   1.000  C
  H199     1.0000 0.90788  0.21470  0.86750  Biso   1.000  H
  H200     1.0000 0.95492  0.18743  0.85871  Biso   1.000  H
  C199     1.0000 0.96256  0.26264  0.83500  Biso   1.000  C
  H201     1.0000 0.95488  0.18743  0.85871  Biso   1.000  H
  C200     1.0000 0.96251  0.26264  0.83500  Biso   1.000  C
  C201     1.0000 0.10236  0.78830  0.81768  Biso   1.000  C
  C202     1.0000 0.10227  0.78830  0.81768  Biso   1.000  C
  C203     1.0000 0.06146  0.78730  0.79627  Biso   1.000  C
  C204     1.0000 0.09737  0.79908  0.74906  Biso   1.000  C
  C205     1.0000 0.09407  0.89542  0.77254  Biso   1.000  C
  C206     1.0000 0.06138  0.78730  0.79627  Biso   1.000  C
  C207     1.0000 0.09740  0.79913  0.74906  Biso   1.000  C
  C208     1.0000 0.09399  0.89542  0.77254  Biso   1.000  C
  C209     1.0000 0.14471  0.08580  0.98306  Biso   1.000  C
  C210     1.0000 0.08279  0.14378  0.98173  Biso   1.000  C
  C211     1.0000 0.14467  0.08580  0.98306  Biso   1.000  C
  C212     1.0000 0.08282  0.14383  0.98173  Biso   1.000  C
  C213     1.0000 0.08286  0.14383  0.98173  Biso   1.000  C
  H202     1.0000 0.03701  0.19842  0.97811  Biso   1.000  H
  H203     1.0000 0.03697  0.19842  0.97811  Biso   1.000  H
  C214     1.0000 0.66826  0.76582  0.77345  Biso   1.000  C
  C215     1.0000 0.66817  0.76582  0.77345  Biso   1.000  C
  H204     1.0000 0.73106  0.94731  0.74250  Biso   1.000  H
  H205     1.0000 0.70193  0.87140  0.73660  Biso   1.000  H
  C216     1.0000 0.63245  0.89178  0.75059  Biso   1.000  C
  H206     1.0000 0.73098  0.94731  0.74250  Biso   1.000  H
  C217     1.0000 0.63243  0.89183  0.75059  Biso   1.000  C
  H207     1.0000 0.80175  0.87649  0.75930  Biso   1.000  H
  H208     1.0000 0.83021  0.95141  0.76660  Biso   1.000  H
  C218     1.0000 0.83141  0.89602  0.79642  Biso   1.000  C
  H209     1.0000 0.80166  0.87649  0.75930  Biso   1.000  H
  H210     1.0000 0.83016  0.95141  0.76660  Biso   1.000  H
  C219     1.0000 0.62349  0.76712  0.82338  Biso   1.000  C
  C220     1.0000 0.67231  0.86571  0.87977  Biso   1.000  C
  C221     1.0000 0.56011  0.84388  0.85784  Biso   1.000  C
  C222     1.0000 0.56009  0.84393  0.85784  Biso   1.000  C
  C223     1.0000 0.61172  0.95350  0.90187  Biso   1.000  C
  C224     1.0000 0.61167  0.95350  0.90187  Biso   1.000  C
  C225     1.0000 0.65691  0.07062  0.89866  Biso   1.000  C
  H211     1.0000 0.69741  0.10862  0.86310  Biso   1.000  H
  H212     1.0000 0.52158  0.00230  0.81059  Biso   1.000  H
  H213     1.0000 0.50667  0.06018  0.81640  Biso   1.000  H
  H214     1.0000 0.56699  0.05938  0.82991  Biso   1.000  H
  H215     1.0000 0.52163  0.00230  0.81059  Biso   1.000  H
  H216     1.0000 0.50669  0.06023  0.81640  Biso   1.000  H
  H217     1.0000 0.56698  0.05943  0.82991  Biso   1.000  H
  H218     1.0000 0.00260  0.29550  0.84349  Biso   1.000  H
  H219     1.0000 0.00256  0.29550  0.84349  Biso   1.000  H
  H220     1.0000 0.97399  0.24891  0.81920  Biso   1.000  H
  H221     1.0000 0.93480  0.28152  0.83120  Biso   1.000  H
  H222     1.0000 0.93484  0.28152  0.83120  Biso   1.000  H
  C226     1.0000 0.07253  0.74620  0.83875  Biso   1.000  C
  C227     1.0000 0.99391  0.74440  0.79669  Biso   1.000  C
  C228     1.0000 0.99386  0.74440  0.79669  Biso   1.000  C
  H223     1.0000 0.05274  0.78370  0.74250  Biso   1.000  H
  H224     1.0000 0.12865  0.83050  0.73660  Biso   1.000  H
  C229     1.0000 0.10818  0.74060  0.75059  Biso   1.000  C
  H225     1.0000 0.12860  0.83050  0.73660  Biso   1.000  H
  H226     1.0000 0.12349  0.92519  0.75930  Biso   1.000  H
  H227     1.0000 0.04865  0.87879  0.76660  Biso   1.000  H
  C230     1.0000 0.10397  0.93538  0.79642  Biso   1.000  C
  H228     1.0000 0.12351  0.92524  0.75930  Biso   1.000  H
  H229     1.0000 0.04863  0.87884  0.76660  Biso   1.000  H
  C231     1.0000 0.10400  0.93543  0.79642  Biso   1.000  C
  C232     1.0000 0.06792  0.04120  0.98188  Biso   1.000  C
  C233     1.0000 0.18310  0.08810  0.95812  Biso   1.000  C
  C234     1.0000 0.06787  0.04120  0.98188  Biso   1.000  C
  C235     1.0000 0.18306  0.08810  0.95812  Biso   1.000  C
  C236     1.0000 0.17791  0.06742  0.00650  Biso   1.000  C
  C237     1.0000 0.02549  0.06742  0.98214  Biso   1.000  C
  C238     1.0000 0.62944  0.70539  0.78618  Biso   1.000  C
  H230     1.0000 0.68350  0.76612  0.75680  Biso   1.000  H
  C239     1.0000 0.60376  0.89772  0.72496  Biso   1.000  C
  H231     1.0000 0.63252  0.92419  0.76259  Biso   1.000  H
  H232     1.0000 0.60335  0.84768  0.75769  Biso   1.000  H
  C240     1.0000 0.60368  0.89772  0.72496  Biso   1.000  C
  H233     1.0000 0.63255  0.92424  0.76259  Biso   1.000  H
  H234     1.0000 0.60329  0.84773  0.75769  Biso   1.000  H
  H235     1.0000 0.83739  0.92988  0.80891  Biso   1.000  H
  H236     1.0000 0.80000  0.85292  0.80380  Biso   1.000  H
  C241     1.0000 0.89647  0.89882  0.79300  Biso   1.000  C
  H237     1.0000 0.83738  0.92993  0.80891  Biso   1.000  H
  C242     1.0000 0.89638  0.89882  0.79300  Biso   1.000  C
  C243     1.0000 0.60900  0.70889  0.81167  Biso   1.000  C
  H238     1.0000 0.60624  0.76652  0.83970  Biso   1.000  H
  C244     1.0000 0.60898  0.70894  0.81167  Biso   1.000  C
  H239     1.0000 0.65060  0.85152  0.89651  Biso   1.000  H
  H240     1.0000 0.66691  0.82610  0.87100  Biso   1.000  H
  C245     1.0000 0.75080  0.91500  0.88466  Biso   1.000  C
  H241     1.0000 0.55734  0.80298  0.85170  Biso   1.000  H
  H242     1.0000 0.53572  0.83369  0.87400  Biso   1.000  H
  C246     1.0000 0.52713  0.86461  0.83929  Biso   1.000  C
  H243     1.0000 0.55733  0.80303  0.85170  Biso   1.000  H
  H244     1.0000 0.58696  0.91350  0.91079  Biso   1.000  H
  H245     1.0000 0.58687  0.91350  0.91079  Biso   1.000  H
  C247     1.0000 0.62269  0.01169  0.91259  Biso   1.000  C
  C248     1.0000 0.62271  0.01174  0.91259  Biso   1.000  C
  H246     1.0000 0.66493  0.11062  0.90611  Biso   1.000  H
  H247     1.0000 0.66489  0.11062  0.90611  Biso   1.000  H
  C249     1.0000 0.00354  0.70000  0.83869  Biso   1.000  C
  C250     1.0000 0.10601  0.73861  0.86322  Biso   1.000  C
  C251     1.0000 0.93852  0.72982  0.77838  Biso   1.000  C
  C252     1.0000 0.96376  0.69750  0.81804  Biso   1.000  C
  C253     1.0000 0.96371  0.69750  0.81804  Biso   1.000  C
  C254     1.0000 0.10229  0.70599  0.72496  Biso   1.000  C
  H248     1.0000 0.07581  0.70829  0.76259  Biso   1.000  H
  H249     1.0000 0.15235  0.75559  0.75769  Biso   1.000  H
  C255     1.0000 0.10232  0.70604  0.72496  Biso   1.000  C
  H250     1.0000 0.07583  0.70834  0.76259  Biso   1.000  H
  H251     1.0000 0.15229  0.75564  0.75769  Biso   1.000  H
  H252     1.0000 0.07014  0.90751  0.80891  Biso   1.000  H
  H253     1.0000 0.14712  0.94711  0.80380  Biso   1.000  H
  C256     1.0000 0.10126  0.99760  0.79300  Biso   1.000  C
  C257     1.0000 0.10122  0.99760  0.79300  Biso   1.000  C
  C258     1.0000 0.04191  0.97448  0.98214  Biso   1.000  C
  C259     1.0000 0.04193  0.97453  0.98214  Biso   1.000  C
  H254     1.0000 0.22962  0.12181  0.96050  Biso   1.000  H
  H255     1.0000 0.18121  0.04540  0.95639  Biso   1.000  H
  C260     1.0000 0.16010  0.10248  0.93330  Biso   1.000  C
  H256     1.0000 0.22958  0.12181  0.96050  Biso   1.000  H
  H257     1.0000 0.18117  0.04540  0.95639  Biso   1.000  H
  C261     1.0000 0.16008  0.10253  0.93330  Biso   1.000  C
  H258     1.0000 0.17530  0.04300  0.95630  Biso   1.000  H
  H259     1.0000 0.15791  0.09359  0.94430  Biso   1.000  H
  C262     1.0000 0.24941  0.12860  0.95090  Biso   1.000  C
  H260     1.0000 0.21998  0.10658  0.01090  Biso   1.000  H
  H261     1.0000 0.18763  0.03331  0.00070  Biso   1.000  H
  C263     1.0000 0.13210  0.04060  0.03279  Biso   1.000  C
  H262     1.0000 0.22000  0.10663  0.01090  Biso   1.000  H
  H263     1.0000 0.18758  0.03331  0.00070  Biso   1.000  H
  C264     1.0000 0.13206  0.04060  0.03279  Biso   1.000  C
  C265     1.0000 0.95882  0.02672  0.98188  Biso   1.000  C
  C266     1.0000 0.95878  0.02672  0.98188  Biso   1.000  C
  C267     1.0000 0.60815  0.64102  0.77384  Biso   1.000  C
  H264     1.0000 0.63061  0.94312  0.71860  Biso   1.000  H
  H265     1.0000 0.60744  0.86830  0.71250  Biso   1.000  H
  C268     1.0000 0.53349  0.88139  0.72597  Biso   1.000  C
  C269     1.0000 0.53351  0.88144  0.72597  Biso   1.000  C
  H266     1.0000 0.92820  0.94152  0.78551  Biso   1.000  H
  H267     1.0000 0.89079  0.86411  0.78100  Biso   1.000  H
  C270     1.0000 0.92592  0.88938  0.81949  Biso   1.000  C
  C271     1.0000 0.92594  0.88943  0.81949  Biso   1.000  C
  H268     1.0000 0.58448  0.66929  0.82091  Biso   1.000  H
  H269     1.0000 0.58451  0.66934  0.82091  Biso   1.000  H
  H270     1.0000 0.75392  0.95660  0.89010  Biso   1.000  H
  H271     1.0000 0.77031  0.92339  0.86750  Biso   1.000  H
  C272     1.0000 0.80518  0.90811  0.90321  Biso   1.000  C
  H272     1.0000 0.75387  0.95660  0.89010  Biso   1.000  H
  H273     1.0000 0.77029  0.92344  0.86750  Biso   1.000  H
  H274     1.0000 0.55348  0.88029  0.82360  Biso   1.000  H
  H275     1.0000 0.52209  0.90072  0.84640  Biso   1.000  H
  C273     1.0000 0.45692  0.80308  0.83320  Biso   1.000  C
  H276     1.0000 0.55351  0.88034  0.82360  Biso   1.000  H
  C274     1.0000 0.45695  0.80313  0.83320  Biso   1.000  C
  C275     1.0000 0.60178  0.01408  0.93938  Biso   1.000  C
  C276     1.0000 0.60185  0.01413  0.93938  Biso   1.000  C
  C277     1.0000 0.60181  0.01413  0.93938  Biso   1.000  C
  C278     1.0000 0.98705  0.66209  0.86366  Biso   1.000  C
  C279     1.0000 0.98701  0.66209  0.86366  Biso   1.000  C
  C280     1.0000 0.04623  0.68392  0.87717  Biso   1.000  C
  C281     1.0000 0.13429  0.80658  0.87977  Biso   1.000  C
  C282     1.0000 0.15613  0.71618  0.85784  Biso   1.000  C
  C283     1.0000 0.13427  0.80663  0.87977  Biso   1.000  C
  C284     1.0000 0.15616  0.71623  0.85784  Biso   1.000  C
  C285     1.0000 0.87954  0.67258  0.78721  Biso   1.000  C
  C286     1.0000 0.93527  0.76068  0.75555  Biso   1.000  C
  C287     1.0000 0.87952  0.67263  0.78721  Biso   1.000  C
  C288     1.0000 0.93529  0.76073  0.75555  Biso   1.000  C
  C289     1.0000 0.89057  0.64861  0.81301  Biso   1.000  C
  C290     1.0000 0.89048  0.64861  0.81301  Biso   1.000  C
  H277     1.0000 0.05690  0.68752  0.71860  Biso   1.000  H
  H278     1.0000 0.13170  0.73910  0.71250  Biso   1.000  H
  C291     1.0000 0.11860  0.65211  0.72597  Biso   1.000  C
  H279     1.0000 0.13589  0.02672  0.78100  Biso   1.000  H
  C292     1.0000 0.11059  0.03651  0.81949  Biso   1.000  C
  H280     1.0000 0.05849  0.98672  0.78551  Biso   1.000  H
  C293     1.0000 0.97335  0.93208  0.98188  Biso   1.000  C
  C294     1.0000 0.97333  0.93213  0.98188  Biso   1.000  C
  C295     1.0000 0.06106  0.91720  0.98173  Biso   1.000  C
  C296     1.0000 0.06102  0.91720  0.98173  Biso   1.000  C
  C297     1.0000 0.21023  0.11502  0.91221  Biso   1.000  C
  H281     1.0000 0.15489  0.14128  0.93530  Biso   1.000  H
  H282     1.0000 0.11701  0.06482  0.92860  Biso   1.000  H
  C298     1.0000 0.21018  0.11502  0.91221  Biso   1.000  C
  H283     1.0000 0.15488  0.14133  0.93530  Biso   1.000  H
  H284     1.0000 0.27631  0.12331  0.96400  Biso   1.000  H
  H285     1.0000 0.25881  0.17430  0.95200  Biso   1.000  H
  C299     1.0000 0.27450  0.12151  0.92591  Biso   1.000  C
  H286     1.0000 0.09500  0.99580  0.02981  Biso   1.000  H
  C300     1.0000 0.17200  0.03960  0.05609  Biso   1.000  C
  H287     1.0000 0.11372  0.06932  0.03660  Biso   1.000  H
  H288     1.0000 0.11368  0.06932  0.03660  Biso   1.000  H
  C301     1.0000 0.93264  0.95810  0.98214  Biso   1.000  C
  C302     1.0000 0.91418  0.05888  0.98306  Biso   1.000  C
  C303     1.0000 0.91425  0.05893  0.98306  Biso   1.000  C
  C304     1.0000 0.91420  0.05893  0.98306  Biso   1.000  C
  N11      1.0000 0.61440  0.63398  0.74982  Biso   1.000  N
  H289     1.0000 0.58893  0.60301  0.78419  Biso   1.000  H
  N12      1.0000 0.61443  0.63403  0.74982  Biso   1.000  N
  H290     1.0000 0.50573  0.83529  0.73069  Biso   1.000  H
  H291     1.0000 0.52024  0.88898  0.70931  Biso   1.000  H
  H292     1.0000 0.52871  0.90921  0.73861  Biso   1.000  H
  H293     1.0000 0.50575  0.83534  0.73069  Biso   1.000  H
  H294     1.0000 0.52023  0.88903  0.70931  Biso   1.000  H
  H295     1.0000 0.52867  0.90921  0.73861  Biso   1.000  H
  H296     1.0000 0.89535  0.84658  0.82679  Biso   1.000  H
  H297     1.0000 0.93210  0.92389  0.83140  Biso   1.000  H
  H298     1.0000 0.96791  0.89188  0.81630  Biso   1.000  H
  H299     1.0000 0.89533  0.84663  0.82679  Biso   1.000  H
  H300     1.0000 0.93208  0.92394  0.83140  Biso   1.000  H
  H301     1.0000 0.96789  0.89193  0.81630  Biso   1.000  H
  H302     1.0000 0.79083  0.86271  0.89771  Biso   1.000  H
  H303     1.0000 0.84274  0.93478  0.89181  Biso   1.000  H
  C305     1.0000 0.85151  0.90691  0.92639  Biso   1.000  C
  H304     1.0000 0.84268  0.93483  0.89181  Biso   1.000  H
  H305     1.0000 0.46095  0.76348  0.83111  Biso   1.000  H
  H306     1.0000 0.42679  0.79549  0.84750  Biso   1.000  H
  C306     1.0000 0.42774  0.81522  0.80800  Biso   1.000  C
  H307     1.0000 0.46093  0.76353  0.83111  Biso   1.000  H
  H308     1.0000 0.42681  0.79554  0.84750  Biso   1.000  H
  N13      1.0000 0.56634  0.95990  0.95213  Biso   1.000  N
  N14      1.0000 0.56626  0.95990  0.95213  Biso   1.000  N
  H309     1.0000 0.61441  0.05509  0.94710  Biso   1.000  H
  H310     1.0000 0.61444  0.05514  0.94710  Biso   1.000  H
  H311     1.0000 0.61439  0.05514  0.94710  Biso   1.000  H
  C307     1.0000 0.92973  0.60931  0.87319  Biso   1.000  C
  C308     1.0000 0.04652  0.65820  0.90187  Biso   1.000  C
  H312     1.0000 0.14849  0.79908  0.89651  Biso   1.000  H
  H313     1.0000 0.17393  0.84079  0.87100  Biso   1.000  H
  C309     1.0000 0.08506  0.83579  0.88466  Biso   1.000  C
  H314     1.0000 0.14848  0.79913  0.89651  Biso   1.000  H
  H315     1.0000 0.17395  0.84084  0.87100  Biso   1.000  H
  C310     1.0000 0.08504  0.83584  0.88466  Biso   1.000  C
  H316     1.0000 0.19703  0.75429  0.85170  Biso   1.000  H
  H317     1.0000 0.16630  0.70200  0.87400  Biso   1.000  H
  C311     1.0000 0.13539  0.66249  0.83929  Biso   1.000  C
  H318     1.0000 0.19705  0.75434  0.85170  Biso   1.000  H
  C312     1.0000 0.82056  0.64751  0.77397  Biso   1.000  C
  C313     1.0000 0.82051  0.64751  0.77397  Biso   1.000  C
  C314     1.0000 0.87468  0.73371  0.74236  Biso   1.000  C
  H319     1.0000 0.97291  0.79859  0.74929  Biso   1.000  H
  H320     1.0000 0.97293  0.79864  0.74929  Biso   1.000  H
  C315     1.0000 0.87565  0.57640  0.80953  Biso   1.000  C
  C316     1.0000 0.84269  0.65311  0.83221  Biso   1.000  C
  C317     1.0000 0.87561  0.57640  0.80953  Biso   1.000  C
  H321     1.0000 0.16472  0.67039  0.73069  Biso   1.000  H
  H322     1.0000 0.11099  0.63118  0.70931  Biso   1.000  H
  H323     1.0000 0.09079  0.61949  0.73861  Biso   1.000  H
  H324     1.0000 0.16474  0.67044  0.73069  Biso   1.000  H
  H325     1.0000 0.11102  0.63123  0.70931  Biso   1.000  H
  H326     1.0000 0.15341  0.04869  0.82679  Biso   1.000  H
  H327     1.0000 0.07611  0.00819  0.83140  Biso   1.000  H
  H328     1.0000 0.10812  0.07601  0.81630  Biso   1.000  H
  H329     1.0000 0.15339  0.04874  0.82679  Biso   1.000  H
  H330     1.0000 0.07609  0.00824  0.83140  Biso   1.000  H
  H331     1.0000 0.10807  0.07601  0.81630  Biso   1.000  H
  C318     1.0000 0.94111  0.85532  0.98306  Biso   1.000  C
  C319     1.0000 0.94107  0.85532  0.98306  Biso   1.000  C
  C320     1.0000 0.00374  0.85542  0.98502  Biso   1.000  C
  C321     1.0000 0.12312  0.92159  0.98026  Biso   1.000  C
  C322     1.0000 0.12307  0.92159  0.98026  Biso   1.000  C
  H332     1.0000 0.19232  0.12081  0.89601  Biso   1.000  H
  H333     1.0000 0.21380  0.07511  0.91041  Biso   1.000  H
  C323     1.0000 0.28210  0.17589  0.91559  Biso   1.000  C
  H334     1.0000 0.19228  0.12081  0.89601  Biso   1.000  H
  C324     1.0000 0.28206  0.17589  0.91559  Biso   1.000  C
  H335     1.0000 0.25069  0.13020  0.91240  Biso   1.000  H
  H336     1.0000 0.30031  0.17210  0.93179  Biso   1.000  H
  H337     1.0000 0.30027  0.17210  0.93179  Biso   1.000  H
  H338     1.0000 0.26400  0.07551  0.92411  Biso   1.000  H
  C325     1.0000 0.35039  0.16750  0.92140  Biso   1.000  C
  H339     1.0000 0.18910  0.00979  0.05230  Biso   1.000  H
  H340     1.0000 0.20998  0.08390  0.05839  Biso   1.000  H
  C326     1.0000 0.13398  0.01798  0.08090  Biso   1.000  C
  H341     1.0000 0.18908  0.00984  0.05230  Biso   1.000  H
  C327     1.0000 0.13401  0.01803  0.08090  Biso   1.000  C
  C328     1.0000 0.85624  0.93902  0.98173  Biso   1.000  C
  C329     1.0000 0.85175  0.99630  0.98502  Biso   1.000  C
  C330     1.0000 0.85171  0.99630  0.98502  Biso   1.000  C
  C331     1.0000 0.91190  0.09499  0.95812  Biso   1.000  C
  C332     1.0000 0.91193  0.09504  0.95812  Biso   1.000  C
  C333     1.0000 0.91189  0.09504  0.95812  Biso   1.000  C
  C334     1.0000 0.93260  0.11052  0.00650  Biso   1.000  C
  C335     1.0000 0.59234  0.56771  0.74080  Biso   1.000  C
  H342     1.0000 0.82879  0.90082  0.94271  Biso   1.000  H
  H343     1.0000 0.89299  0.94851  0.92670  Biso   1.000  H
  H344     1.0000 0.86019  0.87090  0.92380  Biso   1.000  H
  H345     1.0000 0.45747  0.82251  0.79391  Biso   1.000  H
  H346     1.0000 0.42277  0.85372  0.81020  Biso   1.000  H
  H347     1.0000 0.38489  0.77691  0.80449  Biso   1.000  H
  H348     1.0000 0.45742  0.82251  0.79391  Biso   1.000  H
  H349     1.0000 0.42273  0.85372  0.81020  Biso   1.000  H
  C336     1.0000 0.54884  0.96789  0.97888  Biso   1.000  C
  C337     1.0000 0.54878  0.96794  0.97888  Biso   1.000  C
  C338     1.0000 0.92942  0.58628  0.89866  Biso   1.000  C
  H350     1.0000 0.89144  0.58878  0.86310  Biso   1.000  H
  C339     1.0000 0.92945  0.58633  0.89866  Biso   1.000  C
  H351     1.0000 0.89143  0.58883  0.86310  Biso   1.000  H
  C340     1.0000 0.98837  0.61100  0.91259  Biso   1.000  C
  C341     1.0000 0.98828  0.61100  0.91259  Biso   1.000  C
  H352     1.0000 0.08655  0.67338  0.91079  Biso   1.000  H
  H353     1.0000 0.08653  0.67343  0.91079  Biso   1.000  H
  H354     1.0000 0.04345  0.79729  0.89010  Biso   1.000  H
  H355     1.0000 0.07663  0.84688  0.86750  Biso   1.000  H
  C342     1.0000 0.09189  0.89712  0.90321  Biso   1.000  C
  H356     1.0000 0.04339  0.79734  0.89010  Biso   1.000  H
  H357     1.0000 0.07662  0.84693  0.86750  Biso   1.000  H
  H358     1.0000 0.11971  0.67318  0.82360  Biso   1.000  H
  H359     1.0000 0.09931  0.62139  0.84640  Biso   1.000  H
  C343     1.0000 0.19696  0.65380  0.83320  Biso   1.000  C
  H360     1.0000 0.11969  0.67323  0.82360  Biso   1.000  H
  H361     1.0000 0.09933  0.62144  0.84640  Biso   1.000  H
  C344     1.0000 0.19691  0.65380  0.83320  Biso   1.000  C
  C345     1.0000 0.81773  0.67758  0.75067  Biso   1.000  C
  H362     1.0000 0.78233  0.61051  0.78040  Biso   1.000  H
  C346     1.0000 0.81775  0.67763  0.75067  Biso   1.000  C
  H363     1.0000 0.87275  0.75449  0.72731  Biso   1.000  H
  H364     1.0000 0.87273  0.75454  0.72731  Biso   1.000  H
  H365     1.0000 0.88146  0.56051  0.82619  Biso   1.000  H
  H366     1.0000 0.82903  0.54908  0.80471  Biso   1.000  H
  C347     1.0000 0.91603  0.56511  0.79031  Biso   1.000  C
  H367     1.0000 0.88138  0.56051  0.82619  Biso   1.000  H
  H368     1.0000 0.82897  0.54913  0.80471  Biso   1.000  H
  H369     1.0000 0.79756  0.62539  0.82590  Biso   1.000  H
  H370     1.0000 0.84609  0.63448  0.84860  Biso   1.000  H
  C348     1.0000 0.85373  0.72018  0.83695  Biso   1.000  C
  H371     1.0000 0.79754  0.62544  0.82590  Biso   1.000  H
  H372     1.0000 0.84611  0.63453  0.84860  Biso   1.000  H
  C349     1.0000 0.85376  0.72023  0.83695  Biso   1.000  C
  C350     1.0000 0.90500  0.81691  0.95812  Biso   1.000  C
  C351     1.0000 0.88956  0.82211  0.00650  Biso   1.000  C
  C352     1.0000 0.88952  0.82211  0.00650  Biso   1.000  C
  C353     1.0000 0.00858  0.79789  0.98682  Biso   1.000  C
  C354     1.0000 0.00861  0.79794  0.98682  Biso   1.000  C
  H373     1.0000 0.16142  0.96299  0.97811  Biso   1.000  H
  C355     1.0000 0.12799  0.86421  0.98206  Biso   1.000  C
  H374     1.0000 0.16144  0.96304  0.97811  Biso   1.000  H
  H375     1.0000 0.28030  0.21650  0.91550  Biso   1.000  H
  H376     1.0000 0.31001  0.17669  0.90170  Biso   1.000  H
  H377     1.0000 0.28026  0.21650  0.91550  Biso   1.000  H
  H378     1.0000 0.30999  0.17674  0.90170  Biso   1.000  H
  H379     1.0000 0.36091  0.21320  0.92130  Biso   1.000  H
  H380     1.0000 0.36252  0.15682  0.90501  Biso   1.000  H
  H381     1.0000 0.37482  0.16091  0.93501  Biso   1.000  H
  H382     1.0000 0.09911  0.97228  0.07949  Biso   1.000  H
  H383     1.0000 0.09909  0.97233  0.07949  Biso   1.000  H
  H384     1.0000 0.16370  0.02222  0.09470  Biso   1.000  H
  H385     1.0000 0.11489  0.04570  0.08450  Biso   1.000  H
  C356     1.0000 0.79849  0.87689  0.98026  Biso   1.000  C
  C357     1.0000 0.78936  0.99141  0.98682  Biso   1.000  C
  C358     1.0000 0.78931  0.99141  0.98682  Biso   1.000  C
  H386     1.0000 0.87823  0.10782  0.96050  Biso   1.000  H
  H387     1.0000 0.95458  0.13579  0.95639  Biso   1.000  H
  C359     1.0000 0.89748  0.05758  0.93330  Biso   1.000  C
  H388     1.0000 0.95465  0.13584  0.95639  Biso   1.000  H
  C360     1.0000 0.89751  0.05763  0.93330  Biso   1.000  C
  H389     1.0000 0.87818  0.10782  0.96050  Biso   1.000  H
  H390     1.0000 0.95698  0.13230  0.95630  Biso   1.000  H
  H391     1.0000 0.90643  0.06432  0.94430  Biso   1.000  H
  C361     1.0000 0.87140  0.12081  0.95090  Biso   1.000  C
  H392     1.0000 0.89339  0.11342  0.01090  Biso   1.000  H
  H393     1.0000 0.96670  0.15432  0.00070  Biso   1.000  H
  C362     1.0000 0.95942  0.09149  0.03279  Biso   1.000  C
  C363     1.0000 0.95940  0.09154  0.03279  Biso   1.000  C
  C364     1.0000 0.64854  0.56870  0.72425  Biso   1.000  C
  H394     1.0000 0.58292  0.53789  0.75570  Biso   1.000  H
  C365     1.0000 0.52850  0.54219  0.72419  Biso   1.000  C
  H395     1.0000 0.58295  0.53794  0.75570  Biso   1.000  H
  C366     1.0000 0.52852  0.54223  0.72419  Biso   1.000  C
  C367     1.0000 0.57104  0.92958  0.99605  Biso   1.000  C
  C368     1.0000 0.47726  0.94392  0.98142  Biso   1.000  C
  C369     1.0000 0.57102  0.92963  0.99605  Biso   1.000  C
  C370     1.0000 0.47717  0.94392  0.98142  Biso   1.000  C
  H396     1.0000 0.57388  0.01528  0.98361  Biso   1.000  H
  H397     1.0000 0.57390  0.01533  0.98361  Biso   1.000  H
  H398     1.0000 0.88940  0.55432  0.90611  Biso   1.000  H
  C371     1.0000 0.98592  0.58768  0.93938  Biso   1.000  C
  C372     1.0000 0.98594  0.58773  0.93938  Biso   1.000  C
  H399     1.0000 0.13730  0.92808  0.89771  Biso   1.000  H
  H400     1.0000 0.06519  0.90791  0.89181  Biso   1.000  H
  C373     1.0000 0.09311  0.94461  0.92639  Biso   1.000  C
  H401     1.0000 0.13729  0.92813  0.89771  Biso   1.000  H
  H402     1.0000 0.23649  0.69740  0.83111  Biso   1.000  H
  H403     1.0000 0.20455  0.63128  0.84750  Biso   1.000  H
  C374     1.0000 0.18478  0.61250  0.80800  Biso   1.000  C
  H404     1.0000 0.20453  0.63133  0.84750  Biso   1.000  H
  C375     1.0000 0.75610  0.64931  0.73586  Biso   1.000  C
  H405     1.0000 0.96267  0.59872  0.79271  Biso   1.000  H
  H406     1.0000 0.90299  0.57130  0.77310  Biso   1.000  H
  C376     1.0000 0.90980  0.49739  0.79160  Biso   1.000  C
  H407     1.0000 0.96263  0.59872  0.79271  Biso   1.000  H
  C377     1.0000 0.90978  0.49744  0.79160  Biso   1.000  C
  H408     1.0000 0.85854  0.74200  0.82040  Biso   1.000  H
  H409     1.0000 0.89551  0.74560  0.84630  Biso   1.000  H
  C378     1.0000 0.79737  0.72242  0.85261  Biso   1.000  C
  H410     1.0000 0.85850  0.74200  0.82040  Biso   1.000  H
  H411     1.0000 0.89546  0.74560  0.84630  Biso   1.000  H
  C379     1.0000 0.79729  0.72242  0.85261  Biso   1.000  C
  H412     1.0000 0.89226  0.77042  0.96050  Biso   1.000  H
  H413     1.0000 0.86425  0.81881  0.95639  Biso   1.000  H
  C380     1.0000 0.94239  0.83989  0.93330  Biso   1.000  C
  H414     1.0000 0.89222  0.77042  0.96050  Biso   1.000  H
  H415     1.0000 0.86417  0.81881  0.95639  Biso   1.000  H
  C381     1.0000 0.94242  0.83994  0.93330  Biso   1.000  C
  H416     1.0000 0.86772  0.82470  0.95630  Biso   1.000  H
  H417     1.0000 0.93573  0.84213  0.94430  Biso   1.000  H
  C382     1.0000 0.87921  0.75064  0.95090  Biso   1.000  C
  H418     1.0000 0.88659  0.78001  0.01090  Biso   1.000  H
  H419     1.0000 0.84570  0.81242  0.00070  Biso   1.000  H
  C383     1.0000 0.90852  0.86790  0.03279  Biso   1.000  C
  C384     1.0000 0.90848  0.86790  0.03279  Biso   1.000  C
  H420     1.0000 0.97029  0.75658  0.98901  Biso   1.000  H
  H421     1.0000 0.97031  0.75663  0.98901  Biso   1.000  H
  C385     1.0000 0.07073  0.80238  0.98535  Biso   1.000  C
  C386     1.0000 0.07076  0.80243  0.98535  Biso   1.000  C
  H422     1.0000 0.16949  0.86711  0.98111  Biso   1.000  H
  H423     1.0000 0.80165  0.83859  0.97811  Biso   1.000  H
  C387     1.0000 0.73625  0.87205  0.98206  Biso   1.000  C
  H424     1.0000 0.80163  0.83864  0.97811  Biso   1.000  H
  C388     1.0000 0.73627  0.87210  0.98206  Biso   1.000  C
  C389     1.0000 0.73169  0.92928  0.98535  Biso   1.000  C
  C390     1.0000 0.73172  0.92933  0.98535  Biso   1.000  C
  H425     1.0000 0.78632  0.02972  0.98901  Biso   1.000  H
  H426     1.0000 0.78628  0.02972  0.98901  Biso   1.000  H
  C391     1.0000 0.88501  0.09519  0.91221  Biso   1.000  C
  H427     1.0000 0.85870  0.01358  0.93530  Biso   1.000  H
  H428     1.0000 0.93518  0.05219  0.92860  Biso   1.000  H
  C392     1.0000 0.88500  0.09524  0.91221  Biso   1.000  C
  H429     1.0000 0.85868  0.01363  0.93530  Biso   1.000  H
  H430     1.0000 0.93521  0.05224  0.92860  Biso   1.000  H
  H431     1.0000 0.87669  0.15302  0.96400  Biso   1.000  H
  H432     1.0000 0.82569  0.08450  0.95200  Biso   1.000  H
  C393     1.0000 0.87851  0.15302  0.92591  Biso   1.000  C
  C394     1.0000 0.96041  0.13240  0.05609  Biso   1.000  C
  H433     1.0000 0.93068  0.04440  0.03660  Biso   1.000  H
  C395     1.0000 0.96036  0.13240  0.05609  Biso   1.000  C
  H434     1.0000 0.00418  0.09918  0.02981  Biso   1.000  H
  H435     1.0000 0.00420  0.09923  0.02981  Biso   1.000  H
  N15      1.0000 0.70843  0.59108  0.74041  Biso   1.000  N
  H436     1.0000 0.65886  0.59912  0.70960  Biso   1.000  H
  C396     1.0000 0.62422  0.49739  0.71432  Biso   1.000  C
  N16      1.0000 0.70846  0.59113  0.74041  Biso   1.000  N
  H437     1.0000 0.65878  0.59912  0.70960  Biso   1.000  H
  C397     1.0000 0.62424  0.49744  0.71432  Biso   1.000  C
  H438     1.0000 0.49290  0.54089  0.73460  Biso   1.000  H
  H439     1.0000 0.53716  0.57240  0.70981  Biso   1.000  H
  C398     1.0000 0.50735  0.47342  0.71411  Biso   1.000  C
  H440     1.0000 0.49289  0.54094  0.73460  Biso   1.000  H
  H441     1.0000 0.53708  0.57240  0.70981  Biso   1.000  H
  N17      1.0000 0.64245  0.95650  0.99450  Biso   1.000  N
  H442     1.0000 0.54833  0.88279  0.99050  Biso   1.000  H
  N18      1.0000 0.64237  0.95650  0.99450  Biso   1.000  N
  H443     1.0000 0.54836  0.88284  0.99050  Biso   1.000  H
  C399     1.0000 0.55045  0.93288  0.02410  Biso   1.000  C
  C400     1.0000 0.55039  0.93293  0.02410  Biso   1.000  C
  H444     1.0000 0.45237  0.89882  0.97461  Biso   1.000  H
  H445     1.0000 0.46602  0.97188  0.97101  Biso   1.000  H
  H446     1.0000 0.45233  0.89882  0.97461  Biso   1.000  H
  H447     1.0000 0.46605  0.97193  0.97101  Biso   1.000  H
  C401     1.0000 0.45603  0.94412  0.00902  Biso   1.000  C
  H448     1.0000 0.94492  0.55932  0.94710  Biso   1.000  H
  N19      1.0000 0.04013  0.60641  0.95213  Biso   1.000  N
  H449     1.0000 0.09924  0.92798  0.94271  Biso   1.000  H
  H450     1.0000 0.05154  0.94451  0.92670  Biso   1.000  H
  H451     1.0000 0.12917  0.98931  0.92380  Biso   1.000  H
  H452     1.0000 0.09922  0.92803  0.94271  Biso   1.000  H
  H453     1.0000 0.12908  0.98931  0.92380  Biso   1.000  H
  H454     1.0000 0.17750  0.63488  0.79391  Biso   1.000  H
  H455     1.0000 0.14634  0.56900  0.81020  Biso   1.000  H
  H456     1.0000 0.22315  0.60801  0.80449  Biso   1.000  H
  H457     1.0000 0.17753  0.63493  0.79391  Biso   1.000  H
  H458     1.0000 0.75160  0.67448  0.72280  Biso   1.000  H
  H459     1.0000 0.75163  0.67453  0.72280  Biso   1.000  H
  H460     1.0000 0.92525  0.48840  0.77540  Biso   1.000  H
  H461     1.0000 0.86323  0.46368  0.79369  Biso   1.000  H
  C402     1.0000 0.95093  0.49219  0.81431  Biso   1.000  C
  H462     1.0000 0.92516  0.48840  0.77540  Biso   1.000  H
  H463     1.0000 0.86322  0.46373  0.79369  Biso   1.000  H
  C403     1.0000 0.95096  0.49224  0.81431  Biso   1.000  C
  H464     1.0000 0.78532  0.69321  0.86750  Biso   1.000  H
  H465     1.0000 0.81261  0.76752  0.85871  Biso   1.000  H
  C404     1.0000 0.73741  0.69990  0.83500  Biso   1.000  C
  C405     1.0000 0.73737  0.69990  0.83500  Biso   1.000  C
  C406     1.0000 0.90485  0.78980  0.91221  Biso   1.000  C
  H466     1.0000 0.98638  0.84508  0.93530  Biso   1.000  H
  H467     1.0000 0.94781  0.88299  0.92860  Biso   1.000  H
  C407     1.0000 0.90480  0.78980  0.91221  Biso   1.000  C
  H468     1.0000 0.98640  0.84513  0.93530  Biso   1.000  H
  H469     1.0000 0.94779  0.88304  0.92860  Biso   1.000  H
  H470     1.0000 0.84698  0.72372  0.96400  Biso   1.000  H
  H471     1.0000 0.91550  0.74120  0.95200  Biso   1.000  H
  C408     1.0000 0.84702  0.72552  0.92591  Biso   1.000  C
  C409     1.0000 0.86759  0.82800  0.05609  Biso   1.000  C
  H472     1.0000 0.95560  0.88628  0.03660  Biso   1.000  H
  H473     1.0000 0.90086  0.90501  0.02981  Biso   1.000  H
  H474     1.0000 0.95558  0.88633  0.03660  Biso   1.000  H
  H475     1.0000 0.90078  0.90501  0.02981  Biso   1.000  H
  C410     1.0000 0.08452  0.74640  0.98833  Biso   1.000  C
  H476     1.0000 0.69761  0.83050  0.98111  Biso   1.000  H
  C411     1.0000 0.66191  0.91550  0.98833  Biso   1.000  C
  H477     1.0000 0.87919  0.07152  0.89601  Biso   1.000  H
  H478     1.0000 0.92489  0.13869  0.91041  Biso   1.000  H
  C412     1.0000 0.82408  0.10618  0.91559  Biso   1.000  C
  H479     1.0000 0.92495  0.13874  0.91041  Biso   1.000  H
  C413     1.0000 0.82410  0.10623  0.91559  Biso   1.000  C
  H480     1.0000 0.92491  0.13874  0.91041  Biso   1.000  H
  H481     1.0000 0.86982  0.12051  0.91240  Biso   1.000  H
  H482     1.0000 0.82791  0.12820  0.93179  Biso   1.000  H
  H483     1.0000 0.82786  0.12820  0.93179  Biso   1.000  H
  H484     1.0000 0.92448  0.18848  0.92411  Biso   1.000  H
  C414     1.0000 0.83250  0.18289  0.92140  Biso   1.000  C
  H485     1.0000 0.99021  0.17929  0.05230  Biso   1.000  H
  H486     1.0000 0.91609  0.12610  0.05839  Biso   1.000  H
  C415     1.0000 0.98202  0.11601  0.08090  Biso   1.000  C
  H487     1.0000 0.99019  0.17934  0.05230  Biso   1.000  H
  C416     1.0000 0.98197  0.11601  0.08090  Biso   1.000  C
  H488     1.0000 0.65903  0.49729  0.70381  Biso   1.000  H
  H489     1.0000 0.61580  0.46792  0.72889  Biso   1.000  H
  C417     1.0000 0.56093  0.47202  0.69835  Biso   1.000  C
  H490     1.0000 0.65905  0.49734  0.70381  Biso   1.000  H
  H491     1.0000 0.49598  0.44290  0.72860  Biso   1.000  H
  H492     1.0000 0.46759  0.45808  0.70350  Biso   1.000  H
  H493     1.0000 0.46762  0.45813  0.70350  Biso   1.000  H
  H494     1.0000 0.56434  0.90841  0.03530  Biso   1.000  H
  H495     1.0000 0.57310  0.97912  0.02981  Biso   1.000  H
  C418     1.0000 0.47800  0.90491  0.02659  Biso   1.000  C
  H496     1.0000 0.40779  0.92409  0.00979  Biso   1.000  H
  H497     1.0000 0.47576  0.98971  0.01510  Biso   1.000  H
  H498     1.0000 0.40781  0.92414  0.00979  Biso   1.000  H
  H499     1.0000 0.47567  0.98971  0.01510  Biso   1.000  H
  C419     1.0000 0.03213  0.58089  0.97888  Biso   1.000  C
  C420     1.0000 0.03215  0.58094  0.97888  Biso   1.000  C
  H500     1.0000 0.99775  0.51931  0.81059  Biso   1.000  H
  H501     1.0000 0.93985  0.44650  0.81640  Biso   1.000  H
  H502     1.0000 0.94059  0.50758  0.82991  Biso   1.000  H
  H503     1.0000 0.99766  0.51931  0.81059  Biso   1.000  H
  H504     1.0000 0.93976  0.44650  0.81640  Biso   1.000  H
  H505     1.0000 0.94061  0.50763  0.82991  Biso   1.000  H
  H506     1.0000 0.75115  0.72512  0.81920  Biso   1.000  H
  H507     1.0000 0.70450  0.70709  0.84349  Biso   1.000  H
  H508     1.0000 0.71848  0.65331  0.83120  Biso   1.000  H
  H509     1.0000 0.70453  0.70714  0.84349  Biso   1.000  H
  H510     1.0000 0.92856  0.80772  0.89601  Biso   1.000  H
  H511     1.0000 0.86131  0.78620  0.91041  Biso   1.000  H
  C421     1.0000 0.89380  0.71788  0.91559  Biso   1.000  C
  H512     1.0000 0.92852  0.80772  0.89601  Biso   1.000  H
  H513     1.0000 0.86127  0.78620  0.91041  Biso   1.000  H
  C422     1.0000 0.89378  0.71793  0.91559  Biso   1.000  C
  H514     1.0000 0.87956  0.74934  0.91240  Biso   1.000  H
  H515     1.0000 0.87182  0.69970  0.93179  Biso   1.000  H
  H516     1.0000 0.87178  0.69970  0.93179  Biso   1.000  H
  H517     1.0000 0.81152  0.73601  0.92411  Biso   1.000  H
  C423     1.0000 0.81711  0.64961  0.92140  Biso   1.000  C
  H518     1.0000 0.82069  0.81092  0.05230  Biso   1.000  H
  H519     1.0000 0.87393  0.79000  0.05839  Biso   1.000  H
  C424     1.0000 0.88400  0.86601  0.08090  Biso   1.000  C
  N20      1.0000 0.04356  0.68592  0.99450  Biso   1.000  N
  H520     1.0000 0.12829  0.75668  0.98531  Biso   1.000  H
  N21      1.0000 0.04347  0.68592  0.99450  Biso   1.000  N
  H521     1.0000 0.12831  0.75673  0.98531  Biso   1.000  H
  H522     1.0000 0.62838  0.87170  0.98531  Biso   1.000  H
  H523     1.0000 0.78350  0.06378  0.91550  Biso   1.000  H
  H524     1.0000 0.82332  0.13329  0.90170  Biso   1.000  H
  H525     1.0000 0.78348  0.06383  0.91550  Biso   1.000  H
  H526     1.0000 0.82328  0.13329  0.90170  Biso   1.000  H
  H527     1.0000 0.78678  0.14768  0.92130  Biso   1.000  H
  H528     1.0000 0.84322  0.20571  0.90501  Biso   1.000  H
  H529     1.0000 0.83910  0.21390  0.93501  Biso   1.000  H
  H530     1.0000 0.97780  0.14148  0.09470  Biso   1.000  H
  H531     1.0000 0.95429  0.06922  0.08450  Biso   1.000  H
  H532     1.0000 0.97778  0.14153  0.09470  Biso   1.000  H
  H533     1.0000 0.02772  0.12680  0.07949  Biso   1.000  H
  H534     1.0000 0.02768  0.12680  0.07949  Biso   1.000  H
  H535     1.0000 0.56991  0.49958  0.68310  Biso   1.000  H
  H536     1.0000 0.54597  0.42662  0.69270  Biso   1.000  H
  H537     1.0000 0.56989  0.49963  0.68310  Biso   1.000  H
  H538     1.0000 0.54593  0.42662  0.69270  Biso   1.000  H
  H539     1.0000 0.46660  0.90781  0.04440  Biso   1.000  H
  H540     1.0000 0.45495  0.85822  0.02160  Biso   1.000  H
  H541     1.0000 0.98475  0.55862  0.98361  Biso   1.000  H
  C425     1.0000 0.07044  0.64142  0.99605  Biso   1.000  C
  C426     1.0000 0.05608  0.53330  0.98142  Biso   1.000  C
  H542     1.0000 0.93622  0.71968  0.91550  Biso   1.000  H
  H543     1.0000 0.86672  0.69001  0.90170  Biso   1.000  H
  H544     1.0000 0.93624  0.71973  0.91550  Biso   1.000  H
  H545     1.0000 0.86667  0.69001  0.90170  Biso   1.000  H
  H546     1.0000 0.85230  0.63912  0.92130  Biso   1.000  H
  H547     1.0000 0.79428  0.63752  0.90501  Biso   1.000  H
  H548     1.0000 0.78611  0.62524  0.93501  Biso   1.000  H
  H549     1.0000 0.85850  0.83629  0.09470  Biso   1.000  H
  H550     1.0000 0.87321  0.90092  0.07949  Biso   1.000  H
  H551     1.0000 0.93078  0.88508  0.08450  Biso   1.000  H
  H552     1.0000 0.85853  0.83634  0.09470  Biso   1.000  H
  H553     1.0000 0.93080  0.88513  0.08450  Biso   1.000  H
  H554     1.0000 0.11721  0.66549  0.99050  Biso   1.000  H
  H555     1.0000 0.11723  0.66554  0.99050  Biso   1.000  H
  C427     1.0000 0.06709  0.61750  0.02410  Biso   1.000  C
  H556     1.0000 0.10127  0.55352  0.97461  Biso   1.000  H
  H557     1.0000 0.02809  0.49409  0.97101  Biso   1.000  H
  H558     1.0000 0.10123  0.55352  0.97461  Biso   1.000  H
  H559     1.0000 0.02811  0.49414  0.97101  Biso   1.000  H
  C428     1.0000 0.05595  0.51192  0.00902  Biso   1.000  C
  H560     1.0000 0.09161  0.65590  0.03530  Biso   1.000  H
  H561     1.0000 0.02096  0.59402  0.02981  Biso   1.000  H
  C429     1.0000 0.09514  0.57310  0.02659  Biso   1.000  C
  H562     1.0000 0.02088  0.59402  0.02981  Biso   1.000  H
  C430     1.0000 0.09506  0.57310  0.02659  Biso   1.000  C
  H563     1.0000 0.07592  0.48370  0.00979  Biso   1.000  H
  H564     1.0000 0.01033  0.48600  0.01510  Biso   1.000  H
  H565     1.0000 0.07588  0.48370  0.00979  Biso   1.000  H
  H566     1.0000 0.09220  0.55882  0.04440  Biso   1.000  H
  H567     1.0000 0.14181  0.59672  0.02160  Biso   1.000  H
  C431     1.0000 0.10463  0.19862  0.77254  Biso   1.000  C
  C432     1.0000 0.16380  0.26939  0.77451  Biso   1.000  C
  C433     1.0000 0.16378  0.26944  0.77451  Biso   1.000  C
  H568     1.0000 0.07481  0.19832  0.75930  Biso   1.000  H
  H569     1.0000 0.12119  0.16980  0.76660  Biso   1.000  H
  C434     1.0000 0.06462  0.16860  0.79642  Biso   1.000  C
  C435     1.0000 0.06458  0.16860  0.79642  Biso   1.000  C
  C436     1.0000 0.20092  0.29830  0.74906  Biso   1.000  C
  C437     1.0000 0.20088  0.29830  0.74906  Biso   1.000  C
  C438     1.0000 0.14021  0.31588  0.78516  Biso   1.000  C
  C439     1.0000 0.21269  0.27408  0.79627  Biso   1.000  C
  C440     1.0000 0.14019  0.31593  0.78516  Biso   1.000  C
  C441     1.0000 0.21271  0.27413  0.79627  Biso   1.000  C
  C442     1.0000 0.10459  0.19862  0.77254  Biso   1.000  C
  H570     1.0000 0.05291  0.20002  0.80380  Biso   1.000  H
  H571     1.0000 0.09251  0.16261  0.80891  Biso   1.000  H
  C443     1.0000 0.00240  0.10358  0.79300  Biso   1.000  C
  H572     1.0000 0.09246  0.16261  0.80891  Biso   1.000  H
  C444     1.0000 0.00238  0.10363  0.79300  Biso   1.000  C
  C445     1.0000 0.25941  0.36762  0.75059  Biso   1.000  C
  C446     1.0000 0.25937  0.36762  0.75059  Biso   1.000  C
  H573     1.0000 0.21628  0.26899  0.74250  Biso   1.000  H
  H574     1.0000 0.16951  0.29810  0.73660  Biso   1.000  H
  H575     1.0000 0.21630  0.26904  0.74250  Biso   1.000  H
  H576     1.0000 0.16947  0.29810  0.73660  Biso   1.000  H
  C447     1.0000 0.16388  0.33521  0.81082  Biso   1.000  C
  C448     1.0000 0.09761  0.33181  0.77345  Biso   1.000  C
  C449     1.0000 0.09757  0.33181  0.77345  Biso   1.000  C
  C450     1.0000 0.25559  0.24951  0.79669  Biso   1.000  C
  C451     1.0000 0.21170  0.31398  0.81768  Biso   1.000  C
  C452     1.0000 0.21169  0.31403  0.81768  Biso   1.000  C
  H577     1.0000 0.01329  0.07182  0.78551  Biso   1.000  H
  H578     1.0000 0.97330  0.10922  0.78100  Biso   1.000  H
  C453     1.0000 0.96349  0.07411  0.81949  Biso   1.000  C
  C454     1.0000 0.29399  0.39629  0.72496  Biso   1.000  C
  H579     1.0000 0.29171  0.36752  0.76259  Biso   1.000  H
  H580     1.0000 0.24441  0.39669  0.75769  Biso   1.000  H
  C455     1.0000 0.29401  0.39634  0.72496  Biso   1.000  C
  H581     1.0000 0.29167  0.36752  0.76259  Biso   1.000  H
  H582     1.0000 0.24439  0.39674  0.75769  Biso   1.000  H
  C456     1.0000 0.14362  0.37651  0.82338  Biso   1.000  C
  C457     1.0000 0.14358  0.37651  0.82338  Biso   1.000  C
  C458     1.0000 0.07601  0.37062  0.78618  Biso   1.000  C
  H583     1.0000 0.08259  0.31648  0.75680  Biso   1.000  H
  C459     1.0000 0.07597  0.37062  0.78618  Biso   1.000  C
  H584     1.0000 0.08258  0.31653  0.75680  Biso   1.000  H
  C460     1.0000 0.27022  0.20871  0.77838  Biso   1.000  C
  C461     1.0000 0.30251  0.26619  0.81804  Biso   1.000  C
  C462     1.0000 0.27018  0.20871  0.77838  Biso   1.000  C
  C463     1.0000 0.30249  0.26624  0.81804  Biso   1.000  C
  C464     1.0000 0.25381  0.32632  0.83875  Biso   1.000  C
  C465     1.0000 0.25377  0.32632  0.83875  Biso   1.000  C
  H585     1.0000 0.95131  0.10468  0.82679  Biso   1.000  H
  H586     1.0000 0.99179  0.06792  0.83140  Biso   1.000  H
  H587     1.0000 0.92402  0.03211  0.81630  Biso   1.000  H
  H588     1.0000 0.95129  0.10473  0.82679  Biso   1.000  H
  H589     1.0000 0.92398  0.03211  0.81630  Biso   1.000  H
  H590     1.0000 0.31252  0.36942  0.71860  Biso   1.000  H
  H591     1.0000 0.26091  0.39259  0.71250  Biso   1.000  H
  C466     1.0000 0.34791  0.46650  0.72597  Biso   1.000  C
  H592     1.0000 0.31247  0.36942  0.71860  Biso   1.000  H
  H593     1.0000 0.26089  0.39264  0.71250  Biso   1.000  H
  C467     1.0000 0.34787  0.46650  0.72597  Biso   1.000  C
  C468     1.0000 0.09991  0.39099  0.81167  Biso   1.000  C
  H594     1.0000 0.16030  0.39379  0.83970  Biso   1.000  H
  C469     1.0000 0.09989  0.39104  0.81167  Biso   1.000  C
  H595     1.0000 0.16029  0.39384  0.83970  Biso   1.000  H
  C470     1.0000 0.03289  0.39189  0.77384  Biso   1.000  C
  C471     1.0000 0.03292  0.39194  0.77384  Biso   1.000  C
  C472     1.0000 0.23928  0.17460  0.75555  Biso   1.000  C
  C473     1.0000 0.32741  0.20691  0.78721  Biso   1.000  C
  C474     1.0000 0.32736  0.20691  0.78721  Biso   1.000  C
  C475     1.0000 0.35140  0.24192  0.81301  Biso   1.000  C
  C476     1.0000 0.30001  0.30350  0.83869  Biso   1.000  C
  C477     1.0000 0.29997  0.30350  0.83869  Biso   1.000  C
  C478     1.0000 0.26143  0.36742  0.86322  Biso   1.000  C
  C479     1.0000 0.26139  0.36742  0.86322  Biso   1.000  C
  H596     1.0000 0.32960  0.49432  0.73069  Biso   1.000  H
  H597     1.0000 0.38050  0.47130  0.73861  Biso   1.000  H
  H598     1.0000 0.36878  0.47979  0.70931  Biso   1.000  H
  H599     1.0000 0.36881  0.47984  0.70931  Biso   1.000  H
  H600     1.0000 0.08480  0.41551  0.82091  Biso   1.000  H
  N22      1.0000 0.01958  0.38560  0.74982  Biso   1.000  N
  H601     1.0000 0.01409  0.41112  0.78419  Biso   1.000  H
  C480     1.0000 0.26629  0.14099  0.74236  Biso   1.000  C
  H602     1.0000 0.20142  0.17430  0.74929  Biso   1.000  H
  C481     1.0000 0.26631  0.14104  0.74236  Biso   1.000  C
  H603     1.0000 0.20137  0.17430  0.74929  Biso   1.000  H
  C482     1.0000 0.35249  0.17300  0.77397  Biso   1.000  C
  C483     1.0000 0.42359  0.29920  0.80953  Biso   1.000  C
  C484     1.0000 0.34690  0.18958  0.83221  Biso   1.000  C
  C485     1.0000 0.34688  0.18963  0.83221  Biso   1.000  C
  C486     1.0000 0.33793  0.32492  0.86366  Biso   1.000  C
  C487     1.0000 0.33789  0.32492  0.86366  Biso   1.000  C
  C488     1.0000 0.19340  0.32772  0.87977  Biso   1.000  C
  C489     1.0000 0.31608  0.36228  0.87717  Biso   1.000  C
  C490     1.0000 0.28378  0.43989  0.85784  Biso   1.000  C
  C491     1.0000 0.31611  0.36233  0.87717  Biso   1.000  C
  C492     1.0000 0.28381  0.43994  0.85784  Biso   1.000  C
  C493     1.0000 0.97541  0.40772  0.74080  Biso   1.000  C
  C494     1.0000 0.32241  0.14009  0.75067  Biso   1.000  C
  H604     1.0000 0.24552  0.11821  0.72731  Biso   1.000  H
  C495     1.0000 0.32239  0.14014  0.75067  Biso   1.000  C
  H605     1.0000 0.24547  0.11821  0.72731  Biso   1.000  H
  H606     1.0000 0.38952  0.17180  0.78040  Biso   1.000  H
  H607     1.0000 0.38948  0.17180  0.78040  Biso   1.000  H
  H608     1.0000 0.45089  0.27992  0.80471  Biso   1.000  H
  H609     1.0000 0.43952  0.32092  0.82619  Biso   1.000  H
  C496     1.0000 0.43491  0.35089  0.79031  Biso   1.000  C
  H610     1.0000 0.43947  0.32092  0.82619  Biso   1.000  H
  C497     1.0000 0.43489  0.35094  0.79031  Biso   1.000  C
  H611     1.0000 0.37462  0.17210  0.82590  Biso   1.000  H
  H612     1.0000 0.36552  0.21160  0.84860  Biso   1.000  H
  C498     1.0000 0.27980  0.13349  0.83695  Biso   1.000  C
  H613     1.0000 0.37458  0.17210  0.82590  Biso   1.000  H
  H614     1.0000 0.36548  0.21160  0.84860  Biso   1.000  H
  C499     1.0000 0.27976  0.13349  0.83695  Biso   1.000  C
  C500     1.0000 0.39067  0.32038  0.87319  Biso   1.000  C
  C501     1.0000 0.39070  0.32043  0.87319  Biso   1.000  C
  H615     1.0000 0.15920  0.33311  0.87100  Biso   1.000  H
  H616     1.0000 0.20091  0.34939  0.89651  Biso   1.000  H
  C502     1.0000 0.16422  0.24921  0.88466  Biso   1.000  C
  H617     1.0000 0.20089  0.34944  0.89651  Biso   1.000  H
  C503     1.0000 0.16418  0.24921  0.88466  Biso   1.000  C
  C504     1.0000 0.34181  0.38830  0.90187  Biso   1.000  C
  C505     1.0000 0.34176  0.38830  0.90187  Biso   1.000  C
  C506     1.0000 0.33748  0.47290  0.83929  Biso   1.000  C
  H618     1.0000 0.24569  0.44268  0.85170  Biso   1.000  H
  H619     1.0000 0.29802  0.46431  0.87400  Biso   1.000  H
  H620     1.0000 0.24567  0.44273  0.85170  Biso   1.000  H
  H621     1.0000 0.29798  0.46431  0.87400  Biso   1.000  H
  C507     1.0000 0.01370  0.47150  0.72419  Biso   1.000  C
  H622     1.0000 0.95502  0.41711  0.75570  Biso   1.000  H
  C508     1.0000 0.92018  0.35149  0.72425  Biso   1.000  C
  C509     1.0000 0.92020  0.35154  0.72425  Biso   1.000  C
  H623     1.0000 0.95498  0.41711  0.75570  Biso   1.000  H
  C510     1.0000 0.01366  0.47150  0.72419  Biso   1.000  C
  C511     1.0000 0.35069  0.10678  0.73586  Biso   1.000  C
  C512     1.0000 0.35067  0.10683  0.73586  Biso   1.000  C
  H624     1.0000 0.42869  0.33171  0.77310  Biso   1.000  H
  C513     1.0000 0.50261  0.41242  0.79160  Biso   1.000  C
  H625     1.0000 0.40133  0.36392  0.79271  Biso   1.000  H
  H626     1.0000 0.40129  0.36392  0.79271  Biso   1.000  H
  C514     1.0000 0.50265  0.41242  0.79160  Biso   1.000  C
  H627     1.0000 0.25799  0.11651  0.82040  Biso   1.000  H
  H628     1.0000 0.25441  0.14992  0.84630  Biso   1.000  H
  C515     1.0000 0.27763  0.07491  0.85261  Biso   1.000  C
  C516     1.0000 0.27758  0.07491  0.85261  Biso   1.000  C
  H629     1.0000 0.41119  0.30260  0.86310  Biso   1.000  H
  C517     1.0000 0.41371  0.34310  0.89866  Biso   1.000  C
  C518     1.0000 0.41367  0.34310  0.89866  Biso   1.000  C
  C519     1.0000 0.10290  0.19482  0.90321  Biso   1.000  C
  H630     1.0000 0.20272  0.24611  0.89010  Biso   1.000  H
  H631     1.0000 0.15307  0.22968  0.86750  Biso   1.000  H
  H632     1.0000 0.20268  0.24611  0.89010  Biso   1.000  H
  H633     1.0000 0.15310  0.22973  0.86750  Biso   1.000  H
  C520     1.0000 0.38899  0.37731  0.91259  Biso   1.000  C
  H634     1.0000 0.32662  0.41312  0.91079  Biso   1.000  H
  H635     1.0000 0.32658  0.41312  0.91079  Biso   1.000  H
  H636     1.0000 0.32678  0.44648  0.82360  Biso   1.000  H
  H637     1.0000 0.37860  0.47789  0.84640  Biso   1.000  H
  C521     1.0000 0.34621  0.54312  0.83320  Biso   1.000  C
  H638     1.0000 0.32681  0.44653  0.82360  Biso   1.000  H
  H639     1.0000 0.37858  0.47794  0.84640  Biso   1.000  H
  C522     1.0000 0.34617  0.54312  0.83320  Biso   1.000  C
  H640     1.0000 0.04798  0.50711  0.73460  Biso   1.000  H
  H641     1.0000 0.03531  0.46291  0.70981  Biso   1.000  H
  H642     1.0000 0.03527  0.46291  0.70981  Biso   1.000  H
  C523     1.0000 0.96610  0.49272  0.71411  Biso   1.000  C
  C524     1.0000 0.96614  0.49272  0.71411  Biso   1.000  C
  C525     1.0000 0.87321  0.37581  0.71432  Biso   1.000  C
  N23      1.0000 0.88271  0.29161  0.74041  Biso   1.000  N
  H643     1.0000 0.94029  0.34120  0.70960  Biso   1.000  H
  C526     1.0000 0.87317  0.37581  0.71432  Biso   1.000  C
  N24      1.0000 0.88267  0.29161  0.74041  Biso   1.000  N
  N25      1.0000 0.40890  0.11731  0.74041  Biso   1.000  N
  H644     1.0000 0.32552  0.07711  0.72280  Biso   1.000  H
  H645     1.0000 0.32548  0.07711  0.72280  Biso   1.000  H
  C527     1.0000 0.50781  0.45871  0.81431  Biso   1.000  C
  H646     1.0000 0.51159  0.43679  0.77540  Biso   1.000  H
  H647     1.0000 0.53628  0.39948  0.79369  Biso   1.000  H
  H648     1.0000 0.51162  0.43684  0.77540  Biso   1.000  H
  H649     1.0000 0.53630  0.39953  0.79369  Biso   1.000  H
  H650     1.0000 0.23249  0.04510  0.85871  Biso   1.000  H
  C528     1.0000 0.30010  0.03751  0.83500  Biso   1.000  C
  H651     1.0000 0.30680  0.09209  0.86750  Biso   1.000  H
  H652     1.0000 0.30679  0.09214  0.86750  Biso   1.000  H
  H653     1.0000 0.44570  0.33511  0.90611  Biso   1.000  H
  H654     1.0000 0.07191  0.20921  0.89771  Biso   1.000  H
  H655     1.0000 0.09211  0.15732  0.89181  Biso   1.000  H
  C529     1.0000 0.05538  0.14848  0.92639  Biso   1.000  C
  H656     1.0000 0.07186  0.20921  0.89771  Biso   1.000  H
  H657     1.0000 0.09207  0.15732  0.89181  Biso   1.000  H
  C530     1.0000 0.05541  0.14853  0.92639  Biso   1.000  C
  C531     1.0000 0.41228  0.39818  0.93938  Biso   1.000  C
  C532     1.0000 0.41230  0.39823  0.93938  Biso   1.000  C
  H658     1.0000 0.30260  0.53912  0.83111  Biso   1.000  H
  H659     1.0000 0.36868  0.57318  0.84750  Biso   1.000  H
  C533     1.0000 0.38748  0.57228  0.80800  Biso   1.000  C
  H660     1.0000 0.36870  0.57323  0.84750  Biso   1.000  H
  C534     1.0000 0.38750  0.57233  0.80800  Biso   1.000  C
  H661     1.0000 0.94691  0.50401  0.72860  Biso   1.000  H
  H662     1.0000 0.99051  0.53238  0.70350  Biso   1.000  H
  C535     1.0000 0.91108  0.43909  0.69835  Biso   1.000  C
  H663     1.0000 0.94687  0.50401  0.72860  Biso   1.000  H
  H664     1.0000 0.99049  0.53243  0.70350  Biso   1.000  H
  C536     1.0000 0.91110  0.43914  0.69835  Biso   1.000  C
  H665     1.0000 0.83829  0.34100  0.70381  Biso   1.000  H
  H666     1.0000 0.85211  0.38420  0.72889  Biso   1.000  H
  H667     1.0000 0.83834  0.34100  0.70381  Biso   1.000  H
  H668     1.0000 0.85206  0.38420  0.72889  Biso   1.000  H
  C537     1.0000 0.89320  0.24391  0.73586  Biso   1.000  C
  C538     1.0000 0.43132  0.07981  0.72425  Biso   1.000  C
  C539     1.0000 0.43128  0.07981  0.72425  Biso   1.000  C
  H669     1.0000 0.49239  0.43299  0.82991  Biso   1.000  H
  H670     1.0000 0.48071  0.47839  0.81059  Biso   1.000  H
  H671     1.0000 0.55353  0.49332  0.81640  Biso   1.000  H
  H672     1.0000 0.48069  0.47844  0.81059  Biso   1.000  H
  H673     1.0000 0.55348  0.49332  0.81640  Biso   1.000  H
  H674     1.0000 0.27489  0.02602  0.81920  Biso   1.000  H
  H675     1.0000 0.34670  0.06522  0.83120  Biso   1.000  H
  H676     1.0000 0.29294  0.99740  0.84349  Biso   1.000  H
  H677     1.0000 0.05550  0.10702  0.92670  Biso   1.000  H
  H678     1.0000 0.07202  0.17120  0.94271  Biso   1.000  H
  H679     1.0000 0.01068  0.13979  0.92380  Biso   1.000  H
  H680     1.0000 0.07198  0.17120  0.94271  Biso   1.000  H
  H681     1.0000 0.01071  0.13984  0.92380  Biso   1.000  H
  N26      1.0000 0.39361  0.43369  0.95213  Biso   1.000  N
  H682     1.0000 0.44071  0.38560  0.94710  Biso   1.000  H
  N27      1.0000 0.39359  0.43374  0.95213  Biso   1.000  N
  H683     1.0000 0.44067  0.38560  0.94710  Biso   1.000  H
  H684     1.0000 0.36512  0.54262  0.79391  Biso   1.000  H
  H685     1.0000 0.43098  0.57728  0.81020  Biso   1.000  H
  H686     1.0000 0.39201  0.61508  0.80449  Biso   1.000  H
  H687     1.0000 0.36508  0.54262  0.79391  Biso   1.000  H
  H688     1.0000 0.43100  0.57733  0.81020  Biso   1.000  H
  H689     1.0000 0.39199  0.61513  0.80449  Biso   1.000  H
  H690     1.0000 0.92968  0.43010  0.68310  Biso   1.000  H
  H691     1.0000 0.88071  0.45412  0.69270  Biso   1.000  H
  C540     1.0000 0.85988  0.18229  0.75067  Biso   1.000  C
  H692     1.0000 0.92292  0.24841  0.72280  Biso   1.000  H
  C541     1.0000 0.85991  0.18234  0.75067  Biso   1.000  C
  H693     1.0000 0.92287  0.24841  0.72280  Biso   1.000  H
  C542     1.0000 0.43232  0.02462  0.74080  Biso   1.000  C
  C543     1.0000 0.50261  0.12680  0.71432  Biso   1.000  C
  H694     1.0000 0.40089  0.05968  0.70960  Biso   1.000  H
  C544     1.0000 0.43228  0.02462  0.74080  Biso   1.000  C
  C545     1.0000 0.50257  0.12680  0.71432  Biso   1.000  C
  H695     1.0000 0.40091  0.05973  0.70960  Biso   1.000  H
  C546     1.0000 0.41912  0.45122  0.97888  Biso   1.000  C
  C547     1.0000 0.41907  0.45122  0.97888  Biso   1.000  C
  C548     1.0000 0.82700  0.17949  0.77397  Biso   1.000  C
  C549     1.0000 0.85898  0.12530  0.74236  Biso   1.000  C
  C550     1.0000 0.82698  0.17954  0.77397  Biso   1.000  C
  C551     1.0000 0.85903  0.12530  0.74236  Biso   1.000  C
  H696     1.0000 0.46210  0.04500  0.75570  Biso   1.000  H
  H697     1.0000 0.46206  0.04500  0.75570  Biso   1.000  H
  N28      1.0000 0.36606  0.98042  0.74982  Biso   1.000  N
  C552     1.0000 0.45780  0.98632  0.72419  Biso   1.000  C
  N29      1.0000 0.36597  0.98042  0.74982  Biso   1.000  N
  C553     1.0000 0.52799  0.08890  0.69835  Biso   1.000  C
  H698     1.0000 0.50272  0.16171  0.70381  Biso   1.000  H
  H699     1.0000 0.53209  0.14788  0.72889  Biso   1.000  H
  H700     1.0000 0.50268  0.16171  0.70381  Biso   1.000  H
  H701     1.0000 0.53208  0.14793  0.72889  Biso   1.000  H
  C554     1.0000 0.35861  0.42900  0.99605  Biso   1.000  C
  H702     1.0000 0.44141  0.42610  0.98361  Biso   1.000  H
  C555     1.0000 0.46671  0.52279  0.98142  Biso   1.000  C
  C556     1.0000 0.35857  0.42900  0.99605  Biso   1.000  C
  H703     1.0000 0.44137  0.42610  0.98361  Biso   1.000  H
  C557     1.0000 0.46669  0.52284  0.98142  Biso   1.000  C
  C558     1.0000 0.79309  0.12051  0.78721  Biso   1.000  C
  H704     1.0000 0.82819  0.21770  0.78040  Biso   1.000  H
  H705     1.0000 0.88178  0.12730  0.72731  Biso   1.000  H
  C559     1.0000 0.82541  0.06472  0.75555  Biso   1.000  C
  C560     1.0000 0.82545  0.06472  0.75555  Biso   1.000  C
  C561     1.0000 0.35900  0.96709  0.77384  Biso   1.000  C
  C562     1.0000 0.35903  0.96714  0.77384  Biso   1.000  C
  C563     1.0000 0.52662  0.03391  0.71411  Biso   1.000  C
  H706     1.0000 0.45916  0.95201  0.73460  Biso   1.000  H
  H707     1.0000 0.42766  0.96469  0.70981  Biso   1.000  H
  H708     1.0000 0.45907  0.95201  0.73460  Biso   1.000  H
  H709     1.0000 0.42759  0.96474  0.70981  Biso   1.000  H
  C564     1.0000 0.52658  0.03391  0.71411  Biso   1.000  C
  H710     1.0000 0.50041  0.07032  0.68310  Biso   1.000  H
  H711     1.0000 0.57339  0.11931  0.69270  Biso   1.000  H
  H712     1.0000 0.50045  0.07032  0.68310  Biso   1.000  H
  H713     1.0000 0.33451  0.45172  0.99050  Biso   1.000  H
  N30      1.0000 0.31408  0.35758  0.99450  Biso   1.000  N
  N31      1.0000 0.31410  0.35763  0.99450  Biso   1.000  N
  C565     1.0000 0.38250  0.44962  0.02410  Biso   1.000  C
  H714     1.0000 0.44651  0.54771  0.97461  Biso   1.000  H
  H715     1.0000 0.50590  0.53398  0.97101  Biso   1.000  H
  H716     1.0000 0.44647  0.54771  0.97461  Biso   1.000  H
  H717     1.0000 0.50589  0.53403  0.97101  Biso   1.000  H
  C566     1.0000 0.48809  0.54401  0.00902  Biso   1.000  C
  C567     1.0000 0.79130  0.06148  0.77838  Biso   1.000  C
  C568     1.0000 0.75810  0.10952  0.81301  Biso   1.000  C
  C569     1.0000 0.79128  0.06153  0.77838  Biso   1.000  C
  H718     1.0000 0.82572  0.02712  0.74929  Biso   1.000  H
  H719     1.0000 0.82568  0.02712  0.74929  Biso   1.000  H
  C570     1.0000 0.29464  0.92399  0.78618  Biso   1.000  C
  H720     1.0000 0.39701  0.98592  0.78419  Biso   1.000  H
  C571     1.0000 0.29466  0.92404  0.78618  Biso   1.000  C
  H721     1.0000 0.55710  0.05309  0.72860  Biso   1.000  H
  H722     1.0000 0.54188  0.00949  0.70350  Biso   1.000  H
  H723     1.0000 0.54190  0.00954  0.70350  Biso   1.000  H
  H724     1.0000 0.55708  0.05314  0.72860  Biso   1.000  H
  H725     1.0000 0.55713  0.05314  0.72860  Biso   1.000  H
  C572     1.0000 0.25361  0.33810  0.98833  Biso   1.000  C
  C573     1.0000 0.25356  0.33810  0.98833  Biso   1.000  C
  H726     1.0000 0.34409  0.43569  0.03530  Biso   1.000  H
  H727     1.0000 0.40600  0.42690  0.02981  Biso   1.000  H
  C574     1.0000 0.42690  0.52199  0.02659  Biso   1.000  C
  H728     1.0000 0.34412  0.43574  0.03530  Biso   1.000  H
  H729     1.0000 0.40596  0.42690  0.02981  Biso   1.000  H
  C575     1.0000 0.42689  0.52204  0.02659  Biso   1.000  C
  C576     1.0000 0.42693  0.52204  0.02659  Biso   1.000  C
  H730     1.0000 0.51629  0.59221  0.00979  Biso   1.000  H
  H731     1.0000 0.51399  0.52429  0.01510  Biso   1.000  H
  H732     1.0000 0.51402  0.52434  0.01510  Biso   1.000  H
  H733     1.0000 0.51634  0.59221  0.00979  Biso   1.000  H
  C577     1.0000 0.75051  0.00609  0.79669  Biso   1.000  C
  C578     1.0000 0.75049  0.00614  0.79669  Biso   1.000  C
  C579     1.0000 0.73382  0.03631  0.81804  Biso   1.000  C
  C580     1.0000 0.70080  0.12440  0.80953  Biso   1.000  C
  C581     1.0000 0.81042  0.15732  0.83221  Biso   1.000  C
  C582     1.0000 0.73378  0.03631  0.81804  Biso   1.000  C
  C583     1.0000 0.70084  0.12440  0.80953  Biso   1.000  C
  C584     1.0000 0.81037  0.15732  0.83221  Biso   1.000  C
  C585     1.0000 0.23420  0.90241  0.77345  Biso   1.000  C
  C586     1.0000 0.29113  0.90012  0.81167  Biso   1.000  C
  H734     1.0000 0.24329  0.37162  0.98531  Biso   1.000  H
  C587     1.0000 0.19759  0.26829  0.98535  Biso   1.000  C
  C588     1.0000 0.19762  0.26834  0.98535  Biso   1.000  C
  H735     1.0000 0.44121  0.53338  0.04440  Biso   1.000  H
  H736     1.0000 0.40330  0.54511  0.02160  Biso   1.000  H
  H737     1.0000 0.44119  0.53343  0.04440  Biso   1.000  H
  C589     1.0000 0.72590  0.93862  0.79627  Biso   1.000  C
  C590     1.0000 0.69653  0.99650  0.83869  Biso   1.000  C
  H738     1.0000 0.67909  0.11861  0.82619  Biso   1.000  H
  H739     1.0000 0.72012  0.17100  0.80471  Biso   1.000  H
  C591     1.0000 0.64911  0.08400  0.79031  Biso   1.000  C
  H740     1.0000 0.67913  0.11861  0.82619  Biso   1.000  H
  H741     1.0000 0.72007  0.17100  0.80471  Biso   1.000  H
  C592     1.0000 0.64907  0.08400  0.79031  Biso   1.000  C
  H742     1.0000 0.82791  0.20251  0.82590  Biso   1.000  H
  H743     1.0000 0.78839  0.15392  0.84860  Biso   1.000  H
  C593     1.0000 0.86649  0.14628  0.83695  Biso   1.000  C
  H744     1.0000 0.82787  0.20251  0.82590  Biso   1.000  H
  C594     1.0000 0.86651  0.14633  0.83695  Biso   1.000  C
  H745     1.0000 0.23395  0.91740  0.75680  Biso   1.000  H
  C595     1.0000 0.17574  0.85981  0.78516  Biso   1.000  C
  H746     1.0000 0.23386  0.91740  0.75680  Biso   1.000  H
  C596     1.0000 0.23291  0.85642  0.82338  Biso   1.000  C
  H747     1.0000 0.33072  0.91520  0.82091  Biso   1.000  H
  C597     1.0000 0.20210  0.21070  0.98682  Biso   1.000  C
  C598     1.0000 0.13581  0.26374  0.98206  Biso   1.000  C
  C599     1.0000 0.20206  0.21070  0.98682  Biso   1.000  C
  C600     1.0000 0.13576  0.26374  0.98206  Biso   1.000  C
  C601     1.0000 0.73061  0.89442  0.77451  Biso   1.000  C
  C602     1.0000 0.68603  0.89772  0.81768  Biso   1.000  C
  C603     1.0000 0.67375  0.92748  0.83875  Biso   1.000  C
  C604     1.0000 0.67368  0.92753  0.83875  Biso   1.000  C
  C605     1.0000 0.67511  0.01298  0.86366  Biso   1.000  C
  C606     1.0000 0.67513  0.01303  0.86366  Biso   1.000  C
  C607     1.0000 0.67509  0.01303  0.86366  Biso   1.000  C
  H748     1.0000 0.63611  0.03741  0.79271  Biso   1.000  H
  H749     1.0000 0.66828  0.09699  0.77310  Biso   1.000  H
  C608     1.0000 0.58759  0.09019  0.79160  Biso   1.000  C
  H750     1.0000 0.63606  0.03741  0.79271  Biso   1.000  H
  H751     1.0000 0.66830  0.09704  0.77310  Biso   1.000  H
  H752     1.0000 0.88351  0.14148  0.82040  Biso   1.000  H
  H753     1.0000 0.85009  0.10448  0.84630  Biso   1.000  H
  C609     1.0000 0.92511  0.20271  0.85261  Biso   1.000  C
  H754     1.0000 0.88349  0.14153  0.82040  Biso   1.000  H
  H755     1.0000 0.85011  0.10453  0.84630  Biso   1.000  H
  C610     1.0000 0.92507  0.20271  0.85261  Biso   1.000  C
  C611     1.0000 0.17132  0.83609  0.81082  Biso   1.000  C
  C612     1.0000 0.10559  0.83619  0.77451  Biso   1.000  C
  C613     1.0000 0.17135  0.83614  0.81082  Biso   1.000  C
  C614     1.0000 0.10561  0.83624  0.77451  Biso   1.000  C
  H756     1.0000 0.23354  0.83969  0.83970  Biso   1.000  H
  H757     1.0000 0.23352  0.83974  0.83970  Biso   1.000  H
  H758     1.0000 0.24339  0.21370  0.98901  Biso   1.000  H
  C615     1.0000 0.14459  0.14828  0.98502  Biso   1.000  C
  C616     1.0000 0.14458  0.14833  0.98502  Biso   1.000  C
  C617     1.0000 0.07840  0.20151  0.98026  Biso   1.000  C
  H759     1.0000 0.13290  0.30240  0.98111  Biso   1.000  H
  H760     1.0000 0.13286  0.30240  0.98111  Biso   1.000  H
  C618     1.0000 0.70171  0.90261  0.74906  Biso   1.000  C
  C619     1.0000 0.68413  0.82431  0.78516  Biso   1.000  C
  C620     1.0000 0.80141  0.90601  0.77254  Biso   1.000  C
  C621     1.0000 0.80137  0.90601  0.77254  Biso   1.000  C
  C622     1.0000 0.66484  0.82870  0.81082  Biso   1.000  C
  C623     1.0000 0.63262  0.89402  0.86322  Biso   1.000  C
  C624     1.0000 0.63769  0.95380  0.87717  Biso   1.000  C
  C625     1.0000 0.67959  0.07032  0.87319  Biso   1.000  C
  H761     1.0000 0.56321  0.07481  0.77540  Biso   1.000  H
  H762     1.0000 0.60051  0.13679  0.79369  Biso   1.000  H
  C626     1.0000 0.54131  0.04909  0.81431  Biso   1.000  C
  H763     1.0000 0.60049  0.13684  0.79369  Biso   1.000  H
  C627     1.0000 0.54129  0.04914  0.81431  Biso   1.000  C
  H764     1.0000 0.90792  0.21470  0.86750  Biso   1.000  H
  H765     1.0000 0.95490  0.18738  0.85871  Biso   1.000  H
  C628     1.0000 0.96249  0.26259  0.83500  Biso   1.000  C
  H766     1.0000 0.90788  0.21470  0.86750  Biso   1.000  H
  H767     1.0000 0.95492  0.18743  0.85871  Biso   1.000  H
  C629     1.0000 0.96256  0.26264  0.83500  Biso   1.000  C
  H768     1.0000 0.95488  0.18743  0.85871  Biso   1.000  H
  C630     1.0000 0.96251  0.26264  0.83500  Biso   1.000  C
  C631     1.0000 0.10236  0.78830  0.81768  Biso   1.000  C
  C632     1.0000 0.10227  0.78830  0.81768  Biso   1.000  C
  C633     1.0000 0.06146  0.78730  0.79627  Biso   1.000  C
  C634     1.0000 0.09737  0.79908  0.74906  Biso   1.000  C
  C635     1.0000 0.09407  0.89542  0.77254  Biso   1.000  C
  C636     1.0000 0.06138  0.78730  0.79627  Biso   1.000  C
  C637     1.0000 0.09740  0.79913  0.74906  Biso   1.000  C
  C638     1.0000 0.09399  0.89542  0.77254  Biso   1.000  C
  C639     1.0000 0.14471  0.08580  0.98306  Biso   1.000  C
  C640     1.0000 0.08279  0.14378  0.98173  Biso   1.000  C
  C641     1.0000 0.14467  0.08580  0.98306  Biso   1.000  C
  C642     1.0000 0.08282  0.14383  0.98173  Biso   1.000  C
  C643     1.0000 0.08286  0.14383  0.98173  Biso   1.000  C
  H769     1.0000 0.03701  0.19842  0.97811  Biso   1.000  H
  H770     1.0000 0.03697  0.19842  0.97811  Biso   1.000  H
  H771     1.0000 0.73106  0.94731  0.74250  Biso   1.000  H
  H772     1.0000 0.70193  0.87140  0.73660  Biso   1.000  H
  C644     1.0000 0.63245  0.89178  0.75059  Biso   1.000  C
  H773     1.0000 0.73098  0.94731  0.74250  Biso   1.000  H
  C645     1.0000 0.63243  0.89183  0.75059  Biso   1.000  C
  C646     1.0000 0.66826  0.76582  0.77345  Biso   1.000  C
  C647     1.0000 0.66817  0.76582  0.77345  Biso   1.000  C
  H774     1.0000 0.80175  0.87649  0.75930  Biso   1.000  H
  H775     1.0000 0.83021  0.95141  0.76660  Biso   1.000  H
  C648     1.0000 0.83141  0.89602  0.79642  Biso   1.000  C
  H776     1.0000 0.80166  0.87649  0.75930  Biso   1.000  H
  H777     1.0000 0.83016  0.95141  0.76660  Biso   1.000  H
  C649     1.0000 0.62349  0.76712  0.82338  Biso   1.000  C
  C650     1.0000 0.67231  0.86571  0.87977  Biso   1.000  C
  C651     1.0000 0.56011  0.84388  0.85784  Biso   1.000  C
  C652     1.0000 0.56009  0.84393  0.85784  Biso   1.000  C
  C653     1.0000 0.61172  0.95350  0.90187  Biso   1.000  C
  C654     1.0000 0.61167  0.95350  0.90187  Biso   1.000  C
  C655     1.0000 0.65691  0.07062  0.89866  Biso   1.000  C
  H778     1.0000 0.69741  0.10862  0.86310  Biso   1.000  H
  H779     1.0000 0.52158  0.00230  0.81059  Biso   1.000  H
  H780     1.0000 0.50667  0.06018  0.81640  Biso   1.000  H
  H781     1.0000 0.56699  0.05938  0.82991  Biso   1.000  H
  H782     1.0000 0.52163  0.00230  0.81059  Biso   1.000  H
  H783     1.0000 0.50669  0.06023  0.81640  Biso   1.000  H
  H784     1.0000 0.56698  0.05943  0.82991  Biso   1.000  H
  H785     1.0000 0.00260  0.29550  0.84349  Biso   1.000  H
  H786     1.0000 0.00256  0.29550  0.84349  Biso   1.000  H
  H787     1.0000 0.97399  0.24891  0.81920  Biso   1.000  H
  H788     1.0000 0.93480  0.28152  0.83120  Biso   1.000  H
  H789     1.0000 0.93484  0.28152  0.83120  Biso   1.000  H
  C656     1.0000 0.07253  0.74620  0.83875  Biso   1.000  C
  C657     1.0000 0.99391  0.74440  0.79669  Biso   1.000  C
  C658     1.0000 0.99386  0.74440  0.79669  Biso   1.000  C
  H790     1.0000 0.05274  0.78370  0.74250  Biso   1.000  H
  H791     1.0000 0.12865  0.83050  0.73660  Biso   1.000  H
  C659     1.0000 0.10818  0.74060  0.75059  Biso   1.000  C
  H792     1.0000 0.12860  0.83050  0.73660  Biso   1.000  H
  H793     1.0000 0.12349  0.92519  0.75930  Biso   1.000  H
  H794     1.0000 0.04865  0.87879  0.76660  Biso   1.000  H
  C660     1.0000 0.10397  0.93538  0.79642  Biso   1.000  C
  H795     1.0000 0.12351  0.92524  0.75930  Biso   1.000  H
  H796     1.0000 0.04863  0.87884  0.76660  Biso   1.000  H
  C661     1.0000 0.10400  0.93543  0.79642  Biso   1.000  C
  C662     1.0000 0.06792  0.04120  0.98188  Biso   1.000  C
  C663     1.0000 0.18310  0.08810  0.95812  Biso   1.000  C
  C664     1.0000 0.06787  0.04120  0.98188  Biso   1.000  C
  C665     1.0000 0.18306  0.08810  0.95812  Biso   1.000  C
  C666     1.0000 0.17791  0.06742  0.00650  Biso   1.000  C
  C667     1.0000 0.02549  0.06742  0.98214  Biso   1.000  C
  C668     1.0000 0.60376  0.89772  0.72496  Biso   1.000  C
  H797     1.0000 0.63252  0.92419  0.76259  Biso   1.000  H
  H798     1.0000 0.60335  0.84768  0.75769  Biso   1.000  H
  C669     1.0000 0.60368  0.89772  0.72496  Biso   1.000  C
  H799     1.0000 0.63255  0.92424  0.76259  Biso   1.000  H
  H800     1.0000 0.60329  0.84773  0.75769  Biso   1.000  H
  C670     1.0000 0.62944  0.70539  0.78618  Biso   1.000  C
  H801     1.0000 0.68350  0.76612  0.75680  Biso   1.000  H
  H802     1.0000 0.83739  0.92988  0.80891  Biso   1.000  H
  H803     1.0000 0.80000  0.85292  0.80380  Biso   1.000  H
  C671     1.0000 0.89647  0.89882  0.79300  Biso   1.000  C
  H804     1.0000 0.83738  0.92993  0.80891  Biso   1.000  H
  C672     1.0000 0.89638  0.89882  0.79300  Biso   1.000  C
  C673     1.0000 0.60900  0.70889  0.81167  Biso   1.000  C
  H805     1.0000 0.60624  0.76652  0.83970  Biso   1.000  H
  C674     1.0000 0.60898  0.70894  0.81167  Biso   1.000  C
  H806     1.0000 0.66691  0.82610  0.87100  Biso   1.000  H
  C675     1.0000 0.75080  0.91500  0.88466  Biso   1.000  C
  H807     1.0000 0.65060  0.85152  0.89651  Biso   1.000  H
  H808     1.0000 0.55734  0.80298  0.85170  Biso   1.000  H
  H809     1.0000 0.53572  0.83369  0.87400  Biso   1.000  H
  C676     1.0000 0.52713  0.86461  0.83929  Biso   1.000  C
  H810     1.0000 0.55733  0.80303  0.85170  Biso   1.000  H
  H811     1.0000 0.58696  0.91350  0.91079  Biso   1.000  H
  H812     1.0000 0.58687  0.91350  0.91079  Biso   1.000  H
  C677     1.0000 0.62269  0.01169  0.91259  Biso   1.000  C
  C678     1.0000 0.62271  0.01174  0.91259  Biso   1.000  C
  H813     1.0000 0.66493  0.11062  0.90611  Biso   1.000  H
  H814     1.0000 0.66489  0.11062  0.90611  Biso   1.000  H
  C679     1.0000 0.10601  0.73861  0.86322  Biso   1.000  C
  C680     1.0000 0.00354  0.70000  0.83869  Biso   1.000  C
  C681     1.0000 0.93852  0.72982  0.77838  Biso   1.000  C
  C682     1.0000 0.96376  0.69750  0.81804  Biso   1.000  C
  C683     1.0000 0.96371  0.69750  0.81804  Biso   1.000  C
  C684     1.0000 0.10229  0.70599  0.72496  Biso   1.000  C
  H815     1.0000 0.07581  0.70829  0.76259  Biso   1.000  H
  H816     1.0000 0.15235  0.75559  0.75769  Biso   1.000  H
  C685     1.0000 0.10232  0.70604  0.72496  Biso   1.000  C
  H817     1.0000 0.07583  0.70834  0.76259  Biso   1.000  H
  H818     1.0000 0.15229  0.75564  0.75769  Biso   1.000  H
  H819     1.0000 0.14712  0.94711  0.80380  Biso   1.000  H
  H820     1.0000 0.07014  0.90751  0.80891  Biso   1.000  H
  C686     1.0000 0.10126  0.99760  0.79300  Biso   1.000  C
  C687     1.0000 0.10122  0.99760  0.79300  Biso   1.000  C
  C688     1.0000 0.04191  0.97448  0.98214  Biso   1.000  C
  C689     1.0000 0.04193  0.97453  0.98214  Biso   1.000  C
  H821     1.0000 0.22962  0.12181  0.96050  Biso   1.000  H
  H822     1.0000 0.18121  0.04540  0.95639  Biso   1.000  H
  C690     1.0000 0.16010  0.10248  0.93330  Biso   1.000  C
  H823     1.0000 0.22958  0.12181  0.96050  Biso   1.000  H
  H824     1.0000 0.18117  0.04540  0.95639  Biso   1.000  H
  C691     1.0000 0.16008  0.10253  0.93330  Biso   1.000  C
  H825     1.0000 0.17530  0.04300  0.95630  Biso   1.000  H
  H826     1.0000 0.15791  0.09359  0.94430  Biso   1.000  H
  C692     1.0000 0.24941  0.12860  0.95090  Biso   1.000  C
  H827     1.0000 0.21998  0.10658  0.01090  Biso   1.000  H
  H828     1.0000 0.18763  0.03331  0.00070  Biso   1.000  H
  C693     1.0000 0.13210  0.04060  0.03279  Biso   1.000  C
  H829     1.0000 0.22000  0.10663  0.01090  Biso   1.000  H
  H830     1.0000 0.18758  0.03331  0.00070  Biso   1.000  H
  C694     1.0000 0.13206  0.04060  0.03279  Biso   1.000  C
  C695     1.0000 0.95882  0.02672  0.98188  Biso   1.000  C
  C696     1.0000 0.95878  0.02672  0.98188  Biso   1.000  C
  H831     1.0000 0.63061  0.94312  0.71860  Biso   1.000  H
  H832     1.0000 0.60744  0.86830  0.71250  Biso   1.000  H
  C697     1.0000 0.53349  0.88139  0.72597  Biso   1.000  C
  C698     1.0000 0.53351  0.88144  0.72597  Biso   1.000  C
  C699     1.0000 0.60815  0.64102  0.77384  Biso   1.000  C
  H833     1.0000 0.92820  0.94152  0.78551  Biso   1.000  H
  H834     1.0000 0.89079  0.86411  0.78100  Biso   1.000  H
  C700     1.0000 0.92592  0.88938  0.81949  Biso   1.000  C
  C701     1.0000 0.92594  0.88943  0.81949  Biso   1.000  C
  H835     1.0000 0.58448  0.66929  0.82091  Biso   1.000  H
  H836     1.0000 0.58451  0.66934  0.82091  Biso   1.000  H
  H837     1.0000 0.75392  0.95660  0.89010  Biso   1.000  H
  H838     1.0000 0.77031  0.92339  0.86750  Biso   1.000  H
  C702     1.0000 0.80518  0.90811  0.90321  Biso   1.000  C
  H839     1.0000 0.75387  0.95660  0.89010  Biso   1.000  H
  H840     1.0000 0.77029  0.92344  0.86750  Biso   1.000  H
  H841     1.0000 0.55348  0.88029  0.82360  Biso   1.000  H
  H842     1.0000 0.52209  0.90072  0.84640  Biso   1.000  H
  C703     1.0000 0.45692  0.80308  0.83320  Biso   1.000  C
  H843     1.0000 0.55351  0.88034  0.82360  Biso   1.000  H
  C704     1.0000 0.45695  0.80313  0.83320  Biso   1.000  C
  C705     1.0000 0.60178  0.01408  0.93938  Biso   1.000  C
  C706     1.0000 0.60185  0.01413  0.93938  Biso   1.000  C
  C707     1.0000 0.60181  0.01413  0.93938  Biso   1.000  C
  C708     1.0000 0.04623  0.68392  0.87717  Biso   1.000  C
  C709     1.0000 0.13429  0.80658  0.87977  Biso   1.000  C
  C710     1.0000 0.15613  0.71618  0.85784  Biso   1.000  C
  C711     1.0000 0.13427  0.80663  0.87977  Biso   1.000  C
  C712     1.0000 0.15616  0.71623  0.85784  Biso   1.000  C
  C713     1.0000 0.98705  0.66209  0.86366  Biso   1.000  C
  C714     1.0000 0.98701  0.66209  0.86366  Biso   1.000  C
  C715     1.0000 0.87954  0.67258  0.78721  Biso   1.000  C
  C716     1.0000 0.93527  0.76068  0.75555  Biso   1.000  C
  C717     1.0000 0.87952  0.67263  0.78721  Biso   1.000  C
  C718     1.0000 0.93529  0.76073  0.75555  Biso   1.000  C
  C719     1.0000 0.89057  0.64861  0.81301  Biso   1.000  C
  C720     1.0000 0.89048  0.64861  0.81301  Biso   1.000  C
  H844     1.0000 0.05690  0.68752  0.71860  Biso   1.000  H
  H845     1.0000 0.13170  0.73910  0.71250  Biso   1.000  H
  C721     1.0000 0.11860  0.65211  0.72597  Biso   1.000  C
  H846     1.0000 0.13589  0.02672  0.78100  Biso   1.000  H
  C722     1.0000 0.11059  0.03651  0.81949  Biso   1.000  C
  H847     1.0000 0.05849  0.98672  0.78551  Biso   1.000  H
  C723     1.0000 0.97335  0.93208  0.98188  Biso   1.000  C
  C724     1.0000 0.97333  0.93213  0.98188  Biso   1.000  C
  C725     1.0000 0.06106  0.91720  0.98173  Biso   1.000  C
  C726     1.0000 0.06102  0.91720  0.98173  Biso   1.000  C
  H848     1.0000 0.11701  0.06482  0.92860  Biso   1.000  H
  C727     1.0000 0.21023  0.11502  0.91221  Biso   1.000  C
  H849     1.0000 0.15489  0.14128  0.93530  Biso   1.000  H
  C728     1.0000 0.21018  0.11502  0.91221  Biso   1.000  C
  H850     1.0000 0.15488  0.14133  0.93530  Biso   1.000  H
  H851     1.0000 0.27631  0.12331  0.96400  Biso   1.000  H
  H852     1.0000 0.25881  0.17430  0.95200  Biso   1.000  H
  C729     1.0000 0.27450  0.12151  0.92591  Biso   1.000  C
  H853     1.0000 0.09500  0.99580  0.02981  Biso   1.000  H
  C730     1.0000 0.17200  0.03960  0.05609  Biso   1.000  C
  H854     1.0000 0.11372  0.06932  0.03660  Biso   1.000  H
  H855     1.0000 0.11368  0.06932  0.03660  Biso   1.000  H
  C731     1.0000 0.93264  0.95810  0.98214  Biso   1.000  C
  C732     1.0000 0.91418  0.05888  0.98306  Biso   1.000  C
  C733     1.0000 0.91425  0.05893  0.98306  Biso   1.000  C
  C734     1.0000 0.91420  0.05893  0.98306  Biso   1.000  C
  H856     1.0000 0.50573  0.83529  0.73069  Biso   1.000  H
  H857     1.0000 0.52024  0.88898  0.70931  Biso   1.000  H
  H858     1.0000 0.52871  0.90921  0.73861  Biso   1.000  H
  H859     1.0000 0.50575  0.83534  0.73069  Biso   1.000  H
  H860     1.0000 0.52023  0.88903  0.70931  Biso   1.000  H
  H861     1.0000 0.52867  0.90921  0.73861  Biso   1.000  H
  N32      1.0000 0.61440  0.63398  0.74982  Biso   1.000  N
  H862     1.0000 0.58893  0.60301  0.78419  Biso   1.000  H
  N33      1.0000 0.61443  0.63403  0.74982  Biso   1.000  N
  H863     1.0000 0.89535  0.84658  0.82679  Biso   1.000  H
  H864     1.0000 0.93210  0.92389  0.83140  Biso   1.000  H
  H865     1.0000 0.96791  0.89188  0.81630  Biso   1.000  H
  H866     1.0000 0.89533  0.84663  0.82679  Biso   1.000  H
  H867     1.0000 0.93208  0.92394  0.83140  Biso   1.000  H
  H868     1.0000 0.96789  0.89193  0.81630  Biso   1.000  H
  C735     1.0000 0.85151  0.90691  0.92639  Biso   1.000  C
  H869     1.0000 0.79083  0.86271  0.89771  Biso   1.000  H
  H870     1.0000 0.84274  0.93478  0.89181  Biso   1.000  H
  H871     1.0000 0.84268  0.93483  0.89181  Biso   1.000  H
  H872     1.0000 0.46095  0.76348  0.83111  Biso   1.000  H
  H873     1.0000 0.42679  0.79549  0.84750  Biso   1.000  H
  C736     1.0000 0.42774  0.81522  0.80800  Biso   1.000  C
  H874     1.0000 0.46093  0.76353  0.83111  Biso   1.000  H
  H875     1.0000 0.42681  0.79554  0.84750  Biso   1.000  H
  N34      1.0000 0.56634  0.95990  0.95213  Biso   1.000  N
  N35      1.0000 0.56626  0.95990  0.95213  Biso   1.000  N
  H876     1.0000 0.61441  0.05509  0.94710  Biso   1.000  H
  H877     1.0000 0.61444  0.05514  0.94710  Biso   1.000  H
  H878     1.0000 0.61439  0.05514  0.94710  Biso   1.000  H
  C737     1.0000 0.04652  0.65820  0.90187  Biso   1.000  C
  H879     1.0000 0.14849  0.79908  0.89651  Biso   1.000  H
  H880     1.0000 0.17393  0.84079  0.87100  Biso   1.000  H
  C738     1.0000 0.08506  0.83579  0.88466  Biso   1.000  C
  H881     1.0000 0.14848  0.79913  0.89651  Biso   1.000  H
  H882     1.0000 0.17395  0.84084  0.87100  Biso   1.000  H
  C739     1.0000 0.08504  0.83584  0.88466  Biso   1.000  C
  H883     1.0000 0.19703  0.75429  0.85170  Biso   1.000  H
  H884     1.0000 0.16630  0.70200  0.87400  Biso   1.000  H
  C740     1.0000 0.13539  0.66249  0.83929  Biso   1.000  C
  H885     1.0000 0.19705  0.75434  0.85170  Biso   1.000  H
  C741     1.0000 0.92973  0.60931  0.87319  Biso   1.000  C
  C742     1.0000 0.82056  0.64751  0.77397  Biso   1.000  C
  C743     1.0000 0.82051  0.64751  0.77397  Biso   1.000  C
  C744     1.0000 0.87468  0.73371  0.74236  Biso   1.000  C
  H886     1.0000 0.97291  0.79859  0.74929  Biso   1.000  H
  H887     1.0000 0.97293  0.79864  0.74929  Biso   1.000  H
  C745     1.0000 0.87565  0.57640  0.80953  Biso   1.000  C
  C746     1.0000 0.84269  0.65311  0.83221  Biso   1.000  C
  C747     1.0000 0.87561  0.57640  0.80953  Biso   1.000  C
  H888     1.0000 0.16472  0.67039  0.73069  Biso   1.000  H
  H889     1.0000 0.11099  0.63118  0.70931  Biso   1.000  H
  H890     1.0000 0.09079  0.61949  0.73861  Biso   1.000  H
  H891     1.0000 0.16474  0.67044  0.73069  Biso   1.000  H
  H892     1.0000 0.11102  0.63123  0.70931  Biso   1.000  H
  H893     1.0000 0.15341  0.04869  0.82679  Biso   1.000  H
  H894     1.0000 0.07611  0.00819  0.83140  Biso   1.000  H
  H895     1.0000 0.10812  0.07601  0.81630  Biso   1.000  H
  H896     1.0000 0.15339  0.04874  0.82679  Biso   1.000  H
  H897     1.0000 0.07609  0.00824  0.83140  Biso   1.000  H
  H898     1.0000 0.10807  0.07601  0.81630  Biso   1.000  H
  C748     1.0000 0.94111  0.85532  0.98306  Biso   1.000  C
  C749     1.0000 0.94107  0.85532  0.98306  Biso   1.000  C
  C750     1.0000 0.00374  0.85542  0.98502  Biso   1.000  C
  C751     1.0000 0.12312  0.92159  0.98026  Biso   1.000  C
  C752     1.0000 0.12307  0.92159  0.98026  Biso   1.000  C
  H899     1.0000 0.21380  0.07511  0.91041  Biso   1.000  H
  H900     1.0000 0.19232  0.12081  0.89601  Biso   1.000  H
  C753     1.0000 0.28210  0.17589  0.91559  Biso   1.000  C
  H901     1.0000 0.19228  0.12081  0.89601  Biso   1.000  H
  C754     1.0000 0.28206  0.17589  0.91559  Biso   1.000  C
  H902     1.0000 0.25069  0.13020  0.91240  Biso   1.000  H
  H903     1.0000 0.30031  0.17210  0.93179  Biso   1.000  H
  H904     1.0000 0.30027  0.17210  0.93179  Biso   1.000  H
  H905     1.0000 0.26400  0.07551  0.92411  Biso   1.000  H
  C755     1.0000 0.35039  0.16750  0.92140  Biso   1.000  C
  H906     1.0000 0.18910  0.00979  0.05230  Biso   1.000  H
  H907     1.0000 0.20998  0.08390  0.05839  Biso   1.000  H
  C756     1.0000 0.13398  0.01798  0.08090  Biso   1.000  C
  H908     1.0000 0.18908  0.00984  0.05230  Biso   1.000  H
  C757     1.0000 0.13401  0.01803  0.08090  Biso   1.000  C
  C758     1.0000 0.85624  0.93902  0.98173  Biso   1.000  C
  C759     1.0000 0.85175  0.99630  0.98502  Biso   1.000  C
  C760     1.0000 0.85171  0.99630  0.98502  Biso   1.000  C
  C761     1.0000 0.91190  0.09499  0.95812  Biso   1.000  C
  C762     1.0000 0.91193  0.09504  0.95812  Biso   1.000  C
  C763     1.0000 0.91189  0.09504  0.95812  Biso   1.000  C
  C764     1.0000 0.93260  0.11052  0.00650  Biso   1.000  C
  C765     1.0000 0.59234  0.56771  0.74080  Biso   1.000  C
  H909     1.0000 0.82879  0.90082  0.94271  Biso   1.000  H
  H910     1.0000 0.89299  0.94851  0.92670  Biso   1.000  H
  H911     1.0000 0.86019  0.87090  0.92380  Biso   1.000  H
  H912     1.0000 0.45747  0.82251  0.79391  Biso   1.000  H
  H913     1.0000 0.42277  0.85372  0.81020  Biso   1.000  H
  H914     1.0000 0.38489  0.77691  0.80449  Biso   1.000  H
  H915     1.0000 0.45742  0.82251  0.79391  Biso   1.000  H
  H916     1.0000 0.42273  0.85372  0.81020  Biso   1.000  H
  C766     1.0000 0.54884  0.96789  0.97888  Biso   1.000  C
  C767     1.0000 0.54878  0.96794  0.97888  Biso   1.000  C
  C768     1.0000 0.98837  0.61100  0.91259  Biso   1.000  C
  C769     1.0000 0.98828  0.61100  0.91259  Biso   1.000  C
  H917     1.0000 0.08655  0.67338  0.91079  Biso   1.000  H
  H918     1.0000 0.08653  0.67343  0.91079  Biso   1.000  H
  H919     1.0000 0.04345  0.79729  0.89010  Biso   1.000  H
  H920     1.0000 0.07663  0.84688  0.86750  Biso   1.000  H
  C770     1.0000 0.09189  0.89712  0.90321  Biso   1.000  C
  H921     1.0000 0.04339  0.79734  0.89010  Biso   1.000  H
  H922     1.0000 0.07662  0.84693  0.86750  Biso   1.000  H
  H923     1.0000 0.11971  0.67318  0.82360  Biso   1.000  H
  H924     1.0000 0.09931  0.62139  0.84640  Biso   1.000  H
  C771     1.0000 0.19696  0.65380  0.83320  Biso   1.000  C
  H925     1.0000 0.11969  0.67323  0.82360  Biso   1.000  H
  H926     1.0000 0.09933  0.62144  0.84640  Biso   1.000  H
  C772     1.0000 0.19691  0.65380  0.83320  Biso   1.000  C
  C773     1.0000 0.92942  0.58628  0.89866  Biso   1.000  C
  H927     1.0000 0.89144  0.58878  0.86310  Biso   1.000  H
  C774     1.0000 0.92945  0.58633  0.89866  Biso   1.000  C
  H928     1.0000 0.89143  0.58883  0.86310  Biso   1.000  H
  C775     1.0000 0.81773  0.67758  0.75067  Biso   1.000  C
  H929     1.0000 0.78233  0.61051  0.78040  Biso   1.000  H
  C776     1.0000 0.81775  0.67763  0.75067  Biso   1.000  C
  H930     1.0000 0.87275  0.75449  0.72731  Biso   1.000  H
  H931     1.0000 0.87273  0.75454  0.72731  Biso   1.000  H
  H932     1.0000 0.88146  0.56051  0.82619  Biso   1.000  H
  H933     1.0000 0.82903  0.54908  0.80471  Biso   1.000  H
  C777     1.0000 0.91603  0.56511  0.79031  Biso   1.000  C
  H934     1.0000 0.88138  0.56051  0.82619  Biso   1.000  H
  H935     1.0000 0.82897  0.54913  0.80471  Biso   1.000  H
  H936     1.0000 0.79756  0.62539  0.82590  Biso   1.000  H
  H937     1.0000 0.84609  0.63448  0.84860  Biso   1.000  H
  C778     1.0000 0.85373  0.72018  0.83695  Biso   1.000  C
  H938     1.0000 0.79754  0.62544  0.82590  Biso   1.000  H
  H939     1.0000 0.84611  0.63453  0.84860  Biso   1.000  H
  C779     1.0000 0.85376  0.72023  0.83695  Biso   1.000  C
  C780     1.0000 0.90500  0.81691  0.95812  Biso   1.000  C
  C781     1.0000 0.88956  0.82211  0.00650  Biso   1.000  C
  C782     1.0000 0.88952  0.82211  0.00650  Biso   1.000  C
  C783     1.0000 0.00858  0.79789  0.98682  Biso   1.000  C
  C784     1.0000 0.00861  0.79794  0.98682  Biso   1.000  C
  H940     1.0000 0.16142  0.96299  0.97811  Biso   1.000  H
  C785     1.0000 0.12799  0.86421  0.98206  Biso   1.000  C
  H941     1.0000 0.16144  0.96304  0.97811  Biso   1.000  H
  H942     1.0000 0.28030  0.21650  0.91550  Biso   1.000  H
  H943     1.0000 0.31001  0.17669  0.90170  Biso   1.000  H
  H944     1.0000 0.28026  0.21650  0.91550  Biso   1.000  H
  H945     1.0000 0.30999  0.17674  0.90170  Biso   1.000  H
  H946     1.0000 0.36091  0.21320  0.92130  Biso   1.000  H
  H947     1.0000 0.36252  0.15682  0.90501  Biso   1.000  H
  H948     1.0000 0.37482  0.16091  0.93501  Biso   1.000  H
  H949     1.0000 0.09911  0.97228  0.07949  Biso   1.000  H
  H950     1.0000 0.09909  0.97233  0.07949  Biso   1.000  H
  H951     1.0000 0.16370  0.02222  0.09470  Biso   1.000  H
  H952     1.0000 0.11489  0.04570  0.08450  Biso   1.000  H
  C786     1.0000 0.79849  0.87689  0.98026  Biso   1.000  C
  C787     1.0000 0.78936  0.99141  0.98682  Biso   1.000  C
  C788     1.0000 0.78931  0.99141  0.98682  Biso   1.000  C
  H953     1.0000 0.87823  0.10782  0.96050  Biso   1.000  H
  H954     1.0000 0.95458  0.13579  0.95639  Biso   1.000  H
  C789     1.0000 0.89748  0.05758  0.93330  Biso   1.000  C
  H955     1.0000 0.95465  0.13584  0.95639  Biso   1.000  H
  C790     1.0000 0.89751  0.05763  0.93330  Biso   1.000  C
  H956     1.0000 0.87818  0.10782  0.96050  Biso   1.000  H
  H957     1.0000 0.95698  0.13230  0.95630  Biso   1.000  H
  H958     1.0000 0.90643  0.06432  0.94430  Biso   1.000  H
  C791     1.0000 0.87140  0.12081  0.95090  Biso   1.000  C
  H959     1.0000 0.89339  0.11342  0.01090  Biso   1.000  H
  H960     1.0000 0.96670  0.15432  0.00070  Biso   1.000  H
  C792     1.0000 0.95942  0.09149  0.03279  Biso   1.000  C
  C793     1.0000 0.95940  0.09154  0.03279  Biso   1.000  C
  C794     1.0000 0.64854  0.56870  0.72425  Biso   1.000  C
  H961     1.0000 0.58292  0.53789  0.75570  Biso   1.000  H
  C795     1.0000 0.52850  0.54219  0.72419  Biso   1.000  C
  H962     1.0000 0.58295  0.53794  0.75570  Biso   1.000  H
  C796     1.0000 0.52852  0.54223  0.72419  Biso   1.000  C
  C797     1.0000 0.57104  0.92958  0.99605  Biso   1.000  C
  C798     1.0000 0.47726  0.94392  0.98142  Biso   1.000  C
  C799     1.0000 0.57102  0.92963  0.99605  Biso   1.000  C
  C800     1.0000 0.47717  0.94392  0.98142  Biso   1.000  C
  H963     1.0000 0.57388  0.01528  0.98361  Biso   1.000  H
  H964     1.0000 0.57390  0.01533  0.98361  Biso   1.000  H
  C801     1.0000 0.98592  0.58768  0.93938  Biso   1.000  C
  C802     1.0000 0.98594  0.58773  0.93938  Biso   1.000  C
  H965     1.0000 0.13730  0.92808  0.89771  Biso   1.000  H
  H966     1.0000 0.06519  0.90791  0.89181  Biso   1.000  H
  C803     1.0000 0.09311  0.94461  0.92639  Biso   1.000  C
  H967     1.0000 0.13729  0.92813  0.89771  Biso   1.000  H
  H968     1.0000 0.23649  0.69740  0.83111  Biso   1.000  H
  H969     1.0000 0.20455  0.63128  0.84750  Biso   1.000  H
  C804     1.0000 0.18478  0.61250  0.80800  Biso   1.000  C
  H970     1.0000 0.20453  0.63133  0.84750  Biso   1.000  H
  H971     1.0000 0.88940  0.55432  0.90611  Biso   1.000  H
  C805     1.0000 0.75610  0.64931  0.73586  Biso   1.000  C
  H972     1.0000 0.96267  0.59872  0.79271  Biso   1.000  H
  H973     1.0000 0.90299  0.57130  0.77310  Biso   1.000  H
  C806     1.0000 0.90980  0.49739  0.79160  Biso   1.000  C
  H974     1.0000 0.96263  0.59872  0.79271  Biso   1.000  H
  C807     1.0000 0.90978  0.49744  0.79160  Biso   1.000  C
  H975     1.0000 0.85854  0.74200  0.82040  Biso   1.000  H
  H976     1.0000 0.89551  0.74560  0.84630  Biso   1.000  H
  C808     1.0000 0.79737  0.72242  0.85261  Biso   1.000  C
  H977     1.0000 0.85850  0.74200  0.82040  Biso   1.000  H
  H978     1.0000 0.89546  0.74560  0.84630  Biso   1.000  H
  C809     1.0000 0.79729  0.72242  0.85261  Biso   1.000  C
  H979     1.0000 0.89226  0.77042  0.96050  Biso   1.000  H
  H980     1.0000 0.86425  0.81881  0.95639  Biso   1.000  H
  C810     1.0000 0.94239  0.83989  0.93330  Biso   1.000  C
  H981     1.0000 0.89222  0.77042  0.96050  Biso   1.000  H
  H982     1.0000 0.86417  0.81881  0.95639  Biso   1.000  H
  C811     1.0000 0.94242  0.83994  0.93330  Biso   1.000  C
  H983     1.0000 0.86772  0.82470  0.95630  Biso   1.000  H
  H984     1.0000 0.93573  0.84213  0.94430  Biso   1.000  H
  C812     1.0000 0.87921  0.75064  0.95090  Biso   1.000  C
  H985     1.0000 0.88659  0.78001  0.01090  Biso   1.000  H
  H986     1.0000 0.84570  0.81242  0.00070  Biso   1.000  H
  C813     1.0000 0.90852  0.86790  0.03279  Biso   1.000  C
  C814     1.0000 0.90848  0.86790  0.03279  Biso   1.000  C
  H987     1.0000 0.97029  0.75658  0.98901  Biso   1.000  H
  H988     1.0000 0.97031  0.75663  0.98901  Biso   1.000  H
  C815     1.0000 0.07073  0.80238  0.98535  Biso   1.000  C
  C816     1.0000 0.07076  0.80243  0.98535  Biso   1.000  C
  H989     1.0000 0.16949  0.86711  0.98111  Biso   1.000  H
  H990     1.0000 0.80165  0.83859  0.97811  Biso   1.000  H
  C817     1.0000 0.73625  0.87205  0.98206  Biso   1.000  C
  H991     1.0000 0.80163  0.83864  0.97811  Biso   1.000  H
  C818     1.0000 0.73627  0.87210  0.98206  Biso   1.000  C
  C819     1.0000 0.73169  0.92928  0.98535  Biso   1.000  C
  C820     1.0000 0.73172  0.92933  0.98535  Biso   1.000  C
  H992     1.0000 0.78632  0.02972  0.98901  Biso   1.000  H
  H993     1.0000 0.78628  0.02972  0.98901  Biso   1.000  H
  C821     1.0000 0.88501  0.09519  0.91221  Biso   1.000  C
  H994     1.0000 0.85870  0.01358  0.93530  Biso   1.000  H
  H995     1.0000 0.93518  0.05219  0.92860  Biso   1.000  H
  C822     1.0000 0.88500  0.09524  0.91221  Biso   1.000  C
  H996     1.0000 0.85868  0.01363  0.93530  Biso   1.000  H
  H997     1.0000 0.93521  0.05224  0.92860  Biso   1.000  H
  H998     1.0000 0.87669  0.15302  0.96400  Biso   1.000  H
  H999     1.0000 0.82569  0.08450  0.95200  Biso   1.000  H
  C823     1.0000 0.87851  0.15302  0.92591  Biso   1.000  C
  C824     1.0000 0.96041  0.13240  0.05609  Biso   1.000  C
  H1000    1.0000 0.93068  0.04440  0.03660  Biso   1.000  H
  C825     1.0000 0.96036  0.13240  0.05609  Biso   1.000  C
  H1001    1.0000 0.00418  0.09918  0.02981  Biso   1.000  H
  H1002    1.0000 0.00420  0.09923  0.02981  Biso   1.000  H
  N36      1.0000 0.70843  0.59108  0.74041  Biso   1.000  N
  H1003    1.0000 0.65886  0.59912  0.70960  Biso   1.000  H
  C826     1.0000 0.62422  0.49739  0.71432  Biso   1.000  C
  N37      1.0000 0.70846  0.59113  0.74041  Biso   1.000  N
  H1004    1.0000 0.65878  0.59912  0.70960  Biso   1.000  H
  C827     1.0000 0.62424  0.49744  0.71432  Biso   1.000  C
  H1005    1.0000 0.49290  0.54089  0.73460  Biso   1.000  H
  H1006    1.0000 0.53716  0.57240  0.70981  Biso   1.000  H
  C828     1.0000 0.50735  0.47342  0.71411  Biso   1.000  C
  H1007    1.0000 0.49289  0.54094  0.73460  Biso   1.000  H
  H1008    1.0000 0.53708  0.57240  0.70981  Biso   1.000  H
  N38      1.0000 0.64245  0.95650  0.99450  Biso   1.000  N
  H1009    1.0000 0.54833  0.88279  0.99050  Biso   1.000  H
  N39      1.0000 0.64237  0.95650  0.99450  Biso   1.000  N
  H1010    1.0000 0.54836  0.88284  0.99050  Biso   1.000  H
  C829     1.0000 0.55045  0.93288  0.02410  Biso   1.000  C
  C830     1.0000 0.55039  0.93293  0.02410  Biso   1.000  C
  H1011    1.0000 0.45237  0.89882  0.97461  Biso   1.000  H
  H1012    1.0000 0.46602  0.97188  0.97101  Biso   1.000  H
  H1013    1.0000 0.45233  0.89882  0.97461  Biso   1.000  H
  H1014    1.0000 0.46605  0.97193  0.97101  Biso   1.000  H
  C831     1.0000 0.45603  0.94412  0.00902  Biso   1.000  C
  H1015    1.0000 0.94492  0.55932  0.94710  Biso   1.000  H
  N40      1.0000 0.04013  0.60641  0.95213  Biso   1.000  N
  H1016    1.0000 0.09924  0.92798  0.94271  Biso   1.000  H
  H1017    1.0000 0.05154  0.94451  0.92670  Biso   1.000  H
  H1018    1.0000 0.12917  0.98931  0.92380  Biso   1.000  H
  H1019    1.0000 0.09922  0.92803  0.94271  Biso   1.000  H
  H1020    1.0000 0.12908  0.98931  0.92380  Biso   1.000  H
  H1021    1.0000 0.17750  0.63488  0.79391  Biso   1.000  H
  H1022    1.0000 0.14634  0.56900  0.81020  Biso   1.000  H
  H1023    1.0000 0.22315  0.60801  0.80449  Biso   1.000  H
  H1024    1.0000 0.17753  0.63493  0.79391  Biso   1.000  H
  H1025    1.0000 0.75160  0.67448  0.72280  Biso   1.000  H
  H1026    1.0000 0.75163  0.67453  0.72280  Biso   1.000  H
  H1027    1.0000 0.92525  0.48840  0.77540  Biso   1.000  H
  H1028    1.0000 0.86323  0.46368  0.79369  Biso   1.000  H
  C832     1.0000 0.95093  0.49219  0.81431  Biso   1.000  C
  H1029    1.0000 0.92516  0.48840  0.77540  Biso   1.000  H
  H1030    1.0000 0.86322  0.46373  0.79369  Biso   1.000  H
  C833     1.0000 0.95096  0.49224  0.81431  Biso   1.000  C
  H1031    1.0000 0.78532  0.69321  0.86750  Biso   1.000  H
  H1032    1.0000 0.81261  0.76752  0.85871  Biso   1.000  H
  C834     1.0000 0.73741  0.69990  0.83500  Biso   1.000  C
  C835     1.0000 0.73737  0.69990  0.83500  Biso   1.000  C
  C836     1.0000 0.90485  0.78980  0.91221  Biso   1.000  C
  H1033    1.0000 0.98638  0.84508  0.93530  Biso   1.000  H
  H1034    1.0000 0.94781  0.88299  0.92860  Biso   1.000  H
  C837     1.0000 0.90480  0.78980  0.91221  Biso   1.000  C
  H1035    1.0000 0.98640  0.84513  0.93530  Biso   1.000  H
  H1036    1.0000 0.94779  0.88304  0.92860  Biso   1.000  H
  H1037    1.0000 0.84698  0.72372  0.96400  Biso   1.000  H
  H1038    1.0000 0.91550  0.74120  0.95200  Biso   1.000  H
  C838     1.0000 0.84702  0.72552  0.92591  Biso   1.000  C
  C839     1.0000 0.86759  0.82800  0.05609  Biso   1.000  C
  H1039    1.0000 0.95560  0.88628  0.03660  Biso   1.000  H
  H1040    1.0000 0.90086  0.90501  0.02981  Biso   1.000  H
  H1041    1.0000 0.95558  0.88633  0.03660  Biso   1.000  H
  H1042    1.0000 0.90078  0.90501  0.02981  Biso   1.000  H
  C840     1.0000 0.08452  0.74640  0.98833  Biso   1.000  C
  H1043    1.0000 0.69761  0.83050  0.98111  Biso   1.000  H
  C841     1.0000 0.66191  0.91550  0.98833  Biso   1.000  C
  H1044    1.0000 0.87919  0.07152  0.89601  Biso   1.000  H
  H1045    1.0000 0.92489  0.13869  0.91041  Biso   1.000  H
  C842     1.0000 0.82408  0.10618  0.91559  Biso   1.000  C
  H1046    1.0000 0.92495  0.13874  0.91041  Biso   1.000  H
  C843     1.0000 0.82410  0.10623  0.91559  Biso   1.000  C
  H1047    1.0000 0.92491  0.13874  0.91041  Biso   1.000  H
  H1048    1.0000 0.86982  0.12051  0.91240  Biso   1.000  H
  H1049    1.0000 0.82791  0.12820  0.93179  Biso   1.000  H
  H1050    1.0000 0.82786  0.12820  0.93179  Biso   1.000  H
  H1051    1.0000 0.92448  0.18848  0.92411  Biso   1.000  H
  C844     1.0000 0.83250  0.18289  0.92140  Biso   1.000  C
  H1052    1.0000 0.99021  0.17929  0.05230  Biso   1.000  H
  H1053    1.0000 0.91609  0.12610  0.05839  Biso   1.000  H
  C845     1.0000 0.98202  0.11601  0.08090  Biso   1.000  C
  H1054    1.0000 0.99019  0.17934  0.05230  Biso   1.000  H
  C846     1.0000 0.98197  0.11601  0.08090  Biso   1.000  C
  C847     1.0000 0.56093  0.47202  0.69835  Biso   1.000  C
  H1055    1.0000 0.65903  0.49729  0.70381  Biso   1.000  H
  H1056    1.0000 0.61580  0.46792  0.72889  Biso   1.000  H
  H1057    1.0000 0.65905  0.49734  0.70381  Biso   1.000  H
  H1058    1.0000 0.49598  0.44290  0.72860  Biso   1.000  H
  H1059    1.0000 0.46759  0.45808  0.70350  Biso   1.000  H
  H1060    1.0000 0.46762  0.45813  0.70350  Biso   1.000  H
  H1061    1.0000 0.56434  0.90841  0.03530  Biso   1.000  H
  H1062    1.0000 0.57310  0.97912  0.02981  Biso   1.000  H
  C848     1.0000 0.47800  0.90491  0.02659  Biso   1.000  C
  H1063    1.0000 0.40779  0.92409  0.00979  Biso   1.000  H
  H1064    1.0000 0.47576  0.98971  0.01510  Biso   1.000  H
  H1065    1.0000 0.40781  0.92414  0.00979  Biso   1.000  H
  H1066    1.0000 0.47567  0.98971  0.01510  Biso   1.000  H
  C849     1.0000 0.03213  0.58089  0.97888  Biso   1.000  C
  C850     1.0000 0.03215  0.58094  0.97888  Biso   1.000  C
  H1067    1.0000 0.99775  0.51931  0.81059  Biso   1.000  H
  H1068    1.0000 0.93985  0.44650  0.81640  Biso   1.000  H
  H1069    1.0000 0.94059  0.50758  0.82991  Biso   1.000  H
  H1070    1.0000 0.99766  0.51931  0.81059  Biso   1.000  H
  H1071    1.0000 0.93976  0.44650  0.81640  Biso   1.000  H
  H1072    1.0000 0.94061  0.50763  0.82991  Biso   1.000  H
  H1073    1.0000 0.75115  0.72512  0.81920  Biso   1.000  H
  H1074    1.0000 0.70450  0.70709  0.84349  Biso   1.000  H
  H1075    1.0000 0.71848  0.65331  0.83120  Biso   1.000  H
  H1076    1.0000 0.70453  0.70714  0.84349  Biso   1.000  H
  H1077    1.0000 0.92856  0.80772  0.89601  Biso   1.000  H
  H1078    1.0000 0.86131  0.78620  0.91041  Biso   1.000  H
  C851     1.0000 0.89380  0.71788  0.91559  Biso   1.000  C
  H1079    1.0000 0.92852  0.80772  0.89601  Biso   1.000  H
  H1080    1.0000 0.86127  0.78620  0.91041  Biso   1.000  H
  C852     1.0000 0.89378  0.71793  0.91559  Biso   1.000  C
  H1081    1.0000 0.87956  0.74934  0.91240  Biso   1.000  H
  H1082    1.0000 0.87182  0.69970  0.93179  Biso   1.000  H
  H1083    1.0000 0.87178  0.69970  0.93179  Biso   1.000  H
  H1084    1.0000 0.81152  0.73601  0.92411  Biso   1.000  H
  C853     1.0000 0.81711  0.64961  0.92140  Biso   1.000  C
  H1085    1.0000 0.82069  0.81092  0.05230  Biso   1.000  H
  H1086    1.0000 0.87393  0.79000  0.05839  Biso   1.000  H
  C854     1.0000 0.88400  0.86601  0.08090  Biso   1.000  C
  N41      1.0000 0.04356  0.68592  0.99450  Biso   1.000  N
  H1087    1.0000 0.12829  0.75668  0.98531  Biso   1.000  H
  N42      1.0000 0.04347  0.68592  0.99450  Biso   1.000  N
  H1088    1.0000 0.12831  0.75673  0.98531  Biso   1.000  H
  H1089    1.0000 0.62838  0.87170  0.98531  Biso   1.000  H
  H1090    1.0000 0.78350  0.06378  0.91550  Biso   1.000  H
  H1091    1.0000 0.82332  0.13329  0.90170  Biso   1.000  H
  H1092    1.0000 0.78348  0.06383  0.91550  Biso   1.000  H
  H1093    1.0000 0.82328  0.13329  0.90170  Biso   1.000  H
  H1094    1.0000 0.78678  0.14768  0.92130  Biso   1.000  H
  H1095    1.0000 0.84322  0.20571  0.90501  Biso   1.000  H
  H1096    1.0000 0.83910  0.21390  0.93501  Biso   1.000  H
  H1097    1.0000 0.97780  0.14148  0.09470  Biso   1.000  H
  H1098    1.0000 0.95429  0.06922  0.08450  Biso   1.000  H
  H1099    1.0000 0.97778  0.14153  0.09470  Biso   1.000  H
  H1100    1.0000 0.02772  0.12680  0.07949  Biso   1.000  H
  H1101    1.0000 0.02768  0.12680  0.07949  Biso   1.000  H
  H1102    1.0000 0.56991  0.49958  0.68310  Biso   1.000  H
  H1103    1.0000 0.54597  0.42662  0.69270  Biso   1.000  H
  H1104    1.0000 0.56989  0.49963  0.68310  Biso   1.000  H
  H1105    1.0000 0.54593  0.42662  0.69270  Biso   1.000  H
  H1106    1.0000 0.46660  0.90781  0.04440  Biso   1.000  H
  H1107    1.0000 0.45495  0.85822  0.02160  Biso   1.000  H
  H1108    1.0000 0.98475  0.55862  0.98361  Biso   1.000  H
  C855     1.0000 0.07044  0.64142  0.99605  Biso   1.000  C
  C856     1.0000 0.05608  0.53330  0.98142  Biso   1.000  C
  H1109    1.0000 0.93622  0.71968  0.91550  Biso   1.000  H
  H1110    1.0000 0.86672  0.69001  0.90170  Biso   1.000  H
  H1111    1.0000 0.93624  0.71973  0.91550  Biso   1.000  H
  H1112    1.0000 0.86667  0.69001  0.90170  Biso   1.000  H
  H1113    1.0000 0.85230  0.63912  0.92130  Biso   1.000  H
  H1114    1.0000 0.79428  0.63752  0.90501  Biso   1.000  H
  H1115    1.0000 0.78611  0.62524  0.93501  Biso   1.000  H
  H1116    1.0000 0.87321  0.90092  0.07949  Biso   1.000  H
  H1117    1.0000 0.85850  0.83629  0.09470  Biso   1.000  H
  H1118    1.0000 0.93078  0.88508  0.08450  Biso   1.000  H
  H1119    1.0000 0.85853  0.83634  0.09470  Biso   1.000  H
  H1120    1.0000 0.93080  0.88513  0.08450  Biso   1.000  H
  H1121    1.0000 0.11721  0.66549  0.99050  Biso   1.000  H
  H1122    1.0000 0.11723  0.66554  0.99050  Biso   1.000  H
  C857     1.0000 0.06709  0.61750  0.02410  Biso   1.000  C
  H1123    1.0000 0.10127  0.55352  0.97461  Biso   1.000  H
  H1124    1.0000 0.02809  0.49409  0.97101  Biso   1.000  H
  H1125    1.0000 0.10123  0.55352  0.97461  Biso   1.000  H
  H1126    1.0000 0.02811  0.49414  0.97101  Biso   1.000  H
  C858     1.0000 0.05595  0.51192  0.00902  Biso   1.000  C
  H1127    1.0000 0.09161  0.65590  0.03530  Biso   1.000  H
  H1128    1.0000 0.02096  0.59402  0.02981  Biso   1.000  H
  C859     1.0000 0.09514  0.57310  0.02659  Biso   1.000  C
  H1129    1.0000 0.02088  0.59402  0.02981  Biso   1.000  H
  C860     1.0000 0.09506  0.57310  0.02659  Biso   1.000  C
  H1130    1.0000 0.07592  0.48370  0.00979  Biso   1.000  H
  H1131    1.0000 0.01033  0.48600  0.01510  Biso   1.000  H
  H1132    1.0000 0.07588  0.48370  0.00979  Biso   1.000  H
  H1133    1.0000 0.14181  0.59672  0.02160  Biso   1.000  H
  H1134    1.0000 0.09220  0.55882  0.04440  Biso   1.000  H
  C861     1.0000 0.10463  0.19862  0.77254  Biso   1.000  C
  C862     1.0000 0.16380  0.26939  0.77451  Biso   1.000  C
  C863     1.0000 0.16378  0.26944  0.77451  Biso   1.000  C
  H1135    1.0000 0.07481  0.19832  0.75930  Biso   1.000  H
  H1136    1.0000 0.12119  0.16980  0.76660  Biso   1.000  H
  C864     1.0000 0.06462  0.16860  0.79642  Biso   1.000  C
  C865     1.0000 0.06458  0.16860  0.79642  Biso   1.000  C
  C866     1.0000 0.21269  0.27408  0.79627  Biso   1.000  C
  C867     1.0000 0.21271  0.27413  0.79627  Biso   1.000  C
  C868     1.0000 0.14021  0.31588  0.78516  Biso   1.000  C
  C869     1.0000 0.20092  0.29830  0.74906  Biso   1.000  C
  C870     1.0000 0.14019  0.31593  0.78516  Biso   1.000  C
  C871     1.0000 0.20088  0.29830  0.74906  Biso   1.000  C
  C872     1.0000 0.10459  0.19862  0.77254  Biso   1.000  C
  H1137    1.0000 0.05291  0.20002  0.80380  Biso   1.000  H
  H1138    1.0000 0.09251  0.16261  0.80891  Biso   1.000  H
  C873     1.0000 0.00240  0.10358  0.79300  Biso   1.000  C
  H1139    1.0000 0.09246  0.16261  0.80891  Biso   1.000  H
  C874     1.0000 0.00238  0.10363  0.79300  Biso   1.000  C
  C875     1.0000 0.25559  0.24951  0.79669  Biso   1.000  C
  C876     1.0000 0.21170  0.31398  0.81768  Biso   1.000  C
  C877     1.0000 0.21169  0.31403  0.81768  Biso   1.000  C
  C878     1.0000 0.16388  0.33521  0.81082  Biso   1.000  C
  C879     1.0000 0.09761  0.33181  0.77345  Biso   1.000  C
  C880     1.0000 0.09757  0.33181  0.77345  Biso   1.000  C
  H1140    1.0000 0.21628  0.26899  0.74250  Biso   1.000  H
  H1141    1.0000 0.16951  0.29810  0.73660  Biso   1.000  H
  C881     1.0000 0.25941  0.36762  0.75059  Biso   1.000  C
  H1142    1.0000 0.21630  0.26904  0.74250  Biso   1.000  H
  H1143    1.0000 0.16947  0.29810  0.73660  Biso   1.000  H
  C882     1.0000 0.25937  0.36762  0.75059  Biso   1.000  C
  H1144    1.0000 0.01329  0.07182  0.78551  Biso   1.000  H
  H1145    1.0000 0.97330  0.10922  0.78100  Biso   1.000  H
  C883     1.0000 0.96349  0.07411  0.81949  Biso   1.000  C
  C884     1.0000 0.27022  0.20871  0.77838  Biso   1.000  C
  C885     1.0000 0.27018  0.20871  0.77838  Biso   1.000  C
  C886     1.0000 0.30251  0.26619  0.81804  Biso   1.000  C
  C887     1.0000 0.30249  0.26624  0.81804  Biso   1.000  C
  C888     1.0000 0.25381  0.32632  0.83875  Biso   1.000  C
  C889     1.0000 0.25377  0.32632  0.83875  Biso   1.000  C
  C890     1.0000 0.14362  0.37651  0.82338  Biso   1.000  C
  C891     1.0000 0.14358  0.37651  0.82338  Biso   1.000  C
  C892     1.0000 0.07601  0.37062  0.78618  Biso   1.000  C
  H1146    1.0000 0.08259  0.31648  0.75680  Biso   1.000  H
  C893     1.0000 0.07597  0.37062  0.78618  Biso   1.000  C
  H1147    1.0000 0.08258  0.31653  0.75680  Biso   1.000  H
  C894     1.0000 0.29399  0.39629  0.72496  Biso   1.000  C
  H1148    1.0000 0.29171  0.36752  0.76259  Biso   1.000  H
  H1149    1.0000 0.24441  0.39669  0.75769  Biso   1.000  H
  C895     1.0000 0.29401  0.39634  0.72496  Biso   1.000  C
  H1150    1.0000 0.29167  0.36752  0.76259  Biso   1.000  H
  H1151    1.0000 0.24439  0.39674  0.75769  Biso   1.000  H
  H1152    1.0000 0.95131  0.10468  0.82679  Biso   1.000  H
  H1153    1.0000 0.99179  0.06792  0.83140  Biso   1.000  H
  H1154    1.0000 0.92402  0.03211  0.81630  Biso   1.000  H
  H1155    1.0000 0.95129  0.10473  0.82679  Biso   1.000  H
  H1156    1.0000 0.92398  0.03211  0.81630  Biso   1.000  H
  C896     1.0000 0.32741  0.20691  0.78721  Biso   1.000  C
  C897     1.0000 0.32736  0.20691  0.78721  Biso   1.000  C
  C898     1.0000 0.23928  0.17460  0.75555  Biso   1.000  C
  C899     1.0000 0.35140  0.24192  0.81301  Biso   1.000  C
  C900     1.0000 0.30001  0.30350  0.83869  Biso   1.000  C
  C901     1.0000 0.29997  0.30350  0.83869  Biso   1.000  C
  C902     1.0000 0.26143  0.36742  0.86322  Biso   1.000  C
  C903     1.0000 0.26139  0.36742  0.86322  Biso   1.000  C
  C904     1.0000 0.09991  0.39099  0.81167  Biso   1.000  C
  H1157    1.0000 0.16030  0.39379  0.83970  Biso   1.000  H
  C905     1.0000 0.09989  0.39104  0.81167  Biso   1.000  C
  H1158    1.0000 0.16029  0.39384  0.83970  Biso   1.000  H
  C906     1.0000 0.03289  0.39189  0.77384  Biso   1.000  C
  C907     1.0000 0.03292  0.39194  0.77384  Biso   1.000  C
  H1159    1.0000 0.31252  0.36942  0.71860  Biso   1.000  H
  H1160    1.0000 0.26091  0.39259  0.71250  Biso   1.000  H
  C908     1.0000 0.34791  0.46650  0.72597  Biso   1.000  C
  H1161    1.0000 0.31247  0.36942  0.71860  Biso   1.000  H
  H1162    1.0000 0.26089  0.39264  0.71250  Biso   1.000  H
  C909     1.0000 0.34787  0.46650  0.72597  Biso   1.000  C
  C910     1.0000 0.35249  0.17300  0.77397  Biso   1.000  C
  C911     1.0000 0.26629  0.14099  0.74236  Biso   1.000  C
  C912     1.0000 0.26631  0.14104  0.74236  Biso   1.000  C
  H1163    1.0000 0.20142  0.17430  0.74929  Biso   1.000  H
  H1164    1.0000 0.20137  0.17430  0.74929  Biso   1.000  H
  C913     1.0000 0.42359  0.29920  0.80953  Biso   1.000  C
  C914     1.0000 0.34690  0.18958  0.83221  Biso   1.000  C
  C915     1.0000 0.34688  0.18963  0.83221  Biso   1.000  C
  C916     1.0000 0.33793  0.32492  0.86366  Biso   1.000  C
  C917     1.0000 0.33789  0.32492  0.86366  Biso   1.000  C
  C918     1.0000 0.31608  0.36228  0.87717  Biso   1.000  C
  C919     1.0000 0.31611  0.36233  0.87717  Biso   1.000  C
  C920     1.0000 0.19340  0.32772  0.87977  Biso   1.000  C
  C921     1.0000 0.28378  0.43989  0.85784  Biso   1.000  C
  C922     1.0000 0.28381  0.43994  0.85784  Biso   1.000  C
  H1165    1.0000 0.08480  0.41551  0.82091  Biso   1.000  H
  N43      1.0000 0.01958  0.38560  0.74982  Biso   1.000  N
  H1166    1.0000 0.01409  0.41112  0.78419  Biso   1.000  H
  H1167    1.0000 0.32960  0.49432  0.73069  Biso   1.000  H
  H1168    1.0000 0.38050  0.47130  0.73861  Biso   1.000  H
  H1169    1.0000 0.36878  0.47979  0.70931  Biso   1.000  H
  H1170    1.0000 0.36881  0.47984  0.70931  Biso   1.000  H
  C923     1.0000 0.32241  0.14009  0.75067  Biso   1.000  C
  C924     1.0000 0.32239  0.14014  0.75067  Biso   1.000  C
  H1171    1.0000 0.38952  0.17180  0.78040  Biso   1.000  H
  H1172    1.0000 0.38948  0.17180  0.78040  Biso   1.000  H
  H1173    1.0000 0.24552  0.11821  0.72731  Biso   1.000  H
  H1174    1.0000 0.24547  0.11821  0.72731  Biso   1.000  H
  H1175    1.0000 0.45089  0.27992  0.80471  Biso   1.000  H
  H1176    1.0000 0.43952  0.32092  0.82619  Biso   1.000  H
  C925     1.0000 0.43491  0.35089  0.79031  Biso   1.000  C
  H1177    1.0000 0.43947  0.32092  0.82619  Biso   1.000  H
  C926     1.0000 0.43489  0.35094  0.79031  Biso   1.000  C
  H1178    1.0000 0.37462  0.17210  0.82590  Biso   1.000  H
  H1179    1.0000 0.36552  0.21160  0.84860  Biso   1.000  H
  C927     1.0000 0.27980  0.13349  0.83695  Biso   1.000  C
  H1180    1.0000 0.37458  0.17210  0.82590  Biso   1.000  H
  H1181    1.0000 0.36548  0.21160  0.84860  Biso   1.000  H
  C928     1.0000 0.27976  0.13349  0.83695  Biso   1.000  C
  C929     1.0000 0.39067  0.32038  0.87319  Biso   1.000  C
  C930     1.0000 0.39070  0.32043  0.87319  Biso   1.000  C
  C931     1.0000 0.34181  0.38830  0.90187  Biso   1.000  C
  C932     1.0000 0.34176  0.38830  0.90187  Biso   1.000  C
  H1182    1.0000 0.15920  0.33311  0.87100  Biso   1.000  H
  H1183    1.0000 0.20091  0.34939  0.89651  Biso   1.000  H
  C933     1.0000 0.16422  0.24921  0.88466  Biso   1.000  C
  H1184    1.0000 0.20089  0.34944  0.89651  Biso   1.000  H
  C934     1.0000 0.16418  0.24921  0.88466  Biso   1.000  C
  C935     1.0000 0.33748  0.47290  0.83929  Biso   1.000  C
  H1185    1.0000 0.24569  0.44268  0.85170  Biso   1.000  H
  H1186    1.0000 0.29802  0.46431  0.87400  Biso   1.000  H
  H1187    1.0000 0.24567  0.44273  0.85170  Biso   1.000  H
  H1188    1.0000 0.29798  0.46431  0.87400  Biso   1.000  H
  C936     1.0000 0.97541  0.40772  0.74080  Biso   1.000  C
  C937     1.0000 0.35069  0.10678  0.73586  Biso   1.000  C
  C938     1.0000 0.35067  0.10683  0.73586  Biso   1.000  C
  H1189    1.0000 0.42869  0.33171  0.77310  Biso   1.000  H
  C939     1.0000 0.50261  0.41242  0.79160  Biso   1.000  C
  H1190    1.0000 0.40133  0.36392  0.79271  Biso   1.000  H
  H1191    1.0000 0.40129  0.36392  0.79271  Biso   1.000  H
  C940     1.0000 0.50265  0.41242  0.79160  Biso   1.000  C
  H1192    1.0000 0.25799  0.11651  0.82040  Biso   1.000  H
  H1193    1.0000 0.25441  0.14992  0.84630  Biso   1.000  H
  C941     1.0000 0.27763  0.07491  0.85261  Biso   1.000  C
  C942     1.0000 0.27758  0.07491  0.85261  Biso   1.000  C
  H1194    1.0000 0.41119  0.30260  0.86310  Biso   1.000  H
  C943     1.0000 0.41371  0.34310  0.89866  Biso   1.000  C
  C944     1.0000 0.41367  0.34310  0.89866  Biso   1.000  C
  C945     1.0000 0.38899  0.37731  0.91259  Biso   1.000  C
  H1195    1.0000 0.32662  0.41312  0.91079  Biso   1.000  H
  H1196    1.0000 0.32658  0.41312  0.91079  Biso   1.000  H
  C946     1.0000 0.10290  0.19482  0.90321  Biso   1.000  C
  H1197    1.0000 0.20272  0.24611  0.89010  Biso   1.000  H
  H1198    1.0000 0.15307  0.22968  0.86750  Biso   1.000  H
  H1199    1.0000 0.20268  0.24611  0.89010  Biso   1.000  H
  H1200    1.0000 0.15310  0.22973  0.86750  Biso   1.000  H
  H1201    1.0000 0.32678  0.44648  0.82360  Biso   1.000  H
  H1202    1.0000 0.37860  0.47789  0.84640  Biso   1.000  H
  C947     1.0000 0.34621  0.54312  0.83320  Biso   1.000  C
  H1203    1.0000 0.32681  0.44653  0.82360  Biso   1.000  H
  H1204    1.0000 0.37858  0.47794  0.84640  Biso   1.000  H
  C948     1.0000 0.34617  0.54312  0.83320  Biso   1.000  C
  C949     1.0000 0.01370  0.47150  0.72419  Biso   1.000  C
  H1205    1.0000 0.95502  0.41711  0.75570  Biso   1.000  H
  C950     1.0000 0.92018  0.35149  0.72425  Biso   1.000  C
  C951     1.0000 0.92020  0.35154  0.72425  Biso   1.000  C
  H1206    1.0000 0.95498  0.41711  0.75570  Biso   1.000  H
  C952     1.0000 0.01366  0.47150  0.72419  Biso   1.000  C
  N44      1.0000 0.40890  0.11731  0.74041  Biso   1.000  N
  H1207    1.0000 0.32552  0.07711  0.72280  Biso   1.000  H
  H1208    1.0000 0.32548  0.07711  0.72280  Biso   1.000  H
  C953     1.0000 0.50781  0.45871  0.81431  Biso   1.000  C
  H1209    1.0000 0.51159  0.43679  0.77540  Biso   1.000  H
  H1210    1.0000 0.53628  0.39948  0.79369  Biso   1.000  H
  H1211    1.0000 0.51162  0.43684  0.77540  Biso   1.000  H
  H1212    1.0000 0.53630  0.39953  0.79369  Biso   1.000  H
  H1213    1.0000 0.23249  0.04510  0.85871  Biso   1.000  H
  C954     1.0000 0.30010  0.03751  0.83500  Biso   1.000  C
  H1214    1.0000 0.30680  0.09209  0.86750  Biso   1.000  H
  H1215    1.0000 0.30679  0.09214  0.86750  Biso   1.000  H
  H1216    1.0000 0.44570  0.33511  0.90611  Biso   1.000  H
  C955     1.0000 0.41228  0.39818  0.93938  Biso   1.000  C
  C956     1.0000 0.41230  0.39823  0.93938  Biso   1.000  C
  H1217    1.0000 0.07191  0.20921  0.89771  Biso   1.000  H
  H1218    1.0000 0.09211  0.15732  0.89181  Biso   1.000  H
  C957     1.0000 0.05538  0.14848  0.92639  Biso   1.000  C
  H1219    1.0000 0.07186  0.20921  0.89771  Biso   1.000  H
  H1220    1.0000 0.09207  0.15732  0.89181  Biso   1.000  H
  C958     1.0000 0.05541  0.14853  0.92639  Biso   1.000  C
  H1221    1.0000 0.30260  0.53912  0.83111  Biso   1.000  H
  H1222    1.0000 0.36868  0.57318  0.84750  Biso   1.000  H
  C959     1.0000 0.38748  0.57228  0.80800  Biso   1.000  C
  H1223    1.0000 0.36870  0.57323  0.84750  Biso   1.000  H
  C960     1.0000 0.38750  0.57233  0.80800  Biso   1.000  C
  H1224    1.0000 0.04798  0.50711  0.73460  Biso   1.000  H
  C961     1.0000 0.96610  0.49272  0.71411  Biso   1.000  C
  C962     1.0000 0.96614  0.49272  0.71411  Biso   1.000  C
  H1225    1.0000 0.03531  0.46291  0.70981  Biso   1.000  H
  H1226    1.0000 0.03527  0.46291  0.70981  Biso   1.000  H
  C963     1.0000 0.87321  0.37581  0.71432  Biso   1.000  C
  N45      1.0000 0.88271  0.29161  0.74041  Biso   1.000  N
  H1227    1.0000 0.94029  0.34120  0.70960  Biso   1.000  H
  C964     1.0000 0.87317  0.37581  0.71432  Biso   1.000  C
  N46      1.0000 0.88267  0.29161  0.74041  Biso   1.000  N
  C965     1.0000 0.43132  0.07981  0.72425  Biso   1.000  C
  C966     1.0000 0.43128  0.07981  0.72425  Biso   1.000  C
  H1228    1.0000 0.49239  0.43299  0.82991  Biso   1.000  H
  H1229    1.0000 0.48071  0.47839  0.81059  Biso   1.000  H
  H1230    1.0000 0.55353  0.49332  0.81640  Biso   1.000  H
  H1231    1.0000 0.48069  0.47844  0.81059  Biso   1.000  H
  H1232    1.0000 0.55348  0.49332  0.81640  Biso   1.000  H
  H1233    1.0000 0.27489  0.02602  0.81920  Biso   1.000  H
  H1234    1.0000 0.34670  0.06522  0.83120  Biso   1.000  H
  H1235    1.0000 0.29294  0.99740  0.84349  Biso   1.000  H
  N47      1.0000 0.39361  0.43369  0.95213  Biso   1.000  N
  H1236    1.0000 0.44071  0.38560  0.94710  Biso   1.000  H
  N48      1.0000 0.39359  0.43374  0.95213  Biso   1.000  N
  H1237    1.0000 0.44067  0.38560  0.94710  Biso   1.000  H
  H1238    1.0000 0.05550  0.10702  0.92670  Biso   1.000  H
  H1239    1.0000 0.07202  0.17120  0.94271  Biso   1.000  H
  H1240    1.0000 0.01068  0.13979  0.92380  Biso   1.000  H
  H1241    1.0000 0.07198  0.17120  0.94271  Biso   1.000  H
  H1242    1.0000 0.01071  0.13984  0.92380  Biso   1.000  H
  H1243    1.0000 0.36512  0.54262  0.79391  Biso   1.000  H
  H1244    1.0000 0.43098  0.57728  0.81020  Biso   1.000  H
  H1245    1.0000 0.39201  0.61508  0.80449  Biso   1.000  H
  H1246    1.0000 0.36508  0.54262  0.79391  Biso   1.000  H
  H1247    1.0000 0.43100  0.57733  0.81020  Biso   1.000  H
  H1248    1.0000 0.39199  0.61513  0.80449  Biso   1.000  H
  H1249    1.0000 0.94691  0.50401  0.72860  Biso   1.000  H
  H1250    1.0000 0.99051  0.53238  0.70350  Biso   1.000  H
  C967     1.0000 0.91108  0.43909  0.69835  Biso   1.000  C
  H1251    1.0000 0.94687  0.50401  0.72860  Biso   1.000  H
  H1252    1.0000 0.99049  0.53243  0.70350  Biso   1.000  H
  C968     1.0000 0.91110  0.43914  0.69835  Biso   1.000  C
  H1253    1.0000 0.83829  0.34100  0.70381  Biso   1.000  H
  H1254    1.0000 0.85211  0.38420  0.72889  Biso   1.000  H
  H1255    1.0000 0.83834  0.34100  0.70381  Biso   1.000  H
  H1256    1.0000 0.85206  0.38420  0.72889  Biso   1.000  H
  C969     1.0000 0.89320  0.24391  0.73586  Biso   1.000  C
  C970     1.0000 0.50261  0.12680  0.71432  Biso   1.000  C
  C971     1.0000 0.50257  0.12680  0.71432  Biso   1.000  C
  C972     1.0000 0.43232  0.02462  0.74080  Biso   1.000  C
  C973     1.0000 0.43228  0.02462  0.74080  Biso   1.000  C
  H1257    1.0000 0.40089  0.05968  0.70960  Biso   1.000  H
  H1258    1.0000 0.40091  0.05973  0.70960  Biso   1.000  H
  C974     1.0000 0.41912  0.45122  0.97888  Biso   1.000  C
  C975     1.0000 0.41907  0.45122  0.97888  Biso   1.000  C
  H1259    1.0000 0.92968  0.43010  0.68310  Biso   1.000  H
  H1260    1.0000 0.88071  0.45412  0.69270  Biso   1.000  H
  C976     1.0000 0.85988  0.18229  0.75067  Biso   1.000  C
  H1261    1.0000 0.92292  0.24841  0.72280  Biso   1.000  H
  C977     1.0000 0.85991  0.18234  0.75067  Biso   1.000  C
  H1262    1.0000 0.92287  0.24841  0.72280  Biso   1.000  H
  C978     1.0000 0.52799  0.08890  0.69835  Biso   1.000  C
  H1263    1.0000 0.50272  0.16171  0.70381  Biso   1.000  H
  H1264    1.0000 0.53209  0.14788  0.72889  Biso   1.000  H
  H1265    1.0000 0.50268  0.16171  0.70381  Biso   1.000  H
  H1266    1.0000 0.53208  0.14793  0.72889  Biso   1.000  H
  C979     1.0000 0.45780  0.98632  0.72419  Biso   1.000  C
  N49      1.0000 0.36606  0.98042  0.74982  Biso   1.000  N
  N50      1.0000 0.36597  0.98042  0.74982  Biso   1.000  N
  H1267    1.0000 0.46210  0.04500  0.75570  Biso   1.000  H
  H1268    1.0000 0.46206  0.04500  0.75570  Biso   1.000  H
  C980     1.0000 0.35861  0.42900  0.99605  Biso   1.000  C
  H1269    1.0000 0.44141  0.42610  0.98361  Biso   1.000  H
  C981     1.0000 0.46671  0.52279  0.98142  Biso   1.000  C
  C982     1.0000 0.35857  0.42900  0.99605  Biso   1.000  C
  H1270    1.0000 0.44137  0.42610  0.98361  Biso   1.000  H
  C983     1.0000 0.46669  0.52284  0.98142  Biso   1.000  C
  C984     1.0000 0.82700  0.17949  0.77397  Biso   1.000  C
  C985     1.0000 0.85898  0.12530  0.74236  Biso   1.000  C
  C986     1.0000 0.82698  0.17954  0.77397  Biso   1.000  C
  C987     1.0000 0.85903  0.12530  0.74236  Biso   1.000  C
  H1271    1.0000 0.50041  0.07032  0.68310  Biso   1.000  H
  H1272    1.0000 0.57339  0.11931  0.69270  Biso   1.000  H
  C988     1.0000 0.52662  0.03391  0.71411  Biso   1.000  C
  C989     1.0000 0.52658  0.03391  0.71411  Biso   1.000  C
  H1273    1.0000 0.50045  0.07032  0.68310  Biso   1.000  H
  H1274    1.0000 0.45916  0.95201  0.73460  Biso   1.000  H
  H1275    1.0000 0.42766  0.96469  0.70981  Biso   1.000  H
  H1276    1.0000 0.45907  0.95201  0.73460  Biso   1.000  H
  H1277    1.0000 0.42759  0.96474  0.70981  Biso   1.000  H
  C990     1.0000 0.35900  0.96709  0.77384  Biso   1.000  C
  C991     1.0000 0.35903  0.96714  0.77384  Biso   1.000  C
  H1278    1.0000 0.33451  0.45172  0.99050  Biso   1.000  H
  N51      1.0000 0.31408  0.35758  0.99450  Biso   1.000  N
  N52      1.0000 0.31410  0.35763  0.99450  Biso   1.000  N
  C992     1.0000 0.38250  0.44962  0.02410  Biso   1.000  C
  H1279    1.0000 0.44651  0.54771  0.97461  Biso   1.000  H
  H1280    1.0000 0.50590  0.53398  0.97101  Biso   1.000  H
  H1281    1.0000 0.44647  0.54771  0.97461  Biso   1.000  H
  H1282    1.0000 0.50589  0.53403  0.97101  Biso   1.000  H
  C993     1.0000 0.48809  0.54401  0.00902  Biso   1.000  C
  C994     1.0000 0.79309  0.12051  0.78721  Biso   1.000  C
  H1283    1.0000 0.82819  0.21770  0.78040  Biso   1.000  H
  H1284    1.0000 0.88178  0.12730  0.72731  Biso   1.000  H
  C995     1.0000 0.82541  0.06472  0.75555  Biso   1.000  C
  C996     1.0000 0.82545  0.06472  0.75555  Biso   1.000  C
  H1285    1.0000 0.55710  0.05309  0.72860  Biso   1.000  H
  H1286    1.0000 0.54188  0.00949  0.70350  Biso   1.000  H
  H1287    1.0000 0.55708  0.05314  0.72860  Biso   1.000  H
  H1288    1.0000 0.54190  0.00954  0.70350  Biso   1.000  H
  H1289    1.0000 0.55713  0.05314  0.72860  Biso   1.000  H
  C997     1.0000 0.29464  0.92399  0.78618  Biso   1.000  C
  H1290    1.0000 0.39701  0.98592  0.78419  Biso   1.000  H
  C998     1.0000 0.29466  0.92404  0.78618  Biso   1.000  C
  C999     1.0000 0.25361  0.33810  0.98833  Biso   1.000  C
  C1000    1.0000 0.25356  0.33810  0.98833  Biso   1.000  C
  H1291    1.0000 0.34409  0.43569  0.03530  Biso   1.000  H
  H1292    1.0000 0.40600  0.42690  0.02981  Biso   1.000  H
  C1001    1.0000 0.42690  0.52199  0.02659  Biso   1.000  C
  H1293    1.0000 0.34412  0.43574  0.03530  Biso   1.000  H
  H1294    1.0000 0.40596  0.42690  0.02981  Biso   1.000  H
  C1002    1.0000 0.42689  0.52204  0.02659  Biso   1.000  C
  C1003    1.0000 0.42693  0.52204  0.02659  Biso   1.000  C
  H1295    1.0000 0.51629  0.59221  0.00979  Biso   1.000  H
  H1296    1.0000 0.51399  0.52429  0.01510  Biso   1.000  H
  H1297    1.0000 0.51402  0.52434  0.01510  Biso   1.000  H
  H1298    1.0000 0.51634  0.59221  0.00979  Biso   1.000  H
  C1004    1.0000 0.79130  0.06148  0.77838  Biso   1.000  C
  C1005    1.0000 0.75810  0.10952  0.81301  Biso   1.000  C
  C1006    1.0000 0.79128  0.06153  0.77838  Biso   1.000  C
  H1299    1.0000 0.82572  0.02712  0.74929  Biso   1.000  H
  H1300    1.0000 0.82568  0.02712  0.74929  Biso   1.000  H
  C1007    1.0000 0.23420  0.90241  0.77345  Biso   1.000  C
  C1008    1.0000 0.29113  0.90012  0.81167  Biso   1.000  C
  H1301    1.0000 0.24329  0.37162  0.98531  Biso   1.000  H
  C1009    1.0000 0.19759  0.26829  0.98535  Biso   1.000  C
  C1010    1.0000 0.19762  0.26834  0.98535  Biso   1.000  C
  H1302    1.0000 0.44121  0.53338  0.04440  Biso   1.000  H
  H1303    1.0000 0.40330  0.54511  0.02160  Biso   1.000  H
  H1304    1.0000 0.44119  0.53343  0.04440  Biso   1.000  H
  C1011    1.0000 0.75051  0.00609  0.79669  Biso   1.000  C
  C1012    1.0000 0.75049  0.00614  0.79669  Biso   1.000  C
  C1013    1.0000 0.73382  0.03631  0.81804  Biso   1.000  C
  C1014    1.0000 0.70080  0.12440  0.80953  Biso   1.000  C
  C1015    1.0000 0.81042  0.15732  0.83221  Biso   1.000  C
  C1016    1.0000 0.73378  0.03631  0.81804  Biso   1.000  C
  C1017    1.0000 0.70084  0.12440  0.80953  Biso   1.000  C
  C1018    1.0000 0.81037  0.15732  0.83221  Biso   1.000  C
  H1305    1.0000 0.23395  0.91740  0.75680  Biso   1.000  H
  C1019    1.0000 0.17574  0.85981  0.78516  Biso   1.000  C
  H1306    1.0000 0.23386  0.91740  0.75680  Biso   1.000  H
  C1020    1.0000 0.23291  0.85642  0.82338  Biso   1.000  C
  H1307    1.0000 0.33072  0.91520  0.82091  Biso   1.000  H
  C1021    1.0000 0.20210  0.21070  0.98682  Biso   1.000  C
  C1022    1.0000 0.13581  0.26374  0.98206  Biso   1.000  C
  C1023    1.0000 0.20206  0.21070  0.98682  Biso   1.000  C
  C1024    1.0000 0.13576  0.26374  0.98206  Biso   1.000  C
  C1025    1.0000 0.72590  0.93862  0.79627  Biso   1.000  C
  C1026    1.0000 0.69653  0.99650  0.83869  Biso   1.000  C
  H1308    1.0000 0.67909  0.11861  0.82619  Biso   1.000  H
  H1309    1.0000 0.72012  0.17100  0.80471  Biso   1.000  H
  C1027    1.0000 0.64911  0.08400  0.79031  Biso   1.000  C
  H1310    1.0000 0.67913  0.11861  0.82619  Biso   1.000  H
  H1311    1.0000 0.72007  0.17100  0.80471  Biso   1.000  H
  C1028    1.0000 0.64907  0.08400  0.79031  Biso   1.000  C
  H1312    1.0000 0.82791  0.20251  0.82590  Biso   1.000  H
  H1313    1.0000 0.78839  0.15392  0.84860  Biso   1.000  H
  C1029    1.0000 0.86649  0.14628  0.83695  Biso   1.000  C
  H1314    1.0000 0.82787  0.20251  0.82590  Biso   1.000  H
  C1030    1.0000 0.86651  0.14633  0.83695  Biso   1.000  C
  C1031    1.0000 0.17132  0.83609  0.81082  Biso   1.000  C
  C1032    1.0000 0.10559  0.83619  0.77451  Biso   1.000  C
  C1033    1.0000 0.17135  0.83614  0.81082  Biso   1.000  C
  C1034    1.0000 0.10561  0.83624  0.77451  Biso   1.000  C
  H1315    1.0000 0.23354  0.83969  0.83970  Biso   1.000  H
  H1316    1.0000 0.23352  0.83974  0.83970  Biso   1.000  H
  H1317    1.0000 0.24339  0.21370  0.98901  Biso   1.000  H
  C1035    1.0000 0.14459  0.14828  0.98502  Biso   1.000  C
  C1036    1.0000 0.14458  0.14833  0.98502  Biso   1.000  C
  C1037    1.0000 0.07840  0.20151  0.98026  Biso   1.000  C
  H1318    1.0000 0.13290  0.30240  0.98111  Biso   1.000  H
  H1319    1.0000 0.13286  0.30240  0.98111  Biso   1.000  H
  C1038    1.0000 0.73061  0.89442  0.77451  Biso   1.000  C
  C1039    1.0000 0.68603  0.89772  0.81768  Biso   1.000  C
  C1040    1.0000 0.67375  0.92748  0.83875  Biso   1.000  C
  C1041    1.0000 0.67368  0.92753  0.83875  Biso   1.000  C
  C1042    1.0000 0.67511  0.01298  0.86366  Biso   1.000  C
  C1043    1.0000 0.67513  0.01303  0.86366  Biso   1.000  C
  C1044    1.0000 0.67509  0.01303  0.86366  Biso   1.000  C
  H1320    1.0000 0.63611  0.03741  0.79271  Biso   1.000  H
  H1321    1.0000 0.66828  0.09699  0.77310  Biso   1.000  H
  C1045    1.0000 0.58759  0.09019  0.79160  Biso   1.000  C
  H1322    1.0000 0.63606  0.03741  0.79271  Biso   1.000  H
  H1323    1.0000 0.66830  0.09704  0.77310  Biso   1.000  H
  H1324    1.0000 0.88351  0.14148  0.82040  Biso   1.000  H
  H1325    1.0000 0.85009  0.10448  0.84630  Biso   1.000  H
  C1046    1.0000 0.92511  0.20271  0.85261  Biso   1.000  C
  H1326    1.0000 0.88349  0.14153  0.82040  Biso   1.000  H
  H1327    1.0000 0.85011  0.10453  0.84630  Biso   1.000  H
  C1047    1.0000 0.92507  0.20271  0.85261  Biso   1.000  C
  C1048    1.0000 0.10236  0.78830  0.81768  Biso   1.000  C
  C1049    1.0000 0.10227  0.78830  0.81768  Biso   1.000  C
  C1050    1.0000 0.06146  0.78730  0.79627  Biso   1.000  C
  C1051    1.0000 0.09737  0.79908  0.74906  Biso   1.000  C
  C1052    1.0000 0.09407  0.89542  0.77254  Biso   1.000  C
  C1053    1.0000 0.06138  0.78730  0.79627  Biso   1.000  C
  C1054    1.0000 0.09740  0.79913  0.74906  Biso   1.000  C
  C1055    1.0000 0.09399  0.89542  0.77254  Biso   1.000  C
  C1056    1.0000 0.14471  0.08580  0.98306  Biso   1.000  C
  C1057    1.0000 0.08279  0.14378  0.98173  Biso   1.000  C
  C1058    1.0000 0.14467  0.08580  0.98306  Biso   1.000  C
  C1059    1.0000 0.08282  0.14383  0.98173  Biso   1.000  C
  C1060    1.0000 0.08286  0.14383  0.98173  Biso   1.000  C
  H1328    1.0000 0.03701  0.19842  0.97811  Biso   1.000  H
  H1329    1.0000 0.03697  0.19842  0.97811  Biso   1.000  H
  C1061    1.0000 0.70171  0.90261  0.74906  Biso   1.000  C
  C1062    1.0000 0.68413  0.82431  0.78516  Biso   1.000  C
  C1063    1.0000 0.80141  0.90601  0.77254  Biso   1.000  C
  C1064    1.0000 0.80137  0.90601  0.77254  Biso   1.000  C
  C1065    1.0000 0.66484  0.82870  0.81082  Biso   1.000  C
  C1066    1.0000 0.63262  0.89402  0.86322  Biso   1.000  C
  C1067    1.0000 0.63769  0.95380  0.87717  Biso   1.000  C
  C1068    1.0000 0.67959  0.07032  0.87319  Biso   1.000  C
  H1330    1.0000 0.56321  0.07481  0.77540  Biso   1.000  H
  H1331    1.0000 0.60051  0.13679  0.79369  Biso   1.000  H
  C1069    1.0000 0.54131  0.04909  0.81431  Biso   1.000  C
  H1332    1.0000 0.60049  0.13684  0.79369  Biso   1.000  H
  C1070    1.0000 0.54129  0.04914  0.81431  Biso   1.000  C
  H1333    1.0000 0.90792  0.21470  0.86750  Biso   1.000  H
  H1334    1.0000 0.95490  0.18738  0.85871  Biso   1.000  H
  C1071    1.0000 0.96249  0.26259  0.83500  Biso   1.000  C
  H1335    1.0000 0.90788  0.21470  0.86750  Biso   1.000  H
  H1336    1.0000 0.95492  0.18743  0.85871  Biso   1.000  H
  C1072    1.0000 0.96256  0.26264  0.83500  Biso   1.000  C
  H1337    1.0000 0.95488  0.18743  0.85871  Biso   1.000  H
  C1073    1.0000 0.96251  0.26264  0.83500  Biso   1.000  C
  C1074    1.0000 0.07253  0.74620  0.83875  Biso   1.000  C
  C1075    1.0000 0.99391  0.74440  0.79669  Biso   1.000  C
  C1076    1.0000 0.99386  0.74440  0.79669  Biso   1.000  C
  H1338    1.0000 0.05274  0.78370  0.74250  Biso   1.000  H
  H1339    1.0000 0.12865  0.83050  0.73660  Biso   1.000  H
  C1077    1.0000 0.10818  0.74060  0.75059  Biso   1.000  C
  H1340    1.0000 0.12860  0.83050  0.73660  Biso   1.000  H
  H1341    1.0000 0.12349  0.92519  0.75930  Biso   1.000  H
  H1342    1.0000 0.04865  0.87879  0.76660  Biso   1.000  H
  C1078    1.0000 0.10397  0.93538  0.79642  Biso   1.000  C
  H1343    1.0000 0.12351  0.92524  0.75930  Biso   1.000  H
  H1344    1.0000 0.04863  0.87884  0.76660  Biso   1.000  H
  C1079    1.0000 0.10400  0.93543  0.79642  Biso   1.000  C
  C1080    1.0000 0.06792  0.04120  0.98188  Biso   1.000  C
  C1081    1.0000 0.18310  0.08810  0.95812  Biso   1.000  C
  C1082    1.0000 0.06787  0.04120  0.98188  Biso   1.000  C
  C1083    1.0000 0.18306  0.08810  0.95812  Biso   1.000  C
  C1084    1.0000 0.17791  0.06742  0.00650  Biso   1.000  C
  C1085    1.0000 0.02549  0.06742  0.98214  Biso   1.000  C
  H1345    1.0000 0.73106  0.94731  0.74250  Biso   1.000  H
  H1346    1.0000 0.70193  0.87140  0.73660  Biso   1.000  H
  C1086    1.0000 0.63245  0.89178  0.75059  Biso   1.000  C
  H1347    1.0000 0.73098  0.94731  0.74250  Biso   1.000  H
  C1087    1.0000 0.63243  0.89183  0.75059  Biso   1.000  C
  C1088    1.0000 0.66826  0.76582  0.77345  Biso   1.000  C
  C1089    1.0000 0.66817  0.76582  0.77345  Biso   1.000  C
  H1348    1.0000 0.80175  0.87649  0.75930  Biso   1.000  H
  H1349    1.0000 0.83021  0.95141  0.76660  Biso   1.000  H
  C1090    1.0000 0.83141  0.89602  0.79642  Biso   1.000  C
  H1350    1.0000 0.80166  0.87649  0.75930  Biso   1.000  H
  H1351    1.0000 0.83016  0.95141  0.76660  Biso   1.000  H
  C1091    1.0000 0.62349  0.76712  0.82338  Biso   1.000  C
  C1092    1.0000 0.67231  0.86571  0.87977  Biso   1.000  C
  C1093    1.0000 0.56011  0.84388  0.85784  Biso   1.000  C
  C1094    1.0000 0.56009  0.84393  0.85784  Biso   1.000  C
  C1095    1.0000 0.61172  0.95350  0.90187  Biso   1.000  C
  C1096    1.0000 0.61167  0.95350  0.90187  Biso   1.000  C
  C1097    1.0000 0.65691  0.07062  0.89866  Biso   1.000  C
  H1352    1.0000 0.69741  0.10862  0.86310  Biso   1.000  H
  H1353    1.0000 0.52158  0.00230  0.81059  Biso   1.000  H
  H1354    1.0000 0.50667  0.06018  0.81640  Biso   1.000  H
  H1355    1.0000 0.56699  0.05938  0.82991  Biso   1.000  H
  H1356    1.0000 0.52163  0.00230  0.81059  Biso   1.000  H
  H1357    1.0000 0.50669  0.06023  0.81640  Biso   1.000  H
  H1358    1.0000 0.56698  0.05943  0.82991  Biso   1.000  H
  H1359    1.0000 0.97399  0.24891  0.81920  Biso   1.000  H
  H1360    1.0000 0.93480  0.28152  0.83120  Biso   1.000  H
  H1361    1.0000 0.93484  0.28152  0.83120  Biso   1.000  H
  H1362    1.0000 0.00260  0.29550  0.84349  Biso   1.000  H
  H1363    1.0000 0.00256  0.29550  0.84349  Biso   1.000  H
  C1098    1.0000 0.10601  0.73861  0.86322  Biso   1.000  C
  C1099    1.0000 0.00354  0.70000  0.83869  Biso   1.000  C
  C1100    1.0000 0.93852  0.72982  0.77838  Biso   1.000  C
  C1101    1.0000 0.96376  0.69750  0.81804  Biso   1.000  C
  C1102    1.0000 0.96371  0.69750  0.81804  Biso   1.000  C
  C1103    1.0000 0.10229  0.70599  0.72496  Biso   1.000  C
  H1364    1.0000 0.07581  0.70829  0.76259  Biso   1.000  H
  H1365    1.0000 0.15235  0.75559  0.75769  Biso   1.000  H
  C1104    1.0000 0.10232  0.70604  0.72496  Biso   1.000  C
  H1366    1.0000 0.07583  0.70834  0.76259  Biso   1.000  H
  H1367    1.0000 0.15229  0.75564  0.75769  Biso   1.000  H
  H1368    1.0000 0.14712  0.94711  0.80380  Biso   1.000  H
  H1369    1.0000 0.07014  0.90751  0.80891  Biso   1.000  H
  C1105    1.0000 0.10126  0.99760  0.79300  Biso   1.000  C
  C1106    1.0000 0.10122  0.99760  0.79300  Biso   1.000  C
  C1107    1.0000 0.04191  0.97448  0.98214  Biso   1.000  C
  C1108    1.0000 0.04193  0.97453  0.98214  Biso   1.000  C
  H1370    1.0000 0.22962  0.12181  0.96050  Biso   1.000  H
  H1371    1.0000 0.18121  0.04540  0.95639  Biso   1.000  H
  C1109    1.0000 0.16010  0.10248  0.93330  Biso   1.000  C
  H1372    1.0000 0.22958  0.12181  0.96050  Biso   1.000  H
  H1373    1.0000 0.18117  0.04540  0.95639  Biso   1.000  H
  C1110    1.0000 0.16008  0.10253  0.93330  Biso   1.000  C
  H1374    1.0000 0.17530  0.04300  0.95630  Biso   1.000  H
  H1375    1.0000 0.15791  0.09359  0.94430  Biso   1.000  H
  C1111    1.0000 0.24941  0.12860  0.95090  Biso   1.000  C
  H1376    1.0000 0.21998  0.10658  0.01090  Biso   1.000  H
  H1377    1.0000 0.18763  0.03331  0.00070  Biso   1.000  H
  C1112    1.0000 0.13210  0.04060  0.03279  Biso   1.000  C
  H1378    1.0000 0.22000  0.10663  0.01090  Biso   1.000  H
  H1379    1.0000 0.18758  0.03331  0.00070  Biso   1.000  H
  C1113    1.0000 0.13206  0.04060  0.03279  Biso   1.000  C
  C1114    1.0000 0.95882  0.02672  0.98188  Biso   1.000  C
  C1115    1.0000 0.95878  0.02672  0.98188  Biso   1.000  C
  C1116    1.0000 0.60376  0.89772  0.72496  Biso   1.000  C
  H1380    1.0000 0.63252  0.92419  0.76259  Biso   1.000  H
  H1381    1.0000 0.60335  0.84768  0.75769  Biso   1.000  H
  C1117    1.0000 0.60368  0.89772  0.72496  Biso   1.000  C
  H1382    1.0000 0.63255  0.92424  0.76259  Biso   1.000  H
  H1383    1.0000 0.60329  0.84773  0.75769  Biso   1.000  H
  C1118    1.0000 0.62944  0.70539  0.78618  Biso   1.000  C
  H1384    1.0000 0.68350  0.76612  0.75680  Biso   1.000  H
  H1385    1.0000 0.83739  0.92988  0.80891  Biso   1.000  H
  H1386    1.0000 0.80000  0.85292  0.80380  Biso   1.000  H
  C1119    1.0000 0.89647  0.89882  0.79300  Biso   1.000  C
  H1387    1.0000 0.83738  0.92993  0.80891  Biso   1.000  H
  C1120    1.0000 0.89638  0.89882  0.79300  Biso   1.000  C
  C1121    1.0000 0.60900  0.70889  0.81167  Biso   1.000  C
  C1122    1.0000 0.60898  0.70894  0.81167  Biso   1.000  C
  H1388    1.0000 0.60624  0.76652  0.83970  Biso   1.000  H
  H1389    1.0000 0.66691  0.82610  0.87100  Biso   1.000  H
  C1123    1.0000 0.75080  0.91500  0.88466  Biso   1.000  C
  H1390    1.0000 0.65060  0.85152  0.89651  Biso   1.000  H
  H1391    1.0000 0.55734  0.80298  0.85170  Biso   1.000  H
  H1392    1.0000 0.53572  0.83369  0.87400  Biso   1.000  H
  C1124    1.0000 0.52713  0.86461  0.83929  Biso   1.000  C
  H1393    1.0000 0.55733  0.80303  0.85170  Biso   1.000  H
  H1394    1.0000 0.58696  0.91350  0.91079  Biso   1.000  H
  H1395    1.0000 0.58687  0.91350  0.91079  Biso   1.000  H
  C1125    1.0000 0.62269  0.01169  0.91259  Biso   1.000  C
  C1126    1.0000 0.62271  0.01174  0.91259  Biso   1.000  C
  H1396    1.0000 0.66493  0.11062  0.90611  Biso   1.000  H
  H1397    1.0000 0.66489  0.11062  0.90611  Biso   1.000  H
  C1127    1.0000 0.04623  0.68392  0.87717  Biso   1.000  C
  C1128    1.0000 0.13429  0.80658  0.87977  Biso   1.000  C
  C1129    1.0000 0.15613  0.71618  0.85784  Biso   1.000  C
  C1130    1.0000 0.13427  0.80663  0.87977  Biso   1.000  C
  C1131    1.0000 0.15616  0.71623  0.85784  Biso   1.000  C
  C1132    1.0000 0.98705  0.66209  0.86366  Biso   1.000  C
  C1133    1.0000 0.98701  0.66209  0.86366  Biso   1.000  C
  C1134    1.0000 0.87954  0.67258  0.78721  Biso   1.000  C
  C1135    1.0000 0.93527  0.76068  0.75555  Biso   1.000  C
  C1136    1.0000 0.87952  0.67263  0.78721  Biso   1.000  C
  C1137    1.0000 0.93529  0.76073  0.75555  Biso   1.000  C
  C1138    1.0000 0.89057  0.64861  0.81301  Biso   1.000  C
  C1139    1.0000 0.89048  0.64861  0.81301  Biso   1.000  C
  H1398    1.0000 0.05690  0.68752  0.71860  Biso   1.000  H
  H1399    1.0000 0.13170  0.73910  0.71250  Biso   1.000  H
  C1140    1.0000 0.11860  0.65211  0.72597  Biso   1.000  C
  H1400    1.0000 0.13589  0.02672  0.78100  Biso   1.000  H
  C1141    1.0000 0.11059  0.03651  0.81949  Biso   1.000  C
  H1401    1.0000 0.05849  0.98672  0.78551  Biso   1.000  H
  C1142    1.0000 0.06106  0.91720  0.98173  Biso   1.000  C
  C1143    1.0000 0.06102  0.91720  0.98173  Biso   1.000  C
  C1144    1.0000 0.97335  0.93208  0.98188  Biso   1.000  C
  C1145    1.0000 0.97333  0.93213  0.98188  Biso   1.000  C
  H1402    1.0000 0.11701  0.06482  0.92860  Biso   1.000  H
  C1146    1.0000 0.21023  0.11502  0.91221  Biso   1.000  C
  H1403    1.0000 0.15489  0.14128  0.93530  Biso   1.000  H
  C1147    1.0000 0.21018  0.11502  0.91221  Biso   1.000  C
  H1404    1.0000 0.15488  0.14133  0.93530  Biso   1.000  H
  H1405    1.0000 0.27631  0.12331  0.96400  Biso   1.000  H
  H1406    1.0000 0.25881  0.17430  0.95200  Biso   1.000  H
  C1148    1.0000 0.27450  0.12151  0.92591  Biso   1.000  C
  H1407    1.0000 0.09500  0.99580  0.02981  Biso   1.000  H
  C1149    1.0000 0.17200  0.03960  0.05609  Biso   1.000  C
  H1408    1.0000 0.11372  0.06932  0.03660  Biso   1.000  H
  H1409    1.0000 0.11368  0.06932  0.03660  Biso   1.000  H
  C1150    1.0000 0.93264  0.95810  0.98214  Biso   1.000  C
  C1151    1.0000 0.91418  0.05888  0.98306  Biso   1.000  C
  C1152    1.0000 0.91425  0.05893  0.98306  Biso   1.000  C
  C1153    1.0000 0.91420  0.05893  0.98306  Biso   1.000  C
  H1410    1.0000 0.63061  0.94312  0.71860  Biso   1.000  H
  H1411    1.0000 0.60744  0.86830  0.71250  Biso   1.000  H
  C1154    1.0000 0.53349  0.88139  0.72597  Biso   1.000  C
  C1155    1.0000 0.53351  0.88144  0.72597  Biso   1.000  C
  C1156    1.0000 0.60815  0.64102  0.77384  Biso   1.000  C
  H1412    1.0000 0.92820  0.94152  0.78551  Biso   1.000  H
  H1413    1.0000 0.89079  0.86411  0.78100  Biso   1.000  H
  C1157    1.0000 0.92592  0.88938  0.81949  Biso   1.000  C
  C1158    1.0000 0.92594  0.88943  0.81949  Biso   1.000  C
  H1414    1.0000 0.58448  0.66929  0.82091  Biso   1.000  H
  H1415    1.0000 0.58451  0.66934  0.82091  Biso   1.000  H
  H1416    1.0000 0.75392  0.95660  0.89010  Biso   1.000  H
  H1417    1.0000 0.77031  0.92339  0.86750  Biso   1.000  H
  C1159    1.0000 0.80518  0.90811  0.90321  Biso   1.000  C
  H1418    1.0000 0.75387  0.95660  0.89010  Biso   1.000  H
  H1419    1.0000 0.77029  0.92344  0.86750  Biso   1.000  H
  H1420    1.0000 0.55348  0.88029  0.82360  Biso   1.000  H
  H1421    1.0000 0.52209  0.90072  0.84640  Biso   1.000  H
  C1160    1.0000 0.45692  0.80308  0.83320  Biso   1.000  C
  H1422    1.0000 0.55351  0.88034  0.82360  Biso   1.000  H
  C1161    1.0000 0.45695  0.80313  0.83320  Biso   1.000  C
  C1162    1.0000 0.60178  0.01408  0.93938  Biso   1.000  C
  C1163    1.0000 0.60185  0.01413  0.93938  Biso   1.000  C
  C1164    1.0000 0.60181  0.01413  0.93938  Biso   1.000  C
  C1165    1.0000 0.04652  0.65820  0.90187  Biso   1.000  C
  H1423    1.0000 0.14849  0.79908  0.89651  Biso   1.000  H
  H1424    1.0000 0.17393  0.84079  0.87100  Biso   1.000  H
  C1166    1.0000 0.08506  0.83579  0.88466  Biso   1.000  C
  H1425    1.0000 0.14848  0.79913  0.89651  Biso   1.000  H
  H1426    1.0000 0.17395  0.84084  0.87100  Biso   1.000  H
  C1167    1.0000 0.08504  0.83584  0.88466  Biso   1.000  C
  H1427    1.0000 0.19703  0.75429  0.85170  Biso   1.000  H
  H1428    1.0000 0.16630  0.70200  0.87400  Biso   1.000  H
  C1168    1.0000 0.13539  0.66249  0.83929  Biso   1.000  C
  H1429    1.0000 0.19705  0.75434  0.85170  Biso   1.000  H
  C1169    1.0000 0.92973  0.60931  0.87319  Biso   1.000  C
  C1170    1.0000 0.82056  0.64751  0.77397  Biso   1.000  C
  C1171    1.0000 0.82051  0.64751  0.77397  Biso   1.000  C
  C1172    1.0000 0.87468  0.73371  0.74236  Biso   1.000  C
  H1430    1.0000 0.97291  0.79859  0.74929  Biso   1.000  H
  H1431    1.0000 0.97293  0.79864  0.74929  Biso   1.000  H
  C1173    1.0000 0.87565  0.57640  0.80953  Biso   1.000  C
  C1174    1.0000 0.84269  0.65311  0.83221  Biso   1.000  C
  C1175    1.0000 0.87561  0.57640  0.80953  Biso   1.000  C
  H1432    1.0000 0.16472  0.67039  0.73069  Biso   1.000  H
  H1433    1.0000 0.11099  0.63118  0.70931  Biso   1.000  H
  H1434    1.0000 0.09079  0.61949  0.73861  Biso   1.000  H
  H1435    1.0000 0.16474  0.67044  0.73069  Biso   1.000  H
  H1436    1.0000 0.11102  0.63123  0.70931  Biso   1.000  H
  H1437    1.0000 0.15341  0.04869  0.82679  Biso   1.000  H
  H1438    1.0000 0.07611  0.00819  0.83140  Biso   1.000  H
  H1439    1.0000 0.10812  0.07601  0.81630  Biso   1.000  H
  H1440    1.0000 0.15339  0.04874  0.82679  Biso   1.000  H
  H1441    1.0000 0.07609  0.00824  0.83140  Biso   1.000  H
  H1442    1.0000 0.10807  0.07601  0.81630  Biso   1.000  H
  C1176    1.0000 0.00374  0.85542  0.98502  Biso   1.000  C
  C1177    1.0000 0.12312  0.92159  0.98026  Biso   1.000  C
  C1178    1.0000 0.12307  0.92159  0.98026  Biso   1.000  C
  C1179    1.0000 0.94111  0.85532  0.98306  Biso   1.000  C
  C1180    1.0000 0.94107  0.85532  0.98306  Biso   1.000  C
  H1443    1.0000 0.21380  0.07511  0.91041  Biso   1.000  H
  H1444    1.0000 0.19232  0.12081  0.89601  Biso   1.000  H
  C1181    1.0000 0.28210  0.17589  0.91559  Biso   1.000  C
  H1445    1.0000 0.19228  0.12081  0.89601  Biso   1.000  H
  C1182    1.0000 0.28206  0.17589  0.91559  Biso   1.000  C
  H1446    1.0000 0.25069  0.13020  0.91240  Biso   1.000  H
  H1447    1.0000 0.30031  0.17210  0.93179  Biso   1.000  H
  H1448    1.0000 0.30027  0.17210  0.93179  Biso   1.000  H
  H1449    1.0000 0.26400  0.07551  0.92411  Biso   1.000  H
  C1183    1.0000 0.35039  0.16750  0.92140  Biso   1.000  C
  H1450    1.0000 0.18910  0.00979  0.05230  Biso   1.000  H
  H1451    1.0000 0.20998  0.08390  0.05839  Biso   1.000  H
  C1184    1.0000 0.13398  0.01798  0.08090  Biso   1.000  C
  H1452    1.0000 0.18908  0.00984  0.05230  Biso   1.000  H
  C1185    1.0000 0.13401  0.01803  0.08090  Biso   1.000  C
  C1186    1.0000 0.85624  0.93902  0.98173  Biso   1.000  C
  C1187    1.0000 0.85175  0.99630  0.98502  Biso   1.000  C
  C1188    1.0000 0.85171  0.99630  0.98502  Biso   1.000  C
  C1189    1.0000 0.91190  0.09499  0.95812  Biso   1.000  C
  C1190    1.0000 0.91193  0.09504  0.95812  Biso   1.000  C
  C1191    1.0000 0.91189  0.09504  0.95812  Biso   1.000  C
  C1192    1.0000 0.93260  0.11052  0.00650  Biso   1.000  C
  H1453    1.0000 0.50573  0.83529  0.73069  Biso   1.000  H
  H1454    1.0000 0.52024  0.88898  0.70931  Biso   1.000  H
  H1455    1.0000 0.52871  0.90921  0.73861  Biso   1.000  H
  H1456    1.0000 0.50575  0.83534  0.73069  Biso   1.000  H
  H1457    1.0000 0.52023  0.88903  0.70931  Biso   1.000  H
  H1458    1.0000 0.52867  0.90921  0.73861  Biso   1.000  H
  N53      1.0000 0.61440  0.63398  0.74982  Biso   1.000  N
  N54      1.0000 0.61443  0.63403  0.74982  Biso   1.000  N
  H1459    1.0000 0.58893  0.60301  0.78419  Biso   1.000  H
  H1460    1.0000 0.89535  0.84658  0.82679  Biso   1.000  H
  H1461    1.0000 0.93210  0.92389  0.83140  Biso   1.000  H
  H1462    1.0000 0.96791  0.89188  0.81630  Biso   1.000  H
  H1463    1.0000 0.89533  0.84663  0.82679  Biso   1.000  H
  H1464    1.0000 0.93208  0.92394  0.83140  Biso   1.000  H
  H1465    1.0000 0.96789  0.89193  0.81630  Biso   1.000  H
  C1193    1.0000 0.85151  0.90691  0.92639  Biso   1.000  C
  H1466    1.0000 0.79083  0.86271  0.89771  Biso   1.000  H
  H1467    1.0000 0.84274  0.93478  0.89181  Biso   1.000  H
  H1468    1.0000 0.84268  0.93483  0.89181  Biso   1.000  H
  H1469    1.0000 0.46095  0.76348  0.83111  Biso   1.000  H
  H1470    1.0000 0.42679  0.79549  0.84750  Biso   1.000  H
  C1194    1.0000 0.42774  0.81522  0.80800  Biso   1.000  C
  H1471    1.0000 0.46093  0.76353  0.83111  Biso   1.000  H
  H1472    1.0000 0.42681  0.79554  0.84750  Biso   1.000  H
  N55      1.0000 0.56634  0.95990  0.95213  Biso   1.000  N
  N56      1.0000 0.56626  0.95990  0.95213  Biso   1.000  N
  H1473    1.0000 0.61441  0.05509  0.94710  Biso   1.000  H
  H1474    1.0000 0.61444  0.05514  0.94710  Biso   1.000  H
  H1475    1.0000 0.61439  0.05514  0.94710  Biso   1.000  H
  C1195    1.0000 0.98837  0.61100  0.91259  Biso   1.000  C
  C1196    1.0000 0.98828  0.61100  0.91259  Biso   1.000  C
  H1476    1.0000 0.08655  0.67338  0.91079  Biso   1.000  H
  H1477    1.0000 0.08653  0.67343  0.91079  Biso   1.000  H
  H1478    1.0000 0.04345  0.79729  0.89010  Biso   1.000  H
  H1479    1.0000 0.07663  0.84688  0.86750  Biso   1.000  H
  C1197    1.0000 0.09189  0.89712  0.90321  Biso   1.000  C
  H1480    1.0000 0.04339  0.79734  0.89010  Biso   1.000  H
  H1481    1.0000 0.07662  0.84693  0.86750  Biso   1.000  H
  H1482    1.0000 0.11971  0.67318  0.82360  Biso   1.000  H
  H1483    1.0000 0.09931  0.62139  0.84640  Biso   1.000  H
  C1198    1.0000 0.19696  0.65380  0.83320  Biso   1.000  C
  H1484    1.0000 0.11969  0.67323  0.82360  Biso   1.000  H
  H1485    1.0000 0.09933  0.62144  0.84640  Biso   1.000  H
  C1199    1.0000 0.19691  0.65380  0.83320  Biso   1.000  C
  C1200    1.0000 0.92942  0.58628  0.89866  Biso   1.000  C
  H1486    1.0000 0.89144  0.58878  0.86310  Biso   1.000  H
  C1201    1.0000 0.92945  0.58633  0.89866  Biso   1.000  C
  H1487    1.0000 0.89143  0.58883  0.86310  Biso   1.000  H
  C1202    1.0000 0.81773  0.67758  0.75067  Biso   1.000  C
  H1488    1.0000 0.78233  0.61051  0.78040  Biso   1.000  H
  C1203    1.0000 0.81775  0.67763  0.75067  Biso   1.000  C
  H1489    1.0000 0.87275  0.75449  0.72731  Biso   1.000  H
  H1490    1.0000 0.87273  0.75454  0.72731  Biso   1.000  H
  H1491    1.0000 0.88146  0.56051  0.82619  Biso   1.000  H
  H1492    1.0000 0.82903  0.54908  0.80471  Biso   1.000  H
  C1204    1.0000 0.91603  0.56511  0.79031  Biso   1.000  C
  H1493    1.0000 0.88138  0.56051  0.82619  Biso   1.000  H
  H1494    1.0000 0.82897  0.54913  0.80471  Biso   1.000  H
  H1495    1.0000 0.79756  0.62539  0.82590  Biso   1.000  H
  H1496    1.0000 0.84609  0.63448  0.84860  Biso   1.000  H
  C1205    1.0000 0.85373  0.72018  0.83695  Biso   1.000  C
  H1497    1.0000 0.79754  0.62544  0.82590  Biso   1.000  H
  H1498    1.0000 0.84611  0.63453  0.84860  Biso   1.000  H
  C1206    1.0000 0.85376  0.72023  0.83695  Biso   1.000  C
  C1207    1.0000 0.00858  0.79789  0.98682  Biso   1.000  C
  C1208    1.0000 0.00861  0.79794  0.98682  Biso   1.000  C
  C1209    1.0000 0.12799  0.86421  0.98206  Biso   1.000  C
  H1499    1.0000 0.16142  0.96299  0.97811  Biso   1.000  H
  H1500    1.0000 0.16144  0.96304  0.97811  Biso   1.000  H
  C1210    1.0000 0.90500  0.81691  0.95812  Biso   1.000  C
  C1211    1.0000 0.88956  0.82211  0.00650  Biso   1.000  C
  C1212    1.0000 0.88952  0.82211  0.00650  Biso   1.000  C
  H1501    1.0000 0.28030  0.21650  0.91550  Biso   1.000  H
  H1502    1.0000 0.31001  0.17669  0.90170  Biso   1.000  H
  H1503    1.0000 0.28026  0.21650  0.91550  Biso   1.000  H
  H1504    1.0000 0.30999  0.17674  0.90170  Biso   1.000  H
  H1505    1.0000 0.36091  0.21320  0.92130  Biso   1.000  H
  H1506    1.0000 0.36252  0.15682  0.90501  Biso   1.000  H
  H1507    1.0000 0.37482  0.16091  0.93501  Biso   1.000  H
  H1508    1.0000 0.09911  0.97228  0.07949  Biso   1.000  H
  H1509    1.0000 0.09909  0.97233  0.07949  Biso   1.000  H
  H1510    1.0000 0.16370  0.02222  0.09470  Biso   1.000  H
  H1511    1.0000 0.11489  0.04570  0.08450  Biso   1.000  H
  C1213    1.0000 0.79849  0.87689  0.98026  Biso   1.000  C
  C1214    1.0000 0.78936  0.99141  0.98682  Biso   1.000  C
  C1215    1.0000 0.78931  0.99141  0.98682  Biso   1.000  C
  H1512    1.0000 0.87823  0.10782  0.96050  Biso   1.000  H
  H1513    1.0000 0.95458  0.13579  0.95639  Biso   1.000  H
  C1216    1.0000 0.89748  0.05758  0.93330  Biso   1.000  C
  H1514    1.0000 0.95465  0.13584  0.95639  Biso   1.000  H
  C1217    1.0000 0.89751  0.05763  0.93330  Biso   1.000  C
  H1515    1.0000 0.87818  0.10782  0.96050  Biso   1.000  H
  H1516    1.0000 0.95698  0.13230  0.95630  Biso   1.000  H
  H1517    1.0000 0.90643  0.06432  0.94430  Biso   1.000  H
  C1218    1.0000 0.87140  0.12081  0.95090  Biso   1.000  C
  H1518    1.0000 0.89339  0.11342  0.01090  Biso   1.000  H
  H1519    1.0000 0.96670  0.15432  0.00070  Biso   1.000  H
  C1219    1.0000 0.95942  0.09149  0.03279  Biso   1.000  C
  C1220    1.0000 0.95940  0.09154  0.03279  Biso   1.000  C
  C1221    1.0000 0.59234  0.56771  0.74080  Biso   1.000  C
  H1520    1.0000 0.82879  0.90082  0.94271  Biso   1.000  H
  H1521    1.0000 0.89299  0.94851  0.92670  Biso   1.000  H
  H1522    1.0000 0.86019  0.87090  0.92380  Biso   1.000  H
  H1523    1.0000 0.45747  0.82251  0.79391  Biso   1.000  H
  H1524    1.0000 0.42277  0.85372  0.81020  Biso   1.000  H
  H1525    1.0000 0.38489  0.77691  0.80449  Biso   1.000  H
  H1526    1.0000 0.45742  0.82251  0.79391  Biso   1.000  H
  H1527    1.0000 0.42273  0.85372  0.81020  Biso   1.000  H
  C1222    1.0000 0.54884  0.96789  0.97888  Biso   1.000  C
  C1223    1.0000 0.54878  0.96794  0.97888  Biso   1.000  C
  C1224    1.0000 0.98592  0.58768  0.93938  Biso   1.000  C
  C1225    1.0000 0.98594  0.58773  0.93938  Biso   1.000  C
  H1528    1.0000 0.13730  0.92808  0.89771  Biso   1.000  H
  H1529    1.0000 0.06519  0.90791  0.89181  Biso   1.000  H
  C1226    1.0000 0.09311  0.94461  0.92639  Biso   1.000  C
  H1530    1.0000 0.13729  0.92813  0.89771  Biso   1.000  H
  H1531    1.0000 0.23649  0.69740  0.83111  Biso   1.000  H
  H1532    1.0000 0.20455  0.63128  0.84750  Biso   1.000  H
  C1227    1.0000 0.18478  0.61250  0.80800  Biso   1.000  C
  H1533    1.0000 0.20453  0.63133  0.84750  Biso   1.000  H
  H1534    1.0000 0.88940  0.55432  0.90611  Biso   1.000  H
  C1228    1.0000 0.75610  0.64931  0.73586  Biso   1.000  C
  H1535    1.0000 0.96267  0.59872  0.79271  Biso   1.000  H
  H1536    1.0000 0.90299  0.57130  0.77310  Biso   1.000  H
  C1229    1.0000 0.90980  0.49739  0.79160  Biso   1.000  C
  H1537    1.0000 0.96263  0.59872  0.79271  Biso   1.000  H
  C1230    1.0000 0.90978  0.49744  0.79160  Biso   1.000  C
  H1538    1.0000 0.85854  0.74200  0.82040  Biso   1.000  H
  H1539    1.0000 0.89551  0.74560  0.84630  Biso   1.000  H
  C1231    1.0000 0.79737  0.72242  0.85261  Biso   1.000  C
  H1540    1.0000 0.85850  0.74200  0.82040  Biso   1.000  H
  H1541    1.0000 0.89546  0.74560  0.84630  Biso   1.000  H
  C1232    1.0000 0.79729  0.72242  0.85261  Biso   1.000  C
  C1233    1.0000 0.07073  0.80238  0.98535  Biso   1.000  C
  C1234    1.0000 0.07076  0.80243  0.98535  Biso   1.000  C
  H1542    1.0000 0.97029  0.75658  0.98901  Biso   1.000  H
  H1543    1.0000 0.97031  0.75663  0.98901  Biso   1.000  H
  H1544    1.0000 0.16949  0.86711  0.98111  Biso   1.000  H
  H1545    1.0000 0.89226  0.77042  0.96050  Biso   1.000  H
  H1546    1.0000 0.86425  0.81881  0.95639  Biso   1.000  H
  C1235    1.0000 0.94239  0.83989  0.93330  Biso   1.000  C
  H1547    1.0000 0.89222  0.77042  0.96050  Biso   1.000  H
  H1548    1.0000 0.86417  0.81881  0.95639  Biso   1.000  H
  C1236    1.0000 0.94242  0.83994  0.93330  Biso   1.000  C
  H1549    1.0000 0.86772  0.82470  0.95630  Biso   1.000  H
  H1550    1.0000 0.93573  0.84213  0.94430  Biso   1.000  H
  C1237    1.0000 0.87921  0.75064  0.95090  Biso   1.000  C
  H1551    1.0000 0.88659  0.78001  0.01090  Biso   1.000  H
  H1552    1.0000 0.84570  0.81242  0.00070  Biso   1.000  H
  C1238    1.0000 0.90852  0.86790  0.03279  Biso   1.000  C
  C1239    1.0000 0.90848  0.86790  0.03279  Biso   1.000  C
  H1553    1.0000 0.80165  0.83859  0.97811  Biso   1.000  H
  C1240    1.0000 0.73625  0.87205  0.98206  Biso   1.000  C
  H1554    1.0000 0.80163  0.83864  0.97811  Biso   1.000  H
  C1241    1.0000 0.73627  0.87210  0.98206  Biso   1.000  C
  C1242    1.0000 0.73169  0.92928  0.98535  Biso   1.000  C
  C1243    1.0000 0.73172  0.92933  0.98535  Biso   1.000  C
  H1555    1.0000 0.78632  0.02972  0.98901  Biso   1.000  H
  H1556    1.0000 0.78628  0.02972  0.98901  Biso   1.000  H
  C1244    1.0000 0.88501  0.09519  0.91221  Biso   1.000  C
  H1557    1.0000 0.85870  0.01358  0.93530  Biso   1.000  H
  H1558    1.0000 0.93518  0.05219  0.92860  Biso   1.000  H
  C1245    1.0000 0.88500  0.09524  0.91221  Biso   1.000  C
  H1559    1.0000 0.85868  0.01363  0.93530  Biso   1.000  H
  H1560    1.0000 0.93521  0.05224  0.92860  Biso   1.000  H
  H1561    1.0000 0.87669  0.15302  0.96400  Biso   1.000  H
  H1562    1.0000 0.82569  0.08450  0.95200  Biso   1.000  H
  C1246    1.0000 0.87851  0.15302  0.92591  Biso   1.000  C
  C1247    1.0000 0.96041  0.13240  0.05609  Biso   1.000  C
  H1563    1.0000 0.93068  0.04440  0.03660  Biso   1.000  H
  C1248    1.0000 0.96036  0.13240  0.05609  Biso   1.000  C
  H1564    1.0000 0.00418  0.09918  0.02981  Biso   1.000  H
  H1565    1.0000 0.00420  0.09923  0.02981  Biso   1.000  H
  C1249    1.0000 0.64854  0.56870  0.72425  Biso   1.000  C
  H1566    1.0000 0.58292  0.53789  0.75570  Biso   1.000  H
  C1250    1.0000 0.52850  0.54219  0.72419  Biso   1.000  C
  H1567    1.0000 0.58295  0.53794  0.75570  Biso   1.000  H
  C1251    1.0000 0.52852  0.54223  0.72419  Biso   1.000  C
  C1252    1.0000 0.57104  0.92958  0.99605  Biso   1.000  C
  C1253    1.0000 0.57102  0.92963  0.99605  Biso   1.000  C
  C1254    1.0000 0.47726  0.94392  0.98142  Biso   1.000  C
  C1255    1.0000 0.47717  0.94392  0.98142  Biso   1.000  C
  H1568    1.0000 0.57388  0.01528  0.98361  Biso   1.000  H
  H1569    1.0000 0.57390  0.01533  0.98361  Biso   1.000  H
  H1570    1.0000 0.94492  0.55932  0.94710  Biso   1.000  H
  N57      1.0000 0.04013  0.60641  0.95213  Biso   1.000  N
  H1571    1.0000 0.09924  0.92798  0.94271  Biso   1.000  H
  H1572    1.0000 0.05154  0.94451  0.92670  Biso   1.000  H
  H1573    1.0000 0.12917  0.98931  0.92380  Biso   1.000  H
  H1574    1.0000 0.09922  0.92803  0.94271  Biso   1.000  H
  H1575    1.0000 0.12908  0.98931  0.92380  Biso   1.000  H
  H1576    1.0000 0.17750  0.63488  0.79391  Biso   1.000  H
  H1577    1.0000 0.14634  0.56900  0.81020  Biso   1.000  H
  H1578    1.0000 0.22315  0.60801  0.80449  Biso   1.000  H
  H1579    1.0000 0.17753  0.63493  0.79391  Biso   1.000  H
  N58      1.0000 0.70843  0.59108  0.74041  Biso   1.000  N
  H1580    1.0000 0.75160  0.67448  0.72280  Biso   1.000  H
  N59      1.0000 0.70846  0.59113  0.74041  Biso   1.000  N
  H1581    1.0000 0.75163  0.67453  0.72280  Biso   1.000  H
  H1582    1.0000 0.92525  0.48840  0.77540  Biso   1.000  H
  H1583    1.0000 0.86323  0.46368  0.79369  Biso   1.000  H
  C1256    1.0000 0.95093  0.49219  0.81431  Biso   1.000  C
  H1584    1.0000 0.92516  0.48840  0.77540  Biso   1.000  H
  H1585    1.0000 0.86322  0.46373  0.79369  Biso   1.000  H
  C1257    1.0000 0.95096  0.49224  0.81431  Biso   1.000  C
  H1586    1.0000 0.78532  0.69321  0.86750  Biso   1.000  H
  H1587    1.0000 0.81261  0.76752  0.85871  Biso   1.000  H
  C1258    1.0000 0.73741  0.69990  0.83500  Biso   1.000  C
  C1259    1.0000 0.73737  0.69990  0.83500  Biso   1.000  C
  C1260    1.0000 0.08452  0.74640  0.98833  Biso   1.000  C
  C1261    1.0000 0.90485  0.78980  0.91221  Biso   1.000  C
  H1588    1.0000 0.98638  0.84508  0.93530  Biso   1.000  H
  H1589    1.0000 0.94781  0.88299  0.92860  Biso   1.000  H
  C1262    1.0000 0.90480  0.78980  0.91221  Biso   1.000  C
  H1590    1.0000 0.98640  0.84513  0.93530  Biso   1.000  H
  H1591    1.0000 0.94779  0.88304  0.92860  Biso   1.000  H
  H1592    1.0000 0.84698  0.72372  0.96400  Biso   1.000  H
  H1593    1.0000 0.91550  0.74120  0.95200  Biso   1.000  H
  C1263    1.0000 0.84702  0.72552  0.92591  Biso   1.000  C
  C1264    1.0000 0.86759  0.82800  0.05609  Biso   1.000  C
  H1594    1.0000 0.95560  0.88628  0.03660  Biso   1.000  H
  H1595    1.0000 0.90086  0.90501  0.02981  Biso   1.000  H
  H1596    1.0000 0.95558  0.88633  0.03660  Biso   1.000  H
  H1597    1.0000 0.90078  0.90501  0.02981  Biso   1.000  H
  H1598    1.0000 0.69761  0.83050  0.98111  Biso   1.000  H
  C1265    1.0000 0.66191  0.91550  0.98833  Biso   1.000  C
  H1599    1.0000 0.87919  0.07152  0.89601  Biso   1.000  H
  H1600    1.0000 0.92489  0.13869  0.91041  Biso   1.000  H
  C1266    1.0000 0.82408  0.10618  0.91559  Biso   1.000  C
  H1601    1.0000 0.92495  0.13874  0.91041  Biso   1.000  H
  C1267    1.0000 0.82410  0.10623  0.91559  Biso   1.000  C
  H1602    1.0000 0.92491  0.13874  0.91041  Biso   1.000  H
  H1603    1.0000 0.86982  0.12051  0.91240  Biso   1.000  H
  H1604    1.0000 0.82791  0.12820  0.93179  Biso   1.000  H
  H1605    1.0000 0.82786  0.12820  0.93179  Biso   1.000  H
  H1606    1.0000 0.92448  0.18848  0.92411  Biso   1.000  H
  C1268    1.0000 0.83250  0.18289  0.92140  Biso   1.000  C
  H1607    1.0000 0.99021  0.17929  0.05230  Biso   1.000  H
  H1608    1.0000 0.91609  0.12610  0.05839  Biso   1.000  H
  C1269    1.0000 0.98202  0.11601  0.08090  Biso   1.000  C
  H1609    1.0000 0.99019  0.17934  0.05230  Biso   1.000  H
  C1270    1.0000 0.98197  0.11601  0.08090  Biso   1.000  C
  H1610    1.0000 0.65886  0.59912  0.70960  Biso   1.000  H
  C1271    1.0000 0.62422  0.49739  0.71432  Biso   1.000  C
  H1611    1.0000 0.65878  0.59912  0.70960  Biso   1.000  H
  C1272    1.0000 0.62424  0.49744  0.71432  Biso   1.000  C
  H1612    1.0000 0.49290  0.54089  0.73460  Biso   1.000  H
  H1613    1.0000 0.53716  0.57240  0.70981  Biso   1.000  H
  C1273    1.0000 0.50735  0.47342  0.71411  Biso   1.000  C
  H1614    1.0000 0.49289  0.54094  0.73460  Biso   1.000  H
  H1615    1.0000 0.53708  0.57240  0.70981  Biso   1.000  H
  N60      1.0000 0.64245  0.95650  0.99450  Biso   1.000  N
  N61      1.0000 0.64237  0.95650  0.99450  Biso   1.000  N
  H1616    1.0000 0.54833  0.88279  0.99050  Biso   1.000  H
  H1617    1.0000 0.54836  0.88284  0.99050  Biso   1.000  H
  C1274    1.0000 0.55045  0.93288  0.02410  Biso   1.000  C
  C1275    1.0000 0.55039  0.93293  0.02410  Biso   1.000  C
  H1618    1.0000 0.45237  0.89882  0.97461  Biso   1.000  H
  H1619    1.0000 0.46602  0.97188  0.97101  Biso   1.000  H
  H1620    1.0000 0.45233  0.89882  0.97461  Biso   1.000  H
  H1621    1.0000 0.46605  0.97193  0.97101  Biso   1.000  H
  C1276    1.0000 0.45603  0.94412  0.00902  Biso   1.000  C
  C1277    1.0000 0.03213  0.58089  0.97888  Biso   1.000  C
  C1278    1.0000 0.03215  0.58094  0.97888  Biso   1.000  C
  H1622    1.0000 0.99775  0.51931  0.81059  Biso   1.000  H
  H1623    1.0000 0.93985  0.44650  0.81640  Biso   1.000  H
  H1624    1.0000 0.94059  0.50758  0.82991  Biso   1.000  H
  H1625    1.0000 0.99766  0.51931  0.81059  Biso   1.000  H
  H1626    1.0000 0.93976  0.44650  0.81640  Biso   1.000  H
  H1627    1.0000 0.94061  0.50763  0.82991  Biso   1.000  H
  H1628    1.0000 0.75115  0.72512  0.81920  Biso   1.000  H
  H1629    1.0000 0.70450  0.70709  0.84349  Biso   1.000  H
  H1630    1.0000 0.71848  0.65331  0.83120  Biso   1.000  H
  H1631    1.0000 0.70453  0.70714  0.84349  Biso   1.000  H
  N62      1.0000 0.04356  0.68592  0.99450  Biso   1.000  N
  N63      1.0000 0.04347  0.68592  0.99450  Biso   1.000  N
  H1632    1.0000 0.12829  0.75668  0.98531  Biso   1.000  H
  H1633    1.0000 0.12831  0.75673  0.98531  Biso   1.000  H
  H1634    1.0000 0.92856  0.80772  0.89601  Biso   1.000  H
  H1635    1.0000 0.86131  0.78620  0.91041  Biso   1.000  H
  C1279    1.0000 0.89380  0.71788  0.91559  Biso   1.000  C
  H1636    1.0000 0.92852  0.80772  0.89601  Biso   1.000  H
  H1637    1.0000 0.86127  0.78620  0.91041  Biso   1.000  H
  C1280    1.0000 0.89378  0.71793  0.91559  Biso   1.000  C
  H1638    1.0000 0.87956  0.74934  0.91240  Biso   1.000  H
  H1639    1.0000 0.87182  0.69970  0.93179  Biso   1.000  H
  H1640    1.0000 0.87178  0.69970  0.93179  Biso   1.000  H
  H1641    1.0000 0.81152  0.73601  0.92411  Biso   1.000  H
  C1281    1.0000 0.81711  0.64961  0.92140  Biso   1.000  C
  H1642    1.0000 0.82069  0.81092  0.05230  Biso   1.000  H
  H1643    1.0000 0.87393  0.79000  0.05839  Biso   1.000  H
  C1282    1.0000 0.88400  0.86601  0.08090  Biso   1.000  C
  H1644    1.0000 0.62838  0.87170  0.98531  Biso   1.000  H
  H1645    1.0000 0.78350  0.06378  0.91550  Biso   1.000  H
  H1646    1.0000 0.82332  0.13329  0.90170  Biso   1.000  H
  H1647    1.0000 0.78348  0.06383  0.91550  Biso   1.000  H
  H1648    1.0000 0.82328  0.13329  0.90170  Biso   1.000  H
  H1649    1.0000 0.78678  0.14768  0.92130  Biso   1.000  H
  H1650    1.0000 0.84322  0.20571  0.90501  Biso   1.000  H
  H1651    1.0000 0.83910  0.21390  0.93501  Biso   1.000  H
  H1652    1.0000 0.97780  0.14148  0.09470  Biso   1.000  H
  H1653    1.0000 0.95429  0.06922  0.08450  Biso   1.000  H
  H1654    1.0000 0.97778  0.14153  0.09470  Biso   1.000  H
  H1655    1.0000 0.02772  0.12680  0.07949  Biso   1.000  H
  H1656    1.0000 0.02768  0.12680  0.07949  Biso   1.000  H
  C1283    1.0000 0.56093  0.47202  0.69835  Biso   1.000  C
  H1657    1.0000 0.65903  0.49729  0.70381  Biso   1.000  H
  H1658    1.0000 0.61580  0.46792  0.72889  Biso   1.000  H
  H1659    1.0000 0.65905  0.49734  0.70381  Biso   1.000  H
  H1660    1.0000 0.49598  0.44290  0.72860  Biso   1.000  H
  H1661    1.0000 0.46759  0.45808  0.70350  Biso   1.000  H
  H1662    1.0000 0.46762  0.45813  0.70350  Biso   1.000  H
  H1663    1.0000 0.56434  0.90841  0.03530  Biso   1.000  H
  H1664    1.0000 0.57310  0.97912  0.02981  Biso   1.000  H
  C1284    1.0000 0.47800  0.90491  0.02659  Biso   1.000  C
  H1665    1.0000 0.40779  0.92409  0.00979  Biso   1.000  H
  H1666    1.0000 0.47576  0.98971  0.01510  Biso   1.000  H
  H1667    1.0000 0.40781  0.92414  0.00979  Biso   1.000  H
  H1668    1.0000 0.47567  0.98971  0.01510  Biso   1.000  H
  H1669    1.0000 0.98475  0.55862  0.98361  Biso   1.000  H
  C1285    1.0000 0.07044  0.64142  0.99605  Biso   1.000  C
  C1286    1.0000 0.05608  0.53330  0.98142  Biso   1.000  C
  H1670    1.0000 0.93622  0.71968  0.91550  Biso   1.000  H
  H1671    1.0000 0.86672  0.69001  0.90170  Biso   1.000  H
  H1672    1.0000 0.93624  0.71973  0.91550  Biso   1.000  H
  H1673    1.0000 0.86667  0.69001  0.90170  Biso   1.000  H
  H1674    1.0000 0.85230  0.63912  0.92130  Biso   1.000  H
  H1675    1.0000 0.79428  0.63752  0.90501  Biso   1.000  H
  H1676    1.0000 0.78611  0.62524  0.93501  Biso   1.000  H
  H1677    1.0000 0.87321  0.90092  0.07949  Biso   1.000  H
  H1678    1.0000 0.85850  0.83629  0.09470  Biso   1.000  H
  H1679    1.0000 0.93078  0.88508  0.08450  Biso   1.000  H
  H1680    1.0000 0.85853  0.83634  0.09470  Biso   1.000  H
  H1681    1.0000 0.93080  0.88513  0.08450  Biso   1.000  H
  H1682    1.0000 0.56991  0.49958  0.68310  Biso   1.000  H
  H1683    1.0000 0.54597  0.42662  0.69270  Biso   1.000  H
  H1684    1.0000 0.56989  0.49963  0.68310  Biso   1.000  H
  H1685    1.0000 0.54593  0.42662  0.69270  Biso   1.000  H
  H1686    1.0000 0.46660  0.90781  0.04440  Biso   1.000  H
  H1687    1.0000 0.45495  0.85822  0.02160  Biso   1.000  H
  H1688    1.0000 0.11721  0.66549  0.99050  Biso   1.000  H
  H1689    1.0000 0.11723  0.66554  0.99050  Biso   1.000  H
  C1287    1.0000 0.06709  0.61750  0.02410  Biso   1.000  C
  H1690    1.0000 0.10127  0.55352  0.97461  Biso   1.000  H
  H1691    1.0000 0.02809  0.49409  0.97101  Biso   1.000  H
  H1692    1.0000 0.10123  0.55352  0.97461  Biso   1.000  H
  H1693    1.0000 0.02811  0.49414  0.97101  Biso   1.000  H
  C1288    1.0000 0.05595  0.51192  0.00902  Biso   1.000  C
  H1694    1.0000 0.09161  0.65590  0.03530  Biso   1.000  H
  H1695    1.0000 0.02096  0.59402  0.02981  Biso   1.000  H
  C1289    1.0000 0.09514  0.57310  0.02659  Biso   1.000  C
  H1696    1.0000 0.02088  0.59402  0.02981  Biso   1.000  H
  C1290    1.0000 0.09506  0.57310  0.02659  Biso   1.000  C
  H1697    1.0000 0.07592  0.48370  0.00979  Biso   1.000  H
  H1698    1.0000 0.01033  0.48600  0.01510  Biso   1.000  H
  H1699    1.0000 0.07588  0.48370  0.00979  Biso   1.000  H
  H1700    1.0000 0.14181  0.59672  0.02160  Biso   1.000  H
  H1701    1.0000 0.09220  0.55882  0.04440  Biso   1.000  H
  C1291    1.0000 0.10463  0.19862  0.77254  Biso   1.000  C
  C1292    1.0000 0.16380  0.26939  0.77451  Biso   1.000  C
  C1293    1.0000 0.16378  0.26944  0.77451  Biso   1.000  C
  H1702    1.0000 0.07481  0.19832  0.75930  Biso   1.000  H
  H1703    1.0000 0.12119  0.16980  0.76660  Biso   1.000  H
  C1294    1.0000 0.06462  0.16860  0.79642  Biso   1.000  C
  C1295    1.0000 0.06458  0.16860  0.79642  Biso   1.000  C
  C1296    1.0000 0.21269  0.27408  0.79627  Biso   1.000  C
  C1297    1.0000 0.21271  0.27413  0.79627  Biso   1.000  C
  C1298    1.0000 0.14021  0.31588  0.78516  Biso   1.000  C
  C1299    1.0000 0.20092  0.29830  0.74906  Biso   1.000  C
  C1300    1.0000 0.14019  0.31593  0.78516  Biso   1.000  C
  C1301    1.0000 0.20088  0.29830  0.74906  Biso   1.000  C
  C1302    1.0000 0.10459  0.19862  0.77254  Biso   1.000  C
  H1704    1.0000 0.05291  0.20002  0.80380  Biso   1.000  H
  H1705    1.0000 0.09251  0.16261  0.80891  Biso   1.000  H
  C1303    1.0000 0.00240  0.10358  0.79300  Biso   1.000  C
  H1706    1.0000 0.09246  0.16261  0.80891  Biso   1.000  H
  C1304    1.0000 0.00238  0.10363  0.79300  Biso   1.000  C
  C1305    1.0000 0.25559  0.24951  0.79669  Biso   1.000  C
  C1306    1.0000 0.21170  0.31398  0.81768  Biso   1.000  C
  C1307    1.0000 0.21169  0.31403  0.81768  Biso   1.000  C
  C1308    1.0000 0.16388  0.33521  0.81082  Biso   1.000  C
  C1309    1.0000 0.09761  0.33181  0.77345  Biso   1.000  C
  C1310    1.0000 0.09757  0.33181  0.77345  Biso   1.000  C
  H1707    1.0000 0.21628  0.26899  0.74250  Biso   1.000  H
  H1708    1.0000 0.16951  0.29810  0.73660  Biso   1.000  H
  C1311    1.0000 0.25941  0.36762  0.75059  Biso   1.000  C
  H1709    1.0000 0.21630  0.26904  0.74250  Biso   1.000  H
  H1710    1.0000 0.16947  0.29810  0.73660  Biso   1.000  H
  C1312    1.0000 0.25937  0.36762  0.75059  Biso   1.000  C
  H1711    1.0000 0.01329  0.07182  0.78551  Biso   1.000  H
  H1712    1.0000 0.97330  0.10922  0.78100  Biso   1.000  H
  C1313    1.0000 0.96349  0.07411  0.81949  Biso   1.000  C
  C1314    1.0000 0.27022  0.20871  0.77838  Biso   1.000  C
  C1315    1.0000 0.27018  0.20871  0.77838  Biso   1.000  C
  C1316    1.0000 0.30251  0.26619  0.81804  Biso   1.000  C
  C1317    1.0000 0.30249  0.26624  0.81804  Biso   1.000  C
  C1318    1.0000 0.25381  0.32632  0.83875  Biso   1.000  C
  C1319    1.0000 0.25377  0.32632  0.83875  Biso   1.000  C
  C1320    1.0000 0.14362  0.37651  0.82338  Biso   1.000  C
  C1321    1.0000 0.14358  0.37651  0.82338  Biso   1.000  C
  C1322    1.0000 0.07601  0.37062  0.78618  Biso   1.000  C
  H1713    1.0000 0.08259  0.31648  0.75680  Biso   1.000  H
  C1323    1.0000 0.07597  0.37062  0.78618  Biso   1.000  C
  H1714    1.0000 0.08258  0.31653  0.75680  Biso   1.000  H
  C1324    1.0000 0.29399  0.39629  0.72496  Biso   1.000  C
  H1715    1.0000 0.29171  0.36752  0.76259  Biso   1.000  H
  H1716    1.0000 0.24441  0.39669  0.75769  Biso   1.000  H
  C1325    1.0000 0.29401  0.39634  0.72496  Biso   1.000  C
  H1717    1.0000 0.29167  0.36752  0.76259  Biso   1.000  H
  H1718    1.0000 0.24439  0.39674  0.75769  Biso   1.000  H
  H1719    1.0000 0.95131  0.10468  0.82679  Biso   1.000  H
  H1720    1.0000 0.99179  0.06792  0.83140  Biso   1.000  H
  H1721    1.0000 0.92402  0.03211  0.81630  Biso   1.000  H
  H1722    1.0000 0.95129  0.10473  0.82679  Biso   1.000  H
  H1723    1.0000 0.92398  0.03211  0.81630  Biso   1.000  H
  C1326    1.0000 0.32741  0.20691  0.78721  Biso   1.000  C
  C1327    1.0000 0.32736  0.20691  0.78721  Biso   1.000  C
  C1328    1.0000 0.23928  0.17460  0.75555  Biso   1.000  C
  C1329    1.0000 0.35140  0.24192  0.81301  Biso   1.000  C
  C1330    1.0000 0.30001  0.30350  0.83869  Biso   1.000  C
  C1331    1.0000 0.29997  0.30350  0.83869  Biso   1.000  C
  C1332    1.0000 0.26143  0.36742  0.86322  Biso   1.000  C
  C1333    1.0000 0.26139  0.36742  0.86322  Biso   1.000  C
  C1334    1.0000 0.09991  0.39099  0.81167  Biso   1.000  C
  H1724    1.0000 0.16030  0.39379  0.83970  Biso   1.000  H
  C1335    1.0000 0.09989  0.39104  0.81167  Biso   1.000  C
  H1725    1.0000 0.16029  0.39384  0.83970  Biso   1.000  H
  C1336    1.0000 0.03289  0.39189  0.77384  Biso   1.000  C
  C1337    1.0000 0.03292  0.39194  0.77384  Biso   1.000  C
  H1726    1.0000 0.31252  0.36942  0.71860  Biso   1.000  H
  H1727    1.0000 0.26091  0.39259  0.71250  Biso   1.000  H
  C1338    1.0000 0.34791  0.46650  0.72597  Biso   1.000  C
  H1728    1.0000 0.31247  0.36942  0.71860  Biso   1.000  H
  H1729    1.0000 0.26089  0.39264  0.71250  Biso   1.000  H
  C1339    1.0000 0.34787  0.46650  0.72597  Biso   1.000  C
  C1340    1.0000 0.35249  0.17300  0.77397  Biso   1.000  C
  C1341    1.0000 0.26629  0.14099  0.74236  Biso   1.000  C
  C1342    1.0000 0.26631  0.14104  0.74236  Biso   1.000  C
  H1730    1.0000 0.20142  0.17430  0.74929  Biso   1.000  H
  H1731    1.0000 0.20137  0.17430  0.74929  Biso   1.000  H
  C1343    1.0000 0.42359  0.29920  0.80953  Biso   1.000  C
  C1344    1.0000 0.34690  0.18958  0.83221  Biso   1.000  C
  C1345    1.0000 0.34688  0.18963  0.83221  Biso   1.000  C
  C1346    1.0000 0.33793  0.32492  0.86366  Biso   1.000  C
  C1347    1.0000 0.33789  0.32492  0.86366  Biso   1.000  C
  C1348    1.0000 0.31608  0.36228  0.87717  Biso   1.000  C
  C1349    1.0000 0.31611  0.36233  0.87717  Biso   1.000  C
  C1350    1.0000 0.19340  0.32772  0.87977  Biso   1.000  C
  C1351    1.0000 0.28378  0.43989  0.85784  Biso   1.000  C
  C1352    1.0000 0.28381  0.43994  0.85784  Biso   1.000  C
  H1732    1.0000 0.08480  0.41551  0.82091  Biso   1.000  H
  N64      1.0000 0.01958  0.38560  0.74982  Biso   1.000  N
  H1733    1.0000 0.01409  0.41112  0.78419  Biso   1.000  H
  H1734    1.0000 0.32960  0.49432  0.73069  Biso   1.000  H
  H1735    1.0000 0.38050  0.47130  0.73861  Biso   1.000  H
  H1736    1.0000 0.36878  0.47979  0.70931  Biso   1.000  H
  H1737    1.0000 0.36881  0.47984  0.70931  Biso   1.000  H
  C1353    1.0000 0.32241  0.14009  0.75067  Biso   1.000  C
  C1354    1.0000 0.32239  0.14014  0.75067  Biso   1.000  C
  H1738    1.0000 0.38952  0.17180  0.78040  Biso   1.000  H
  H1739    1.0000 0.38948  0.17180  0.78040  Biso   1.000  H
  H1740    1.0000 0.24552  0.11821  0.72731  Biso   1.000  H
  H1741    1.0000 0.24547  0.11821  0.72731  Biso   1.000  H
  H1742    1.0000 0.45089  0.27992  0.80471  Biso   1.000  H
  H1743    1.0000 0.43952  0.32092  0.82619  Biso   1.000  H
  C1355    1.0000 0.43491  0.35089  0.79031  Biso   1.000  C
  H1744    1.0000 0.43947  0.32092  0.82619  Biso   1.000  H
  C1356    1.0000 0.43489  0.35094  0.79031  Biso   1.000  C
  H1745    1.0000 0.37462  0.17210  0.82590  Biso   1.000  H
  H1746    1.0000 0.36552  0.21160  0.84860  Biso   1.000  H
  C1357    1.0000 0.27980  0.13349  0.83695  Biso   1.000  C
  H1747    1.0000 0.37458  0.17210  0.82590  Biso   1.000  H
  H1748    1.0000 0.36548  0.21160  0.84860  Biso   1.000  H
  C1358    1.0000 0.27976  0.13349  0.83695  Biso   1.000  C
  C1359    1.0000 0.39067  0.32038  0.87319  Biso   1.000  C
  C1360    1.0000 0.39070  0.32043  0.87319  Biso   1.000  C
  C1361    1.0000 0.34181  0.38830  0.90187  Biso   1.000  C
  C1362    1.0000 0.34176  0.38830  0.90187  Biso   1.000  C
  H1749    1.0000 0.15920  0.33311  0.87100  Biso   1.000  H
  H1750    1.0000 0.20091  0.34939  0.89651  Biso   1.000  H
  C1363    1.0000 0.16422  0.24921  0.88466  Biso   1.000  C
  H1751    1.0000 0.20089  0.34944  0.89651  Biso   1.000  H
  C1364    1.0000 0.16418  0.24921  0.88466  Biso   1.000  C
  C1365    1.0000 0.33748  0.47290  0.83929  Biso   1.000  C
  H1752    1.0000 0.24569  0.44268  0.85170  Biso   1.000  H
  H1753    1.0000 0.29802  0.46431  0.87400  Biso   1.000  H
  H1754    1.0000 0.24567  0.44273  0.85170  Biso   1.000  H
  H1755    1.0000 0.29798  0.46431  0.87400  Biso   1.000  H
  C1366    1.0000 0.97541  0.40772  0.74080  Biso   1.000  C
  C1367    1.0000 0.35069  0.10678  0.73586  Biso   1.000  C
  C1368    1.0000 0.35067  0.10683  0.73586  Biso   1.000  C
  H1756    1.0000 0.42869  0.33171  0.77310  Biso   1.000  H
  H1757    1.0000 0.40133  0.36392  0.79271  Biso   1.000  H
  C1369    1.0000 0.50261  0.41242  0.79160  Biso   1.000  C
  H1758    1.0000 0.40129  0.36392  0.79271  Biso   1.000  H
  C1370    1.0000 0.50265  0.41242  0.79160  Biso   1.000  C
  H1759    1.0000 0.25799  0.11651  0.82040  Biso   1.000  H
  H1760    1.0000 0.25441  0.14992  0.84630  Biso   1.000  H
  C1371    1.0000 0.27763  0.07491  0.85261  Biso   1.000  C
  C1372    1.0000 0.27758  0.07491  0.85261  Biso   1.000  C
  H1761    1.0000 0.41119  0.30260  0.86310  Biso   1.000  H
  C1373    1.0000 0.41371  0.34310  0.89866  Biso   1.000  C
  C1374    1.0000 0.41367  0.34310  0.89866  Biso   1.000  C
  C1375    1.0000 0.38899  0.37731  0.91259  Biso   1.000  C
  H1762    1.0000 0.32662  0.41312  0.91079  Biso   1.000  H
  H1763    1.0000 0.32658  0.41312  0.91079  Biso   1.000  H
  C1376    1.0000 0.10290  0.19482  0.90321  Biso   1.000  C
  H1764    1.0000 0.20272  0.24611  0.89010  Biso   1.000  H
  H1765    1.0000 0.15307  0.22968  0.86750  Biso   1.000  H
  H1766    1.0000 0.20268  0.24611  0.89010  Biso   1.000  H
  H1767    1.0000 0.15310  0.22973  0.86750  Biso   1.000  H
  H1768    1.0000 0.32678  0.44648  0.82360  Biso   1.000  H
  H1769    1.0000 0.37860  0.47789  0.84640  Biso   1.000  H
  C1377    1.0000 0.34621  0.54312  0.83320  Biso   1.000  C
  H1770    1.0000 0.32681  0.44653  0.82360  Biso   1.000  H
  H1771    1.0000 0.37858  0.47794  0.84640  Biso   1.000  H
  C1378    1.0000 0.34617  0.54312  0.83320  Biso   1.000  C
  H1772    1.0000 0.95502  0.41711  0.75570  Biso   1.000  H
  C1379    1.0000 0.92018  0.35149  0.72425  Biso   1.000  C
  C1380    1.0000 0.92020  0.35154  0.72425  Biso   1.000  C
  H1773    1.0000 0.95498  0.41711  0.75570  Biso   1.000  H
  C1381    1.0000 0.01370  0.47150  0.72419  Biso   1.000  C
  C1382    1.0000 0.01366  0.47150  0.72419  Biso   1.000  C
  N65      1.0000 0.40890  0.11731  0.74041  Biso   1.000  N
  H1774    1.0000 0.32552  0.07711  0.72280  Biso   1.000  H
  H1775    1.0000 0.32548  0.07711  0.72280  Biso   1.000  H
  C1383    1.0000 0.50781  0.45871  0.81431  Biso   1.000  C
  H1776    1.0000 0.51159  0.43679  0.77540  Biso   1.000  H
  H1777    1.0000 0.53628  0.39948  0.79369  Biso   1.000  H
  H1778    1.0000 0.51162  0.43684  0.77540  Biso   1.000  H
  H1779    1.0000 0.53630  0.39953  0.79369  Biso   1.000  H
  H1780    1.0000 0.23249  0.04510  0.85871  Biso   1.000  H
  C1384    1.0000 0.30010  0.03751  0.83500  Biso   1.000  C
  H1781    1.0000 0.30680  0.09209  0.86750  Biso   1.000  H
  H1782    1.0000 0.30679  0.09214  0.86750  Biso   1.000  H
  H1783    1.0000 0.44570  0.33511  0.90611  Biso   1.000  H
  C1385    1.0000 0.41228  0.39818  0.93938  Biso   1.000  C
  C1386    1.0000 0.41230  0.39823  0.93938  Biso   1.000  C
  H1784    1.0000 0.07191  0.20921  0.89771  Biso   1.000  H
  H1785    1.0000 0.09211  0.15732  0.89181  Biso   1.000  H
  C1387    1.0000 0.05538  0.14848  0.92639  Biso   1.000  C
  H1786    1.0000 0.07186  0.20921  0.89771  Biso   1.000  H
  H1787    1.0000 0.09207  0.15732  0.89181  Biso   1.000  H
  C1388    1.0000 0.05541  0.14853  0.92639  Biso   1.000  C
  H1788    1.0000 0.30260  0.53912  0.83111  Biso   1.000  H
  H1789    1.0000 0.36868  0.57318  0.84750  Biso   1.000  H
  C1389    1.0000 0.38748  0.57228  0.80800  Biso   1.000  C
  H1790    1.0000 0.36870  0.57323  0.84750  Biso   1.000  H
  C1390    1.0000 0.38750  0.57233  0.80800  Biso   1.000  C
  C1391    1.0000 0.87321  0.37581  0.71432  Biso   1.000  C
  N66      1.0000 0.88271  0.29161  0.74041  Biso   1.000  N
  H1791    1.0000 0.94029  0.34120  0.70960  Biso   1.000  H
  C1392    1.0000 0.87317  0.37581  0.71432  Biso   1.000  C
  N67      1.0000 0.88267  0.29161  0.74041  Biso   1.000  N
  H1792    1.0000 0.04798  0.50711  0.73460  Biso   1.000  H
  C1393    1.0000 0.96610  0.49272  0.71411  Biso   1.000  C
  C1394    1.0000 0.96614  0.49272  0.71411  Biso   1.000  C
  H1793    1.0000 0.03531  0.46291  0.70981  Biso   1.000  H
  H1794    1.0000 0.03527  0.46291  0.70981  Biso   1.000  H
  C1395    1.0000 0.43132  0.07981  0.72425  Biso   1.000  C
  C1396    1.0000 0.43128  0.07981  0.72425  Biso   1.000  C
  H1795    1.0000 0.49239  0.43299  0.82991  Biso   1.000  H
  H1796    1.0000 0.48071  0.47839  0.81059  Biso   1.000  H
  H1797    1.0000 0.55353  0.49332  0.81640  Biso   1.000  H
  H1798    1.0000 0.48069  0.47844  0.81059  Biso   1.000  H
  H1799    1.0000 0.55348  0.49332  0.81640  Biso   1.000  H
  H1800    1.0000 0.27489  0.02602  0.81920  Biso   1.000  H
  H1801    1.0000 0.34670  0.06522  0.83120  Biso   1.000  H
  H1802    1.0000 0.29294  0.99740  0.84349  Biso   1.000  H
  N68      1.0000 0.39361  0.43369  0.95213  Biso   1.000  N
  H1803    1.0000 0.44071  0.38560  0.94710  Biso   1.000  H
  N69      1.0000 0.39359  0.43374  0.95213  Biso   1.000  N
  H1804    1.0000 0.44067  0.38560  0.94710  Biso   1.000  H
  H1805    1.0000 0.05550  0.10702  0.92670  Biso   1.000  H
  H1806    1.0000 0.07202  0.17120  0.94271  Biso   1.000  H
  H1807    1.0000 0.01068  0.13979  0.92380  Biso   1.000  H
  H1808    1.0000 0.07198  0.17120  0.94271  Biso   1.000  H
  H1809    1.0000 0.01071  0.13984  0.92380  Biso   1.000  H
  H1810    1.0000 0.36512  0.54262  0.79391  Biso   1.000  H
  H1811    1.0000 0.43098  0.57728  0.81020  Biso   1.000  H
  H1812    1.0000 0.39201  0.61508  0.80449  Biso   1.000  H
  H1813    1.0000 0.36508  0.54262  0.79391  Biso   1.000  H
  H1814    1.0000 0.43100  0.57733  0.81020  Biso   1.000  H
  H1815    1.0000 0.39199  0.61513  0.80449  Biso   1.000  H
  H1816    1.0000 0.83829  0.34100  0.70381  Biso   1.000  H
  H1817    1.0000 0.85211  0.38420  0.72889  Biso   1.000  H
  C1397    1.0000 0.91108  0.43909  0.69835  Biso   1.000  C
  H1818    1.0000 0.83834  0.34100  0.70381  Biso   1.000  H
  H1819    1.0000 0.85206  0.38420  0.72889  Biso   1.000  H
  C1398    1.0000 0.91110  0.43914  0.69835  Biso   1.000  C
  C1399    1.0000 0.89320  0.24391  0.73586  Biso   1.000  C
  H1820    1.0000 0.94691  0.50401  0.72860  Biso   1.000  H
  H1821    1.0000 0.99051  0.53238  0.70350  Biso   1.000  H
  H1822    1.0000 0.94687  0.50401  0.72860  Biso   1.000  H
  H1823    1.0000 0.99049  0.53243  0.70350  Biso   1.000  H
  C1400    1.0000 0.50261  0.12680  0.71432  Biso   1.000  C
  C1401    1.0000 0.50257  0.12680  0.71432  Biso   1.000  C
  C1402    1.0000 0.43232  0.02462  0.74080  Biso   1.000  C
  H1824    1.0000 0.40089  0.05968  0.70960  Biso   1.000  H
  C1403    1.0000 0.43228  0.02462  0.74080  Biso   1.000  C
  H1825    1.0000 0.40091  0.05973  0.70960  Biso   1.000  H
  C1404    1.0000 0.41912  0.45122  0.97888  Biso   1.000  C
  C1405    1.0000 0.41907  0.45122  0.97888  Biso   1.000  C
  H1826    1.0000 0.92968  0.43010  0.68310  Biso   1.000  H
  H1827    1.0000 0.88071  0.45412  0.69270  Biso   1.000  H
  C1406    1.0000 0.85988  0.18229  0.75067  Biso   1.000  C
  H1828    1.0000 0.92292  0.24841  0.72280  Biso   1.000  H
  C1407    1.0000 0.85991  0.18234  0.75067  Biso   1.000  C
  H1829    1.0000 0.92287  0.24841  0.72280  Biso   1.000  H
  C1408    1.0000 0.52799  0.08890  0.69835  Biso   1.000  C
  H1830    1.0000 0.50272  0.16171  0.70381  Biso   1.000  H
  H1831    1.0000 0.53209  0.14788  0.72889  Biso   1.000  H
  H1832    1.0000 0.50268  0.16171  0.70381  Biso   1.000  H
  H1833    1.0000 0.53208  0.14793  0.72889  Biso   1.000  H
  C1409    1.0000 0.45780  0.98632  0.72419  Biso   1.000  C
  N70      1.0000 0.36606  0.98042  0.74982  Biso   1.000  N
  N71      1.0000 0.36597  0.98042  0.74982  Biso   1.000  N
  H1834    1.0000 0.46210  0.04500  0.75570  Biso   1.000  H
  H1835    1.0000 0.46206  0.04500  0.75570  Biso   1.000  H
  C1410    1.0000 0.35861  0.42900  0.99605  Biso   1.000  C
  H1836    1.0000 0.44141  0.42610  0.98361  Biso   1.000  H
  C1411    1.0000 0.46671  0.52279  0.98142  Biso   1.000  C
  C1412    1.0000 0.35857  0.42900  0.99605  Biso   1.000  C
  H1837    1.0000 0.44137  0.42610  0.98361  Biso   1.000  H
  C1413    1.0000 0.46669  0.52284  0.98142  Biso   1.000  C
  C1414    1.0000 0.82700  0.17949  0.77397  Biso   1.000  C
  C1415    1.0000 0.85898  0.12530  0.74236  Biso   1.000  C
  C1416    1.0000 0.82698  0.17954  0.77397  Biso   1.000  C
  C1417    1.0000 0.85903  0.12530  0.74236  Biso   1.000  C
  H1838    1.0000 0.57339  0.11931  0.69270  Biso   1.000  H
  C1418    1.0000 0.52662  0.03391  0.71411  Biso   1.000  C
  H1839    1.0000 0.50041  0.07032  0.68310  Biso   1.000  H
  C1419    1.0000 0.52658  0.03391  0.71411  Biso   1.000  C
  H1840    1.0000 0.50045  0.07032  0.68310  Biso   1.000  H
  H1841    1.0000 0.45916  0.95201  0.73460  Biso   1.000  H
  H1842    1.0000 0.42766  0.96469  0.70981  Biso   1.000  H
  H1843    1.0000 0.45907  0.95201  0.73460  Biso   1.000  H
  H1844    1.0000 0.42759  0.96474  0.70981  Biso   1.000  H
  C1420    1.0000 0.35900  0.96709  0.77384  Biso   1.000  C
  C1421    1.0000 0.35903  0.96714  0.77384  Biso   1.000  C
  H1845    1.0000 0.33451  0.45172  0.99050  Biso   1.000  H
  N72      1.0000 0.31408  0.35758  0.99450  Biso   1.000  N
  N73      1.0000 0.31410  0.35763  0.99450  Biso   1.000  N
  C1422    1.0000 0.38250  0.44962  0.02410  Biso   1.000  C
  H1846    1.0000 0.44651  0.54771  0.97461  Biso   1.000  H
  H1847    1.0000 0.50590  0.53398  0.97101  Biso   1.000  H
  H1848    1.0000 0.44647  0.54771  0.97461  Biso   1.000  H
  H1849    1.0000 0.50589  0.53403  0.97101  Biso   1.000  H
  C1423    1.0000 0.48809  0.54401  0.00902  Biso   1.000  C
  C1424    1.0000 0.79309  0.12051  0.78721  Biso   1.000  C
  H1850    1.0000 0.82819  0.21770  0.78040  Biso   1.000  H
  H1851    1.0000 0.88178  0.12730  0.72731  Biso   1.000  H
  C1425    1.0000 0.82541  0.06472  0.75555  Biso   1.000  C
  C1426    1.0000 0.82545  0.06472  0.75555  Biso   1.000  C
  H1852    1.0000 0.55710  0.05309  0.72860  Biso   1.000  H
  H1853    1.0000 0.54188  0.00949  0.70350  Biso   1.000  H
  H1854    1.0000 0.55708  0.05314  0.72860  Biso   1.000  H
  H1855    1.0000 0.54190  0.00954  0.70350  Biso   1.000  H
  H1856    1.0000 0.55713  0.05314  0.72860  Biso   1.000  H
  C1427    1.0000 0.29464  0.92399  0.78618  Biso   1.000  C
  H1857    1.0000 0.39701  0.98592  0.78419  Biso   1.000  H
  C1428    1.0000 0.29466  0.92404  0.78618  Biso   1.000  C
  C1429    1.0000 0.25361  0.33810  0.98833  Biso   1.000  C
  C1430    1.0000 0.25356  0.33810  0.98833  Biso   1.000  C
  H1858    1.0000 0.34409  0.43569  0.03530  Biso   1.000  H
  H1859    1.0000 0.40600  0.42690  0.02981  Biso   1.000  H
  C1431    1.0000 0.42690  0.52199  0.02659  Biso   1.000  C
  H1860    1.0000 0.34412  0.43574  0.03530  Biso   1.000  H
  H1861    1.0000 0.40596  0.42690  0.02981  Biso   1.000  H
  C1432    1.0000 0.42689  0.52204  0.02659  Biso   1.000  C
  C1433    1.0000 0.42693  0.52204  0.02659  Biso   1.000  C
  H1862    1.0000 0.51629  0.59221  0.00979  Biso   1.000  H
  H1863    1.0000 0.51399  0.52429  0.01510  Biso   1.000  H
  H1864    1.0000 0.51402  0.52434  0.01510  Biso   1.000  H
  H1865    1.0000 0.51634  0.59221  0.00979  Biso   1.000  H
  C1434    1.0000 0.79130  0.06148  0.77838  Biso   1.000  C
  C1435    1.0000 0.75810  0.10952  0.81301  Biso   1.000  C
  C1436    1.0000 0.79128  0.06153  0.77838  Biso   1.000  C
  H1866    1.0000 0.82572  0.02712  0.74929  Biso   1.000  H
  H1867    1.0000 0.82568  0.02712  0.74929  Biso   1.000  H
  C1437    1.0000 0.23420  0.90241  0.77345  Biso   1.000  C
  C1438    1.0000 0.29113  0.90012  0.81167  Biso   1.000  C
  H1868    1.0000 0.24329  0.37162  0.98531  Biso   1.000  H
  C1439    1.0000 0.19759  0.26829  0.98535  Biso   1.000  C
  C1440    1.0000 0.19762  0.26834  0.98535  Biso   1.000  C
  H1869    1.0000 0.44121  0.53338  0.04440  Biso   1.000  H
  H1870    1.0000 0.40330  0.54511  0.02160  Biso   1.000  H
  H1871    1.0000 0.44119  0.53343  0.04440  Biso   1.000  H
  C1441    1.0000 0.75051  0.00609  0.79669  Biso   1.000  C
  C1442    1.0000 0.75049  0.00614  0.79669  Biso   1.000  C
  C1443    1.0000 0.73382  0.03631  0.81804  Biso   1.000  C
  C1444    1.0000 0.70080  0.12440  0.80953  Biso   1.000  C
  C1445    1.0000 0.81042  0.15732  0.83221  Biso   1.000  C
  C1446    1.0000 0.73378  0.03631  0.81804  Biso   1.000  C
  C1447    1.0000 0.70084  0.12440  0.80953  Biso   1.000  C
  C1448    1.0000 0.81037  0.15732  0.83221  Biso   1.000  C
  H1872    1.0000 0.23395  0.91740  0.75680  Biso   1.000  H
  C1449    1.0000 0.17574  0.85981  0.78516  Biso   1.000  C
  H1873    1.0000 0.23386  0.91740  0.75680  Biso   1.000  H
  C1450    1.0000 0.23291  0.85642  0.82338  Biso   1.000  C
  H1874    1.0000 0.33072  0.91520  0.82091  Biso   1.000  H
  C1451    1.0000 0.20210  0.21070  0.98682  Biso   1.000  C
  C1452    1.0000 0.13581  0.26374  0.98206  Biso   1.000  C
  C1453    1.0000 0.20206  0.21070  0.98682  Biso   1.000  C
  C1454    1.0000 0.13576  0.26374  0.98206  Biso   1.000  C
  C1455    1.0000 0.72590  0.93862  0.79627  Biso   1.000  C
  C1456    1.0000 0.69653  0.99650  0.83869  Biso   1.000  C
  H1875    1.0000 0.67909  0.11861  0.82619  Biso   1.000  H
  H1876    1.0000 0.72012  0.17100  0.80471  Biso   1.000  H
  C1457    1.0000 0.64911  0.08400  0.79031  Biso   1.000  C
  H1877    1.0000 0.67913  0.11861  0.82619  Biso   1.000  H
  H1878    1.0000 0.72007  0.17100  0.80471  Biso   1.000  H
  C1458    1.0000 0.64907  0.08400  0.79031  Biso   1.000  C
  H1879    1.0000 0.82791  0.20251  0.82590  Biso   1.000  H
  H1880    1.0000 0.78839  0.15392  0.84860  Biso   1.000  H
  C1459    1.0000 0.86649  0.14628  0.83695  Biso   1.000  C
  H1881    1.0000 0.82787  0.20251  0.82590  Biso   1.000  H
  C1460    1.0000 0.86651  0.14633  0.83695  Biso   1.000  C
  C1461    1.0000 0.17132  0.83609  0.81082  Biso   1.000  C
  C1462    1.0000 0.10559  0.83619  0.77451  Biso   1.000  C
  C1463    1.0000 0.17135  0.83614  0.81082  Biso   1.000  C
  C1464    1.0000 0.10561  0.83624  0.77451  Biso   1.000  C
  H1882    1.0000 0.23354  0.83969  0.83970  Biso   1.000  H
  H1883    1.0000 0.23352  0.83974  0.83970  Biso   1.000  H
  H1884    1.0000 0.24339  0.21370  0.98901  Biso   1.000  H
  C1465    1.0000 0.14459  0.14828  0.98502  Biso   1.000  C
  C1466    1.0000 0.14458  0.14833  0.98502  Biso   1.000  C
  C1467    1.0000 0.07840  0.20151  0.98026  Biso   1.000  C
  H1885    1.0000 0.13290  0.30240  0.98111  Biso   1.000  H
  H1886    1.0000 0.13286  0.30240  0.98111  Biso   1.000  H
  C1468    1.0000 0.73061  0.89442  0.77451  Biso   1.000  C
  C1469    1.0000 0.68603  0.89772  0.81768  Biso   1.000  C
  C1470    1.0000 0.67375  0.92748  0.83875  Biso   1.000  C
  C1471    1.0000 0.67368  0.92753  0.83875  Biso   1.000  C
  C1472    1.0000 0.67511  0.01298  0.86366  Biso   1.000  C
  C1473    1.0000 0.67513  0.01303  0.86366  Biso   1.000  C
  C1474    1.0000 0.67509  0.01303  0.86366  Biso   1.000  C
  H1887    1.0000 0.63611  0.03741  0.79271  Biso   1.000  H
  H1888    1.0000 0.66828  0.09699  0.77310  Biso   1.000  H
  C1475    1.0000 0.58759  0.09019  0.79160  Biso   1.000  C
  H1889    1.0000 0.63606  0.03741  0.79271  Biso   1.000  H
  H1890    1.0000 0.66830  0.09704  0.77310  Biso   1.000  H
  H1891    1.0000 0.88351  0.14148  0.82040  Biso   1.000  H
  H1892    1.0000 0.85009  0.10448  0.84630  Biso   1.000  H
  C1476    1.0000 0.92511  0.20271  0.85261  Biso   1.000  C
  H1893    1.0000 0.88349  0.14153  0.82040  Biso   1.000  H
  H1894    1.0000 0.85011  0.10453  0.84630  Biso   1.000  H
  C1477    1.0000 0.92507  0.20271  0.85261  Biso   1.000  C
  C1478    1.0000 0.10236  0.78830  0.81768  Biso   1.000  C
  C1479    1.0000 0.10227  0.78830  0.81768  Biso   1.000  C
  C1480    1.0000 0.06146  0.78730  0.79627  Biso   1.000  C
  C1481    1.0000 0.09737  0.79908  0.74906  Biso   1.000  C
  C1482    1.0000 0.09407  0.89542  0.77254  Biso   1.000  C
  C1483    1.0000 0.06138  0.78730  0.79627  Biso   1.000  C
  C1484    1.0000 0.09740  0.79913  0.74906  Biso   1.000  C
  C1485    1.0000 0.09399  0.89542  0.77254  Biso   1.000  C
  C1486    1.0000 0.14471  0.08580  0.98306  Biso   1.000  C
  C1487    1.0000 0.08279  0.14378  0.98173  Biso   1.000  C
  C1488    1.0000 0.14467  0.08580  0.98306  Biso   1.000  C
  C1489    1.0000 0.08282  0.14383  0.98173  Biso   1.000  C
  C1490    1.0000 0.08286  0.14383  0.98173  Biso   1.000  C
  H1895    1.0000 0.03701  0.19842  0.97811  Biso   1.000  H
  H1896    1.0000 0.03697  0.19842  0.97811  Biso   1.000  H
  C1491    1.0000 0.70171  0.90261  0.74906  Biso   1.000  C
  C1492    1.0000 0.68413  0.82431  0.78516  Biso   1.000  C
  C1493    1.0000 0.80141  0.90601  0.77254  Biso   1.000  C
  C1494    1.0000 0.80137  0.90601  0.77254  Biso   1.000  C
  C1495    1.0000 0.66484  0.82870  0.81082  Biso   1.000  C
  C1496    1.0000 0.63262  0.89402  0.86322  Biso   1.000  C
  C1497    1.0000 0.63769  0.95380  0.87717  Biso   1.000  C
  C1498    1.0000 0.67959  0.07032  0.87319  Biso   1.000  C
  H1897    1.0000 0.56321  0.07481  0.77540  Biso   1.000  H
  H1898    1.0000 0.60051  0.13679  0.79369  Biso   1.000  H
  C1499    1.0000 0.54131  0.04909  0.81431  Biso   1.000  C
  H1899    1.0000 0.60049  0.13684  0.79369  Biso   1.000  H
  C1500    1.0000 0.54129  0.04914  0.81431  Biso   1.000  C
  H1900    1.0000 0.90792  0.21470  0.86750  Biso   1.000  H
  H1901    1.0000 0.95490  0.18738  0.85871  Biso   1.000  H
  C1501    1.0000 0.96249  0.26259  0.83500  Biso   1.000  C
  H1902    1.0000 0.90788  0.21470  0.86750  Biso   1.000  H
  H1903    1.0000 0.95492  0.18743  0.85871  Biso   1.000  H
  C1502    1.0000 0.96256  0.26264  0.83500  Biso   1.000  C
  H1904    1.0000 0.95488  0.18743  0.85871  Biso   1.000  H
  C1503    1.0000 0.96251  0.26264  0.83500  Biso   1.000  C
  C1504    1.0000 0.07253  0.74620  0.83875  Biso   1.000  C
  C1505    1.0000 0.99391  0.74440  0.79669  Biso   1.000  C
  C1506    1.0000 0.99386  0.74440  0.79669  Biso   1.000  C
  H1905    1.0000 0.05274  0.78370  0.74250  Biso   1.000  H
  H1906    1.0000 0.12865  0.83050  0.73660  Biso   1.000  H
  C1507    1.0000 0.10818  0.74060  0.75059  Biso   1.000  C
  H1907    1.0000 0.12860  0.83050  0.73660  Biso   1.000  H
  H1908    1.0000 0.12349  0.92519  0.75930  Biso   1.000  H
  H1909    1.0000 0.04865  0.87879  0.76660  Biso   1.000  H
  C1508    1.0000 0.10397  0.93538  0.79642  Biso   1.000  C
  H1910    1.0000 0.12351  0.92524  0.75930  Biso   1.000  H
  H1911    1.0000 0.04863  0.87884  0.76660  Biso   1.000  H
  C1509    1.0000 0.10400  0.93543  0.79642  Biso   1.000  C
  C1510    1.0000 0.06792  0.04120  0.98188  Biso   1.000  C
  C1511    1.0000 0.18310  0.08810  0.95812  Biso   1.000  C
  C1512    1.0000 0.06787  0.04120  0.98188  Biso   1.000  C
  C1513    1.0000 0.18306  0.08810  0.95812  Biso   1.000  C
  C1514    1.0000 0.17791  0.06742  0.00650  Biso   1.000  C
  C1515    1.0000 0.02549  0.06742  0.98214  Biso   1.000  C
  H1912    1.0000 0.73106  0.94731  0.74250  Biso   1.000  H
  H1913    1.0000 0.70193  0.87140  0.73660  Biso   1.000  H
  C1516    1.0000 0.63245  0.89178  0.75059  Biso   1.000  C
  H1914    1.0000 0.73098  0.94731  0.74250  Biso   1.000  H
  C1517    1.0000 0.63243  0.89183  0.75059  Biso   1.000  C
  C1518    1.0000 0.66826  0.76582  0.77345  Biso   1.000  C
  C1519    1.0000 0.66817  0.76582  0.77345  Biso   1.000  C
  H1915    1.0000 0.80175  0.87649  0.75930  Biso   1.000  H
  H1916    1.0000 0.83021  0.95141  0.76660  Biso   1.000  H
  C1520    1.0000 0.83141  0.89602  0.79642  Biso   1.000  C
  H1917    1.0000 0.80166  0.87649  0.75930  Biso   1.000  H
  H1918    1.0000 0.83016  0.95141  0.76660  Biso   1.000  H
  C1521    1.0000 0.62349  0.76712  0.82338  Biso   1.000  C
  C1522    1.0000 0.67231  0.86571  0.87977  Biso   1.000  C
  C1523    1.0000 0.56011  0.84388  0.85784  Biso   1.000  C
  C1524    1.0000 0.56009  0.84393  0.85784  Biso   1.000  C
  C1525    1.0000 0.61172  0.95350  0.90187  Biso   1.000  C
  C1526    1.0000 0.61167  0.95350  0.90187  Biso   1.000  C
  C1527    1.0000 0.65691  0.07062  0.89866  Biso   1.000  C
  H1919    1.0000 0.69741  0.10862  0.86310  Biso   1.000  H
  H1920    1.0000 0.52158  0.00230  0.81059  Biso   1.000  H
  H1921    1.0000 0.50667  0.06018  0.81640  Biso   1.000  H
  H1922    1.0000 0.56699  0.05938  0.82991  Biso   1.000  H
  H1923    1.0000 0.52163  0.00230  0.81059  Biso   1.000  H
  H1924    1.0000 0.50669  0.06023  0.81640  Biso   1.000  H
  H1925    1.0000 0.56698  0.05943  0.82991  Biso   1.000  H
  H1926    1.0000 0.97399  0.24891  0.81920  Biso   1.000  H
  H1927    1.0000 0.93480  0.28152  0.83120  Biso   1.000  H
  H1928    1.0000 0.93484  0.28152  0.83120  Biso   1.000  H
  H1929    1.0000 0.00260  0.29550  0.84349  Biso   1.000  H
  H1930    1.0000 0.00256  0.29550  0.84349  Biso   1.000  H
  C1528    1.0000 0.10601  0.73861  0.86322  Biso   1.000  C
  C1529    1.0000 0.00354  0.70000  0.83869  Biso   1.000  C
  C1530    1.0000 0.93852  0.72982  0.77838  Biso   1.000  C
  C1531    1.0000 0.96376  0.69750  0.81804  Biso   1.000  C
  C1532    1.0000 0.96371  0.69750  0.81804  Biso   1.000  C
  C1533    1.0000 0.10229  0.70599  0.72496  Biso   1.000  C
  H1931    1.0000 0.07581  0.70829  0.76259  Biso   1.000  H
  H1932    1.0000 0.15235  0.75559  0.75769  Biso   1.000  H
  C1534    1.0000 0.10232  0.70604  0.72496  Biso   1.000  C
  H1933    1.0000 0.07583  0.70834  0.76259  Biso   1.000  H
  H1934    1.0000 0.15229  0.75564  0.75769  Biso   1.000  H
  H1935    1.0000 0.14712  0.94711  0.80380  Biso   1.000  H
  H1936    1.0000 0.07014  0.90751  0.80891  Biso   1.000  H
  C1535    1.0000 0.10126  0.99760  0.79300  Biso   1.000  C
  C1536    1.0000 0.10122  0.99760  0.79300  Biso   1.000  C
  C1537    1.0000 0.04191  0.97448  0.98214  Biso   1.000  C
  C1538    1.0000 0.04193  0.97453  0.98214  Biso   1.000  C
  H1937    1.0000 0.22962  0.12181  0.96050  Biso   1.000  H
  H1938    1.0000 0.18121  0.04540  0.95639  Biso   1.000  H
  C1539    1.0000 0.16010  0.10248  0.93330  Biso   1.000  C
  H1939    1.0000 0.22958  0.12181  0.96050  Biso   1.000  H
  H1940    1.0000 0.18117  0.04540  0.95639  Biso   1.000  H
  C1540    1.0000 0.16008  0.10253  0.93330  Biso   1.000  C
  H1941    1.0000 0.17530  0.04300  0.95630  Biso   1.000  H
  H1942    1.0000 0.15791  0.09359  0.94430  Biso   1.000  H
  C1541    1.0000 0.24941  0.12860  0.95090  Biso   1.000  C
  H1943    1.0000 0.21998  0.10658  0.01090  Biso   1.000  H
  H1944    1.0000 0.18763  0.03331  0.00070  Biso   1.000  H
  C1542    1.0000 0.13210  0.04060  0.03279  Biso   1.000  C
  H1945    1.0000 0.22000  0.10663  0.01090  Biso   1.000  H
  H1946    1.0000 0.18758  0.03331  0.00070  Biso   1.000  H
  C1543    1.0000 0.13206  0.04060  0.03279  Biso   1.000  C
  C1544    1.0000 0.95882  0.02672  0.98188  Biso   1.000  C
  C1545    1.0000 0.95878  0.02672  0.98188  Biso   1.000  C
  C1546    1.0000 0.60376  0.89772  0.72496  Biso   1.000  C
  H1947    1.0000 0.63252  0.92419  0.76259  Biso   1.000  H
  H1948    1.0000 0.60335  0.84768  0.75769  Biso   1.000  H
  C1547    1.0000 0.60368  0.89772  0.72496  Biso   1.000  C
  H1949    1.0000 0.63255  0.92424  0.76259  Biso   1.000  H
  H1950    1.0000 0.60329  0.84773  0.75769  Biso   1.000  H
  C1548    1.0000 0.62944  0.70539  0.78618  Biso   1.000  C
  H1951    1.0000 0.68350  0.76612  0.75680  Biso   1.000  H
  H1952    1.0000 0.83739  0.92988  0.80891  Biso   1.000  H
  H1953    1.0000 0.80000  0.85292  0.80380  Biso   1.000  H
  C1549    1.0000 0.89647  0.89882  0.79300  Biso   1.000  C
  H1954    1.0000 0.83738  0.92993  0.80891  Biso   1.000  H
  C1550    1.0000 0.89638  0.89882  0.79300  Biso   1.000  C
  C1551    1.0000 0.60900  0.70889  0.81167  Biso   1.000  C
  C1552    1.0000 0.60898  0.70894  0.81167  Biso   1.000  C
  H1955    1.0000 0.60624  0.76652  0.83970  Biso   1.000  H
  H1956    1.0000 0.66691  0.82610  0.87100  Biso   1.000  H
  C1553    1.0000 0.75080  0.91500  0.88466  Biso   1.000  C
  H1957    1.0000 0.65060  0.85152  0.89651  Biso   1.000  H
  H1958    1.0000 0.55734  0.80298  0.85170  Biso   1.000  H
  H1959    1.0000 0.53572  0.83369  0.87400  Biso   1.000  H
  C1554    1.0000 0.52713  0.86461  0.83929  Biso   1.000  C
  H1960    1.0000 0.55733  0.80303  0.85170  Biso   1.000  H
  H1961    1.0000 0.58696  0.91350  0.91079  Biso   1.000  H
  H1962    1.0000 0.58687  0.91350  0.91079  Biso   1.000  H
  C1555    1.0000 0.62269  0.01169  0.91259  Biso   1.000  C
  C1556    1.0000 0.62271  0.01174  0.91259  Biso   1.000  C
  H1963    1.0000 0.66493  0.11062  0.90611  Biso   1.000  H
  H1964    1.0000 0.66489  0.11062  0.90611  Biso   1.000  H
  C1557    1.0000 0.04623  0.68392  0.87717  Biso   1.000  C
  C1558    1.0000 0.13429  0.80658  0.87977  Biso   1.000  C
  C1559    1.0000 0.15613  0.71618  0.85784  Biso   1.000  C
  C1560    1.0000 0.13427  0.80663  0.87977  Biso   1.000  C
  C1561    1.0000 0.15616  0.71623  0.85784  Biso   1.000  C
  C1562    1.0000 0.98705  0.66209  0.86366  Biso   1.000  C
  C1563    1.0000 0.98701  0.66209  0.86366  Biso   1.000  C
  C1564    1.0000 0.87954  0.67258  0.78721  Biso   1.000  C
  C1565    1.0000 0.93527  0.76068  0.75555  Biso   1.000  C
  C1566    1.0000 0.87952  0.67263  0.78721  Biso   1.000  C
  C1567    1.0000 0.93529  0.76073  0.75555  Biso   1.000  C
  C1568    1.0000 0.89057  0.64861  0.81301  Biso   1.000  C
  C1569    1.0000 0.89048  0.64861  0.81301  Biso   1.000  C
  H1965    1.0000 0.05690  0.68752  0.71860  Biso   1.000  H
  H1966    1.0000 0.13170  0.73910  0.71250  Biso   1.000  H
  C1570    1.0000 0.11860  0.65211  0.72597  Biso   1.000  C
  H1967    1.0000 0.13589  0.02672  0.78100  Biso   1.000  H
  C1571    1.0000 0.11059  0.03651  0.81949  Biso   1.000  C
  H1968    1.0000 0.05849  0.98672  0.78551  Biso   1.000  H
  C1572    1.0000 0.06106  0.91720  0.98173  Biso   1.000  C
  C1573    1.0000 0.06102  0.91720  0.98173  Biso   1.000  C
  C1574    1.0000 0.97335  0.93208  0.98188  Biso   1.000  C
  C1575    1.0000 0.97333  0.93213  0.98188  Biso   1.000  C
  H1969    1.0000 0.11701  0.06482  0.92860  Biso   1.000  H
  C1576    1.0000 0.21023  0.11502  0.91221  Biso   1.000  C
  H1970    1.0000 0.15489  0.14128  0.93530  Biso   1.000  H
  C1577    1.0000 0.21018  0.11502  0.91221  Biso   1.000  C
  H1971    1.0000 0.15488  0.14133  0.93530  Biso   1.000  H
  H1972    1.0000 0.27631  0.12331  0.96400  Biso   1.000  H
  H1973    1.0000 0.25881  0.17430  0.95200  Biso   1.000  H
  C1578    1.0000 0.27450  0.12151  0.92591  Biso   1.000  C
  H1974    1.0000 0.09500  0.99580  0.02981  Biso   1.000  H
  C1579    1.0000 0.17200  0.03960  0.05609  Biso   1.000  C
  H1975    1.0000 0.11372  0.06932  0.03660  Biso   1.000  H
  H1976    1.0000 0.11368  0.06932  0.03660  Biso   1.000  H
  C1580    1.0000 0.93264  0.95810  0.98214  Biso   1.000  C
  C1581    1.0000 0.91418  0.05888  0.98306  Biso   1.000  C
  C1582    1.0000 0.91425  0.05893  0.98306  Biso   1.000  C
  C1583    1.0000 0.91420  0.05893  0.98306  Biso   1.000  C
  H1977    1.0000 0.63061  0.94312  0.71860  Biso   1.000  H
  H1978    1.0000 0.60744  0.86830  0.71250  Biso   1.000  H
  C1584    1.0000 0.53349  0.88139  0.72597  Biso   1.000  C
  C1585    1.0000 0.53351  0.88144  0.72597  Biso   1.000  C
  C1586    1.0000 0.60815  0.64102  0.77384  Biso   1.000  C
  H1979    1.0000 0.92820  0.94152  0.78551  Biso   1.000  H
  H1980    1.0000 0.89079  0.86411  0.78100  Biso   1.000  H
  C1587    1.0000 0.92592  0.88938  0.81949  Biso   1.000  C
  C1588    1.0000 0.92594  0.88943  0.81949  Biso   1.000  C
  H1981    1.0000 0.58448  0.66929  0.82091  Biso   1.000  H
  H1982    1.0000 0.58451  0.66934  0.82091  Biso   1.000  H
  H1983    1.0000 0.75392  0.95660  0.89010  Biso   1.000  H
  H1984    1.0000 0.77031  0.92339  0.86750  Biso   1.000  H
  C1589    1.0000 0.80518  0.90811  0.90321  Biso   1.000  C
  H1985    1.0000 0.75387  0.95660  0.89010  Biso   1.000  H
  H1986    1.0000 0.77029  0.92344  0.86750  Biso   1.000  H
  H1987    1.0000 0.55348  0.88029  0.82360  Biso   1.000  H
  H1988    1.0000 0.52209  0.90072  0.84640  Biso   1.000  H
  C1590    1.0000 0.45692  0.80308  0.83320  Biso   1.000  C
  H1989    1.0000 0.55351  0.88034  0.82360  Biso   1.000  H
  C1591    1.0000 0.45695  0.80313  0.83320  Biso   1.000  C
  C1592    1.0000 0.60178  0.01408  0.93938  Biso   1.000  C
  C1593    1.0000 0.60185  0.01413  0.93938  Biso   1.000  C
  C1594    1.0000 0.60181  0.01413  0.93938  Biso   1.000  C
  C1595    1.0000 0.04652  0.65820  0.90187  Biso   1.000  C
  H1990    1.0000 0.14849  0.79908  0.89651  Biso   1.000  H
  H1991    1.0000 0.17393  0.84079  0.87100  Biso   1.000  H
  C1596    1.0000 0.08506  0.83579  0.88466  Biso   1.000  C
  H1992    1.0000 0.14848  0.79913  0.89651  Biso   1.000  H
  H1993    1.0000 0.17395  0.84084  0.87100  Biso   1.000  H
  C1597    1.0000 0.08504  0.83584  0.88466  Biso   1.000  C
  H1994    1.0000 0.19703  0.75429  0.85170  Biso   1.000  H
  H1995    1.0000 0.16630  0.70200  0.87400  Biso   1.000  H
  C1598    1.0000 0.13539  0.66249  0.83929  Biso   1.000  C
  H1996    1.0000 0.19705  0.75434  0.85170  Biso   1.000  H
  C1599    1.0000 0.92973  0.60931  0.87319  Biso   1.000  C
  C1600    1.0000 0.82056  0.64751  0.77397  Biso   1.000  C
  C1601    1.0000 0.82051  0.64751  0.77397  Biso   1.000  C
  C1602    1.0000 0.87468  0.73371  0.74236  Biso   1.000  C
  H1997    1.0000 0.97291  0.79859  0.74929  Biso   1.000  H
  H1998    1.0000 0.97293  0.79864  0.74929  Biso   1.000  H
  C1603    1.0000 0.87565  0.57640  0.80953  Biso   1.000  C
  C1604    1.0000 0.84269  0.65311  0.83221  Biso   1.000  C
  C1605    1.0000 0.87561  0.57640  0.80953  Biso   1.000  C
  H1999    1.0000 0.16472  0.67039  0.73069  Biso   1.000  H
  H2000    1.0000 0.11099  0.63118  0.70931  Biso   1.000  H
  H2001    1.0000 0.09079  0.61949  0.73861  Biso   1.000  H
  H2002    1.0000 0.16474  0.67044  0.73069  Biso   1.000  H
  H2003    1.0000 0.11102  0.63123  0.70931  Biso   1.000  H
  H2004    1.0000 0.15341  0.04869  0.82679  Biso   1.000  H
  H2005    1.0000 0.07611  0.00819  0.83140  Biso   1.000  H
  H2006    1.0000 0.10812  0.07601  0.81630  Biso   1.000  H
  H2007    1.0000 0.15339  0.04874  0.82679  Biso   1.000  H
  H2008    1.0000 0.07609  0.00824  0.83140  Biso   1.000  H
  H2009    1.0000 0.10807  0.07601  0.81630  Biso   1.000  H
  C1606    1.0000 0.00374  0.85542  0.98502  Biso   1.000  C
  C1607    1.0000 0.12312  0.92159  0.98026  Biso   1.000  C
  C1608    1.0000 0.12307  0.92159  0.98026  Biso   1.000  C
  C1609    1.0000 0.94111  0.85532  0.98306  Biso   1.000  C
  C1610    1.0000 0.94107  0.85532  0.98306  Biso   1.000  C
  H2010    1.0000 0.21380  0.07511  0.91041  Biso   1.000  H
  H2011    1.0000 0.19232  0.12081  0.89601  Biso   1.000  H
  C1611    1.0000 0.28210  0.17589  0.91559  Biso   1.000  C
  H2012    1.0000 0.19228  0.12081  0.89601  Biso   1.000  H
  C1612    1.0000 0.28206  0.17589  0.91559  Biso   1.000  C
  H2013    1.0000 0.25069  0.13020  0.91240  Biso   1.000  H
  H2014    1.0000 0.30031  0.17210  0.93179  Biso   1.000  H
  H2015    1.0000 0.30027  0.17210  0.93179  Biso   1.000  H
  H2016    1.0000 0.26400  0.07551  0.92411  Biso   1.000  H
  C1613    1.0000 0.35039  0.16750  0.92140  Biso   1.000  C
  H2017    1.0000 0.18910  0.00979  0.05230  Biso   1.000  H
  H2018    1.0000 0.20998  0.08390  0.05839  Biso   1.000  H
  C1614    1.0000 0.13398  0.01798  0.08090  Biso   1.000  C
  H2019    1.0000 0.18908  0.00984  0.05230  Biso   1.000  H
  C1615    1.0000 0.13401  0.01803  0.08090  Biso   1.000  C
  C1616    1.0000 0.85624  0.93902  0.98173  Biso   1.000  C
  C1617    1.0000 0.85175  0.99630  0.98502  Biso   1.000  C
  C1618    1.0000 0.85171  0.99630  0.98502  Biso   1.000  C
  C1619    1.0000 0.91190  0.09499  0.95812  Biso   1.000  C
  C1620    1.0000 0.91193  0.09504  0.95812  Biso   1.000  C
  C1621    1.0000 0.91189  0.09504  0.95812  Biso   1.000  C
  C1622    1.0000 0.93260  0.11052  0.00650  Biso   1.000  C
  H2020    1.0000 0.50573  0.83529  0.73069  Biso   1.000  H
  H2021    1.0000 0.52024  0.88898  0.70931  Biso   1.000  H
  H2022    1.0000 0.52871  0.90921  0.73861  Biso   1.000  H
  H2023    1.0000 0.50575  0.83534  0.73069  Biso   1.000  H
  H2024    1.0000 0.52023  0.88903  0.70931  Biso   1.000  H
  H2025    1.0000 0.52867  0.90921  0.73861  Biso   1.000  H
  N74      1.0000 0.61440  0.63398  0.74982  Biso   1.000  N
  N75      1.0000 0.61443  0.63403  0.74982  Biso   1.000  N
  H2026    1.0000 0.58893  0.60301  0.78419  Biso   1.000  H
  H2027    1.0000 0.89535  0.84658  0.82679  Biso   1.000  H
  H2028    1.0000 0.93210  0.92389  0.83140  Biso   1.000  H
  H2029    1.0000 0.96791  0.89188  0.81630  Biso   1.000  H
  H2030    1.0000 0.89533  0.84663  0.82679  Biso   1.000  H
  H2031    1.0000 0.93208  0.92394  0.83140  Biso   1.000  H
  H2032    1.0000 0.96789  0.89193  0.81630  Biso   1.000  H
  C1623    1.0000 0.85151  0.90691  0.92639  Biso   1.000  C
  H2033    1.0000 0.79083  0.86271  0.89771  Biso   1.000  H
  H2034    1.0000 0.84274  0.93478  0.89181  Biso   1.000  H
  H2035    1.0000 0.84268  0.93483  0.89181  Biso   1.000  H
  H2036    1.0000 0.46095  0.76348  0.83111  Biso   1.000  H
  H2037    1.0000 0.42679  0.79549  0.84750  Biso   1.000  H
  C1624    1.0000 0.42774  0.81522  0.80800  Biso   1.000  C
  H2038    1.0000 0.46093  0.76353  0.83111  Biso   1.000  H
  H2039    1.0000 0.42681  0.79554  0.84750  Biso   1.000  H
  N76      1.0000 0.56634  0.95990  0.95213  Biso   1.000  N
  N77      1.0000 0.56626  0.95990  0.95213  Biso   1.000  N
  H2040    1.0000 0.61441  0.05509  0.94710  Biso   1.000  H
  H2041    1.0000 0.61444  0.05514  0.94710  Biso   1.000  H
  H2042    1.0000 0.61439  0.05514  0.94710  Biso   1.000  H
  C1625    1.0000 0.98837  0.61100  0.91259  Biso   1.000  C
  C1626    1.0000 0.98828  0.61100  0.91259  Biso   1.000  C
  H2043    1.0000 0.08655  0.67338  0.91079  Biso   1.000  H
  H2044    1.0000 0.08653  0.67343  0.91079  Biso   1.000  H
  H2045    1.0000 0.04345  0.79729  0.89010  Biso   1.000  H
  H2046    1.0000 0.07663  0.84688  0.86750  Biso   1.000  H
  C1627    1.0000 0.09189  0.89712  0.90321  Biso   1.000  C
  H2047    1.0000 0.04339  0.79734  0.89010  Biso   1.000  H
  H2048    1.0000 0.07662  0.84693  0.86750  Biso   1.000  H
  H2049    1.0000 0.11971  0.67318  0.82360  Biso   1.000  H
  H2050    1.0000 0.09931  0.62139  0.84640  Biso   1.000  H
  C1628    1.0000 0.19696  0.65380  0.83320  Biso   1.000  C
  H2051    1.0000 0.11969  0.67323  0.82360  Biso   1.000  H
  H2052    1.0000 0.09933  0.62144  0.84640  Biso   1.000  H
  C1629    1.0000 0.19691  0.65380  0.83320  Biso   1.000  C
  C1630    1.0000 0.92942  0.58628  0.89866  Biso   1.000  C
  H2053    1.0000 0.89144  0.58878  0.86310  Biso   1.000  H
  C1631    1.0000 0.92945  0.58633  0.89866  Biso   1.000  C
  H2054    1.0000 0.89143  0.58883  0.86310  Biso   1.000  H
  C1632    1.0000 0.81773  0.67758  0.75067  Biso   1.000  C
  H2055    1.0000 0.78233  0.61051  0.78040  Biso   1.000  H
  C1633    1.0000 0.81775  0.67763  0.75067  Biso   1.000  C
  H2056    1.0000 0.87275  0.75449  0.72731  Biso   1.000  H
  H2057    1.0000 0.87273  0.75454  0.72731  Biso   1.000  H
  H2058    1.0000 0.88146  0.56051  0.82619  Biso   1.000  H
  H2059    1.0000 0.82903  0.54908  0.80471  Biso   1.000  H
  C1634    1.0000 0.91603  0.56511  0.79031  Biso   1.000  C
  H2060    1.0000 0.88138  0.56051  0.82619  Biso   1.000  H
  H2061    1.0000 0.82897  0.54913  0.80471  Biso   1.000  H
  H2062    1.0000 0.79756  0.62539  0.82590  Biso   1.000  H
  H2063    1.0000 0.84609  0.63448  0.84860  Biso   1.000  H
  C1635    1.0000 0.85373  0.72018  0.83695  Biso   1.000  C
  H2064    1.0000 0.79754  0.62544  0.82590  Biso   1.000  H
  H2065    1.0000 0.84611  0.63453  0.84860  Biso   1.000  H
  C1636    1.0000 0.85376  0.72023  0.83695  Biso   1.000  C
  C1637    1.0000 0.00858  0.79789  0.98682  Biso   1.000  C
  C1638    1.0000 0.00861  0.79794  0.98682  Biso   1.000  C
  C1639    1.0000 0.12799  0.86421  0.98206  Biso   1.000  C
  H2066    1.0000 0.16142  0.96299  0.97811  Biso   1.000  H
  H2067    1.0000 0.16144  0.96304  0.97811  Biso   1.000  H
  C1640    1.0000 0.90500  0.81691  0.95812  Biso   1.000  C
  C1641    1.0000 0.88956  0.82211  0.00650  Biso   1.000  C
  C1642    1.0000 0.88952  0.82211  0.00650  Biso   1.000  C
  H2068    1.0000 0.28030  0.21650  0.91550  Biso   1.000  H
  H2069    1.0000 0.31001  0.17669  0.90170  Biso   1.000  H
  H2070    1.0000 0.28026  0.21650  0.91550  Biso   1.000  H
  H2071    1.0000 0.30999  0.17674  0.90170  Biso   1.000  H
  H2072    1.0000 0.36091  0.21320  0.92130  Biso   1.000  H
  H2073    1.0000 0.36252  0.15682  0.90501  Biso   1.000  H
  H2074    1.0000 0.37482  0.16091  0.93501  Biso   1.000  H
  H2075    1.0000 0.09911  0.97228  0.07949  Biso   1.000  H
  H2076    1.0000 0.09909  0.97233  0.07949  Biso   1.000  H
  H2077    1.0000 0.16370  0.02222  0.09470  Biso   1.000  H
  H2078    1.0000 0.11489  0.04570  0.08450  Biso   1.000  H
  C1643    1.0000 0.79849  0.87689  0.98026  Biso   1.000  C
  C1644    1.0000 0.78936  0.99141  0.98682  Biso   1.000  C
  C1645    1.0000 0.78931  0.99141  0.98682  Biso   1.000  C
  H2079    1.0000 0.87823  0.10782  0.96050  Biso   1.000  H
  H2080    1.0000 0.95458  0.13579  0.95639  Biso   1.000  H
  C1646    1.0000 0.89748  0.05758  0.93330  Biso   1.000  C
  H2081    1.0000 0.95465  0.13584  0.95639  Biso   1.000  H
  C1647    1.0000 0.89751  0.05763  0.93330  Biso   1.000  C
  H2082    1.0000 0.87818  0.10782  0.96050  Biso   1.000  H
  H2083    1.0000 0.95698  0.13230  0.95630  Biso   1.000  H
  H2084    1.0000 0.90643  0.06432  0.94430  Biso   1.000  H
  C1648    1.0000 0.87140  0.12081  0.95090  Biso   1.000  C
  H2085    1.0000 0.89339  0.11342  0.01090  Biso   1.000  H
  H2086    1.0000 0.96670  0.15432  0.00070  Biso   1.000  H
  C1649    1.0000 0.95942  0.09149  0.03279  Biso   1.000  C
  C1650    1.0000 0.95940  0.09154  0.03279  Biso   1.000  C
  C1651    1.0000 0.59234  0.56771  0.74080  Biso   1.000  C
  H2087    1.0000 0.82879  0.90082  0.94271  Biso   1.000  H
  H2088    1.0000 0.89299  0.94851  0.92670  Biso   1.000  H
  H2089    1.0000 0.86019  0.87090  0.92380  Biso   1.000  H
  H2090    1.0000 0.45747  0.82251  0.79391  Biso   1.000  H
  H2091    1.0000 0.42277  0.85372  0.81020  Biso   1.000  H
  H2092    1.0000 0.38489  0.77691  0.80449  Biso   1.000  H
  H2093    1.0000 0.45742  0.82251  0.79391  Biso   1.000  H
  H2094    1.0000 0.42273  0.85372  0.81020  Biso   1.000  H
  C1652    1.0000 0.54884  0.96789  0.97888  Biso   1.000  C
  C1653    1.0000 0.54878  0.96794  0.97888  Biso   1.000  C
  C1654    1.0000 0.98592  0.58768  0.93938  Biso   1.000  C
  C1655    1.0000 0.98594  0.58773  0.93938  Biso   1.000  C
  H2095    1.0000 0.13730  0.92808  0.89771  Biso   1.000  H
  H2096    1.0000 0.06519  0.90791  0.89181  Biso   1.000  H
  C1656    1.0000 0.09311  0.94461  0.92639  Biso   1.000  C
  H2097    1.0000 0.13729  0.92813  0.89771  Biso   1.000  H
  H2098    1.0000 0.23649  0.69740  0.83111  Biso   1.000  H
  H2099    1.0000 0.20455  0.63128  0.84750  Biso   1.000  H
  C1657    1.0000 0.18478  0.61250  0.80800  Biso   1.000  C
  H2100    1.0000 0.20453  0.63133  0.84750  Biso   1.000  H
  H2101    1.0000 0.88940  0.55432  0.90611  Biso   1.000  H
  C1658    1.0000 0.75610  0.64931  0.73586  Biso   1.000  C
  H2102    1.0000 0.96267  0.59872  0.79271  Biso   1.000  H
  H2103    1.0000 0.90299  0.57130  0.77310  Biso   1.000  H
  C1659    1.0000 0.90980  0.49739  0.79160  Biso   1.000  C
  H2104    1.0000 0.96263  0.59872  0.79271  Biso   1.000  H
  C1660    1.0000 0.90978  0.49744  0.79160  Biso   1.000  C
  H2105    1.0000 0.85854  0.74200  0.82040  Biso   1.000  H
  H2106    1.0000 0.89551  0.74560  0.84630  Biso   1.000  H
  C1661    1.0000 0.79737  0.72242  0.85261  Biso   1.000  C
  H2107    1.0000 0.85850  0.74200  0.82040  Biso   1.000  H
  H2108    1.0000 0.89546  0.74560  0.84630  Biso   1.000  H
  C1662    1.0000 0.79729  0.72242  0.85261  Biso   1.000  C
  C1663    1.0000 0.07073  0.80238  0.98535  Biso   1.000  C
  C1664    1.0000 0.07076  0.80243  0.98535  Biso   1.000  C
  H2109    1.0000 0.97029  0.75658  0.98901  Biso   1.000  H
  H2110    1.0000 0.97031  0.75663  0.98901  Biso   1.000  H
  H2111    1.0000 0.16949  0.86711  0.98111  Biso   1.000  H
  H2112    1.0000 0.89226  0.77042  0.96050  Biso   1.000  H
  H2113    1.0000 0.86425  0.81881  0.95639  Biso   1.000  H
  C1665    1.0000 0.94239  0.83989  0.93330  Biso   1.000  C
  H2114    1.0000 0.89222  0.77042  0.96050  Biso   1.000  H
  H2115    1.0000 0.86417  0.81881  0.95639  Biso   1.000  H
  C1666    1.0000 0.94242  0.83994  0.93330  Biso   1.000  C
  H2116    1.0000 0.86772  0.82470  0.95630  Biso   1.000  H
  H2117    1.0000 0.93573  0.84213  0.94430  Biso   1.000  H
  C1667    1.0000 0.87921  0.75064  0.95090  Biso   1.000  C
  H2118    1.0000 0.88659  0.78001  0.01090  Biso   1.000  H
  H2119    1.0000 0.84570  0.81242  0.00070  Biso   1.000  H
  C1668    1.0000 0.90852  0.86790  0.03279  Biso   1.000  C
  C1669    1.0000 0.90848  0.86790  0.03279  Biso   1.000  C
  H2120    1.0000 0.80165  0.83859  0.97811  Biso   1.000  H
  C1670    1.0000 0.73625  0.87205  0.98206  Biso   1.000  C
  H2121    1.0000 0.80163  0.83864  0.97811  Biso   1.000  H
  C1671    1.0000 0.73627  0.87210  0.98206  Biso   1.000  C
  C1672    1.0000 0.73169  0.92928  0.98535  Biso   1.000  C
  C1673    1.0000 0.73172  0.92933  0.98535  Biso   1.000  C
  H2122    1.0000 0.78632  0.02972  0.98901  Biso   1.000  H
  H2123    1.0000 0.78628  0.02972  0.98901  Biso   1.000  H
  C1674    1.0000 0.88501  0.09519  0.91221  Biso   1.000  C
  H2124    1.0000 0.85870  0.01358  0.93530  Biso   1.000  H
  H2125    1.0000 0.93518  0.05219  0.92860  Biso   1.000  H
  C1675    1.0000 0.88500  0.09524  0.91221  Biso   1.000  C
  H2126    1.0000 0.85868  0.01363  0.93530  Biso   1.000  H
  H2127    1.0000 0.93521  0.05224  0.92860  Biso   1.000  H
  H2128    1.0000 0.87669  0.15302  0.96400  Biso   1.000  H
  H2129    1.0000 0.82569  0.08450  0.95200  Biso   1.000  H
  C1676    1.0000 0.87851  0.15302  0.92591  Biso   1.000  C
  C1677    1.0000 0.96041  0.13240  0.05609  Biso   1.000  C
  H2130    1.0000 0.93068  0.04440  0.03660  Biso   1.000  H
  C1678    1.0000 0.96036  0.13240  0.05609  Biso   1.000  C
  H2131    1.0000 0.00418  0.09918  0.02981  Biso   1.000  H
  H2132    1.0000 0.00420  0.09923  0.02981  Biso   1.000  H
  C1679    1.0000 0.64854  0.56870  0.72425  Biso   1.000  C
  H2133    1.0000 0.58292  0.53789  0.75570  Biso   1.000  H
  C1680    1.0000 0.52850  0.54219  0.72419  Biso   1.000  C
  H2134    1.0000 0.58295  0.53794  0.75570  Biso   1.000  H
  C1681    1.0000 0.52852  0.54223  0.72419  Biso   1.000  C
  C1682    1.0000 0.57104  0.92958  0.99605  Biso   1.000  C
  C1683    1.0000 0.57102  0.92963  0.99605  Biso   1.000  C
  C1684    1.0000 0.47726  0.94392  0.98142  Biso   1.000  C
  C1685    1.0000 0.47717  0.94392  0.98142  Biso   1.000  C
  H2135    1.0000 0.57388  0.01528  0.98361  Biso   1.000  H
  H2136    1.0000 0.57390  0.01533  0.98361  Biso   1.000  H
  H2137    1.0000 0.94492  0.55932  0.94710  Biso   1.000  H
  N78      1.0000 0.04013  0.60641  0.95213  Biso   1.000  N
  H2138    1.0000 0.09924  0.92798  0.94271  Biso   1.000  H
  H2139    1.0000 0.05154  0.94451  0.92670  Biso   1.000  H
  H2140    1.0000 0.12917  0.98931  0.92380  Biso   1.000  H
  H2141    1.0000 0.09922  0.92803  0.94271  Biso   1.000  H
  H2142    1.0000 0.12908  0.98931  0.92380  Biso   1.000  H
  H2143    1.0000 0.17750  0.63488  0.79391  Biso   1.000  H
  H2144    1.0000 0.14634  0.56900  0.81020  Biso   1.000  H
  H2145    1.0000 0.22315  0.60801  0.80449  Biso   1.000  H
  H2146    1.0000 0.17753  0.63493  0.79391  Biso   1.000  H
  N79      1.0000 0.70843  0.59108  0.74041  Biso   1.000  N
  H2147    1.0000 0.75160  0.67448  0.72280  Biso   1.000  H
  N80      1.0000 0.70846  0.59113  0.74041  Biso   1.000  N
  H2148    1.0000 0.75163  0.67453  0.72280  Biso   1.000  H
  H2149    1.0000 0.92525  0.48840  0.77540  Biso   1.000  H
  H2150    1.0000 0.86323  0.46368  0.79369  Biso   1.000  H
  C1686    1.0000 0.95093  0.49219  0.81431  Biso   1.000  C
  H2151    1.0000 0.92516  0.48840  0.77540  Biso   1.000  H
  H2152    1.0000 0.86322  0.46373  0.79369  Biso   1.000  H
  C1687    1.0000 0.95096  0.49224  0.81431  Biso   1.000  C
  H2153    1.0000 0.78532  0.69321  0.86750  Biso   1.000  H
  H2154    1.0000 0.81261  0.76752  0.85871  Biso   1.000  H
  C1688    1.0000 0.73741  0.69990  0.83500  Biso   1.000  C
  C1689    1.0000 0.73737  0.69990  0.83500  Biso   1.000  C
  C1690    1.0000 0.08452  0.74640  0.98833  Biso   1.000  C
  C1691    1.0000 0.90485  0.78980  0.91221  Biso   1.000  C
  H2155    1.0000 0.98638  0.84508  0.93530  Biso   1.000  H
  H2156    1.0000 0.94781  0.88299  0.92860  Biso   1.000  H
  C1692    1.0000 0.90480  0.78980  0.91221  Biso   1.000  C
  H2157    1.0000 0.98640  0.84513  0.93530  Biso   1.000  H
  H2158    1.0000 0.94779  0.88304  0.92860  Biso   1.000  H
  H2159    1.0000 0.84698  0.72372  0.96400  Biso   1.000  H
  H2160    1.0000 0.91550  0.74120  0.95200  Biso   1.000  H
  C1693    1.0000 0.84702  0.72552  0.92591  Biso   1.000  C
  C1694    1.0000 0.86759  0.82800  0.05609  Biso   1.000  C
  H2161    1.0000 0.95560  0.88628  0.03660  Biso   1.000  H
  H2162    1.0000 0.90086  0.90501  0.02981  Biso   1.000  H
  H2163    1.0000 0.95558  0.88633  0.03660  Biso   1.000  H
  H2164    1.0000 0.90078  0.90501  0.02981  Biso   1.000  H
  H2165    1.0000 0.69761  0.83050  0.98111  Biso   1.000  H
  C1695    1.0000 0.66191  0.91550  0.98833  Biso   1.000  C
  H2166    1.0000 0.87919  0.07152  0.89601  Biso   1.000  H
  H2167    1.0000 0.92489  0.13869  0.91041  Biso   1.000  H
  C1696    1.0000 0.82408  0.10618  0.91559  Biso   1.000  C
  H2168    1.0000 0.92495  0.13874  0.91041  Biso   1.000  H
  C1697    1.0000 0.82410  0.10623  0.91559  Biso   1.000  C
  H2169    1.0000 0.92491  0.13874  0.91041  Biso   1.000  H
  H2170    1.0000 0.86982  0.12051  0.91240  Biso   1.000  H
  H2171    1.0000 0.82791  0.12820  0.93179  Biso   1.000  H
  H2172    1.0000 0.82786  0.12820  0.93179  Biso   1.000  H
  H2173    1.0000 0.92448  0.18848  0.92411  Biso   1.000  H
  C1698    1.0000 0.83250  0.18289  0.92140  Biso   1.000  C
  H2174    1.0000 0.99021  0.17929  0.05230  Biso   1.000  H
  H2175    1.0000 0.91609  0.12610  0.05839  Biso   1.000  H
  C1699    1.0000 0.98202  0.11601  0.08090  Biso   1.000  C
  H2176    1.0000 0.99019  0.17934  0.05230  Biso   1.000  H
  C1700    1.0000 0.98197  0.11601  0.08090  Biso   1.000  C
  H2177    1.0000 0.65886  0.59912  0.70960  Biso   1.000  H
  C1701    1.0000 0.62422  0.49739  0.71432  Biso   1.000  C
  H2178    1.0000 0.65878  0.59912  0.70960  Biso   1.000  H
  C1702    1.0000 0.62424  0.49744  0.71432  Biso   1.000  C
  H2179    1.0000 0.49290  0.54089  0.73460  Biso   1.000  H
  H2180    1.0000 0.53716  0.57240  0.70981  Biso   1.000  H
  C1703    1.0000 0.50735  0.47342  0.71411  Biso   1.000  C
  H2181    1.0000 0.49289  0.54094  0.73460  Biso   1.000  H
  H2182    1.0000 0.53708  0.57240  0.70981  Biso   1.000  H
  N81      1.0000 0.64245  0.95650  0.99450  Biso   1.000  N
  N82      1.0000 0.64237  0.95650  0.99450  Biso   1.000  N
  H2183    1.0000 0.54833  0.88279  0.99050  Biso   1.000  H
  H2184    1.0000 0.54836  0.88284  0.99050  Biso   1.000  H
  C1704    1.0000 0.55045  0.93288  0.02410  Biso   1.000  C
  C1705    1.0000 0.55039  0.93293  0.02410  Biso   1.000  C
  H2185    1.0000 0.45237  0.89882  0.97461  Biso   1.000  H
  H2186    1.0000 0.46602  0.97188  0.97101  Biso   1.000  H
  H2187    1.0000 0.45233  0.89882  0.97461  Biso   1.000  H
  H2188    1.0000 0.46605  0.97193  0.97101  Biso   1.000  H
  C1706    1.0000 0.45603  0.94412  0.00902  Biso   1.000  C
  C1707    1.0000 0.03213  0.58089  0.97888  Biso   1.000  C
  C1708    1.0000 0.03215  0.58094  0.97888  Biso   1.000  C
  H2189    1.0000 0.99775  0.51931  0.81059  Biso   1.000  H
  H2190    1.0000 0.93985  0.44650  0.81640  Biso   1.000  H
  H2191    1.0000 0.94059  0.50758  0.82991  Biso   1.000  H
  H2192    1.0000 0.99766  0.51931  0.81059  Biso   1.000  H
  H2193    1.0000 0.93976  0.44650  0.81640  Biso   1.000  H
  H2194    1.0000 0.94061  0.50763  0.82991  Biso   1.000  H
  H2195    1.0000 0.75115  0.72512  0.81920  Biso   1.000  H
  H2196    1.0000 0.70450  0.70709  0.84349  Biso   1.000  H
  H2197    1.0000 0.71848  0.65331  0.83120  Biso   1.000  H
  H2198    1.0000 0.70453  0.70714  0.84349  Biso   1.000  H
  N83      1.0000 0.04356  0.68592  0.99450  Biso   1.000  N
  N84      1.0000 0.04347  0.68592  0.99450  Biso   1.000  N
  H2199    1.0000 0.12829  0.75668  0.98531  Biso   1.000  H
  H2200    1.0000 0.12831  0.75673  0.98531  Biso   1.000  H
  H2201    1.0000 0.92856  0.80772  0.89601  Biso   1.000  H
  H2202    1.0000 0.86131  0.78620  0.91041  Biso   1.000  H
  C1709    1.0000 0.89380  0.71788  0.91559  Biso   1.000  C
  H2203    1.0000 0.92852  0.80772  0.89601  Biso   1.000  H
  H2204    1.0000 0.86127  0.78620  0.91041  Biso   1.000  H
  C1710    1.0000 0.89378  0.71793  0.91559  Biso   1.000  C
  H2205    1.0000 0.87956  0.74934  0.91240  Biso   1.000  H
  H2206    1.0000 0.87182  0.69970  0.93179  Biso   1.000  H
  H2207    1.0000 0.87178  0.69970  0.93179  Biso   1.000  H
  H2208    1.0000 0.81152  0.73601  0.92411  Biso   1.000  H
  C1711    1.0000 0.81711  0.64961  0.92140  Biso   1.000  C
  H2209    1.0000 0.82069  0.81092  0.05230  Biso   1.000  H
  H2210    1.0000 0.87393  0.79000  0.05839  Biso   1.000  H
  C1712    1.0000 0.88400  0.86601  0.08090  Biso   1.000  C
  H2211    1.0000 0.62838  0.87170  0.98531  Biso   1.000  H
  H2212    1.0000 0.78350  0.06378  0.91550  Biso   1.000  H
  H2213    1.0000 0.82332  0.13329  0.90170  Biso   1.000  H
  H2214    1.0000 0.78348  0.06383  0.91550  Biso   1.000  H
  H2215    1.0000 0.82328  0.13329  0.90170  Biso   1.000  H
  H2216    1.0000 0.78678  0.14768  0.92130  Biso   1.000  H
  H2217    1.0000 0.84322  0.20571  0.90501  Biso   1.000  H
  H2218    1.0000 0.83910  0.21390  0.93501  Biso   1.000  H
  H2219    1.0000 0.97780  0.14148  0.09470  Biso   1.000  H
  H2220    1.0000 0.95429  0.06922  0.08450  Biso   1.000  H
  H2221    1.0000 0.97778  0.14153  0.09470  Biso   1.000  H
  H2222    1.0000 0.02772  0.12680  0.07949  Biso   1.000  H
  H2223    1.0000 0.02768  0.12680  0.07949  Biso   1.000  H
  C1713    1.0000 0.56093  0.47202  0.69835  Biso   1.000  C
  H2224    1.0000 0.65903  0.49729  0.70381  Biso   1.000  H
  H2225    1.0000 0.61580  0.46792  0.72889  Biso   1.000  H
  H2226    1.0000 0.65905  0.49734  0.70381  Biso   1.000  H
  H2227    1.0000 0.49598  0.44290  0.72860  Biso   1.000  H
  H2228    1.0000 0.46759  0.45808  0.70350  Biso   1.000  H
  H2229    1.0000 0.46762  0.45813  0.70350  Biso   1.000  H
  H2230    1.0000 0.56434  0.90841  0.03530  Biso   1.000  H
  H2231    1.0000 0.57310  0.97912  0.02981  Biso   1.000  H
  C1714    1.0000 0.47800  0.90491  0.02659  Biso   1.000  C
  H2232    1.0000 0.40779  0.92409  0.00979  Biso   1.000  H
  H2233    1.0000 0.47576  0.98971  0.01510  Biso   1.000  H
  H2234    1.0000 0.40781  0.92414  0.00979  Biso   1.000  H
  H2235    1.0000 0.47567  0.98971  0.01510  Biso   1.000  H
  H2236    1.0000 0.98475  0.55862  0.98361  Biso   1.000  H
  C1715    1.0000 0.07044  0.64142  0.99605  Biso   1.000  C
  C1716    1.0000 0.05608  0.53330  0.98142  Biso   1.000  C
  H2237    1.0000 0.93622  0.71968  0.91550  Biso   1.000  H
  H2238    1.0000 0.86672  0.69001  0.90170  Biso   1.000  H
  H2239    1.0000 0.93624  0.71973  0.91550  Biso   1.000  H
  H2240    1.0000 0.86667  0.69001  0.90170  Biso   1.000  H
  H2241    1.0000 0.85230  0.63912  0.92130  Biso   1.000  H
  H2242    1.0000 0.79428  0.63752  0.90501  Biso   1.000  H
  H2243    1.0000 0.78611  0.62524  0.93501  Biso   1.000  H
  H2244    1.0000 0.87321  0.90092  0.07949  Biso   1.000  H
  H2245    1.0000 0.85850  0.83629  0.09470  Biso   1.000  H
  H2246    1.0000 0.93078  0.88508  0.08450  Biso   1.000  H
  H2247    1.0000 0.85853  0.83634  0.09470  Biso   1.000  H
  H2248    1.0000 0.93080  0.88513  0.08450  Biso   1.000  H
  H2249    1.0000 0.56991  0.49958  0.68310  Biso   1.000  H
  H2250    1.0000 0.54597  0.42662  0.69270  Biso   1.000  H
  H2251    1.0000 0.56989  0.49963  0.68310  Biso   1.000  H
  H2252    1.0000 0.54593  0.42662  0.69270  Biso   1.000  H
  H2253    1.0000 0.46660  0.90781  0.04440  Biso   1.000  H
  H2254    1.0000 0.45495  0.85822  0.02160  Biso   1.000  H
  H2255    1.0000 0.11721  0.66549  0.99050  Biso   1.000  H
  H2256    1.0000 0.11723  0.66554  0.99050  Biso   1.000  H
  C1717    1.0000 0.06709  0.61750  0.02410  Biso   1.000  C
  H2257    1.0000 0.10127  0.55352  0.97461  Biso   1.000  H
  H2258    1.0000 0.02809  0.49409  0.97101  Biso   1.000  H
  H2259    1.0000 0.10123  0.55352  0.97461  Biso   1.000  H
  H2260    1.0000 0.02811  0.49414  0.97101  Biso   1.000  H
  C1718    1.0000 0.05595  0.51192  0.00902  Biso   1.000  C
  H2261    1.0000 0.09161  0.65590  0.03530  Biso   1.000  H
  H2262    1.0000 0.02096  0.59402  0.02981  Biso   1.000  H
  C1719    1.0000 0.09514  0.57310  0.02659  Biso   1.000  C
  H2263    1.0000 0.02088  0.59402  0.02981  Biso   1.000  H
  C1720    1.0000 0.09506  0.57310  0.02659  Biso   1.000  C
  H2264    1.0000 0.07592  0.48370  0.00979  Biso   1.000  H
  H2265    1.0000 0.01033  0.48600  0.01510  Biso   1.000  H
  H2266    1.0000 0.07588  0.48370  0.00979  Biso   1.000  H
  H2267    1.0000 0.14181  0.59672  0.02160  Biso   1.000  H
  H2268    1.0000 0.09220  0.55882  0.04440  Biso   1.000  H
  C1721    1.0000 0.40042  0.28417  0.69076  Biso   1.000  C
  C1722    1.0000 0.40373  0.30809  0.66272  Biso   1.000  C
  H2269    1.0000 0.42494  0.32257  0.70197  Biso   1.000  H
  H2270    1.0000 0.35423  0.26065  0.69647  Biso   1.000  H
  C1723    1.0000 0.42844  0.23977  0.69326  Biso   1.000  C
  C1724    1.0000 0.36542  0.24756  0.64555  Biso   1.000  C
  N85      1.0000 0.37685  0.35259  0.66117  Biso   1.000  N
  H2271    1.0000 0.45054  0.33216  0.65716  Biso   1.000  H
  C1725    1.0000 0.38924  0.17859  0.67569  Biso   1.000  C
  H2272    1.0000 0.42553  0.22549  0.71107  Biso   1.000  H
  H2273    1.0000 0.47513  0.26334  0.68827  Biso   1.000  H
  N86      1.0000 0.37342  0.27308  0.61880  Biso   1.000  N
  H2274    1.0000 0.31804  0.22529  0.65027  Biso   1.000  H
  C1726    1.0000 0.38942  0.19997  0.64809  Biso   1.000  C
  C1727    1.0000 0.41781  0.41307  0.65500  Biso   1.000  C
  H2275    1.0000 0.40926  0.15037  0.67646  Biso   1.000  H
  H2276    1.0000 0.34363  0.15267  0.68176  Biso   1.000  H
  C1728    1.0000 0.31921  0.25435  0.60605  Biso   1.000  C
  H2277    1.0000 0.43454  0.22014  0.64127  Biso   1.000  H
  H2278    1.0000 0.36142  0.16076  0.63767  Biso   1.000  H
  H2279    1.0000 0.46162  0.42336  0.65198  Biso   1.000  H
  C1729    1.0000 0.40403  0.46905  0.65201  Biso   1.000  C
  C1730    1.0000 0.32166  0.27768  0.57926  Biso   1.000  C
  H2280    1.0000 0.27825  0.22599  0.61377  Biso   1.000  H
  C1731    1.0000 0.34192  0.46456  0.65349  Biso   1.000  C
  C1732    1.0000 0.46128  0.53088  0.64872  Biso   1.000  C
  C1733    1.0000 0.37986  0.32487  0.56854  Biso   1.000  C
  C1734    1.0000 0.26272  0.25295  0.56532  Biso   1.000  C
  H2281    1.0000 0.30362  0.42326  0.65567  Biso   1.000  H
  C1735    1.0000 0.33704  0.52209  0.65169  Biso   1.000  C
  C1736    1.0000 0.45645  0.58826  0.64692  Biso   1.000  C
  H2282    1.0000 0.50282  0.53378  0.64778  Biso   1.000  H
  C1737    1.0000 0.37953  0.35059  0.54384  Biso   1.000  C
  H2283    1.0000 0.41984  0.34005  0.57746  Biso   1.000  H
  C1738    1.0000 0.26303  0.27598  0.53985  Biso   1.000  C
  H2284    1.0000 0.22271  0.22094  0.57278  Biso   1.000  H
  C1739    1.0000 0.27445  0.52199  0.64973  Biso   1.000  C
  C1740    1.0000 0.39435  0.58387  0.64840  Biso   1.000  C
  H2285    1.0000 0.49471  0.62966  0.64478  Biso   1.000  H
  C1741    1.0000 0.43935  0.40528  0.52988  Biso   1.000  C
  C1742    1.0000 0.32035  0.32877  0.53033  Biso   1.000  C
  H2286    1.0000 0.22474  0.25545  0.52977  Biso   1.000  H
  C1743    1.0000 0.30664  0.59875  0.64855  Biso   1.000  C
  C1744    1.0000 0.23833  0.48358  0.62478  Biso   1.000  C
  C1745    1.0000 0.22285  0.48878  0.67317  Biso   1.000  C
  C1746    1.0000 0.37524  0.64115  0.64880  Biso   1.000  C
  C1747    1.0000 0.40582  0.41287  0.50542  Biso   1.000  C
  C1748    1.0000 0.46763  0.47325  0.54643  Biso   1.000  C
  C1749    1.0000 0.48942  0.38285  0.52450  Biso   1.000  C
  C1750    1.0000 0.33683  0.36667  0.50536  Biso   1.000  C
  C1751    1.0000 0.26593  0.62477  0.64880  Biso   1.000  C
  H2287    1.0000 0.22555  0.43709  0.62716  Biso   1.000  H
  H2288    1.0000 0.19754  0.48548  0.62306  Biso   1.000  H
  C1752    1.0000 0.27573  0.50656  0.59997  Biso   1.000  C
  H2289    1.0000 0.20105  0.49138  0.62296  Biso   1.000  H
  H2290    1.0000 0.26904  0.50876  0.61096  Biso   1.000  H
  C1753    1.0000 0.21252  0.41726  0.61756  Biso   1.000  C
  H2291    1.0000 0.21992  0.44668  0.67756  Biso   1.000  H
  H2292    1.0000 0.17904  0.47909  0.66736  Biso   1.000  H
  C1754    1.0000 0.24186  0.53458  0.69945  Biso   1.000  C
  C1755    1.0000 0.40125  0.70787  0.64855  Biso   1.000  C
  C1756    1.0000 0.43565  0.45497  0.48434  Biso   1.000  C
  H2293    1.0000 0.48183  0.46576  0.56318  Biso   1.000  H
  H2294    1.0000 0.50722  0.50746  0.53767  Biso   1.000  H
  C1757    1.0000 0.41835  0.50246  0.55133  Biso   1.000  C
  H2295    1.0000 0.53032  0.42096  0.51837  Biso   1.000  H
  H2296    1.0000 0.49963  0.36867  0.54067  Biso   1.000  H
  C1758    1.0000 0.46872  0.32917  0.50596  Biso   1.000  C
  C1759    1.0000 0.29705  0.36417  0.48471  Biso   1.000  C
  C1760    1.0000 0.29216  0.69339  0.64855  Biso   1.000  C
  C1761    1.0000 0.18950  0.60564  0.64840  Biso   1.000  C
  C1762    1.0000 0.23814  0.45647  0.57887  Biso   1.000  C
  H2297    1.0000 0.31971  0.51175  0.60196  Biso   1.000  H
  H2298    1.0000 0.28114  0.54966  0.59527  Biso   1.000  H
  H2299    1.0000 0.18034  0.39034  0.63067  Biso   1.000  H
  H2300    1.0000 0.24883  0.40787  0.61867  Biso   1.000  H
  C1763    1.0000 0.18033  0.39214  0.59258  Biso   1.000  C
  C1764    1.0000 0.20093  0.49467  0.72276  Biso   1.000  C
  H2301    1.0000 0.28893  0.55295  0.70327  Biso   1.000  H
  H2302    1.0000 0.23416  0.57168  0.69647  Biso   1.000  H
  C1765    1.0000 0.35880  0.73404  0.64880  Biso   1.000  C
  C1766    1.0000 0.47805  0.75247  0.64973  Biso   1.000  C
  C1767    1.0000 0.39475  0.45397  0.46294  Biso   1.000  C
  C1768    1.0000 0.50461  0.50276  0.47749  Biso   1.000  C
  H2303    1.0000 0.37674  0.46396  0.55677  Biso   1.000  H
  H2304    1.0000 0.40993  0.51355  0.53416  Biso   1.000  H
  C1769    1.0000 0.42523  0.56379  0.56987  Biso   1.000  C
  H2305    1.0000 0.45305  0.33985  0.49026  Biso   1.000  H
  H2306    1.0000 0.43264  0.28806  0.51306  Biso   1.000  H
  C1770    1.0000 0.53025  0.32048  0.49986  Biso   1.000  C
  C1771    1.0000 0.32724  0.41107  0.46336  Biso   1.000  C
  C1772    1.0000 0.22386  0.31528  0.47968  Biso   1.000  C
  C1773    1.0000 0.24751  0.72555  0.64973  Biso   1.000  C
  C1774    1.0000 0.18504  0.66298  0.65169  Biso   1.000  C
  C1775    1.0000 0.13182  0.54356  0.64692  Biso   1.000  C
  H2307    1.0000 0.26183  0.47435  0.56267  Biso   1.000  H
  H2308    1.0000 0.19465  0.45287  0.57707  Biso   1.000  H
  C1776    1.0000 0.22714  0.38455  0.58226  Biso   1.000  C
  H2309    1.0000 0.21283  0.41596  0.57907  Biso   1.000  H
  H2310    1.0000 0.20516  0.36637  0.59846  Biso   1.000  H
  H2311    1.0000 0.14485  0.40268  0.59078  Biso   1.000  H
  C1777    1.0000 0.15044  0.31628  0.58807  Biso   1.000  C
  H2312    1.0000 0.15400  0.47754  0.71896  Biso   1.000  H
  H2313    1.0000 0.20723  0.45667  0.72506  Biso   1.000  H
  C1778    1.0000 0.21734  0.53268  0.74757  Biso   1.000  C
  C1779    1.0000 0.41613  0.81045  0.64840  Biso   1.000  C
  C1780    1.0000 0.51644  0.75477  0.62478  Biso   1.000  C
  C1781    1.0000 0.51122  0.73404  0.67317  Biso   1.000  C
  C1782    1.0000 0.47793  0.81495  0.65169  Biso   1.000  C
  C1783    1.0000 0.43892  0.50286  0.44118  Biso   1.000  C
  C1784    1.0000 0.50904  0.52648  0.45183  Biso   1.000  C
  C1785    1.0000 0.56625  0.52309  0.49005  Biso   1.000  C
  H2314    1.0000 0.47064  0.59475  0.56438  Biso   1.000  H
  H2315    1.0000 0.39853  0.57458  0.55847  Biso   1.000  H
  C1786    1.0000 0.42644  0.61129  0.59306  Biso   1.000  C
  H2316    1.0000 0.56982  0.36407  0.49777  Biso   1.000  H
  H2317    1.0000 0.53784  0.29795  0.51417  Biso   1.000  H
  C1787    1.0000 0.51812  0.27917  0.47466  Biso   1.000  C
  C1788    1.0000 0.27186  0.39649  0.44505  Biso   1.000  C
  C1789    1.0000 0.21283  0.33925  0.45388  Biso   1.000  C
  C1790    1.0000 0.20894  0.24307  0.47619  Biso   1.000  C
  C1791    1.0000 0.17602  0.31978  0.49888  Biso   1.000  C
  C1792    1.0000 0.24524  0.76166  0.62478  Biso   1.000  C
  C1793    1.0000 0.26591  0.77714  0.67317  Biso   1.000  C
  C1794    1.0000 0.12265  0.65808  0.65349  Biso   1.000  C
  H2318    1.0000 0.13494  0.50526  0.64478  Biso   1.000  H
  C1795    1.0000 0.06959  0.53872  0.64872  Biso   1.000  C
  H2319    1.0000 0.26951  0.38635  0.58216  Biso   1.000  H
  H2320    1.0000 0.20005  0.35668  0.56836  Biso   1.000  H
  H2321    1.0000 0.18561  0.30574  0.58797  Biso   1.000  H
  H2322    1.0000 0.12764  0.30414  0.57167  Biso   1.000  H
  H2323    1.0000 0.11942  0.29186  0.60167  Biso   1.000  H
  H2324    1.0000 0.19184  0.50296  0.76137  Biso   1.000  H
  H2325    1.0000 0.20655  0.56759  0.74616  Biso   1.000  H
  H2326    1.0000 0.26411  0.55176  0.75117  Biso   1.000  H
  C1796    1.0000 0.41173  0.86819  0.64692  Biso   1.000  C
  H2327    1.0000 0.56296  0.78848  0.62716  Biso   1.000  H
  H2328    1.0000 0.51455  0.71207  0.62306  Biso   1.000  H
  C1797    1.0000 0.49344  0.76915  0.59997  Biso   1.000  C
  H2329    1.0000 0.50863  0.70967  0.62296  Biso   1.000  H
  H2330    1.0000 0.49124  0.76026  0.61096  Biso   1.000  H
  C1798    1.0000 0.58275  0.79527  0.61756  Biso   1.000  C
  H2331    1.0000 0.55331  0.77325  0.67756  Biso   1.000  H
  H2332    1.0000 0.52096  0.69998  0.66736  Biso   1.000  H
  C1799    1.0000 0.46544  0.70727  0.69945  Biso   1.000  C
  C1800    1.0000 0.53544  0.87737  0.65349  Biso   1.000  C
  C1801    1.0000 0.43071  0.46576  0.41573  Biso   1.000  C
  C1802    1.0000 0.42734  0.56204  0.43921  Biso   1.000  C
  C1803    1.0000 0.56753  0.56908  0.44012  Biso   1.000  C
  C1804    1.0000 0.62443  0.56679  0.47834  Biso   1.000  C
  H2333    1.0000 0.56683  0.50636  0.50637  Biso   1.000  H
  H2334    1.0000 0.43253  0.59466  0.60938  Biso   1.000  H
  H2335    1.0000 0.38483  0.61119  0.59337  Biso   1.000  H
  H2336    1.0000 0.46246  0.65598  0.59047  Biso   1.000  H
  H2337    1.0000 0.51084  0.30155  0.46057  Biso   1.000  H
  H2338    1.0000 0.47963  0.23567  0.47687  Biso   1.000  H
  H2339    1.0000 0.55644  0.27468  0.47116  Biso   1.000  H
  C1805    1.0000 0.26860  0.42735  0.42221  Biso   1.000  C
  C1806    1.0000 0.15385  0.31418  0.44064  Biso   1.000  C
  H2340    1.0000 0.21476  0.22718  0.49286  Biso   1.000  H
  H2341    1.0000 0.16233  0.21575  0.47137  Biso   1.000  H
  C1807    1.0000 0.24932  0.23178  0.45697  Biso   1.000  C
  H2342    1.0000 0.13085  0.29206  0.49257  Biso   1.000  H
  H2343    1.0000 0.17942  0.30115  0.51527  Biso   1.000  H
  C1808    1.0000 0.18702  0.38685  0.50362  Biso   1.000  C
  H2344    1.0000 0.21154  0.77444  0.62716  Biso   1.000  H
  H2345    1.0000 0.28791  0.80246  0.62306  Biso   1.000  H
  C1809    1.0000 0.23082  0.72425  0.59997  Biso   1.000  C
  H2346    1.0000 0.29032  0.79897  0.62296  Biso   1.000  H
  H2347    1.0000 0.23974  0.73095  0.61096  Biso   1.000  H
  C1810    1.0000 0.20473  0.78748  0.61756  Biso   1.000  C
  H2348    1.0000 0.22673  0.78009  0.67756  Biso   1.000  H
  H2349    1.0000 0.30003  0.82099  0.66736  Biso   1.000  H
  C1811    1.0000 0.29275  0.75816  0.69945  Biso   1.000  C
  H2350    1.0000 0.11966  0.69639  0.65567  Biso   1.000  H
  C1812    1.0000 0.06503  0.59595  0.65201  Biso   1.000  C
  H2351    1.0000 0.03095  0.49717  0.64778  Biso   1.000  H
  H2352    1.0000 0.37035  0.86509  0.64478  Biso   1.000  H
  C1813    1.0000 0.46914  0.93041  0.64872  Biso   1.000  C
  C1814    1.0000 0.54356  0.78169  0.57887  Biso   1.000  C
  H2353    1.0000 0.48823  0.80796  0.60196  Biso   1.000  H
  H2354    1.0000 0.45032  0.73145  0.59527  Biso   1.000  H
  H2355    1.0000 0.60964  0.78998  0.63067  Biso   1.000  H
  H2356    1.0000 0.59215  0.84097  0.61867  Biso   1.000  H
  C1815    1.0000 0.60783  0.78818  0.59258  Biso   1.000  C
  C1816    1.0000 0.50534  0.70627  0.72276  Biso   1.000  C
  H2357    1.0000 0.44706  0.73599  0.70327  Biso   1.000  H
  H2358    1.0000 0.42834  0.66248  0.69647  Biso   1.000  H
  H2359    1.0000 0.57673  0.88037  0.65567  Biso   1.000  H
  C1817    1.0000 0.53093  0.93496  0.65201  Biso   1.000  C
  C1818    1.0000 0.44152  0.40727  0.41726  Biso   1.000  C
  H2360    1.0000 0.38604  0.45037  0.40917  Biso   1.000  H
  H2361    1.0000 0.46194  0.49717  0.40326  Biso   1.000  H
  H2362    1.0000 0.45682  0.59186  0.42597  Biso   1.000  H
  H2363    1.0000 0.38194  0.54546  0.43326  Biso   1.000  H
  C1819    1.0000 0.43731  0.60205  0.46309  Biso   1.000  C
  C1820    1.0000 0.62793  0.59066  0.45285  Biso   1.000  C
  H2364    1.0000 0.56724  0.58407  0.42347  Biso   1.000  H
  H2365    1.0000 0.66402  0.58187  0.48757  Biso   1.000  H
  C1821    1.0000 0.20802  0.40038  0.40903  Biso   1.000  C
  H2366    1.0000 0.30624  0.46526  0.41596  Biso   1.000  H
  C1822    1.0000 0.15102  0.34425  0.41733  Biso   1.000  C
  H2367    1.0000 0.11562  0.27718  0.44706  Biso   1.000  H
  H2368    1.0000 0.29597  0.26539  0.45937  Biso   1.000  H
  H2369    1.0000 0.23633  0.23797  0.43977  Biso   1.000  H
  C1823    1.0000 0.24314  0.16406  0.45827  Biso   1.000  C
  H2370    1.0000 0.19184  0.40867  0.48707  Biso   1.000  H
  H2371    1.0000 0.22884  0.41227  0.51297  Biso   1.000  H
  C1824    1.0000 0.13064  0.38905  0.51928  Biso   1.000  C
  C1825    1.0000 0.21835  0.76186  0.57887  Biso   1.000  C
  H2372    1.0000 0.19204  0.68026  0.60196  Biso   1.000  H
  H2373    1.0000 0.26852  0.71886  0.59527  Biso   1.000  H
  H2374    1.0000 0.21000  0.81964  0.63067  Biso   1.000  H
  H2375    1.0000 0.15903  0.75117  0.61867  Biso   1.000  H
  C1826    1.0000 0.21182  0.81964  0.59258  Biso   1.000  C
  C1827    1.0000 0.29374  0.79907  0.72276  Biso   1.000  C
  H2376    1.0000 0.26402  0.71107  0.70327  Biso   1.000  H
  H2377    1.0000 0.33751  0.76585  0.69647  Biso   1.000  H
  C1828    1.0000 0.99525  0.58217  0.65500  Biso   1.000  C
  H2378    1.0000 0.46624  0.96907  0.64778  Biso   1.000  H
  H2379    1.0000 0.52565  0.78748  0.56267  Biso   1.000  H
  H2380    1.0000 0.54714  0.74178  0.57707  Biso   1.000  H
  C1829    1.0000 0.61544  0.84257  0.58226  Biso   1.000  C
  H2381    1.0000 0.58402  0.79687  0.57907  Biso   1.000  H
  H2382    1.0000 0.63365  0.83877  0.59846  Biso   1.000  H
  H2383    1.0000 0.59734  0.74218  0.59078  Biso   1.000  H
  C1830    1.0000 0.68373  0.83418  0.58807  Biso   1.000  C
  H2384    1.0000 0.52243  0.67646  0.71896  Biso   1.000  H
  H2385    1.0000 0.54332  0.75057  0.72506  Biso   1.000  H
  C1831    1.0000 0.46732  0.68465  0.74757  Biso   1.000  C
  C1832    1.0000 0.58690  0.00478  0.65500  Biso   1.000  C
  C1833    1.0000 0.43563  0.37266  0.39163  Biso   1.000  C
  H2386    1.0000 0.40914  0.37496  0.42926  Biso   1.000  H
  H2387    1.0000 0.48564  0.42226  0.42436  Biso   1.000  H
  H2388    1.0000 0.40343  0.57418  0.47557  Biso   1.000  H
  H2389    1.0000 0.48046  0.61378  0.47046  Biso   1.000  H
  C1834    1.0000 0.43455  0.66427  0.45966  Biso   1.000  C
  C1835    1.0000 0.69234  0.63376  0.44050  Biso   1.000  C
  H2390    1.0000 0.20604  0.42116  0.39397  Biso   1.000  H
  C1836    1.0000 0.08944  0.31598  0.40253  Biso   1.000  C
  H2391    1.0000 0.25854  0.15507  0.44207  Biso   1.000  H
  H2392    1.0000 0.19653  0.13035  0.46036  Biso   1.000  H
  C1837    1.0000 0.28422  0.15886  0.48097  Biso   1.000  C
  H2393    1.0000 0.11865  0.35988  0.53416  Biso   1.000  H
  H2394    1.0000 0.14592  0.43414  0.52537  Biso   1.000  H
  C1838    1.0000 0.07075  0.36657  0.50166  Biso   1.000  C
  H2395    1.0000 0.21253  0.73819  0.56267  Biso   1.000  H
  H2396    1.0000 0.25822  0.80536  0.57707  Biso   1.000  H
  C1839    1.0000 0.15741  0.77285  0.58226  Biso   1.000  C
  H2397    1.0000 0.20316  0.78718  0.57907  Biso   1.000  H
  H2398    1.0000 0.16124  0.79487  0.59846  Biso   1.000  H
  H2399    1.0000 0.25782  0.85515  0.59078  Biso   1.000  H
  C1840    1.0000 0.16584  0.84956  0.58807  Biso   1.000  C
  H2400    1.0000 0.32355  0.84596  0.71896  Biso   1.000  H
  H2401    1.0000 0.24942  0.79277  0.72506  Biso   1.000  H
  C1841    1.0000 0.31535  0.78269  0.74757  Biso   1.000  C
  N87      1.0000 0.97574  0.62317  0.66117  Biso   1.000  N
  H2402    1.0000 0.96172  0.53837  0.65198  Biso   1.000  H
  H2403    1.0000 0.61364  0.88317  0.58216  Biso   1.000  H
  H2404    1.0000 0.64334  0.84336  0.56836  Biso   1.000  H
  H2405    1.0000 0.69425  0.87987  0.58797  Biso   1.000  H
  H2406    1.0000 0.69586  0.82349  0.57167  Biso   1.000  H
  H2407    1.0000 0.70816  0.82758  0.60167  Biso   1.000  H
  H2408    1.0000 0.49701  0.68884  0.76137  Biso   1.000  H
  H2409    1.0000 0.43245  0.63895  0.74616  Biso   1.000  H
  H2410    1.0000 0.44822  0.71237  0.75117  Biso   1.000  H
  N88      1.0000 0.64737  0.02425  0.66117  Biso   1.000  N
  H2411    1.0000 0.57662  0.03829  0.65198  Biso   1.000  H
  H2412    1.0000 0.39023  0.35419  0.38526  Biso   1.000  H
  H2413    1.0000 0.46503  0.40578  0.37917  Biso   1.000  H
  C1842    1.0000 0.45194  0.31878  0.39264  Biso   1.000  C
  H2414    1.0000 0.39183  0.65339  0.45217  Biso   1.000  H
  H2415    1.0000 0.46922  0.69339  0.44766  Biso   1.000  H
  C1843    1.0000 0.44393  0.70318  0.48616  Biso   1.000  C
  N89      1.0000 0.69933  0.64704  0.41648  Biso   1.000  N
  H2416    1.0000 0.73034  0.65259  0.45086  Biso   1.000  H
  N90      1.0000 0.04172  0.25775  0.40708  Biso   1.000  N
  H2417    1.0000 0.08494  0.34115  0.38946  Biso   1.000  H
  H2418    1.0000 0.33104  0.18598  0.47726  Biso   1.000  H
  H2419    1.0000 0.27314  0.11317  0.48306  Biso   1.000  H
  H2420    1.0000 0.27392  0.17425  0.49657  Biso   1.000  H
  H2421    1.0000 0.08441  0.39174  0.48587  Biso   1.000  H
  H2422    1.0000 0.03784  0.37376  0.51016  Biso   1.000  H
  H2423    1.0000 0.05182  0.31998  0.49787  Biso   1.000  H
  H2424    1.0000 0.11683  0.73045  0.58216  Biso   1.000  H
  H2425    1.0000 0.15665  0.79997  0.56836  Biso   1.000  H
  H2426    1.0000 0.12012  0.81435  0.58797  Biso   1.000  H
  H2427    1.0000 0.17656  0.87238  0.57167  Biso   1.000  H
  H2428    1.0000 0.17243  0.88057  0.60167  Biso   1.000  H
  H2429    1.0000 0.31113  0.80816  0.76137  Biso   1.000  H
  H2430    1.0000 0.36105  0.79347  0.74616  Biso   1.000  H
  H2431    1.0000 0.28763  0.73589  0.75117  Biso   1.000  H
  C1844    1.0000 0.90433  0.59625  0.66272  Biso   1.000  C
  C1845    1.0000 0.69195  0.09567  0.66272  Biso   1.000  C
  H2432    1.0000 0.49801  0.33706  0.39736  Biso   1.000  H
  H2433    1.0000 0.44433  0.29785  0.37597  Biso   1.000  H
  H2434    1.0000 0.42413  0.28617  0.40528  Biso   1.000  H
  H2435    1.0000 0.48674  0.71536  0.49346  Biso   1.000  H
  H2436    1.0000 0.40944  0.67486  0.49806  Biso   1.000  H
  H2437    1.0000 0.44145  0.74268  0.48297  Biso   1.000  H
  C1846    1.0000 0.76563  0.69124  0.40746  Biso   1.000  C
  C1847    1.0000 0.98184  0.23537  0.39091  Biso   1.000  C
  C1848    1.0000 0.88213  0.63456  0.64555  Biso   1.000  C
  H2438    1.0000 0.88162  0.54946  0.65716  Biso   1.000  H
  C1849    1.0000 0.88375  0.59955  0.69076  Biso   1.000  C
  C1850    1.0000 0.75238  0.11784  0.64555  Biso   1.000  C
  H2439    1.0000 0.66777  0.11834  0.65716  Biso   1.000  H
  C1851    1.0000 0.71581  0.11625  0.69076  Biso   1.000  C
  H2440    1.0000 0.79543  0.71167  0.42237  Biso   1.000  H
  C1852    1.0000 0.79114  0.65299  0.39086  Biso   1.000  C
  C1853    1.0000 0.76466  0.74648  0.39091  Biso   1.000  C
  H2441    1.0000 0.99216  0.26579  0.37626  Biso   1.000  H
  C1854    1.0000 0.92563  0.23438  0.40746  Biso   1.000  C
  C1855    1.0000 0.95751  0.16406  0.38099  Biso   1.000  C
  N91      1.0000 0.89963  0.62657  0.61880  Biso   1.000  N
  H2442    1.0000 0.90721  0.68195  0.65027  Biso   1.000  H
  C1856    1.0000 0.81055  0.61059  0.64809  Biso   1.000  C
  H2443    1.0000 0.89763  0.57508  0.70197  Biso   1.000  H
  H2444    1.0000 0.90641  0.64575  0.69647  Biso   1.000  H
  C1857    1.0000 0.81133  0.57158  0.69326  Biso   1.000  C
  N92      1.0000 0.72695  0.10036  0.61880  Biso   1.000  N
  H2445    1.0000 0.77471  0.09277  0.65027  Biso   1.000  H
  C1858    1.0000 0.80004  0.18946  0.64809  Biso   1.000  C
  H2446    1.0000 0.67739  0.10236  0.70197  Biso   1.000  H
  H2447    1.0000 0.73934  0.09357  0.69647  Biso   1.000  H
  C1859    1.0000 0.76024  0.18866  0.69326  Biso   1.000  C
  H2448    1.0000 0.79245  0.61868  0.40127  Biso   1.000  H
  H2449    1.0000 0.76095  0.63136  0.37648  Biso   1.000  H
  C1860    1.0000 0.85996  0.70058  0.38077  Biso   1.000  C
  C1861    1.0000 0.83595  0.79347  0.38099  Biso   1.000  C
  N93      1.0000 0.74224  0.78398  0.40708  Biso   1.000  N
  H2450    1.0000 0.73422  0.72635  0.37626  Biso   1.000  H
  N94      1.0000 0.94774  0.30065  0.41648  Biso   1.000  N
  H2451    1.0000 0.91622  0.20456  0.42237  Biso   1.000  H
  C1862    1.0000 0.86183  0.20886  0.39086  Biso   1.000  C
  H2452    1.0000 0.99232  0.16396  0.37048  Biso   1.000  H
  H2453    1.0000 0.94911  0.13454  0.39556  Biso   1.000  H
  C1863    1.0000 0.89427  0.13869  0.36502  Biso   1.000  C
  C1864    1.0000 0.93512  0.68075  0.60605  Biso   1.000  C
  C1865    1.0000 0.78933  0.61079  0.67569  Biso   1.000  C
  H2454    1.0000 0.78566  0.56549  0.64127  Biso   1.000  H
  H2455    1.0000 0.79932  0.63855  0.63767  Biso   1.000  H
  H2456    1.0000 0.79993  0.57448  0.71107  Biso   1.000  H
  H2457    1.0000 0.78824  0.52489  0.68827  Biso   1.000  H
  C1866    1.0000 0.74557  0.06486  0.60605  Biso   1.000  C
  C1867    1.0000 0.82138  0.21069  0.67569  Biso   1.000  C
  H2458    1.0000 0.77980  0.21438  0.64127  Biso   1.000  H
  H2459    1.0000 0.83924  0.20065  0.63767  Biso   1.000  H
  H2460    1.0000 0.77454  0.20005  0.71107  Biso   1.000  H
  H2461    1.0000 0.73660  0.21178  0.68827  Biso   1.000  H
  H2462    1.0000 0.89044  0.71976  0.39527  Biso   1.000  H
  H2463    1.0000 0.87521  0.67616  0.37017  Biso   1.000  H
  C1868    1.0000 0.86133  0.75557  0.36502  Biso   1.000  C
  H2464    1.0000 0.83606  0.82838  0.37048  Biso   1.000  H
  H2465    1.0000 0.86543  0.81455  0.39556  Biso   1.000  H
  C1869    1.0000 0.68403  0.77345  0.40253  Biso   1.000  C
  C1870    1.0000 0.94144  0.30769  0.44050  Biso   1.000  C
  H2466    1.0000 0.82624  0.20756  0.40127  Biso   1.000  H
  H2467    1.0000 0.87045  0.23907  0.37648  Biso   1.000  H
  C1871    1.0000 0.84064  0.14009  0.38077  Biso   1.000  C
  H2468    1.0000 0.90325  0.16626  0.34977  Biso   1.000  H
  H2469    1.0000 0.87927  0.09329  0.35937  Biso   1.000  H
  C1872    1.0000 0.95602  0.67836  0.57926  Biso   1.000  C
  H2470    1.0000 0.94775  0.72176  0.61377  Biso   1.000  H
  H2471    1.0000 0.74112  0.59076  0.67646  Biso   1.000  H
  H2472    1.0000 0.80905  0.65638  0.68176  Biso   1.000  H
  C1873    1.0000 0.72228  0.04398  0.57926  Biso   1.000  C
  H2473    1.0000 0.77401  0.05227  0.61377  Biso   1.000  H
  H2474    1.0000 0.84959  0.25888  0.67646  Biso   1.000  H
  H2475    1.0000 0.84728  0.19096  0.68176  Biso   1.000  H
  H2476    1.0000 0.83374  0.73699  0.34977  Biso   1.000  H
  H2477    1.0000 0.90672  0.78598  0.35937  Biso   1.000  H
  C1874    1.0000 0.65575  0.80676  0.41733  Biso   1.000  C
  H2478    1.0000 0.65886  0.74378  0.38946  Biso   1.000  H
  C1875    1.0000 0.96273  0.37207  0.45285  Biso   1.000  C
  H2479    1.0000 0.92222  0.26968  0.45086  Biso   1.000  H
  H2480    1.0000 0.82932  0.10957  0.39527  Biso   1.000  H
  H2481    1.0000 0.80093  0.12475  0.37017  Biso   1.000  H
  C1876    1.0000 0.94505  0.62018  0.56854  Biso   1.000  C
  C1877    1.0000 0.99024  0.73729  0.56532  Biso   1.000  C
  C1878    1.0000 0.74700  0.00977  0.56532  Biso   1.000  C
  C1879    1.0000 0.67510  0.05497  0.56854  Biso   1.000  C
  C1880    1.0000 0.68583  0.83967  0.44064  Biso   1.000  C
  C1881    1.0000 0.59962  0.80766  0.40903  Biso   1.000  C
  C1882    1.0000 0.00153  0.43244  0.44012  Biso   1.000  C
  C1883    1.0000 0.94233  0.37556  0.47834  Biso   1.000  C
  C1884    1.0000 0.97102  0.62047  0.54384  Biso   1.000  C
  H2482    1.0000 0.92025  0.58017  0.57746  Biso   1.000  H
  C1885    1.0000 0.01293  0.73699  0.53985  Biso   1.000  C
  H2483    1.0000 0.99826  0.77729  0.57278  Biso   1.000  H
  C1886    1.0000 0.72401  0.98705  0.53985  Biso   1.000  C
  H2484    1.0000 0.77904  0.00178  0.57278  Biso   1.000  H
  C1887    1.0000 0.64937  0.02895  0.54384  Biso   1.000  C
  H2485    1.0000 0.65996  0.07979  0.57746  Biso   1.000  H
  C1888    1.0000 0.66074  0.87358  0.45388  Biso   1.000  C
  H2486    1.0000 0.72286  0.83847  0.44706  Biso   1.000  H
  H2487    1.0000 0.57885  0.78488  0.39397  Biso   1.000  H
  C1889    1.0000 0.57262  0.84127  0.42221  Biso   1.000  C
  H2488    1.0000 0.01681  0.43274  0.42347  Biso   1.000  H
  C1890    1.0000 0.01743  0.49098  0.45183  Biso   1.000  C
  H2489    1.0000 0.91782  0.33596  0.48757  Biso   1.000  H
  C1891    1.0000 0.95680  0.43374  0.49005  Biso   1.000  C
  C1892    1.0000 0.96593  0.56064  0.52988  Biso   1.000  C
  C1893    1.0000 0.00844  0.67966  0.53033  Biso   1.000  C
  H2490    1.0000 0.03072  0.77524  0.52977  Biso   1.000  H
  C1894    1.0000 0.67126  0.99159  0.53033  Biso   1.000  C
  H2491    1.0000 0.74453  0.96927  0.52977  Biso   1.000  H
  C1895    1.0000 0.59472  0.03409  0.52988  Biso   1.000  C
  C1896    1.0000 0.60356  0.87538  0.44505  Biso   1.000  C
  C1897    1.0000 0.68473  0.90859  0.47968  Biso   1.000  C
  H2492    1.0000 0.53475  0.84097  0.41596  Biso   1.000  H
  C1898    1.0000 0.06392  0.56104  0.44118  Biso   1.000  C
  C1899    1.0000 0.99813  0.49537  0.47749  Biso   1.000  C
  H2493    1.0000 0.93951  0.43314  0.50637  Biso   1.000  H
  C1900    1.0000 0.00704  0.59416  0.50542  Biso   1.000  C
  C1901    1.0000 0.00565  0.53238  0.54643  Biso   1.000  C
  C1902    1.0000 0.89344  0.51055  0.52450  Biso   1.000  C
  C1903    1.0000 0.02983  0.66317  0.50536  Biso   1.000  C
  C1904    1.0000 0.63335  0.97017  0.50536  Biso   1.000  C
  C1905    1.0000 0.58715  0.99299  0.50542  Biso   1.000  C
  C1906    1.0000 0.52673  0.99439  0.54643  Biso   1.000  C
  C1907    1.0000 0.61712  0.10656  0.52450  Biso   1.000  C
  C1908    1.0000 0.58892  0.91618  0.46336  Biso   1.000  C
  C1909    1.0000 0.63584  0.93286  0.48471  Biso   1.000  C
  C1910    1.0000 0.75693  0.96587  0.47619  Biso   1.000  C
  C1911    1.0000 0.68023  0.85625  0.49888  Biso   1.000  C
  C1912    1.0000 0.05921  0.60524  0.46294  Biso   1.000  C
  C1913    1.0000 0.03504  0.56928  0.41573  Biso   1.000  C
  C1914    1.0000 0.13475  0.57268  0.43921  Biso   1.000  C
  C1915    1.0000 0.01936  0.56439  0.48434  Biso   1.000  C
  H2494    1.0000 0.00025  0.49277  0.53767  Biso   1.000  H
  C1916    1.0000 0.08414  0.58167  0.55133  Biso   1.000  C
  H2495    1.0000 0.98391  0.51814  0.56318  Biso   1.000  H
  H2496    1.0000 0.89064  0.46965  0.51837  Biso   1.000  H
  H2497    1.0000 0.86901  0.50037  0.54067  Biso   1.000  H
  C1917    1.0000 0.86042  0.53128  0.50596  Biso   1.000  C
  C1918    1.0000 0.06716  0.70298  0.48471  Biso   1.000  C
  C1919    1.0000 0.54504  0.98065  0.48434  Biso   1.000  C
  H2498    1.0000 0.49254  0.99978  0.53767  Biso   1.000  H
  C1920    1.0000 0.49756  0.91588  0.55133  Biso   1.000  C
  H2499    1.0000 0.53424  0.01606  0.56318  Biso   1.000  H
  H2500    1.0000 0.57898  0.10935  0.51837  Biso   1.000  H
  H2501    1.0000 0.63132  0.13098  0.54067  Biso   1.000  H
  C1921    1.0000 0.67082  0.13957  0.50596  Biso   1.000  C
  C1922    1.0000 0.54602  0.94075  0.46294  Biso   1.000  C
  H2502    1.0000 0.77283  0.98755  0.49286  Biso   1.000  H
  H2503    1.0000 0.78420  0.94654  0.47137  Biso   1.000  H
  C1923    1.0000 0.76820  0.01756  0.45697  Biso   1.000  C
  H2504    1.0000 0.70795  0.83877  0.49257  Biso   1.000  H
  H2505    1.0000 0.69886  0.87827  0.51527  Biso   1.000  H
  C1924    1.0000 0.61314  0.80016  0.50362  Biso   1.000  C
  C1925    1.0000 0.08384  0.67276  0.46336  Biso   1.000  C
  H2506    1.0000 0.06435  0.61398  0.40917  Biso   1.000  H
  H2507    1.0000 0.03522  0.53807  0.40326  Biso   1.000  H
  C1926    1.0000 0.96574  0.55845  0.41726  Biso   1.000  C
  H2508    1.0000 0.13504  0.54317  0.42597  Biso   1.000  H
  H2509    1.0000 0.16354  0.61808  0.43326  Biso   1.000  H
  C1927    1.0000 0.16472  0.56264  0.46309  Biso   1.000  C
  H2510    1.0000 0.08725  0.62327  0.55677  Biso   1.000  H
  H2511    1.0000 0.10365  0.59006  0.53416  Biso   1.000  H
  C1928    1.0000 0.13852  0.57478  0.56987  Biso   1.000  C
  H2512    1.0000 0.88682  0.54696  0.49026  Biso   1.000  H
  H2513    1.0000 0.85542  0.56739  0.51306  Biso   1.000  H
  C1929    1.0000 0.79021  0.46975  0.49986  Biso   1.000  C
  C1930    1.0000 0.09141  0.77614  0.47968  Biso   1.000  C
  C1931    1.0000 0.49722  0.00188  0.47749  Biso   1.000  C
  H2514    1.0000 0.53606  0.91278  0.55677  Biso   1.000  H
  H2515    1.0000 0.48641  0.89635  0.53416  Biso   1.000  H
  C1932    1.0000 0.43621  0.86144  0.56987  Biso   1.000  C
  H2516    1.0000 0.66007  0.11315  0.49026  Biso   1.000  H
  H2517    1.0000 0.71189  0.14456  0.51306  Biso   1.000  H
  C1933    1.0000 0.67954  0.20979  0.49986  Biso   1.000  C
  C1934    1.0000 0.49714  0.93606  0.44118  Biso   1.000  C
  H2518    1.0000 0.76203  0.99838  0.43977  Biso   1.000  H
  H2519    1.0000 0.73464  0.03055  0.45937  Biso   1.000  H
  C1935    1.0000 0.83594  0.07909  0.45827  Biso   1.000  C
  H2520    1.0000 0.59132  0.78318  0.48707  Biso   1.000  H
  H2521    1.0000 0.58772  0.81655  0.51297  Biso   1.000  H
  C1936    1.0000 0.61096  0.74158  0.51928  Biso   1.000  C
  C1937    1.0000 0.12464  0.72815  0.44505  Biso   1.000  C
  C1938    1.0000 0.93705  0.56439  0.39163  Biso   1.000  C
  H2522    1.0000 0.96582  0.59086  0.42926  Biso   1.000  H
  H2523    1.0000 0.93664  0.51435  0.42436  Biso   1.000  H
  H2524    1.0000 0.17073  0.59655  0.47557  Biso   1.000  H
  H2525    1.0000 0.13331  0.51954  0.47046  Biso   1.000  H
  C1939    1.0000 0.22976  0.56549  0.45966  Biso   1.000  C
  H2526    1.0000 0.12413  0.52938  0.56438  Biso   1.000  H
  H2527    1.0000 0.17603  0.60145  0.55847  Biso   1.000  H
  C1940    1.0000 0.18485  0.57358  0.59306  Biso   1.000  C
  H2528    1.0000 0.79424  0.43015  0.49777  Biso   1.000  H
  H2529    1.0000 0.76012  0.46216  0.51417  Biso   1.000  H
  C1941    1.0000 0.76103  0.48189  0.47466  Biso   1.000  C
  C1942    1.0000 0.12643  0.78718  0.45388  Biso   1.000  C
  C1943    1.0000 0.03413  0.79108  0.47619  Biso   1.000  C
  C1944    1.0000 0.14375  0.82399  0.49888  Biso   1.000  C
  C1945    1.0000 0.47354  0.98255  0.45183  Biso   1.000  C
  C1946    1.0000 0.47696  0.04318  0.49005  Biso   1.000  C
  H2530    1.0000 0.40524  0.87588  0.56438  Biso   1.000  H
  H2531    1.0000 0.42544  0.82399  0.55847  Biso   1.000  H
  C1947    1.0000 0.38872  0.81515  0.59306  Biso   1.000  C
  H2532    1.0000 0.63590  0.20579  0.49777  Biso   1.000  H
  H2533    1.0000 0.70197  0.23985  0.51417  Biso   1.000  H
  C1948    1.0000 0.72077  0.23895  0.47466  Biso   1.000  C
  C1949    1.0000 0.53426  0.96497  0.41573  Biso   1.000  C
  C1950    1.0000 0.43796  0.86529  0.43921  Biso   1.000  C
  H2534    1.0000 0.84493  0.10346  0.44207  Biso   1.000  H
  H2535    1.0000 0.86957  0.06615  0.46036  Biso   1.000  H
  C1951    1.0000 0.84114  0.12538  0.48097  Biso   1.000  C
  H2536    1.0000 0.64014  0.75876  0.53416  Biso   1.000  H
  H2537    1.0000 0.56582  0.71177  0.52537  Biso   1.000  H
  C1952    1.0000 0.63343  0.70418  0.50166  Biso   1.000  C
  C1953    1.0000 0.15872  0.73135  0.42221  Biso   1.000  C
  H2538    1.0000 0.96395  0.60979  0.38526  Biso   1.000  H
  H2539    1.0000 0.94073  0.53497  0.37917  Biso   1.000  H
  C1954    1.0000 0.86682  0.54806  0.39264  Biso   1.000  C
  H2540    1.0000 0.26154  0.60819  0.45217  Biso   1.000  H
  H2541    1.0000 0.22413  0.53078  0.44766  Biso   1.000  H
  C1955    1.0000 0.25921  0.55605  0.48616  Biso   1.000  C
  H2542    1.0000 0.16212  0.56749  0.60938  Biso   1.000  H
  H2543    1.0000 0.22632  0.61518  0.59337  Biso   1.000  H
  H2544    1.0000 0.19353  0.53757  0.59047  Biso   1.000  H
  H2545    1.0000 0.79076  0.48918  0.46057  Biso   1.000  H
  H2546    1.0000 0.75604  0.52034  0.47687  Biso   1.000  H
  H2547    1.0000 0.71822  0.44358  0.47116  Biso   1.000  H
  C1956    1.0000 0.16033  0.84616  0.44064  Biso   1.000  C
  H2548    1.0000 0.01242  0.78528  0.49286  Biso   1.000  H
  H2549    1.0000 0.05345  0.83767  0.47137  Biso   1.000  H
  C1957    1.0000 0.98245  0.75067  0.45697  Biso   1.000  C
  H2550    1.0000 0.16125  0.86918  0.49257  Biso   1.000  H
  H2551    1.0000 0.12173  0.82059  0.51527  Biso   1.000  H
  C1958    1.0000 0.19982  0.81295  0.50362  Biso   1.000  C
  C1959    1.0000 0.43095  0.99848  0.44012  Biso   1.000  C
  C1960    1.0000 0.43320  0.05766  0.47834  Biso   1.000  C
  H2552    1.0000 0.49360  0.06046  0.50637  Biso   1.000  H
  H2553    1.0000 0.40535  0.83787  0.60938  Biso   1.000  H
  H2554    1.0000 0.38881  0.77365  0.59337  Biso   1.000  H
  H2555    1.0000 0.34402  0.80646  0.59047  Biso   1.000  H
  H2556    1.0000 0.69841  0.20929  0.46057  Biso   1.000  H
  H2557    1.0000 0.76431  0.24395  0.47687  Biso   1.000  H
  H2558    1.0000 0.72530  0.28175  0.47116  Biso   1.000  H
  H2559    1.0000 0.54962  0.93566  0.40917  Biso   1.000  H
  H2560    1.0000 0.50284  0.96477  0.40326  Biso   1.000  H
  C1961    1.0000 0.59275  0.03429  0.41726  Biso   1.000  C
  H2561    1.0000 0.40814  0.86499  0.42597  Biso   1.000  H
  H2562    1.0000 0.45452  0.83647  0.43326  Biso   1.000  H
  C1962    1.0000 0.39796  0.83527  0.46309  Biso   1.000  C
  H2563    1.0000 0.81400  0.14506  0.47726  Biso   1.000  H
  H2564    1.0000 0.88684  0.15994  0.48306  Biso   1.000  H
  H2565    1.0000 0.82569  0.09966  0.49657  Biso   1.000  H
  H2566    1.0000 0.60823  0.69269  0.48587  Biso   1.000  H
  H2567    1.0000 0.62623  0.66407  0.51016  Biso   1.000  H
  H2568    1.0000 0.68001  0.73184  0.49787  Biso   1.000  H
  C1963    1.0000 0.19232  0.79197  0.40903  Biso   1.000  C
  H2569    1.0000 0.15906  0.69379  0.41596  Biso   1.000  H
  H2570    1.0000 0.83902  0.50196  0.39736  Biso   1.000  H
  H2571    1.0000 0.85354  0.55565  0.37597  Biso   1.000  H
  H2572    1.0000 0.86205  0.57588  0.40528  Biso   1.000  H
  H2573    1.0000 0.22864  0.51325  0.49346  Biso   1.000  H
  H2574    1.0000 0.26544  0.59056  0.49806  Biso   1.000  H
  H2575    1.0000 0.30124  0.55855  0.48297  Biso   1.000  H
  C1964    1.0000 0.19322  0.84896  0.41733  Biso   1.000  C
  H2576    1.0000 0.16153  0.88437  0.44706  Biso   1.000  H
  H2577    1.0000 0.00161  0.76366  0.43977  Biso   1.000  H
  H2578    1.0000 0.96944  0.70408  0.45937  Biso   1.000  H
  C1965    1.0000 0.92093  0.75687  0.45827  Biso   1.000  C
  H2579    1.0000 0.21685  0.80816  0.48707  Biso   1.000  H
  H2580    1.0000 0.18342  0.77115  0.51297  Biso   1.000  H
  C1966    1.0000 0.25845  0.86938  0.51928  Biso   1.000  C
  H2581    1.0000 0.41593  0.98315  0.42347  Biso   1.000  H
  C1967    1.0000 0.40935  0.03729  0.45285  Biso   1.000  C
  H2582    1.0000 0.41809  0.08219  0.48757  Biso   1.000  H
  C1968    1.0000 0.62732  0.06296  0.39163  Biso   1.000  C
  H2583    1.0000 0.62501  0.03419  0.42926  Biso   1.000  H
  H2584    1.0000 0.57774  0.06336  0.42436  Biso   1.000  H
  H2585    1.0000 0.42584  0.82928  0.47557  Biso   1.000  H
  H2586    1.0000 0.38624  0.86669  0.47046  Biso   1.000  H
  C1969    1.0000 0.33573  0.77025  0.45966  Biso   1.000  C
  H2587    1.0000 0.21512  0.79397  0.39397  Biso   1.000  H
  C1970    1.0000 0.22654  0.91059  0.40253  Biso   1.000  C
  H2588    1.0000 0.89654  0.74148  0.44207  Biso   1.000  H
  H2589    1.0000 0.93384  0.80346  0.46036  Biso   1.000  H
  C1971    1.0000 0.87464  0.71576  0.48097  Biso   1.000  C
  H2590    1.0000 0.24126  0.88137  0.53416  Biso   1.000  H
  H2591    1.0000 0.28823  0.85405  0.52537  Biso   1.000  H
  C1972    1.0000 0.29582  0.92926  0.50166  Biso   1.000  C
  C1973    1.0000 0.36618  0.05856  0.44050  Biso   1.000  C
  H2592    1.0000 0.64581  0.03609  0.38526  Biso   1.000  H
  H2593    1.0000 0.59425  0.05926  0.37917  Biso   1.000  H
  C1974    1.0000 0.68125  0.13318  0.39264  Biso   1.000  C
  H2594    1.0000 0.34662  0.73849  0.45217  Biso   1.000  H
  H2595    1.0000 0.30661  0.77584  0.44766  Biso   1.000  H
  C1975    1.0000 0.29682  0.74078  0.48616  Biso   1.000  C
  N95      1.0000 0.21605  0.95828  0.40708  Biso   1.000  N
  H2596    1.0000 0.25625  0.91508  0.38946  Biso   1.000  H
  H2597    1.0000 0.85492  0.66897  0.47726  Biso   1.000  H
  H2598    1.0000 0.84001  0.72685  0.48306  Biso   1.000  H
  H2599    1.0000 0.90033  0.72605  0.49657  Biso   1.000  H
  H2600    1.0000 0.30732  0.91558  0.48587  Biso   1.000  H
  H2601    1.0000 0.33594  0.96218  0.51016  Biso   1.000  H
  H2602    1.0000 0.26811  0.94814  0.49787  Biso   1.000  H
  N96      1.0000 0.35292  0.05227  0.41648  Biso   1.000  N
  H2603    1.0000 0.34738  0.07779  0.45086  Biso   1.000  H
  H2604    1.0000 0.66286  0.16094  0.39736  Biso   1.000  H
  H2605    1.0000 0.70207  0.14646  0.37597  Biso   1.000  H
  H2606    1.0000 0.71383  0.13797  0.40528  Biso   1.000  H
  H2607    1.0000 0.28464  0.77135  0.49346  Biso   1.000  H
  H2608    1.0000 0.32513  0.73459  0.49806  Biso   1.000  H
  H2609    1.0000 0.25735  0.69878  0.48297  Biso   1.000  H
  C1976    1.0000 0.25347  0.01816  0.39091  Biso   1.000  C
  C1977    1.0000 0.30872  0.07434  0.40746  Biso   1.000  C
  C1978    1.0000 0.20651  0.04248  0.38099  Biso   1.000  C
  H2610    1.0000 0.27363  0.00787  0.37626  Biso   1.000  H
  H2611    1.0000 0.28836  0.08378  0.42237  Biso   1.000  H
  C1979    1.0000 0.34699  0.13817  0.39086  Biso   1.000  C
  C1980    1.0000 0.24437  0.10576  0.36502  Biso   1.000  C
  H2612    1.0000 0.17163  0.00767  0.37048  Biso   1.000  H
  H2613    1.0000 0.18540  0.05087  0.39556  Biso   1.000  H
  H2614    1.0000 0.38132  0.17378  0.40127  Biso   1.000  H
  H2615    1.0000 0.36865  0.12958  0.37648  Biso   1.000  H
  C1981    1.0000 0.29936  0.15935  0.38077  Biso   1.000  C
  H2616    1.0000 0.26302  0.09677  0.34977  Biso   1.000  H
  H2617    1.0000 0.21404  0.12079  0.35937  Biso   1.000  H
  H2618    1.0000 0.28025  0.17068  0.39527  Biso   1.000  H
  H2619    1.0000 0.32380  0.19905  0.37017  Biso   1.000  H
  C1982    1.0000 0.55068  0.19932  0.41424  Biso   1.000  C
  C1983    1.0000 0.53427  0.16131  0.38942  Biso   1.000  C
  H2620    1.0000 0.52516  0.16965  0.42804  Biso   1.000  H
  H2621    1.0000 0.53985  0.23423  0.41282  Biso   1.000  H
  H2622    1.0000 0.59748  0.21844  0.41784  Biso   1.000  H
  C1984    1.0000 0.57515  0.20121  0.36612  Biso   1.000  C
  H2623    1.0000 0.48737  0.14423  0.38563  Biso   1.000  H
  H2624    1.0000 0.54059  0.12336  0.39173  Biso   1.000  H
  C1985    1.0000 0.55615  0.15542  0.33984  Biso   1.000  C
  H2625    1.0000 0.62226  0.21964  0.36993  Biso   1.000  H
  H2626    1.0000 0.56745  0.23832  0.36314  Biso   1.000  H
  C1986    1.0000 0.60774  0.18863  0.31640  Biso   1.000  C
  H2627    1.0000 0.55326  0.11332  0.34423  Biso   1.000  H
  H2628    1.0000 0.51238  0.14573  0.33403  Biso   1.000  H
  C1987    1.0000 0.63996  0.26544  0.31522  Biso   1.000  C
  C1988    1.0000 0.57167  0.15022  0.29145  Biso   1.000  C
  C1989    1.0000 0.67038  0.18873  0.31835  Biso   1.000  C
  C1990    1.0000 0.59928  0.29141  0.31547  Biso   1.000  C
  C1991    1.0000 0.70857  0.30784  0.31547  Biso   1.000  C
  H2629    1.0000 0.55885  0.10373  0.29383  Biso   1.000  H
  H2630    1.0000 0.53084  0.15212  0.28973  Biso   1.000  H
  C1992    1.0000 0.60909  0.17325  0.26664  Biso   1.000  C
  H2631    1.0000 0.53435  0.15802  0.28963  Biso   1.000  H
  H2632    1.0000 0.60236  0.17544  0.27763  Biso   1.000  H
  C1993    1.0000 0.54589  0.08395  0.28423  Biso   1.000  C
  C1994    1.0000 0.72767  0.25056  0.31506  Biso   1.000  C
  C1995    1.0000 0.67529  0.13125  0.32015  Biso   1.000  C
  C1996    1.0000 0.52287  0.27233  0.31506  Biso   1.000  C
  C1997    1.0000 0.62545  0.36003  0.31522  Biso   1.000  C
  C1998    1.0000 0.73455  0.37451  0.31522  Biso   1.000  C
  C1999    1.0000 0.57146  0.12316  0.24554  Biso   1.000  C
  H2633    1.0000 0.65308  0.17844  0.26863  Biso   1.000  H
  H2634    1.0000 0.61447  0.21635  0.26193  Biso   1.000  H
  H2635    1.0000 0.51366  0.05703  0.29733  Biso   1.000  H
  H2636    1.0000 0.58217  0.07451  0.28533  Biso   1.000  H
  C2000    1.0000 0.51365  0.05883  0.25924  Biso   1.000  C
  C2001    1.0000 0.78975  0.25490  0.31359  Biso   1.000  C
  H2637    1.0000 0.63699  0.08994  0.32234  Biso   1.000  H
  C2002    1.0000 0.73739  0.13574  0.31868  Biso   1.000  C
  C2003    1.0000 0.51834  0.32961  0.31835  Biso   1.000  C
  C2004    1.0000 0.46515  0.21025  0.31359  Biso   1.000  C
  C2005    1.0000 0.58088  0.39224  0.31640  Biso   1.000  C
  C2006    1.0000 0.69217  0.40073  0.31547  Biso   1.000  C
  C2007    1.0000 0.81135  0.41911  0.31640  Biso   1.000  C
  H2638    1.0000 0.59515  0.14104  0.22934  Biso   1.000  H
  H2639    1.0000 0.52794  0.11951  0.24374  Biso   1.000  H
  C2008    1.0000 0.56046  0.05124  0.24893  Biso   1.000  C
  H2640    1.0000 0.54619  0.08265  0.24573  Biso   1.000  H
  H2641    1.0000 0.53846  0.03301  0.26513  Biso   1.000  H
  H2642    1.0000 0.47815  0.06932  0.25744  Biso   1.000  H
  C2009    1.0000 0.48378  0.98292  0.25473  Biso   1.000  C
  H2643    1.0000 0.82808  0.29635  0.31144  Biso   1.000  H
  C2010    1.0000 0.79462  0.19752  0.31539  Biso   1.000  C
  C2011    1.0000 0.75118  0.07976  0.32166  Biso   1.000  C
  C2012    1.0000 0.45595  0.32472  0.32015  Biso   1.000  C
  C2013    1.0000 0.40295  0.20541  0.31539  Biso   1.000  C
  H2644    1.0000 0.46827  0.17195  0.31144  Biso   1.000  H
  C2014    1.0000 0.57856  0.42835  0.29145  Biso   1.000  C
  C2015    1.0000 0.59928  0.44383  0.33984  Biso   1.000  C
  C2016    1.0000 0.74949  0.47714  0.31506  Biso   1.000  C
  C2017    1.0000 0.81125  0.48164  0.31835  Biso   1.000  C
  C2018    1.0000 0.84976  0.42146  0.29145  Biso   1.000  C
  C2019    1.0000 0.84459  0.40073  0.33984  Biso   1.000  C
  H2645    1.0000 0.60288  0.05304  0.24883  Biso   1.000  H
  H2646    1.0000 0.53335  0.02332  0.23503  Biso   1.000  H
  H2647    1.0000 0.51902  0.97243  0.25464  Biso   1.000  H
  H2648    1.0000 0.46096  0.97083  0.23834  Biso   1.000  H
  H2649    1.0000 0.45278  0.95855  0.26834  Biso   1.000  H
  H2650    1.0000 0.83616  0.20042  0.31444  Biso   1.000  H
  N97      1.0000 0.71015  0.01923  0.32784  Biso   1.000  N
  H2651    1.0000 0.79499  0.09004  0.31864  Biso   1.000  H
  C2020    1.0000 0.39835  0.26264  0.31868  Biso   1.000  C
  H2652    1.0000 0.45295  0.36303  0.32234  Biso   1.000  H
  H2653    1.0000 0.36425  0.16381  0.31444  Biso   1.000  H
  H2654    1.0000 0.54486  0.44113  0.29383  Biso   1.000  H
  H2655    1.0000 0.62128  0.46915  0.28973  Biso   1.000  H
  C2021    1.0000 0.56418  0.39094  0.26664  Biso   1.000  C
  H2656    1.0000 0.62368  0.46566  0.28963  Biso   1.000  H
  H2657    1.0000 0.57307  0.39764  0.27763  Biso   1.000  H
  C2022    1.0000 0.53808  0.45412  0.28423  Biso   1.000  C
  H2658    1.0000 0.56007  0.44673  0.34423  Biso   1.000  H
  H2659    1.0000 0.63337  0.48763  0.33403  Biso   1.000  H
  C2023    1.0000 0.62608  0.42485  0.36612  Biso   1.000  C
  C2024    1.0000 0.74507  0.53482  0.31359  Biso   1.000  C
  C2025    1.0000 0.86874  0.54401  0.32015  Biso   1.000  C
  H2660    1.0000 0.89626  0.45512  0.29383  Biso   1.000  H
  H2661    1.0000 0.84787  0.37876  0.28973  Biso   1.000  H
  C2026    1.0000 0.82676  0.43584  0.26664  Biso   1.000  C
  H2662    1.0000 0.84198  0.37631  0.28963  Biso   1.000  H
  H2663    1.0000 0.82457  0.42695  0.27763  Biso   1.000  H
  C2027    1.0000 0.91605  0.46191  0.28423  Biso   1.000  C
  H2664    1.0000 0.88668  0.43994  0.34423  Biso   1.000  H
  H2665    1.0000 0.85426  0.36662  0.33403  Biso   1.000  H
  C2028    1.0000 0.79874  0.37391  0.36612  Biso   1.000  C
  C2029    1.0000 0.73707  0.97473  0.32938  Biso   1.000  C
  C2030    1.0000 0.32855  0.24881  0.32166  Biso   1.000  C
  C2031    1.0000 0.55167  0.42855  0.24554  Biso   1.000  C
  H2666    1.0000 0.52536  0.34694  0.26863  Biso   1.000  H
  H2667    1.0000 0.60188  0.38555  0.26193  Biso   1.000  H
  H2668    1.0000 0.54337  0.48633  0.29733  Biso   1.000  H
  H2669    1.0000 0.49237  0.41781  0.28533  Biso   1.000  H
  C2032    1.0000 0.54519  0.48633  0.25924  Biso   1.000  C
  C2033    1.0000 0.62706  0.46576  0.38942  Biso   1.000  C
  H2670    1.0000 0.59736  0.37771  0.36993  Biso   1.000  H
  H2671    1.0000 0.67088  0.43254  0.36314  Biso   1.000  H
  H2672    1.0000 0.70365  0.53173  0.31144  Biso   1.000  H
  C2034    1.0000 0.80244  0.59705  0.31539  Biso   1.000  C
  H2673    1.0000 0.91007  0.54701  0.32234  Biso   1.000  H
  C2035    1.0000 0.86429  0.60165  0.31868  Biso   1.000  C
  C2036    1.0000 0.87686  0.44833  0.24554  Biso   1.000  C
  H2674    1.0000 0.82155  0.47465  0.26863  Biso   1.000  H
  H2675    1.0000 0.78369  0.39813  0.26193  Biso   1.000  H
  H2676    1.0000 0.94294  0.45662  0.29733  Biso   1.000  H
  H2677    1.0000 0.92547  0.50766  0.28533  Biso   1.000  H
  C2037    1.0000 0.94118  0.45482  0.25924  Biso   1.000  C
  C2038    1.0000 0.83868  0.37291  0.38942  Biso   1.000  C
  H2678    1.0000 0.78036  0.40263  0.36993  Biso   1.000  H
  H2679    1.0000 0.76168  0.32912  0.36314  Biso   1.000  H
  H2680    1.0000 0.78386  0.99885  0.32383  Biso   1.000  H
  C2039    1.0000 0.73383  0.95086  0.35743  Biso   1.000  C
  C2040    1.0000 0.69879  0.91425  0.31222  Biso   1.000  C
  N98      1.0000 0.30904  0.28981  0.32784  Biso   1.000  N
  H2681    1.0000 0.29506  0.20501  0.31864  Biso   1.000  H
  H2682    1.0000 0.54587  0.40483  0.22934  Biso   1.000  H
  H2683    1.0000 0.59159  0.47205  0.24374  Biso   1.000  H
  C2041    1.0000 0.49078  0.43954  0.24893  Biso   1.000  C
  H2684    1.0000 0.53646  0.45382  0.24573  Biso   1.000  H
  H2685    1.0000 0.49454  0.46151  0.26513  Biso   1.000  H
  H2686    1.0000 0.59118  0.52184  0.25744  Biso   1.000  H
  C2042    1.0000 0.49916  0.51625  0.25473  Biso   1.000  C
  H2687    1.0000 0.65687  0.51265  0.38563  Biso   1.000  H
  H2688    1.0000 0.58276  0.45941  0.39173  Biso   1.000  H
  C2043    1.0000 0.64865  0.44932  0.41424  Biso   1.000  C
  H2689    1.0000 0.79956  0.63576  0.31444  Biso   1.000  H
  C2044    1.0000 0.92024  0.67142  0.32166  Biso   1.000  C
  H2690    1.0000 0.85895  0.45412  0.22934  Biso   1.000  H
  H2691    1.0000 0.88048  0.40842  0.24374  Biso   1.000  H
  C2045    1.0000 0.94876  0.50925  0.24893  Biso   1.000  C
  H2692    1.0000 0.91739  0.46356  0.24573  Biso   1.000  H
  H2693    1.0000 0.96695  0.50541  0.26513  Biso   1.000  H
  H2694    1.0000 0.93068  0.40882  0.25744  Biso   1.000  H
  C2046    1.0000 0.01707  0.50081  0.25473  Biso   1.000  C
  H2695    1.0000 0.85576  0.34315  0.38563  Biso   1.000  H
  H2696    1.0000 0.87666  0.41721  0.39173  Biso   1.000  H
  C2047    1.0000 0.80069  0.35134  0.41424  Biso   1.000  C
  H2697    1.0000 0.75828  0.98921  0.36864  Biso   1.000  H
  H2698    1.0000 0.68760  0.92733  0.36314  Biso   1.000  H
  C2048    1.0000 0.76178  0.90641  0.35993  Biso   1.000  C
  N99      1.0000 0.70677  0.93972  0.28547  Biso   1.000  N
  H2699    1.0000 0.65143  0.89193  0.31694  Biso   1.000  H
  C2049    1.0000 0.72278  0.86666  0.31475  Biso   1.000  C
  C2050    1.0000 0.23765  0.26294  0.32938  Biso   1.000  C
  H2700    1.0000 0.45016  0.39714  0.24883  Biso   1.000  H
  H2701    1.0000 0.48998  0.46665  0.23503  Biso   1.000  H
  H2702    1.0000 0.45349  0.48104  0.25464  Biso   1.000  H
  H2703    1.0000 0.50985  0.53902  0.23834  Biso   1.000  H
  H2704    1.0000 0.50578  0.54721  0.26834  Biso   1.000  H
  H2705    1.0000 0.64446  0.47485  0.42804  Biso   1.000  H
  H2706    1.0000 0.69435  0.46011  0.41282  Biso   1.000  H
  H2707    1.0000 0.62097  0.40253  0.41784  Biso   1.000  H
  N100     1.0000 0.98078  0.69094  0.32784  Biso   1.000  N
  H2708    1.0000 0.90996  0.70493  0.31864  Biso   1.000  H
  H2709    1.0000 0.94696  0.54986  0.24883  Biso   1.000  H
  H2710    1.0000 0.97667  0.51005  0.23503  Biso   1.000  H
  H2711    1.0000 0.02755  0.54651  0.25464  Biso   1.000  H
  H2712    1.0000 0.02916  0.49013  0.23834  Biso   1.000  H
  H2713    1.0000 0.04145  0.49422  0.26834  Biso   1.000  H
  H2714    1.0000 0.83038  0.35553  0.42804  Biso   1.000  H
  H2715    1.0000 0.76577  0.30564  0.41282  Biso   1.000  H
  H2716    1.0000 0.78159  0.37906  0.41784  Biso   1.000  H
  H2717    1.0000 0.75892  0.89213  0.37773  Biso   1.000  H
  H2718    1.0000 0.80849  0.93003  0.35493  Biso   1.000  H
  C2051    1.0000 0.72262  0.84523  0.34235  Biso   1.000  C
  C2052    1.0000 0.65262  0.92104  0.27271  Biso   1.000  C
  H2719    1.0000 0.76786  0.88683  0.30794  Biso   1.000  H
  H2720    1.0000 0.69479  0.82745  0.30434  Biso   1.000  H
  C2053    1.0000 0.21546  0.30125  0.31222  Biso   1.000  C
  H2721    1.0000 0.21499  0.21615  0.32383  Biso   1.000  H
  C2054    1.0000 0.21707  0.26624  0.35743  Biso   1.000  C
  C2055    1.0000 0.02524  0.76231  0.32938  Biso   1.000  C
  H2722    1.0000 0.74260  0.81701  0.34313  Biso   1.000  H
  H2723    1.0000 0.67697  0.81931  0.34843  Biso   1.000  H
  C2056    1.0000 0.65496  0.94432  0.24593  Biso   1.000  C
  H2724    1.0000 0.61160  0.89263  0.28044  Biso   1.000  H
  N101     1.0000 0.23296  0.29326  0.28547  Biso   1.000  N
  H2725    1.0000 0.24058  0.34864  0.31694  Biso   1.000  H
  C2057    1.0000 0.14385  0.27723  0.31475  Biso   1.000  C
  H2726    1.0000 0.23098  0.24172  0.36864  Biso   1.000  H
  H2727    1.0000 0.23978  0.31243  0.36314  Biso   1.000  H
  C2058    1.0000 0.14467  0.23822  0.35993  Biso   1.000  C
  H2728    1.0000 0.00118  0.78503  0.32383  Biso   1.000  H
  C2059    1.0000 0.04918  0.78294  0.35743  Biso   1.000  C
  C2060    1.0000 0.08575  0.78453  0.31222  Biso   1.000  C
  C2061    1.0000 0.71315  0.99151  0.23520  Biso   1.000  C
  C2062    1.0000 0.59608  0.91964  0.23199  Biso   1.000  C
  C2063    1.0000 0.26848  0.34744  0.27271  Biso   1.000  C
  C2064    1.0000 0.12267  0.27743  0.34235  Biso   1.000  C
  H2729    1.0000 0.11896  0.23213  0.30794  Biso   1.000  H
  H2730    1.0000 0.13268  0.30524  0.30434  Biso   1.000  H
  H2731    1.0000 0.13327  0.24112  0.37773  Biso   1.000  H
  H2732    1.0000 0.12158  0.19153  0.35493  Biso   1.000  H
  H2733    1.0000 0.01080  0.76905  0.36864  Biso   1.000  H
  H2734    1.0000 0.07264  0.76021  0.36314  Biso   1.000  H
  C2065    1.0000 0.09356  0.85535  0.35993  Biso   1.000  C
  N102     1.0000 0.06027  0.76705  0.28547  Biso   1.000  N
  H2735    1.0000 0.10805  0.75941  0.31694  Biso   1.000  H
  C2066    1.0000 0.13336  0.85615  0.31475  Biso   1.000  C
  C2067    1.0000 0.71287  0.01723  0.21051  Biso   1.000  C
  H2736    1.0000 0.75317  0.00674  0.24413  Biso   1.000  H
  C2068    1.0000 0.59641  0.94262  0.20652  Biso   1.000  C
  H2737    1.0000 0.55607  0.88763  0.23944  Biso   1.000  H
  C2069    1.0000 0.28939  0.34505  0.24593  Biso   1.000  C
  H2738    1.0000 0.28107  0.38845  0.28044  Biso   1.000  H
  H2739    1.0000 0.07449  0.25745  0.34313  Biso   1.000  H
  H2740    1.0000 0.14235  0.32302  0.34843  Biso   1.000  H
  H2741    1.0000 0.10786  0.86674  0.37773  Biso   1.000  H
  H2742    1.0000 0.06998  0.87842  0.35493  Biso   1.000  H
  C2070    1.0000 0.15476  0.87732  0.34235  Biso   1.000  C
  C2071    1.0000 0.07898  0.73155  0.27271  Biso   1.000  C
  H2743    1.0000 0.11315  0.88102  0.30794  Biso   1.000  H
  H2744    1.0000 0.17256  0.86734  0.30434  Biso   1.000  H
  C2072    1.0000 0.65367  0.99546  0.19700  Biso   1.000  C
  C2073    1.0000 0.77265  0.07192  0.19655  Biso   1.000  C
  H2745    1.0000 0.55806  0.92214  0.19643  Biso   1.000  H
  C2074    1.0000 0.27835  0.28681  0.23520  Biso   1.000  C
  C2075    1.0000 0.32359  0.40393  0.23199  Biso   1.000  C
  H2746    1.0000 0.18297  0.92552  0.34313  Biso   1.000  H
  H2747    1.0000 0.18069  0.85765  0.34843  Biso   1.000  H
  C2076    1.0000 0.05567  0.71062  0.24593  Biso   1.000  C
  H2748    1.0000 0.10735  0.71891  0.28044  Biso   1.000  H
  C2077    1.0000 0.67017  0.03331  0.17203  Biso   1.000  C
  C2078    1.0000 0.73919  0.07956  0.17209  Biso   1.000  C
  C2079    1.0000 0.80095  0.13994  0.21310  Biso   1.000  C
  C2080    1.0000 0.82279  0.04954  0.19117  Biso   1.000  C
  C2081    1.0000 0.30436  0.28711  0.21051  Biso   1.000  C
  H2749    1.0000 0.25355  0.24681  0.24413  Biso   1.000  H
  C2082    1.0000 0.34627  0.40363  0.20652  Biso   1.000  C
  H2750    1.0000 0.33156  0.44393  0.23944  Biso   1.000  H
  C2083    1.0000 0.00846  0.72166  0.23520  Biso   1.000  C
  C2084    1.0000 0.08034  0.67641  0.23199  Biso   1.000  C
  C2085    1.0000 0.63035  0.03081  0.15138  Biso   1.000  C
  C2086    1.0000 0.76897  0.12166  0.15101  Biso   1.000  C
  H2751    1.0000 0.81515  0.13245  0.22984  Biso   1.000  H
  H2752    1.0000 0.84059  0.17415  0.20433  Biso   1.000  H
  C2087    1.0000 0.75168  0.16915  0.21800  Biso   1.000  C
  H2753    1.0000 0.86368  0.08765  0.18503  Biso   1.000  H
  H2754    1.0000 0.83297  0.03531  0.20733  Biso   1.000  H
  C2088    1.0000 0.80209  0.99585  0.17263  Biso   1.000  C
  C2089    1.0000 0.29926  0.22733  0.19655  Biso   1.000  C
  C2090    1.0000 0.34176  0.34635  0.19700  Biso   1.000  C
  H2755    1.0000 0.36408  0.44193  0.19643  Biso   1.000  H
  C2091    1.0000 0.98278  0.69564  0.21051  Biso   1.000  C
  H2756    1.0000 0.99326  0.74643  0.24413  Biso   1.000  H
  C2092    1.0000 0.05737  0.65374  0.20652  Biso   1.000  C
  H2757    1.0000 0.11238  0.66842  0.23944  Biso   1.000  H
  C2093    1.0000 0.55716  0.98192  0.14634  Biso   1.000  C
  C2094    1.0000 0.66054  0.07771  0.13003  Biso   1.000  C
  C2095    1.0000 0.72805  0.12061  0.12960  Biso   1.000  C
  C2096    1.0000 0.83798  0.16945  0.14416  Biso   1.000  C
  H2758    1.0000 0.71006  0.13065  0.22344  Biso   1.000  H
  H2759    1.0000 0.74325  0.18024  0.20083  Biso   1.000  H
  C2097    1.0000 0.75857  0.23043  0.23654  Biso   1.000  C
  H2760    1.0000 0.78637  0.00654  0.15693  Biso   1.000  H
  H2761    1.0000 0.76597  0.95475  0.17973  Biso   1.000  H
  C2098    1.0000 0.86359  0.98712  0.16653  Biso   1.000  C
  C2099    1.0000 0.34036  0.26085  0.17209  Biso   1.000  C
  C2100    1.0000 0.33894  0.19902  0.21310  Biso   1.000  C
  C2101    1.0000 0.22676  0.17724  0.19117  Biso   1.000  C
  C2102    1.0000 0.36317  0.32981  0.17203  Biso   1.000  C
  C2103    1.0000 0.92807  0.70073  0.19655  Biso   1.000  C
  C2104    1.0000 0.00456  0.65823  0.19700  Biso   1.000  C
  H2762    1.0000 0.07789  0.63596  0.19643  Biso   1.000  H
  C2105    1.0000 0.54616  0.00594  0.12054  Biso   1.000  C
  C2106    1.0000 0.54231  0.90976  0.14286  Biso   1.000  C
  C2107    1.0000 0.50936  0.98642  0.16554  Biso   1.000  C
  C2108    1.0000 0.60515  0.06313  0.11172  Biso   1.000  C
  C2109    1.0000 0.77229  0.16955  0.10785  Biso   1.000  C
  C2110    1.0000 0.84238  0.19312  0.11849  Biso   1.000  C
  C2111    1.0000 0.89954  0.18973  0.15672  Biso   1.000  C
  H2763    1.0000 0.80396  0.26144  0.23104  Biso   1.000  H
  H2764    1.0000 0.73187  0.24122  0.22514  Biso   1.000  H
  C2112    1.0000 0.75978  0.27793  0.25973  Biso   1.000  C
  H2765    1.0000 0.90316  0.03071  0.16444  Biso   1.000  H
  H2766    1.0000 0.87121  0.96464  0.18083  Biso   1.000  H
  C2113    1.0000 0.85150  0.94581  0.14133  Biso   1.000  C
  C2114    1.0000 0.35266  0.23103  0.15101  Biso   1.000  C
  H2767    1.0000 0.31728  0.18483  0.22984  Biso   1.000  H
  H2768    1.0000 0.33355  0.15941  0.20433  Biso   1.000  H
  C2115    1.0000 0.41744  0.24831  0.21800  Biso   1.000  C
  H2769    1.0000 0.22396  0.13634  0.18503  Biso   1.000  H
  H2770    1.0000 0.20238  0.16705  0.20733  Biso   1.000  H
  C2116    1.0000 0.19376  0.19792  0.17263  Biso   1.000  C
  C2117    1.0000 0.40046  0.36962  0.15138  Biso   1.000  C
  C2118    1.0000 0.92045  0.65963  0.17209  Biso   1.000  C
  C2119    1.0000 0.86008  0.66103  0.21310  Biso   1.000  C
  C2120    1.0000 0.95048  0.77325  0.19117  Biso   1.000  C
  C2121    1.0000 0.96667  0.63686  0.17203  Biso   1.000  C
  C2122    1.0000 0.48719  0.98082  0.10730  Biso   1.000  C
  H2771    1.0000 0.54805  0.89382  0.15952  Biso   1.000  H
  H2772    1.0000 0.49565  0.88244  0.13804  Biso   1.000  H
  C2123    1.0000 0.58266  0.89842  0.12364  Biso   1.000  C
  C2124    1.0000 0.52039  0.05354  0.17029  Biso   1.000  C
  H2773    1.0000 0.46421  0.95875  0.15923  Biso   1.000  H
  H2774    1.0000 0.51283  0.96784  0.18194  Biso   1.000  H
  C2125    1.0000 0.60197  0.09404  0.08888  Biso   1.000  C
  C2126    1.0000 0.76407  0.13245  0.08239  Biso   1.000  C
  C2127    1.0000 0.76066  0.22873  0.10587  Biso   1.000  C
  C2128    1.0000 0.90087  0.23572  0.10678  Biso   1.000  C
  C2129    1.0000 0.95777  0.23343  0.14501  Biso   1.000  C
  H2775    1.0000 0.90016  0.17305  0.17303  Biso   1.000  H
  H2776    1.0000 0.76585  0.26134  0.27604  Biso   1.000  H
  H2777    1.0000 0.71817  0.27783  0.26004  Biso   1.000  H
  H2778    1.0000 0.79576  0.32262  0.25713  Biso   1.000  H
  H2779    1.0000 0.84420  0.96824  0.12724  Biso   1.000  H
  H2780    1.0000 0.81301  0.90231  0.14354  Biso   1.000  H
  H2781    1.0000 0.88982  0.94132  0.13783  Biso   1.000  H
  C2130    1.0000 0.33147  0.16201  0.14416  Biso   1.000  C
  C2131    1.0000 0.39257  0.27193  0.12960  Biso   1.000  C
  H2782    1.0000 0.42055  0.28991  0.22344  Biso   1.000  H
  H2783    1.0000 0.43697  0.25675  0.20083  Biso   1.000  H
  C2132    1.0000 0.47186  0.24142  0.23654  Biso   1.000  C
  H2784    1.0000 0.22019  0.21365  0.15693  Biso   1.000  H
  H2785    1.0000 0.18877  0.23403  0.17973  Biso   1.000  H
  C2133    1.0000 0.12358  0.13644  0.16653  Biso   1.000  C
  C2134    1.0000 0.41716  0.33945  0.13003  Biso   1.000  C
  C2135    1.0000 0.42478  0.44283  0.14634  Biso   1.000  C
  C2136    1.0000 0.87836  0.64734  0.15101  Biso   1.000  C
  H2786    1.0000 0.86756  0.68275  0.22984  Biso   1.000  H
  H2787    1.0000 0.82588  0.66642  0.20433  Biso   1.000  H
  C2137    1.0000 0.83086  0.58252  0.21800  Biso   1.000  C
  H2788    1.0000 0.91235  0.77604  0.18503  Biso   1.000  H
  H2789    1.0000 0.96466  0.79762  0.20733  Biso   1.000  H
  C2138    1.0000 0.00418  0.80626  0.17263  Biso   1.000  C
  C2139    1.0000 0.96917  0.59955  0.15138  Biso   1.000  C
  C2140    1.0000 0.48438  0.01094  0.08400  Biso   1.000  C
  H2790    1.0000 0.44896  0.94382  0.11373  Biso   1.000  H
  H2791    1.0000 0.62926  0.93203  0.12604  Biso   1.000  H
  H2792    1.0000 0.56967  0.90461  0.10643  Biso   1.000  H
  C2141    1.0000 0.57650  0.83075  0.12494  Biso   1.000  C
  H2793    1.0000 0.52513  0.07531  0.15374  Biso   1.000  H
  H2794    1.0000 0.56216  0.07896  0.17963  Biso   1.000  H
  C2142    1.0000 0.46396  0.05573  0.18594  Biso   1.000  C
  C2143    1.0000 0.54136  0.06702  0.07570  Biso   1.000  C
  H2795    1.0000 0.63956  0.13195  0.08263  Biso   1.000  H
  H2796    1.0000 0.71938  0.11701  0.07583  Biso   1.000  H
  H2797    1.0000 0.79524  0.16381  0.06993  Biso   1.000  H
  C2144    1.0000 0.77486  0.07391  0.08392  Biso   1.000  C
  H2798    1.0000 0.79019  0.25855  0.09263  Biso   1.000  H
  H2799    1.0000 0.71526  0.21215  0.09993  Biso   1.000  H
  C2145    1.0000 0.77067  0.26874  0.12976  Biso   1.000  C
  C2146    1.0000 0.96129  0.25735  0.11952  Biso   1.000  C
  H2800    1.0000 0.90056  0.25076  0.09014  Biso   1.000  H
  H2801    1.0000 0.99736  0.24851  0.15424  Biso   1.000  H
  C2147    1.0000 0.35077  0.15762  0.11849  Biso   1.000  C
  C2148    1.0000 0.29017  0.10043  0.15672  Biso   1.000  C
  C2149    1.0000 0.39725  0.22773  0.10785  Biso   1.000  C
  H2802    1.0000 0.45747  0.19602  0.23104  Biso   1.000  H
  H2803    1.0000 0.50935  0.26814  0.22514  Biso   1.000  H
  C2150    1.0000 0.51815  0.24022  0.25973  Biso   1.000  C
  H2804    1.0000 0.12757  0.09684  0.16444  Biso   1.000  H
  H2805    1.0000 0.09349  0.12885  0.18083  Biso   1.000  H
  C2151    1.0000 0.09437  0.14853  0.14133  Biso   1.000  C
  C2152    1.0000 0.45796  0.39484  0.11172  Biso   1.000  C
  C2153    1.0000 0.45977  0.45382  0.12054  Biso   1.000  C
  C2154    1.0000 0.36748  0.45772  0.14286  Biso   1.000  C
  C2155    1.0000 0.47705  0.49063  0.16554  Biso   1.000  C
  C2156    1.0000 0.83056  0.66852  0.14416  Biso   1.000  C
  C2157    1.0000 0.87939  0.60744  0.12960  Biso   1.000  C
  H2806    1.0000 0.86936  0.57942  0.22344  Biso   1.000  H
  H2807    1.0000 0.81978  0.56304  0.20083  Biso   1.000  H
  C2158    1.0000 0.76958  0.52813  0.23654  Biso   1.000  C
  H2808    1.0000 0.99348  0.77984  0.15693  Biso   1.000  H
  H2809    1.0000 0.04526  0.81125  0.17973  Biso   1.000  H
  C2159    1.0000 0.01284  0.87643  0.16653  Biso   1.000  C
  C2160    1.0000 0.92226  0.58282  0.13003  Biso   1.000  C
  C2161    1.0000 0.01808  0.57523  0.14634  Biso   1.000  C
  C2162    1.0000 0.42278  0.98262  0.06919  Biso   1.000  C
  H2810    1.0000 0.59184  0.82171  0.10874  Biso   1.000  H
  H2811    1.0000 0.52989  0.79704  0.12703  Biso   1.000  H
  C2163    1.0000 0.61763  0.82555  0.14764  Biso   1.000  C
  H2812    1.0000 0.45195  0.02652  0.20083  Biso   1.000  H
  H2813    1.0000 0.47925  0.10083  0.19204  Biso   1.000  H
  C2164    1.0000 0.40405  0.03321  0.16833  Biso   1.000  C
  H2814    1.0000 0.53936  0.08785  0.06064  Biso   1.000  H
  C2165    1.0000 0.76900  0.03935  0.05830  Biso   1.000  C
  H2815    1.0000 0.74246  0.04165  0.09592  Biso   1.000  H
  H2816    1.0000 0.81896  0.08895  0.09103  Biso   1.000  H
  H2817    1.0000 0.73678  0.24082  0.14224  Biso   1.000  H
  H2818    1.0000 0.81375  0.28042  0.13713  Biso   1.000  H
  C2166    1.0000 0.76785  0.33091  0.12633  Biso   1.000  C
  C2167    1.0000 0.02566  0.30045  0.10717  Biso   1.000  C
  C2168    1.0000 0.33485  0.09913  0.10678  Biso   1.000  C
  C2169    1.0000 0.27566  0.04225  0.14501  Biso   1.000  C
  H2819    1.0000 0.27287  0.09983  0.17303  Biso   1.000  H
  C2170    1.0000 0.36834  0.23592  0.08239  Biso   1.000  C
  C2171    1.0000 0.46804  0.23932  0.10587  Biso   1.000  C
  H2820    1.0000 0.49546  0.23413  0.27604  Biso   1.000  H
  H2821    1.0000 0.55966  0.28182  0.26004  Biso   1.000  H
  H2822    1.0000 0.52687  0.20421  0.25713  Biso   1.000  H
  H2823    1.0000 0.12406  0.15582  0.12724  Biso   1.000  H
  H2824    1.0000 0.08936  0.18703  0.14354  Biso   1.000  H
  H2825    1.0000 0.05156  0.11022  0.13783  Biso   1.000  H
  C2172    1.0000 0.49208  0.39803  0.08888  Biso   1.000  C
  C2173    1.0000 0.49366  0.51285  0.10730  Biso   1.000  C
  H2826    1.0000 0.34577  0.45192  0.15952  Biso   1.000  H
  H2827    1.0000 0.38675  0.50431  0.13804  Biso   1.000  H
  C2174    1.0000 0.31574  0.41731  0.12364  Biso   1.000  C
  H2828    1.0000 0.49455  0.53582  0.15923  Biso   1.000  H
  H2829    1.0000 0.45507  0.48723  0.18194  Biso   1.000  H
  C2175    1.0000 0.53319  0.47964  0.17029  Biso   1.000  C
  C2176    1.0000 0.80687  0.64924  0.11849  Biso   1.000  C
  C2177    1.0000 0.81025  0.70982  0.15672  Biso   1.000  C
  C2178    1.0000 0.83046  0.60275  0.10785  Biso   1.000  C
  H2830    1.0000 0.73854  0.54252  0.23104  Biso   1.000  H
  H2831    1.0000 0.75874  0.49063  0.22514  Biso   1.000  H
  C2179    1.0000 0.72208  0.48184  0.25973  Biso   1.000  C
  H2832    1.0000 0.96928  0.87243  0.16444  Biso   1.000  H
  H2833    1.0000 0.03538  0.90654  0.18083  Biso   1.000  H
  C2180    1.0000 0.05418  0.90564  0.14133  Biso   1.000  C
  C2181    1.0000 0.93685  0.54202  0.11172  Biso   1.000  C
  C2182    1.0000 0.99404  0.54022  0.12054  Biso   1.000  C
  C2183    1.0000 0.09027  0.63251  0.14286  Biso   1.000  C
  C2184    1.0000 0.01356  0.52294  0.16554  Biso   1.000  C
  N103     1.0000 0.37509  0.92444  0.07374  Biso   1.000  N
  H2834    1.0000 0.41826  0.00784  0.05613  Biso   1.000  H
  H2835    1.0000 0.66434  0.85262  0.14392  Biso   1.000  H
  H2836    1.0000 0.60646  0.77986  0.14973  Biso   1.000  H
  H2837    1.0000 0.60729  0.84094  0.16324  Biso   1.000  H
  H2838    1.0000 0.41778  0.05843  0.15254  Biso   1.000  H
  H2839    1.0000 0.37116  0.04045  0.17683  Biso   1.000  H
  H2840    1.0000 0.38516  0.98662  0.16454  Biso   1.000  H
  H2841    1.0000 0.72357  0.02083  0.05193  Biso   1.000  H
  H2842    1.0000 0.79837  0.07242  0.04583  Biso   1.000  H
  C2185    1.0000 0.78532  0.98542  0.05930  Biso   1.000  C
  H2843    1.0000 0.72517  0.32003  0.11884  Biso   1.000  H
  H2844    1.0000 0.80257  0.36003  0.11433  Biso   1.000  H
  C2186    1.0000 0.77727  0.36982  0.15283  Biso   1.000  C
  N104     1.0000 0.03265  0.31373  0.08315  Biso   1.000  N
  H2845    1.0000 0.06368  0.31923  0.11752  Biso   1.000  H
  C2187    1.0000 0.29610  0.03875  0.11952  Biso   1.000  C
  H2846    1.0000 0.35018  0.09943  0.09014  Biso   1.000  H
  H2847    1.0000 0.25118  0.00265  0.15424  Biso   1.000  H
  H2848    1.0000 0.39765  0.28062  0.07583  Biso   1.000  H
  H2849    1.0000 0.36856  0.20471  0.06993  Biso   1.000  H
  C2188    1.0000 0.29907  0.22514  0.08392  Biso   1.000  C
  H2850    1.0000 0.46836  0.20985  0.09263  Biso   1.000  H
  H2851    1.0000 0.49684  0.28472  0.09993  Biso   1.000  H
  C2189    1.0000 0.49808  0.22933  0.12976  Biso   1.000  C
  C2190    1.0000 0.52566  0.45861  0.07570  Biso   1.000  C
  H2852    1.0000 0.49235  0.36043  0.08263  Biso   1.000  H
  C2191    1.0000 0.52658  0.51565  0.08400  Biso   1.000  C
  H2853    1.0000 0.49490  0.55106  0.11373  Biso   1.000  H
  H2854    1.0000 0.30274  0.37072  0.12604  Biso   1.000  H
  H2855    1.0000 0.33498  0.43035  0.10643  Biso   1.000  H
  C2192    1.0000 0.25429  0.42356  0.12494  Biso   1.000  C
  H2856    1.0000 0.55017  0.47485  0.15374  Biso   1.000  H
  H2857    1.0000 0.51679  0.43784  0.17963  Biso   1.000  H
  C2193    1.0000 0.59174  0.53602  0.18594  Biso   1.000  C
  C2194    1.0000 0.76425  0.66512  0.10678  Biso   1.000  C
  C2195    1.0000 0.76657  0.72435  0.14501  Biso   1.000  C
  H2858    1.0000 0.82696  0.72715  0.17303  Biso   1.000  H
  C2196    1.0000 0.86756  0.63161  0.08239  Biso   1.000  C
  C2197    1.0000 0.77126  0.53193  0.10587  Biso   1.000  C
  H2859    1.0000 0.73865  0.50451  0.27604  Biso   1.000  H
  H2860    1.0000 0.72218  0.44034  0.26004  Biso   1.000  H
  H2861    1.0000 0.67738  0.47315  0.25713  Biso   1.000  H
  H2862    1.0000 0.03175  0.87593  0.12724  Biso   1.000  H
  H2863    1.0000 0.09768  0.91064  0.14354  Biso   1.000  H
  H2864    1.0000 0.05867  0.94844  0.13783  Biso   1.000  H
  C2198    1.0000 0.90598  0.50796  0.08888  Biso   1.000  C
  C2199    1.0000 0.01919  0.50636  0.10730  Biso   1.000  C
  H2865    1.0000 0.10615  0.65424  0.15952  Biso   1.000  H
  H2866    1.0000 0.11757  0.61323  0.13804  Biso   1.000  H
  C2200    1.0000 0.10156  0.68425  0.12364  Biso   1.000  C
  C2201    1.0000 0.94646  0.46685  0.17029  Biso   1.000  C
  H2867    1.0000 0.04125  0.50541  0.15923  Biso   1.000  H
  H2868    1.0000 0.03216  0.54491  0.18194  Biso   1.000  H
  C2202    1.0000 0.31522  0.90201  0.05758  Biso   1.000  C
  H2869    1.0000 0.83138  0.00375  0.06403  Biso   1.000  H
  H2870    1.0000 0.77765  0.96454  0.04264  Biso   1.000  H
  H2871    1.0000 0.75749  0.95286  0.07194  Biso   1.000  H
  H2872    1.0000 0.82007  0.38205  0.16012  Biso   1.000  H
  H2873    1.0000 0.74277  0.34155  0.16473  Biso   1.000  H
  H2874    1.0000 0.77475  0.40932  0.14963  Biso   1.000  H
  C2203    1.0000 0.09895  0.35793  0.07413  Biso   1.000  C
  C2204    1.0000 0.27483  0.97433  0.10717  Biso   1.000  C
  C2205    1.0000 0.27035  0.23103  0.05830  Biso   1.000  C
  H2875    1.0000 0.29918  0.25755  0.09592  Biso   1.000  H
  H2876    1.0000 0.26997  0.18104  0.09103  Biso   1.000  H
  H2877    1.0000 0.50405  0.26324  0.14224  Biso   1.000  H
  H2878    1.0000 0.46667  0.18623  0.13713  Biso   1.000  H
  C2206    1.0000 0.56306  0.23213  0.12633  Biso   1.000  C
  H2879    1.0000 0.54846  0.46061  0.06064  Biso   1.000  H
  C2207    1.0000 0.55988  0.57723  0.06919  Biso   1.000  C
  H2880    1.0000 0.22988  0.40812  0.10874  Biso   1.000  H
  H2881    1.0000 0.26717  0.47015  0.12703  Biso   1.000  H
  C2208    1.0000 0.20796  0.38245  0.14764  Biso   1.000  C
  H2882    1.0000 0.57455  0.54801  0.20083  Biso   1.000  H
  H2883    1.0000 0.62156  0.52074  0.19204  Biso   1.000  H
  C2209    1.0000 0.62919  0.59595  0.16833  Biso   1.000  C
  C2210    1.0000 0.74265  0.70393  0.11952  Biso   1.000  C
  H2884    1.0000 0.74925  0.64984  0.09014  Biso   1.000  H
  H2885    1.0000 0.75147  0.74882  0.15424  Biso   1.000  H
  H2886    1.0000 0.88298  0.60235  0.07583  Biso   1.000  H
  H2887    1.0000 0.83614  0.63141  0.06993  Biso   1.000  H
  C2211    1.0000 0.92605  0.70093  0.08392  Biso   1.000  C
  H2888    1.0000 0.74149  0.53163  0.09263  Biso   1.000  H
  H2889    1.0000 0.78786  0.50311  0.09993  Biso   1.000  H
  C2212    1.0000 0.73126  0.50191  0.12976  Biso   1.000  C
  C2213    1.0000 0.93299  0.47435  0.07570  Biso   1.000  C
  H2890    1.0000 0.86808  0.50766  0.08263  Biso   1.000  H
  C2214    1.0000 0.98907  0.47345  0.08400  Biso   1.000  C
  H2891    1.0000 0.05615  0.50511  0.11373  Biso   1.000  H
  H2892    1.0000 0.06796  0.69724  0.12604  Biso   1.000  H
  H2893    1.0000 0.09537  0.66502  0.10643  Biso   1.000  H
  C2215    1.0000 0.16928  0.74573  0.12494  Biso   1.000  C
  H2894    1.0000 0.92467  0.44982  0.15374  Biso   1.000  H
  H2895    1.0000 0.92109  0.48324  0.17963  Biso   1.000  H
  C2216    1.0000 0.94426  0.40822  0.18594  Biso   1.000  C
  C2217    1.0000 0.25902  0.90102  0.07413  Biso   1.000  C
  H2896    1.0000 0.32546  0.93243  0.04293  Biso   1.000  H
  C2218    1.0000 0.29088  0.83075  0.04765  Biso   1.000  C
  C2219    1.0000 0.09796  0.41312  0.05758  Biso   1.000  C
  H2897    1.0000 0.12876  0.37836  0.08903  Biso   1.000  H
  C2220    1.0000 0.12448  0.31963  0.05752  Biso   1.000  C
  N105     1.0000 0.28110  0.96734  0.08315  Biso   1.000  N
  H2898    1.0000 0.25561  0.93632  0.11752  Biso   1.000  H
  H2899    1.0000 0.29725  0.27643  0.05193  Biso   1.000  H
  H2900    1.0000 0.27407  0.20161  0.04583  Biso   1.000  H
  C2221    1.0000 0.20019  0.21475  0.05930  Biso   1.000  C
  H2901    1.0000 0.59488  0.27483  0.11884  Biso   1.000  H
  H2902    1.0000 0.55747  0.19742  0.11433  Biso   1.000  H
  C2222    1.0000 0.59258  0.22274  0.15283  Biso   1.000  C
  N106     1.0000 0.54934  0.62492  0.07374  Biso   1.000  N
  H2903    1.0000 0.58955  0.58172  0.05613  Biso   1.000  H
  H2904    1.0000 0.18829  0.33566  0.14392  Biso   1.000  H
  H2905    1.0000 0.17337  0.39354  0.14973  Biso   1.000  H
  H2906    1.0000 0.23365  0.39274  0.16324  Biso   1.000  H
  H2907    1.0000 0.64066  0.58222  0.15254  Biso   1.000  H
  H2908    1.0000 0.66924  0.62882  0.17683  Biso   1.000  H
  H2909    1.0000 0.60148  0.61483  0.16454  Biso   1.000  H
  C2223    1.0000 0.69959  0.72525  0.10717  Biso   1.000  C
  C2224    1.0000 0.96069  0.72965  0.05830  Biso   1.000  C
  H2910    1.0000 0.95835  0.70083  0.09592  Biso   1.000  H
  H2911    1.0000 0.91106  0.73005  0.09103  Biso   1.000  H
  H2912    1.0000 0.75914  0.49592  0.14224  Biso   1.000  H
  H2913    1.0000 0.71958  0.53333  0.13713  Biso   1.000  H
  C2225    1.0000 0.66906  0.43694  0.12633  Biso   1.000  C
  H2914    1.0000 0.91215  0.45152  0.06064  Biso   1.000  H
  C2226    1.0000 0.01735  0.44014  0.06919  Biso   1.000  C
  H2915    1.0000 0.17829  0.77015  0.10874  Biso   1.000  H
  H2916    1.0000 0.20298  0.73284  0.12703  Biso   1.000  H
  C2227    1.0000 0.17448  0.79202  0.14764  Biso   1.000  C
  H2917    1.0000 0.97346  0.42545  0.20083  Biso   1.000  H
  H2918    1.0000 0.89919  0.37846  0.19204  Biso   1.000  H
  C2228    1.0000 0.96678  0.37082  0.16833  Biso   1.000  C
  H2919    1.0000 0.24963  0.87125  0.08903  Biso   1.000  H
  C2229    1.0000 0.19520  0.87555  0.05752  Biso   1.000  C
  H2920    1.0000 0.32573  0.83065  0.03714  Biso   1.000  H
  H2921    1.0000 0.28248  0.80123  0.06223  Biso   1.000  H
  C2230    1.0000 0.22761  0.80533  0.03168  Biso   1.000  C
  N107     1.0000 0.07558  0.45062  0.07374  Biso   1.000  N
  C2231    1.0000 0.16925  0.46011  0.04765  Biso   1.000  C
  H2922    1.0000 0.06759  0.39304  0.04293  Biso   1.000  H
  H2923    1.0000 0.12575  0.28532  0.06794  Biso   1.000  H
  H2924    1.0000 0.09427  0.29805  0.04314  Biso   1.000  H
  C2232    1.0000 0.19326  0.36722  0.04744  Biso   1.000  C
  H2925    1.0000 0.17238  0.16865  0.06403  Biso   1.000  H
  H2926    1.0000 0.18686  0.22234  0.04264  Biso   1.000  H
  H2927    1.0000 0.19535  0.24252  0.07194  Biso   1.000  H
  H2928    1.0000 0.56197  0.17994  0.16012  Biso   1.000  H
  H2929    1.0000 0.59876  0.25725  0.16473  Biso   1.000  H
  H2930    1.0000 0.63457  0.22524  0.14963  Biso   1.000  H
  C2233    1.0000 0.58688  0.68485  0.05758  Biso   1.000  C
  N108     1.0000 0.68626  0.71891  0.08315  Biso   1.000  N
  H2931    1.0000 0.68077  0.74443  0.11752  Biso   1.000  H
  H2932    1.0000 0.97915  0.70273  0.05193  Biso   1.000  H
  H2933    1.0000 0.92757  0.72595  0.04583  Biso   1.000  H
  C2234    1.0000 0.01454  0.79982  0.05930  Biso   1.000  C
  H2934    1.0000 0.67996  0.40513  0.11884  Biso   1.000  H
  H2935    1.0000 0.63998  0.44253  0.11433  Biso   1.000  H
  C2235    1.0000 0.63016  0.40742  0.15283  Biso   1.000  C
  H2936    1.0000 0.99216  0.41042  0.05613  Biso   1.000  H
  H2937    1.0000 0.14737  0.81175  0.14392  Biso   1.000  H
  H2938    1.0000 0.22016  0.82663  0.14973  Biso   1.000  H
  H2939    1.0000 0.15910  0.76635  0.16324  Biso   1.000  H
  H2940    1.0000 0.94157  0.35933  0.15254  Biso   1.000  H
  H2941    1.0000 0.95957  0.33071  0.17683  Biso   1.000  H
  H2942    1.0000 0.01338  0.39853  0.16454  Biso   1.000  H
  H2943    1.0000 0.15961  0.87425  0.06794  Biso   1.000  H
  H2944    1.0000 0.20375  0.90571  0.04314  Biso   1.000  H
  C2236    1.0000 0.17403  0.80673  0.04744  Biso   1.000  C
  H2945    1.0000 0.23661  0.83295  0.01643  Biso   1.000  H
  H2946    1.0000 0.21261  0.75993  0.02603  Biso   1.000  H
  H2947    1.0000 0.16936  0.49502  0.03714  Biso   1.000  H
  H2948    1.0000 0.19875  0.48124  0.06223  Biso   1.000  H
  C2237    1.0000 0.19469  0.42226  0.03168  Biso   1.000  C
  H2949    1.0000 0.22376  0.38645  0.06194  Biso   1.000  H
  H2950    1.0000 0.20858  0.34285  0.03683  Biso   1.000  H
  C2238    1.0000 0.64209  0.74103  0.07413  Biso   1.000  C
  C2239    1.0000 0.53985  0.70912  0.04765  Biso   1.000  C
  H2951    1.0000 0.60697  0.67451  0.04293  Biso   1.000  H
  H2952    1.0000 0.99627  0.82763  0.06403  Biso   1.000  H
  H2953    1.0000 0.03548  0.81315  0.04264  Biso   1.000  H
  H2954    1.0000 0.04717  0.80461  0.07194  Biso   1.000  H
  H2955    1.0000 0.61796  0.43804  0.16012  Biso   1.000  H
  H2956    1.0000 0.65847  0.40123  0.16473  Biso   1.000  H
  H2957    1.0000 0.59065  0.36542  0.14963  Biso   1.000  H
  H2958    1.0000 0.16266  0.77621  0.06194  Biso   1.000  H
  H2959    1.0000 0.13429  0.79144  0.03683  Biso   1.000  H
  H2960    1.0000 0.16708  0.40363  0.01643  Biso   1.000  H
  H2961    1.0000 0.24006  0.45262  0.02603  Biso   1.000  H
  H2962    1.0000 0.62165  0.75042  0.08903  Biso   1.000  H
  C2240    1.0000 0.68033  0.80481  0.05752  Biso   1.000  C
  H2963    1.0000 0.50497  0.67431  0.03714  Biso   1.000  H
  H2964    1.0000 0.51874  0.71751  0.06223  Biso   1.000  H
  C2241    1.0000 0.57778  0.77245  0.03168  Biso   1.000  C
  H2965    1.0000 0.71466  0.84042  0.06794  Biso   1.000  H
  H2966    1.0000 0.70195  0.79622  0.04314  Biso   1.000  H
  C2242    1.0000 0.63277  0.82603  0.04744  Biso   1.000  C
  H2967    1.0000 0.59638  0.76346  0.01643  Biso   1.000  H
  H2968    1.0000 0.54738  0.78743  0.02603  Biso   1.000  H
  H2969    1.0000 0.61355  0.83732  0.06194  Biso   1.000  H
  H2970    1.0000 0.65717  0.86574  0.03683  Biso   1.000  H
