data_image0
_cell_length_a       17.224
_cell_length_b       28.777
_cell_length_c       22.135
_cell_angle_alpha    90
_cell_angle_beta     90
_cell_angle_gamma    90

_symmetry_space_group_name_H-M    "P 1"
_symmetry_int_tables_number       1

loop_
  _symmetry_equiv_pos_as_xyz
  'x, y, z'

loop_
  _atom_site_label
  _atom_site_occupancy
  _atom_site_fract_x
  _atom_site_fract_y
  _atom_site_fract_z
  _atom_site_thermal_displace_type
  _atom_site_B_iso_or_equiv
  _atom_site_type_symbol
  C1       1.0000 0.19781  0.46141  0.58220  Biso   1.000  C
  C2       1.0000 0.22567  0.41829  0.56991  Biso   1.000  C
  H1       1.0000 0.23392  0.48580  0.58871  Biso   1.000  H
  C3       1.0000 0.11670  0.47180  0.58590  Biso   1.000  C
  H2       1.0000 0.23386  0.48580  0.58871  Biso   1.000  H
  C4       1.0000 0.17377  0.38089  0.56160  Biso   1.000  C
  H3       1.0000 0.28007  0.41339  0.56693  Biso   1.000  H
  C5       1.0000 0.06503  0.43549  0.57710  Biso   1.000  C
  C6       1.0000 0.06497  0.43549  0.57710  Biso   1.000  C
  B1       1.0000 0.08662  0.52250  0.59842  Biso   1.000  B
  B2       1.0000 0.08657  0.52250  0.59842  Biso   1.000  B
  C7       1.0000 0.18579  0.33221  0.54922  Biso   1.000  C
  C8       1.0000 0.09109  0.39010  0.56603  Biso   1.000  C
  H4       1.0000 0.01080  0.44139  0.57850  Biso   1.000  H
  O1       1.0000 0.12959  0.55499  0.62652  Biso   1.000  O
  O2       1.0000 0.01382  0.53518  0.58130  Biso   1.000  O
  O3       1.0000 0.01376  0.53518  0.58130  Biso   1.000  O
  C9       1.0000 0.26382  0.31171  0.53671  Biso   1.000  C
  C10      1.0000 0.26376  0.31171  0.53671  Biso   1.000  C
  C11      1.0000 0.12001  0.30660  0.54601  Biso   1.000  C
  S1       1.0000 0.03780  0.34038  0.55749  Biso   1.000  S
  C12      1.0000 0.07699  0.59530  0.63601  Biso   1.000  C
  C13      1.0000 0.00650  0.58502  0.59431  Biso   1.000  C
  C14      1.0000 0.30475  0.32151  0.48100  Biso   1.000  C
  C15      1.0000 0.30481  0.32151  0.48100  Biso   1.000  C
  C16      1.0000 0.30219  0.27991  0.57009  Biso   1.000  C
  C17      1.0000 0.10967  0.25701  0.53282  Biso   1.000  C
  H5       1.0000 0.10271  0.62540  0.62580  Biso   1.000  H
  C18      1.0000 0.04418  0.59541  0.69722  Biso   1.000  C
  H6       1.0000 0.00941  0.60382  0.55631  Biso   1.000  H
  C19      1.0000 0.93300  0.59711  0.63063  Biso   1.000  C
  C20      1.0000 0.38278  0.29451  0.48543  Biso   1.000  C
  F1       1.0000 0.26928  0.30451  0.43199  Biso   1.000  F
  F2       1.0000 0.31671  0.36741  0.46772  Biso   1.000  F
  F3       1.0000 0.31665  0.36741  0.46772  Biso   1.000  F
  C21      1.0000 0.37692  0.26751  0.53883  Biso   1.000  C
  C22      1.0000 0.37686  0.26751  0.53883  Biso   1.000  C
  C23      1.0000 0.28031  0.26160  0.62860  Biso   1.000  C
  H7       1.0000 0.05423  0.24940  0.53323  Biso   1.000  H
  H8       1.0000 0.13139  0.24999  0.49293  Biso   1.000  H
  H9       1.0000 0.13650  0.23849  0.56363  Biso   1.000  H
  H10      1.0000 0.05417  0.24940  0.53323  Biso   1.000  H
  C24      1.0000 0.08053  0.59509  0.75193  Biso   1.000  C
  C25      1.0000 0.08047  0.59509  0.75193  Biso   1.000  C
  C26      1.0000 0.96209  0.59530  0.69392  Biso   1.000  C
  C27      1.0000 0.90699  0.64701  0.61432  Biso   1.000  C
  C28      1.0000 0.86530  0.56531  0.61803  Biso   1.000  C
  F4       1.0000 0.41489  0.28141  0.44021  Biso   1.000  F
  F5       1.0000 0.43741  0.33169  0.50269  Biso   1.000  F
  F6       1.0000 0.43735  0.33169  0.50269  Biso   1.000  F
  F7       1.0000 0.37221  0.22118  0.51611  Biso   1.000  F
  F8       1.0000 0.43567  0.26539  0.57420  Biso   1.000  F
  F9       1.0000 0.37216  0.22118  0.51611  Biso   1.000  F
  C29      1.0000 0.28298  0.28571  0.68240  Biso   1.000  C
  C30      1.0000 0.25981  0.21239  0.64030  Biso   1.000  C
  C31      1.0000 0.25975  0.21239  0.64030  Biso   1.000  C
  H11      1.0000 0.13528  0.59700  0.75500  Biso   1.000  H
  C32      1.0000 0.03791  0.59530  0.80610  Biso   1.000  C
  C33      1.0000 0.03785  0.59530  0.80610  Biso   1.000  C
  C34      1.0000 0.91947  0.59509  0.74809  Biso   1.000  C
  H12      1.0000 0.85973  0.65469  0.63673  Biso   1.000  H
  H13      1.0000 0.94821  0.66901  0.62503  Biso   1.000  H
  H14      1.0000 0.89671  0.64882  0.57082  Biso   1.000  H
  H15      1.0000 0.85967  0.65469  0.63673  Biso   1.000  H
  H16      1.0000 0.89666  0.64882  0.57082  Biso   1.000  H
  H17      1.0000 0.87999  0.53320  0.62733  Biso   1.000  H
  H18      1.0000 0.82112  0.57442  0.64319  Biso   1.000  H
  H19      1.0000 0.85079  0.56761  0.57529  Biso   1.000  H
  H20      1.0000 0.82106  0.57442  0.64319  Biso   1.000  H
  C35      1.0000 0.30080  0.33641  0.68882  Biso   1.000  C
  S2       1.0000 0.25929  0.25340  0.74412  Biso   1.000  S
  C36      1.0000 0.25238  0.17660  0.59901  Biso   1.000  C
  C37      1.0000 0.24657  0.20350  0.70020  Biso   1.000  C
  C38      1.0000 0.06700  0.59711  0.86944  Biso   1.000  C
  C39      1.0000 0.95582  0.59541  0.80280  Biso   1.000  C
  C40      1.0000 0.95576  0.59541  0.80280  Biso   1.000  C
  H21      1.0000 0.86472  0.59700  0.74502  Biso   1.000  H
  H22      1.0000 0.86467  0.59700  0.74502  Biso   1.000  H
  H23      1.0000 0.29761  0.34531  0.73142  Biso   1.000  H
  H24      1.0000 0.35329  0.34250  0.67373  Biso   1.000  H
  H25      1.0000 0.26318  0.35448  0.66542  Biso   1.000  H
  H26      1.0000 0.29755  0.34531  0.73142  Biso   1.000  H
  H27      1.0000 0.26347  0.18192  0.55762  Biso   1.000  H
  C41      1.0000 0.22840  0.13250  0.61852  Biso   1.000  C
  C42      1.0000 0.22660  0.15940  0.72103  Biso   1.000  C
  C43      1.0000 0.09301  0.64701  0.88570  Biso   1.000  C
  C44      1.0000 0.13470  0.56531  0.88200  Biso   1.000  C
  C45      1.0000 0.99350  0.58502  0.90571  Biso   1.000  C
  C46      1.0000 0.92301  0.59530  0.86402  Biso   1.000  C
  C47      1.0000 0.92296  0.59530  0.86402  Biso   1.000  C
  H28      1.0000 0.22010  0.10849  0.58970  Biso   1.000  H
  C48      1.0000 0.21679  0.12371  0.67933  Biso   1.000  C
  H29      1.0000 0.21981  0.15380  0.76300  Biso   1.000  H
  H30      1.0000 0.21975  0.15380  0.76300  Biso   1.000  H
  H31      1.0000 0.14027  0.65469  0.86329  Biso   1.000  H
  H32      1.0000 0.05179  0.66901  0.87499  Biso   1.000  H
  H33      1.0000 0.10329  0.64882  0.92921  Biso   1.000  H
  H34      1.0000 0.12001  0.53320  0.87274  Biso   1.000  H
  H35      1.0000 0.17888  0.57442  0.85683  Biso   1.000  H
  H36      1.0000 0.14921  0.56761  0.92473  Biso   1.000  H
  H37      1.0000 0.14915  0.56761  0.92473  Biso   1.000  H
  H38      1.0000 0.99059  0.60382  0.94371  Biso   1.000  H
  O4       1.0000 0.98618  0.53518  0.91873  Biso   1.000  O
  H39      1.0000 0.89729  0.62540  0.87423  Biso   1.000  H
  O5       1.0000 0.87041  0.55499  0.87350  Biso   1.000  O
  B3       1.0000 0.20019  0.07280  0.70169  Biso   1.000  B
  B4       1.0000 0.91338  0.52250  0.90160  Biso   1.000  B
  O6       1.0000 0.21267  0.05901  0.76002  Biso   1.000  O
  O7       1.0000 0.17197  0.03899  0.66600  Biso   1.000  O
  C49      1.0000 0.88330  0.47180  0.91412  Biso   1.000  C
  C50      1.0000 0.20030  0.00921  0.76273  Biso   1.000  C
  C51      1.0000 0.15629  0.99969  0.70400  Biso   1.000  C
  C52      1.0000 0.80219  0.46141  0.91782  Biso   1.000  C
  C53      1.0000 0.93497  0.43549  0.92293  Biso   1.000  C
  H40      1.0000 0.25052  0.99190  0.76422  Biso   1.000  H
  C54      1.0000 0.14631  0.99541  0.81522  Biso   1.000  C
  H41      1.0000 0.25046  0.99190  0.76422  Biso   1.000  H
  C55      1.0000 0.07252  0.99712  0.72311  Biso   1.000  C
  H42      1.0000 0.17377  0.97012  0.68471  Biso   1.000  H
  C56      1.0000 0.07246  0.99712  0.72311  Biso   1.000  C
  C57      1.0000 0.77433  0.41829  0.93011  Biso   1.000  C
  H43      1.0000 0.76608  0.48580  0.91132  Biso   1.000  H
  C58      1.0000 0.77427  0.41829  0.93011  Biso   1.000  C
  H44      1.0000 0.98920  0.44139  0.92153  Biso   1.000  H
  C59      1.0000 0.90891  0.39010  0.93400  Biso   1.000  C
  C60      1.0000 0.15322  0.02759  0.87070  Biso   1.000  C
  C61      1.0000 0.15316  0.02759  0.87070  Biso   1.000  C
  C62      1.0000 0.06630  0.99649  0.78523  Biso   1.000  C
  C63      1.0000 0.16541  0.94541  0.83280  Biso   1.000  C
  C64      1.0000 0.16535  0.94541  0.83280  Biso   1.000  C
  C65      1.0000 0.00592  0.99600  0.68710  Biso   1.000  C
  C66      1.0000 0.00586  0.99600  0.68710  Biso   1.000  C
  C67      1.0000 0.82623  0.38089  0.93842  Biso   1.000  C
  H45      1.0000 0.71993  0.41339  0.93314  Biso   1.000  H
  C68      1.0000 0.82617  0.38089  0.93842  Biso   1.000  C
  H46      1.0000 0.71987  0.41339  0.93314  Biso   1.000  H
  S3       1.0000 0.96220  0.34038  0.94253  Biso   1.000  S
  H47      1.0000 0.20541  0.02492  0.88792  Biso   1.000  H
  H48      1.0000 0.14387  0.05980  0.85832  Biso   1.000  H
  H49      1.0000 0.11472  0.01849  0.90111  Biso   1.000  H
  H50      1.0000 0.20535  0.02492  0.88792  Biso   1.000  H
  H51      1.0000 0.11467  0.01849  0.90111  Biso   1.000  H
  C69      1.0000 0.99408  0.99600  0.81292  Biso   1.000  C
  H52      1.0000 0.21627  0.94450  0.85263  Biso   1.000  H
  H53      1.0000 0.12570  0.93380  0.86063  Biso   1.000  H
  H54      1.0000 0.16657  0.92602  0.79652  Biso   1.000  H
  C70      1.0000 0.93370  0.99649  0.71480  Biso   1.000  C
  H55      1.0000 0.00999  0.99399  0.64482  Biso   1.000  H
  C71      1.0000 0.81421  0.33221  0.95080  Biso   1.000  C
  C72      1.0000 0.87999  0.30660  0.95401  Biso   1.000  C
  H56      1.0000 0.99001  0.99399  0.85521  Biso   1.000  H
  C73      1.0000 0.92748  0.99712  0.77691  Biso   1.000  C
  H57      1.0000 0.98996  0.99399  0.85521  Biso   1.000  H
  C74      1.0000 0.85369  0.99541  0.68480  Biso   1.000  C
  C75      1.0000 0.73618  0.31171  0.96332  Biso   1.000  C
  C76      1.0000 0.89033  0.25701  0.96720  Biso   1.000  C
  C77      1.0000 0.89027  0.25701  0.96720  Biso   1.000  C
  C78      1.0000 0.84371  0.99969  0.79602  Biso   1.000  C
  C79      1.0000 0.83459  0.94541  0.66722  Biso   1.000  C
  C80      1.0000 0.79970  0.00921  0.73729  Biso   1.000  C
  C81      1.0000 0.84678  0.02759  0.62932  Biso   1.000  C
  C82      1.0000 0.69781  0.27991  0.92993  Biso   1.000  C
  C83      1.0000 0.69519  0.32151  0.01902  Biso   1.000  C
  H58      1.0000 0.94577  0.24940  0.96684  Biso   1.000  H
  H59      1.0000 0.86350  0.23849  0.93644  Biso   1.000  H
  H60      1.0000 0.86861  0.24999  0.00714  Biso   1.000  H
  H61      1.0000 0.82623  0.97012  0.81532  Biso   1.000  H
  H62      1.0000 0.82617  0.97012  0.81532  Biso   1.000  H
  O8       1.0000 0.82803  0.03899  0.83402  Biso   1.000  O
  O9       1.0000 0.82797  0.03899  0.83402  Biso   1.000  O
  H63      1.0000 0.78373  0.94450  0.64739  Biso   1.000  H
  H64      1.0000 0.87430  0.93380  0.63939  Biso   1.000  H
  H65      1.0000 0.83343  0.92602  0.70350  Biso   1.000  H
  H66      1.0000 0.78367  0.94450  0.64739  Biso   1.000  H
  H67      1.0000 0.83337  0.92602  0.70350  Biso   1.000  H
  H68      1.0000 0.74948  0.99190  0.73580  Biso   1.000  H
  O10      1.0000 0.78733  0.05901  0.74000  Biso   1.000  O
  O11      1.0000 0.78727  0.05901  0.74000  Biso   1.000  O
  H69      1.0000 0.79459  0.02492  0.61211  Biso   1.000  H
  H70      1.0000 0.85613  0.05980  0.64170  Biso   1.000  H
  H71      1.0000 0.88528  0.01849  0.59892  Biso   1.000  H
  H72      1.0000 0.85607  0.05980  0.64170  Biso   1.000  H
  C84      1.0000 0.71969  0.26160  0.87143  Biso   1.000  C
  C85      1.0000 0.62308  0.26751  0.96124  Biso   1.000  C
  C86      1.0000 0.61722  0.29451  0.01464  Biso   1.000  C
  F10      1.0000 0.73072  0.30451  0.06804  Biso   1.000  F
  F11      1.0000 0.68329  0.36741  0.03230  Biso   1.000  F
  C87      1.0000 0.61716  0.29451  0.01464  Biso   1.000  C
  F12      1.0000 0.73067  0.30451  0.06804  Biso   1.000  F
  B5       1.0000 0.79981  0.07280  0.79833  Biso   1.000  B
  C88      1.0000 0.74019  0.21239  0.85972  Biso   1.000  C
  C89      1.0000 0.71702  0.28571  0.81762  Biso   1.000  C
  C90      1.0000 0.71696  0.28571  0.81762  Biso   1.000  C
  F13      1.0000 0.62779  0.22118  0.98392  Biso   1.000  F
  F14      1.0000 0.56433  0.26539  0.92582  Biso   1.000  F
  F15      1.0000 0.56427  0.26539  0.92582  Biso   1.000  F
  F16      1.0000 0.56259  0.33169  0.99733  Biso   1.000  F
  F17      1.0000 0.58511  0.28141  0.05981  Biso   1.000  F
  C91      1.0000 0.78321  0.12371  0.82074  Biso   1.000  C
  C92      1.0000 0.74762  0.17660  0.90102  Biso   1.000  C
  C93      1.0000 0.74756  0.17660  0.90102  Biso   1.000  C
  C94      1.0000 0.75343  0.20350  0.79982  Biso   1.000  C
  C95      1.0000 0.75337  0.20350  0.79982  Biso   1.000  C
  S4       1.0000 0.74071  0.25340  0.75591  Biso   1.000  S
  C96      1.0000 0.69920  0.33641  0.81120  Biso   1.000  C
  C97      1.0000 0.77160  0.13250  0.88150  Biso   1.000  C
  C98      1.0000 0.77340  0.15940  0.77899  Biso   1.000  C
  H73      1.0000 0.73653  0.18192  0.94240  Biso   1.000  H
  H74      1.0000 0.73647  0.18192  0.94240  Biso   1.000  H
  H75      1.0000 0.70239  0.34531  0.76860  Biso   1.000  H
  H76      1.0000 0.64671  0.34250  0.82629  Biso   1.000  H
  H77      1.0000 0.73682  0.35448  0.83461  Biso   1.000  H
  H78      1.0000 0.73676  0.35448  0.83461  Biso   1.000  H
  H79      1.0000 0.77990  0.10849  0.91032  Biso   1.000  H
  H80      1.0000 0.78019  0.15380  0.73702  Biso   1.000  H
  C99      1.0000 0.19781  0.46141  0.58220  Biso   1.000  C
  C100     1.0000 0.22567  0.41829  0.56991  Biso   1.000  C
  C101     1.0000 0.11670  0.47180  0.58590  Biso   1.000  C
  H81      1.0000 0.23392  0.48580  0.58871  Biso   1.000  H
  H82      1.0000 0.23386  0.48580  0.58871  Biso   1.000  H
  C102     1.0000 0.17377  0.38089  0.56160  Biso   1.000  C
  H83      1.0000 0.28007  0.41339  0.56693  Biso   1.000  H
  C103     1.0000 0.06503  0.43549  0.57710  Biso   1.000  C
  C104     1.0000 0.06497  0.43549  0.57710  Biso   1.000  C
  B6       1.0000 0.08662  0.52250  0.59842  Biso   1.000  B
  B7       1.0000 0.08657  0.52250  0.59842  Biso   1.000  B
  C105     1.0000 0.18579  0.33221  0.54922  Biso   1.000  C
  C106     1.0000 0.09109  0.39010  0.56603  Biso   1.000  C
  H84      1.0000 0.01080  0.44139  0.57850  Biso   1.000  H
  O12      1.0000 0.12959  0.55499  0.62652  Biso   1.000  O
  O13      1.0000 0.01382  0.53518  0.58130  Biso   1.000  O
  O14      1.0000 0.01376  0.53518  0.58130  Biso   1.000  O
  C107     1.0000 0.26382  0.31171  0.53671  Biso   1.000  C
  C108     1.0000 0.26376  0.31171  0.53671  Biso   1.000  C
  C109     1.0000 0.12001  0.30660  0.54601  Biso   1.000  C
  S5       1.0000 0.03780  0.34038  0.55749  Biso   1.000  S
  C110     1.0000 0.07699  0.59530  0.63601  Biso   1.000  C
  C111     1.0000 0.00650  0.58502  0.59431  Biso   1.000  C
  C112     1.0000 0.30481  0.32151  0.48100  Biso   1.000  C
  C113     1.0000 0.30475  0.32151  0.48100  Biso   1.000  C
  C114     1.0000 0.30219  0.27991  0.57009  Biso   1.000  C
  C115     1.0000 0.10967  0.25701  0.53282  Biso   1.000  C
  H85      1.0000 0.10271  0.62540  0.62580  Biso   1.000  H
  C116     1.0000 0.04418  0.59541  0.69722  Biso   1.000  C
  H86      1.0000 0.00941  0.60382  0.55631  Biso   1.000  H
  C117     1.0000 0.93300  0.59711  0.63063  Biso   1.000  C
  C118     1.0000 0.38278  0.29451  0.48543  Biso   1.000  C
  F18      1.0000 0.26928  0.30451  0.43199  Biso   1.000  F
  F19      1.0000 0.31671  0.36741  0.46772  Biso   1.000  F
  F20      1.0000 0.31665  0.36741  0.46772  Biso   1.000  F
  C119     1.0000 0.37692  0.26751  0.53883  Biso   1.000  C
  C120     1.0000 0.37686  0.26751  0.53883  Biso   1.000  C
  C121     1.0000 0.28031  0.26160  0.62860  Biso   1.000  C
  H87      1.0000 0.13139  0.24999  0.49293  Biso   1.000  H
  H88      1.0000 0.13650  0.23849  0.56363  Biso   1.000  H
  H89      1.0000 0.05423  0.24940  0.53323  Biso   1.000  H
  H90      1.0000 0.05417  0.24940  0.53323  Biso   1.000  H
  C122     1.0000 0.96209  0.59530  0.69392  Biso   1.000  C
  C123     1.0000 0.08053  0.59509  0.75193  Biso   1.000  C
  C124     1.0000 0.08047  0.59509  0.75193  Biso   1.000  C
  C125     1.0000 0.90699  0.64701  0.61432  Biso   1.000  C
  C126     1.0000 0.86530  0.56531  0.61803  Biso   1.000  C
  F21      1.0000 0.41489  0.28141  0.44021  Biso   1.000  F
  F22      1.0000 0.43741  0.33169  0.50269  Biso   1.000  F
  F23      1.0000 0.43735  0.33169  0.50269  Biso   1.000  F
  F24      1.0000 0.43567  0.26539  0.57420  Biso   1.000  F
  F25      1.0000 0.37221  0.22118  0.51611  Biso   1.000  F
  F26      1.0000 0.37216  0.22118  0.51611  Biso   1.000  F
  C127     1.0000 0.28298  0.28571  0.68240  Biso   1.000  C
  C128     1.0000 0.25981  0.21239  0.64030  Biso   1.000  C
  C129     1.0000 0.25975  0.21239  0.64030  Biso   1.000  C
  C130     1.0000 0.91947  0.59509  0.74809  Biso   1.000  C
  H91      1.0000 0.13528  0.59700  0.75500  Biso   1.000  H
  C131     1.0000 0.03791  0.59530  0.80610  Biso   1.000  C
  C132     1.0000 0.03785  0.59530  0.80610  Biso   1.000  C
  H92      1.0000 0.85973  0.65469  0.63673  Biso   1.000  H
  H93      1.0000 0.94821  0.66901  0.62503  Biso   1.000  H
  H94      1.0000 0.89671  0.64882  0.57082  Biso   1.000  H
  H95      1.0000 0.85967  0.65469  0.63673  Biso   1.000  H
  H96      1.0000 0.89666  0.64882  0.57082  Biso   1.000  H
  H97      1.0000 0.87999  0.53320  0.62733  Biso   1.000  H
  H98      1.0000 0.82112  0.57442  0.64319  Biso   1.000  H
  H99      1.0000 0.85079  0.56761  0.57529  Biso   1.000  H
  H100     1.0000 0.82106  0.57442  0.64319  Biso   1.000  H
  C133     1.0000 0.30080  0.33641  0.68882  Biso   1.000  C
  S6       1.0000 0.25929  0.25340  0.74412  Biso   1.000  S
  C134     1.0000 0.25238  0.17660  0.59901  Biso   1.000  C
  C135     1.0000 0.24657  0.20350  0.70020  Biso   1.000  C
  C136     1.0000 0.95582  0.59541  0.80280  Biso   1.000  C
  H101     1.0000 0.86472  0.59700  0.74502  Biso   1.000  H
  C137     1.0000 0.95576  0.59541  0.80280  Biso   1.000  C
  H102     1.0000 0.86467  0.59700  0.74502  Biso   1.000  H
  C138     1.0000 0.06700  0.59711  0.86944  Biso   1.000  C
  H103     1.0000 0.35329  0.34250  0.67373  Biso   1.000  H
  H104     1.0000 0.26318  0.35448  0.66542  Biso   1.000  H
  H105     1.0000 0.29761  0.34531  0.73142  Biso   1.000  H
  H106     1.0000 0.29755  0.34531  0.73142  Biso   1.000  H
  H107     1.0000 0.26347  0.18192  0.55762  Biso   1.000  H
  C139     1.0000 0.22840  0.13250  0.61852  Biso   1.000  C
  C140     1.0000 0.22660  0.15940  0.72103  Biso   1.000  C
  C141     1.0000 0.92301  0.59530  0.86402  Biso   1.000  C
  C142     1.0000 0.92296  0.59530  0.86402  Biso   1.000  C
  C143     1.0000 0.09301  0.64701  0.88570  Biso   1.000  C
  C144     1.0000 0.13470  0.56531  0.88200  Biso   1.000  C
  C145     1.0000 0.99350  0.58502  0.90571  Biso   1.000  C
  H108     1.0000 0.22010  0.10849  0.58970  Biso   1.000  H
  C146     1.0000 0.21679  0.12371  0.67933  Biso   1.000  C
  H109     1.0000 0.21981  0.15380  0.76300  Biso   1.000  H
  H110     1.0000 0.21975  0.15380  0.76300  Biso   1.000  H
  H111     1.0000 0.89729  0.62540  0.87423  Biso   1.000  H
  O15      1.0000 0.87041  0.55499  0.87350  Biso   1.000  O
  H112     1.0000 0.14027  0.65469  0.86329  Biso   1.000  H
  H113     1.0000 0.05179  0.66901  0.87499  Biso   1.000  H
  H114     1.0000 0.10329  0.64882  0.92921  Biso   1.000  H
  H115     1.0000 0.12001  0.53320  0.87274  Biso   1.000  H
  H116     1.0000 0.17888  0.57442  0.85683  Biso   1.000  H
  H117     1.0000 0.14921  0.56761  0.92473  Biso   1.000  H
  H118     1.0000 0.14915  0.56761  0.92473  Biso   1.000  H
  H119     1.0000 0.99059  0.60382  0.94371  Biso   1.000  H
  O16      1.0000 0.98618  0.53518  0.91873  Biso   1.000  O
  B8       1.0000 0.20019  0.07280  0.70169  Biso   1.000  B
  B9       1.0000 0.91338  0.52250  0.90160  Biso   1.000  B
  O17      1.0000 0.21267  0.05901  0.76002  Biso   1.000  O
  O18      1.0000 0.17197  0.03899  0.66600  Biso   1.000  O
  C147     1.0000 0.88330  0.47180  0.91412  Biso   1.000  C
  C148     1.0000 0.20030  0.00921  0.76273  Biso   1.000  C
  C149     1.0000 0.15629  0.99969  0.70400  Biso   1.000  C
  C150     1.0000 0.80219  0.46141  0.91782  Biso   1.000  C
  C151     1.0000 0.93497  0.43549  0.92293  Biso   1.000  C
  H120     1.0000 0.25052  0.99190  0.76422  Biso   1.000  H
  C152     1.0000 0.14631  0.99541  0.81522  Biso   1.000  C
  H121     1.0000 0.25046  0.99190  0.76422  Biso   1.000  H
  C153     1.0000 0.07252  0.99712  0.72311  Biso   1.000  C
  H122     1.0000 0.17377  0.97012  0.68471  Biso   1.000  H
  C154     1.0000 0.07246  0.99712  0.72311  Biso   1.000  C
  C155     1.0000 0.77433  0.41829  0.93011  Biso   1.000  C
  H123     1.0000 0.76608  0.48580  0.91132  Biso   1.000  H
  C156     1.0000 0.77427  0.41829  0.93011  Biso   1.000  C
  H124     1.0000 0.98920  0.44139  0.92153  Biso   1.000  H
  C157     1.0000 0.90891  0.39010  0.93400  Biso   1.000  C
  C158     1.0000 0.06630  0.99649  0.78523  Biso   1.000  C
  C159     1.0000 0.16541  0.94541  0.83280  Biso   1.000  C
  C160     1.0000 0.16535  0.94541  0.83280  Biso   1.000  C
  C161     1.0000 0.15322  0.02759  0.87070  Biso   1.000  C
  C162     1.0000 0.15316  0.02759  0.87070  Biso   1.000  C
  C163     1.0000 0.00592  0.99600  0.68710  Biso   1.000  C
  C164     1.0000 0.00586  0.99600  0.68710  Biso   1.000  C
  C165     1.0000 0.82623  0.38089  0.93842  Biso   1.000  C
  H125     1.0000 0.71993  0.41339  0.93314  Biso   1.000  H
  C166     1.0000 0.82617  0.38089  0.93842  Biso   1.000  C
  H126     1.0000 0.71987  0.41339  0.93314  Biso   1.000  H
  S7       1.0000 0.96220  0.34038  0.94253  Biso   1.000  S
  C167     1.0000 0.99408  0.99600  0.81292  Biso   1.000  C
  H127     1.0000 0.21627  0.94450  0.85263  Biso   1.000  H
  H128     1.0000 0.12570  0.93380  0.86063  Biso   1.000  H
  H129     1.0000 0.16657  0.92602  0.79652  Biso   1.000  H
  H130     1.0000 0.14387  0.05980  0.85832  Biso   1.000  H
  H131     1.0000 0.20541  0.02492  0.88792  Biso   1.000  H
  H132     1.0000 0.11472  0.01849  0.90111  Biso   1.000  H
  H133     1.0000 0.20535  0.02492  0.88792  Biso   1.000  H
  H134     1.0000 0.11467  0.01849  0.90111  Biso   1.000  H
  C168     1.0000 0.93370  0.99649  0.71480  Biso   1.000  C
  H135     1.0000 0.00999  0.99399  0.64482  Biso   1.000  H
  C169     1.0000 0.81421  0.33221  0.95080  Biso   1.000  C
  C170     1.0000 0.87999  0.30660  0.95401  Biso   1.000  C
  H136     1.0000 0.99001  0.99399  0.85521  Biso   1.000  H
  C171     1.0000 0.92748  0.99712  0.77691  Biso   1.000  C
  H137     1.0000 0.98996  0.99399  0.85521  Biso   1.000  H
  C172     1.0000 0.85369  0.99541  0.68480  Biso   1.000  C
  C173     1.0000 0.73618  0.31171  0.96332  Biso   1.000  C
  C174     1.0000 0.89033  0.25701  0.96720  Biso   1.000  C
  C175     1.0000 0.89027  0.25701  0.96720  Biso   1.000  C
  C176     1.0000 0.84371  0.99969  0.79602  Biso   1.000  C
  C177     1.0000 0.83459  0.94541  0.66722  Biso   1.000  C
  C178     1.0000 0.79970  0.00921  0.73729  Biso   1.000  C
  C179     1.0000 0.84678  0.02759  0.62932  Biso   1.000  C
  C180     1.0000 0.69781  0.27991  0.92993  Biso   1.000  C
  C181     1.0000 0.69519  0.32151  0.01902  Biso   1.000  C
  H138     1.0000 0.94577  0.24940  0.96684  Biso   1.000  H
  H139     1.0000 0.86350  0.23849  0.93644  Biso   1.000  H
  H140     1.0000 0.86861  0.24999  0.00714  Biso   1.000  H
  H141     1.0000 0.82623  0.97012  0.81532  Biso   1.000  H
  H142     1.0000 0.82617  0.97012  0.81532  Biso   1.000  H
  O19      1.0000 0.82803  0.03899  0.83402  Biso   1.000  O
  O20      1.0000 0.82797  0.03899  0.83402  Biso   1.000  O
  H143     1.0000 0.78373  0.94450  0.64739  Biso   1.000  H
  H144     1.0000 0.87430  0.93380  0.63939  Biso   1.000  H
  H145     1.0000 0.83343  0.92602  0.70350  Biso   1.000  H
  H146     1.0000 0.78367  0.94450  0.64739  Biso   1.000  H
  H147     1.0000 0.83337  0.92602  0.70350  Biso   1.000  H
  H148     1.0000 0.74948  0.99190  0.73580  Biso   1.000  H
  O21      1.0000 0.78733  0.05901  0.74000  Biso   1.000  O
  O22      1.0000 0.78727  0.05901  0.74000  Biso   1.000  O
  H149     1.0000 0.79459  0.02492  0.61211  Biso   1.000  H
  H150     1.0000 0.85613  0.05980  0.64170  Biso   1.000  H
  H151     1.0000 0.88528  0.01849  0.59892  Biso   1.000  H
  H152     1.0000 0.85607  0.05980  0.64170  Biso   1.000  H
  C182     1.0000 0.71969  0.26160  0.87143  Biso   1.000  C
  C183     1.0000 0.62308  0.26751  0.96124  Biso   1.000  C
  C184     1.0000 0.61722  0.29451  0.01464  Biso   1.000  C
  F27      1.0000 0.73072  0.30451  0.06804  Biso   1.000  F
  F28      1.0000 0.68329  0.36741  0.03230  Biso   1.000  F
  C185     1.0000 0.61716  0.29451  0.01464  Biso   1.000  C
  F29      1.0000 0.73067  0.30451  0.06804  Biso   1.000  F
  B10      1.0000 0.79981  0.07280  0.79833  Biso   1.000  B
  C186     1.0000 0.74019  0.21239  0.85972  Biso   1.000  C
  C187     1.0000 0.71702  0.28571  0.81762  Biso   1.000  C
  C188     1.0000 0.71696  0.28571  0.81762  Biso   1.000  C
  F30      1.0000 0.62779  0.22118  0.98392  Biso   1.000  F
  F31      1.0000 0.56433  0.26539  0.92582  Biso   1.000  F
  F32      1.0000 0.56427  0.26539  0.92582  Biso   1.000  F
  F33      1.0000 0.56259  0.33169  0.99733  Biso   1.000  F
  F34      1.0000 0.58511  0.28141  0.05981  Biso   1.000  F
  C189     1.0000 0.78321  0.12371  0.82074  Biso   1.000  C
  C190     1.0000 0.74762  0.17660  0.90102  Biso   1.000  C
  C191     1.0000 0.74756  0.17660  0.90102  Biso   1.000  C
  C192     1.0000 0.75343  0.20350  0.79982  Biso   1.000  C
  C193     1.0000 0.75337  0.20350  0.79982  Biso   1.000  C
  S8       1.0000 0.74071  0.25340  0.75591  Biso   1.000  S
  C194     1.0000 0.69920  0.33641  0.81120  Biso   1.000  C
  C195     1.0000 0.77160  0.13250  0.88150  Biso   1.000  C
  C196     1.0000 0.77340  0.15940  0.77899  Biso   1.000  C
  H153     1.0000 0.73653  0.18192  0.94240  Biso   1.000  H
  H154     1.0000 0.73647  0.18192  0.94240  Biso   1.000  H
  H155     1.0000 0.70239  0.34531  0.76860  Biso   1.000  H
  H156     1.0000 0.64671  0.34250  0.82629  Biso   1.000  H
  H157     1.0000 0.73682  0.35448  0.83461  Biso   1.000  H
  H158     1.0000 0.73676  0.35448  0.83461  Biso   1.000  H
  H159     1.0000 0.77990  0.10849  0.91032  Biso   1.000  H
  H160     1.0000 0.78019  0.15380  0.73702  Biso   1.000  H
  C197     1.0000 0.13470  0.43469  0.38202  Biso   1.000  C
  C198     1.0000 0.06700  0.40289  0.36941  Biso   1.000  C
  H161     1.0000 0.12001  0.46680  0.37271  Biso   1.000  H
  H162     1.0000 0.17888  0.42558  0.35681  Biso   1.000  H
  H163     1.0000 0.14921  0.43239  0.42471  Biso   1.000  H
  H164     1.0000 0.14915  0.43239  0.42471  Biso   1.000  H
  C199     1.0000 0.09301  0.35299  0.38572  Biso   1.000  C
  C200     1.0000 0.03791  0.40470  0.30612  Biso   1.000  C
  C201     1.0000 0.03785  0.40470  0.30612  Biso   1.000  C
  C202     1.0000 0.99350  0.41498  0.40569  Biso   1.000  C
  H165     1.0000 0.14027  0.34531  0.36332  Biso   1.000  H
  H166     1.0000 0.05179  0.33099  0.37502  Biso   1.000  H
  H167     1.0000 0.10329  0.35118  0.42923  Biso   1.000  H
  C203     1.0000 0.08053  0.40491  0.25191  Biso   1.000  C
  C204     1.0000 0.08047  0.40491  0.25191  Biso   1.000  C
  C205     1.0000 0.95582  0.40459  0.30282  Biso   1.000  C
  C206     1.0000 0.95576  0.40459  0.30282  Biso   1.000  C
  C207     1.0000 0.92301  0.40470  0.36399  Biso   1.000  C
  H168     1.0000 0.99059  0.39618  0.44369  Biso   1.000  H
  O23      1.0000 0.98618  0.46482  0.41870  Biso   1.000  O
  C208     1.0000 0.92296  0.40470  0.36399  Biso   1.000  C
  C209     1.0000 0.04418  0.40459  0.19720  Biso   1.000  C
  H169     1.0000 0.13528  0.40300  0.25503  Biso   1.000  H
  C210     1.0000 0.91947  0.40491  0.24811  Biso   1.000  C
  H170     1.0000 0.89729  0.37460  0.37420  Biso   1.000  H
  O24      1.0000 0.87041  0.44501  0.37353  Biso   1.000  O
  B11      1.0000 0.91338  0.47750  0.40163  Biso   1.000  B
  C211     1.0000 0.07699  0.40470  0.13598  Biso   1.000  C
  C212     1.0000 0.96209  0.40470  0.19390  Biso   1.000  C
  H171     1.0000 0.86472  0.40300  0.24500  Biso   1.000  H
  H172     1.0000 0.86467  0.40300  0.24500  Biso   1.000  H
  C213     1.0000 0.88330  0.52820  0.41410  Biso   1.000  C
  H173     1.0000 0.10271  0.37460  0.12582  Biso   1.000  H
  C214     1.0000 0.00650  0.41498  0.09429  Biso   1.000  C
  O25      1.0000 0.12959  0.44501  0.12650  Biso   1.000  O
  C215     1.0000 0.93300  0.40289  0.13061  Biso   1.000  C
  C216     1.0000 0.80219  0.53859  0.41780  Biso   1.000  C
  C217     1.0000 0.93497  0.56451  0.42290  Biso   1.000  C
  H174     1.0000 0.00941  0.39618  0.05629  Biso   1.000  H
  O26      1.0000 0.01382  0.46482  0.08132  Biso   1.000  O
  O27      1.0000 0.01376  0.46482  0.08132  Biso   1.000  O
  B12      1.0000 0.08662  0.47750  0.09840  Biso   1.000  B
  B13      1.0000 0.08657  0.47750  0.09840  Biso   1.000  B
  C218     1.0000 0.90699  0.35299  0.11430  Biso   1.000  C
  C219     1.0000 0.86530  0.43469  0.11800  Biso   1.000  C
  C220     1.0000 0.77433  0.58171  0.43009  Biso   1.000  C
  H175     1.0000 0.76608  0.51420  0.41129  Biso   1.000  H
  C221     1.0000 0.77427  0.58171  0.43009  Biso   1.000  C
  H176     1.0000 0.98920  0.55861  0.42150  Biso   1.000  H
  C222     1.0000 0.90891  0.60990  0.43402  Biso   1.000  C
  C223     1.0000 0.11670  0.52820  0.08588  Biso   1.000  C
  H177     1.0000 0.85973  0.34531  0.13671  Biso   1.000  H
  H178     1.0000 0.94821  0.33099  0.12501  Biso   1.000  H
  H179     1.0000 0.89671  0.35118  0.07079  Biso   1.000  H
  H180     1.0000 0.85967  0.34531  0.13671  Biso   1.000  H
  H181     1.0000 0.89666  0.35118  0.07079  Biso   1.000  H
  H182     1.0000 0.87999  0.46680  0.12731  Biso   1.000  H
  H183     1.0000 0.82112  0.42558  0.14321  Biso   1.000  H
  H184     1.0000 0.85079  0.43239  0.07531  Biso   1.000  H
  H185     1.0000 0.82106  0.42558  0.14321  Biso   1.000  H
  C224     1.0000 0.82623  0.61911  0.43840  Biso   1.000  C
  H186     1.0000 0.71993  0.58661  0.43311  Biso   1.000  H
  C225     1.0000 0.82617  0.61911  0.43840  Biso   1.000  C
  H187     1.0000 0.71987  0.58661  0.43311  Biso   1.000  H
  S9       1.0000 0.96220  0.65962  0.44251  Biso   1.000  S
  C226     1.0000 0.19781  0.53859  0.08222  Biso   1.000  C
  C227     1.0000 0.06503  0.56451  0.07712  Biso   1.000  C
  C228     1.0000 0.06497  0.56451  0.07712  Biso   1.000  C
  C229     1.0000 0.81421  0.66779  0.45082  Biso   1.000  C
  C230     1.0000 0.87999  0.69340  0.45399  Biso   1.000  C
  C231     1.0000 0.22567  0.58171  0.06989  Biso   1.000  C
  H188     1.0000 0.23392  0.51420  0.08868  Biso   1.000  H
  H189     1.0000 0.23386  0.51420  0.08868  Biso   1.000  H
  H190     1.0000 0.01080  0.55861  0.07852  Biso   1.000  H
  C232     1.0000 0.09109  0.60990  0.06600  Biso   1.000  C
  C233     1.0000 0.73618  0.68829  0.46329  Biso   1.000  C
  C234     1.0000 0.89033  0.74299  0.46722  Biso   1.000  C
  C235     1.0000 0.89027  0.74299  0.46722  Biso   1.000  C
  C236     1.0000 0.17377  0.61911  0.06162  Biso   1.000  C
  H191     1.0000 0.28007  0.58661  0.06691  Biso   1.000  H
  S10      1.0000 0.03780  0.65962  0.05751  Biso   1.000  S
  C237     1.0000 0.69519  0.67849  0.51900  Biso   1.000  C
  C238     1.0000 0.69781  0.72009  0.42991  Biso   1.000  C
  H192     1.0000 0.94577  0.75060  0.46682  Biso   1.000  H
  H193     1.0000 0.86861  0.75001  0.50712  Biso   1.000  H
  H194     1.0000 0.86350  0.76151  0.43641  Biso   1.000  H
  C239     1.0000 0.18579  0.66779  0.04920  Biso   1.000  C
  C240     1.0000 0.12001  0.69340  0.04599  Biso   1.000  C
  C241     1.0000 0.61722  0.70549  0.51461  Biso   1.000  C
  F35      1.0000 0.73072  0.69549  0.56801  Biso   1.000  F
  F36      1.0000 0.68329  0.63259  0.53232  Biso   1.000  F
  C242     1.0000 0.61716  0.70549  0.51461  Biso   1.000  C
  F37      1.0000 0.73067  0.69549  0.56801  Biso   1.000  F
  C243     1.0000 0.62308  0.73249  0.46122  Biso   1.000  C
  C244     1.0000 0.71969  0.73840  0.37140  Biso   1.000  C
  C245     1.0000 0.26382  0.68829  0.03668  Biso   1.000  C
  C246     1.0000 0.26376  0.68829  0.03668  Biso   1.000  C
  C247     1.0000 0.10967  0.74299  0.03280  Biso   1.000  C
  F38      1.0000 0.58511  0.71859  0.55979  Biso   1.000  F
  F39      1.0000 0.56259  0.66831  0.49731  Biso   1.000  F
  F40      1.0000 0.62779  0.77882  0.48389  Biso   1.000  F
  F41      1.0000 0.56433  0.73461  0.42580  Biso   1.000  F
  F42      1.0000 0.56427  0.73461  0.42580  Biso   1.000  F
  C248     1.0000 0.71702  0.71429  0.31760  Biso   1.000  C
  C249     1.0000 0.74019  0.78761  0.35970  Biso   1.000  C
  C250     1.0000 0.71696  0.71429  0.31760  Biso   1.000  C
  C251     1.0000 0.30219  0.72009  0.07012  Biso   1.000  C
  C252     1.0000 0.30481  0.67849  0.98098  Biso   1.000  C
  C253     1.0000 0.30475  0.67849  0.98098  Biso   1.000  C
  H195     1.0000 0.05423  0.75060  0.03321  Biso   1.000  H
  H196     1.0000 0.13650  0.76151  0.06361  Biso   1.000  H
  H197     1.0000 0.05417  0.75060  0.03321  Biso   1.000  H
  H198     1.0000 0.13139  0.75001  0.99291  Biso   1.000  H
  C254     1.0000 0.69920  0.66359  0.31123  Biso   1.000  C
  S11      1.0000 0.74071  0.74660  0.25588  Biso   1.000  S
  C255     1.0000 0.74762  0.82340  0.40099  Biso   1.000  C
  C256     1.0000 0.75343  0.79650  0.29980  Biso   1.000  C
  C257     1.0000 0.74756  0.82340  0.40099  Biso   1.000  C
  C258     1.0000 0.75337  0.79650  0.29980  Biso   1.000  C
  C259     1.0000 0.37692  0.73249  0.03881  Biso   1.000  C
  C260     1.0000 0.28031  0.73840  0.12862  Biso   1.000  C
  C261     1.0000 0.37686  0.73249  0.03881  Biso   1.000  C
  C262     1.0000 0.38278  0.70549  0.98541  Biso   1.000  C
  F43      1.0000 0.26928  0.69549  0.93201  Biso   1.000  F
  F44      1.0000 0.31671  0.63259  0.96770  Biso   1.000  F
  F45      1.0000 0.31665  0.63259  0.96770  Biso   1.000  F
  H199     1.0000 0.70239  0.65469  0.26862  Biso   1.000  H
  H200     1.0000 0.64671  0.65750  0.32632  Biso   1.000  H
  H201     1.0000 0.73682  0.64552  0.33463  Biso   1.000  H
  H202     1.0000 0.73676  0.64552  0.33463  Biso   1.000  H
  H203     1.0000 0.73653  0.81808  0.44242  Biso   1.000  H
  C263     1.0000 0.77160  0.86750  0.38152  Biso   1.000  C
  H204     1.0000 0.73647  0.81808  0.44242  Biso   1.000  H
  C264     1.0000 0.77340  0.84060  0.27902  Biso   1.000  C
  F46      1.0000 0.37221  0.77882  0.01608  Biso   1.000  F
  F47      1.0000 0.43567  0.73461  0.07418  Biso   1.000  F
  F48      1.0000 0.37216  0.77882  0.01608  Biso   1.000  F
  C265     1.0000 0.28298  0.71429  0.18238  Biso   1.000  C
  C266     1.0000 0.25981  0.78761  0.14032  Biso   1.000  C
  C267     1.0000 0.25975  0.78761  0.14032  Biso   1.000  C
  F49      1.0000 0.43741  0.66831  0.00271  Biso   1.000  F
  F50      1.0000 0.43735  0.66831  0.00271  Biso   1.000  F
  F51      1.0000 0.41489  0.71859  0.94019  Biso   1.000  F
  H205     1.0000 0.77990  0.89151  0.41030  Biso   1.000  H
  C268     1.0000 0.78321  0.87629  0.32071  Biso   1.000  C
  H206     1.0000 0.78019  0.84620  0.23700  Biso   1.000  H
  C269     1.0000 0.30080  0.66359  0.18880  Biso   1.000  C
  S12      1.0000 0.25929  0.74660  0.24409  Biso   1.000  S
  C270     1.0000 0.25238  0.82340  0.09898  Biso   1.000  C
  C271     1.0000 0.24657  0.79650  0.20023  Biso   1.000  C
  B14      1.0000 0.79981  0.92720  0.29831  Biso   1.000  B
  H207     1.0000 0.29761  0.65469  0.23140  Biso   1.000  H
  H208     1.0000 0.35329  0.65750  0.17371  Biso   1.000  H
  H209     1.0000 0.26318  0.64552  0.16539  Biso   1.000  H
  H210     1.0000 0.29755  0.65469  0.23140  Biso   1.000  H
  H211     1.0000 0.26347  0.81808  0.05760  Biso   1.000  H
  C272     1.0000 0.22840  0.86750  0.11850  Biso   1.000  C
  C273     1.0000 0.22660  0.84060  0.22101  Biso   1.000  C
  O28      1.0000 0.78733  0.94099  0.23998  Biso   1.000  O
  O29      1.0000 0.82803  0.96101  0.33400  Biso   1.000  O
  O30      1.0000 0.78727  0.94099  0.23998  Biso   1.000  O
  O31      1.0000 0.82797  0.96101  0.33400  Biso   1.000  O
  H212     1.0000 0.22010  0.89151  0.08972  Biso   1.000  H
  C274     1.0000 0.21679  0.87629  0.17931  Biso   1.000  C
  H213     1.0000 0.21981  0.84620  0.26302  Biso   1.000  H
  H214     1.0000 0.21975  0.84620  0.26302  Biso   1.000  H
  C275     1.0000 0.79970  0.99079  0.23732  Biso   1.000  C
  C276     1.0000 0.84371  0.00031  0.29600  Biso   1.000  C
  B15      1.0000 0.20019  0.92720  0.20172  Biso   1.000  B
  H215     1.0000 0.74948  0.00810  0.23583  Biso   1.000  H
  C277     1.0000 0.85369  0.00459  0.18482  Biso   1.000  C
  C278     1.0000 0.92748  0.00288  0.27689  Biso   1.000  C
  H216     1.0000 0.82623  0.02988  0.31529  Biso   1.000  H
  H217     1.0000 0.82617  0.02988  0.31529  Biso   1.000  H
  O32      1.0000 0.21267  0.94099  0.26000  Biso   1.000  O
  O33      1.0000 0.17197  0.96101  0.16598  Biso   1.000  O
  C279     1.0000 0.84678  0.97241  0.12930  Biso   1.000  C
  C280     1.0000 0.93370  0.00351  0.21482  Biso   1.000  C
  C281     1.0000 0.83459  0.05459  0.16720  Biso   1.000  C
  C282     1.0000 0.99408  0.00400  0.31290  Biso   1.000  C
  C283     1.0000 0.20030  0.99079  0.26271  Biso   1.000  C
  C284     1.0000 0.15629  0.00031  0.20402  Biso   1.000  C
  H218     1.0000 0.79459  0.97508  0.11208  Biso   1.000  H
  H219     1.0000 0.85613  0.94020  0.14172  Biso   1.000  H
  H220     1.0000 0.88528  0.98151  0.09889  Biso   1.000  H
  H221     1.0000 0.85607  0.94020  0.14172  Biso   1.000  H
  C285     1.0000 0.00592  0.00400  0.18712  Biso   1.000  C
  C286     1.0000 0.00586  0.00400  0.18712  Biso   1.000  C
  H222     1.0000 0.78373  0.05550  0.14741  Biso   1.000  H
  H223     1.0000 0.87430  0.06620  0.13942  Biso   1.000  H
  H224     1.0000 0.83343  0.07398  0.20352  Biso   1.000  H
  H225     1.0000 0.78367  0.05550  0.14741  Biso   1.000  H
  H226     1.0000 0.83337  0.07398  0.20352  Biso   1.000  H
  H227     1.0000 0.99001  0.00601  0.35518  Biso   1.000  H
  H228     1.0000 0.98996  0.00601  0.35518  Biso   1.000  H
  C287     1.0000 0.06630  0.00351  0.28520  Biso   1.000  C
  H229     1.0000 0.25052  0.00810  0.26420  Biso   1.000  H
  C288     1.0000 0.14631  0.00459  0.31520  Biso   1.000  C
  H230     1.0000 0.25046  0.00810  0.26420  Biso   1.000  H
  C289     1.0000 0.07252  0.00288  0.22309  Biso   1.000  C
  H231     1.0000 0.17377  0.02988  0.18468  Biso   1.000  H
  C290     1.0000 0.07246  0.00288  0.22309  Biso   1.000  C
  H232     1.0000 0.00999  0.00601  0.14479  Biso   1.000  H
  C291     1.0000 0.15322  0.97241  0.37073  Biso   1.000  C
  C292     1.0000 0.15316  0.97241  0.37073  Biso   1.000  C
  C293     1.0000 0.16541  0.05459  0.33282  Biso   1.000  C
  C294     1.0000 0.16535  0.05459  0.33282  Biso   1.000  C
  H233     1.0000 0.20541  0.97508  0.38789  Biso   1.000  H
  H234     1.0000 0.14387  0.94020  0.35830  Biso   1.000  H
  H235     1.0000 0.11472  0.98151  0.40113  Biso   1.000  H
  H236     1.0000 0.20535  0.97508  0.38789  Biso   1.000  H
  H237     1.0000 0.11467  0.98151  0.40113  Biso   1.000  H
  H238     1.0000 0.21627  0.05550  0.35261  Biso   1.000  H
  H239     1.0000 0.12570  0.06620  0.36061  Biso   1.000  H
  H240     1.0000 0.16657  0.07398  0.29650  Biso   1.000  H
  C295     1.0000 0.13470  0.43469  0.38202  Biso   1.000  C
  C296     1.0000 0.06700  0.40289  0.36941  Biso   1.000  C
  H241     1.0000 0.12001  0.46680  0.37271  Biso   1.000  H
  H242     1.0000 0.17888  0.42558  0.35681  Biso   1.000  H
  H243     1.0000 0.14921  0.43239  0.42471  Biso   1.000  H
  H244     1.0000 0.14915  0.43239  0.42471  Biso   1.000  H
  C297     1.0000 0.09301  0.35299  0.38572  Biso   1.000  C
  C298     1.0000 0.99350  0.41498  0.40569  Biso   1.000  C
  C299     1.0000 0.03791  0.40470  0.30612  Biso   1.000  C
  C300     1.0000 0.03785  0.40470  0.30612  Biso   1.000  C
  H245     1.0000 0.14027  0.34531  0.36332  Biso   1.000  H
  H246     1.0000 0.05179  0.33099  0.37502  Biso   1.000  H
  H247     1.0000 0.10329  0.35118  0.42923  Biso   1.000  H
  C301     1.0000 0.92301  0.40470  0.36399  Biso   1.000  C
  H248     1.0000 0.99059  0.39618  0.44369  Biso   1.000  H
  O34      1.0000 0.98618  0.46482  0.41870  Biso   1.000  O
  C302     1.0000 0.92296  0.40470  0.36399  Biso   1.000  C
  C303     1.0000 0.95582  0.40459  0.30282  Biso   1.000  C
  C304     1.0000 0.95576  0.40459  0.30282  Biso   1.000  C
  C305     1.0000 0.08053  0.40491  0.25191  Biso   1.000  C
  C306     1.0000 0.08047  0.40491  0.25191  Biso   1.000  C
  H249     1.0000 0.89729  0.37460  0.37420  Biso   1.000  H
  O35      1.0000 0.87041  0.44501  0.37353  Biso   1.000  O
  B16      1.0000 0.91338  0.47750  0.40163  Biso   1.000  B
  C307     1.0000 0.91947  0.40491  0.24811  Biso   1.000  C
  C308     1.0000 0.04418  0.40459  0.19720  Biso   1.000  C
  H250     1.0000 0.13528  0.40300  0.25503  Biso   1.000  H
  C309     1.0000 0.88330  0.52820  0.41410  Biso   1.000  C
  H251     1.0000 0.86472  0.40300  0.24500  Biso   1.000  H
  C310     1.0000 0.96209  0.40470  0.19390  Biso   1.000  C
  H252     1.0000 0.86467  0.40300  0.24500  Biso   1.000  H
  C311     1.0000 0.07699  0.40470  0.13598  Biso   1.000  C
  C312     1.0000 0.80219  0.53859  0.41780  Biso   1.000  C
  C313     1.0000 0.93497  0.56451  0.42290  Biso   1.000  C
  C314     1.0000 0.93300  0.40289  0.13061  Biso   1.000  C
  H253     1.0000 0.10271  0.37460  0.12582  Biso   1.000  H
  C315     1.0000 0.00650  0.41498  0.09429  Biso   1.000  C
  O36      1.0000 0.12959  0.44501  0.12650  Biso   1.000  O
  C316     1.0000 0.77433  0.58171  0.43009  Biso   1.000  C
  H254     1.0000 0.76608  0.51420  0.41129  Biso   1.000  H
  C317     1.0000 0.77427  0.58171  0.43009  Biso   1.000  C
  H255     1.0000 0.98920  0.55861  0.42150  Biso   1.000  H
  C318     1.0000 0.90891  0.60990  0.43402  Biso   1.000  C
  C319     1.0000 0.90699  0.35299  0.11430  Biso   1.000  C
  C320     1.0000 0.86530  0.43469  0.11800  Biso   1.000  C
  H256     1.0000 0.00941  0.39618  0.05629  Biso   1.000  H
  O37      1.0000 0.01382  0.46482  0.08132  Biso   1.000  O
  O38      1.0000 0.01376  0.46482  0.08132  Biso   1.000  O
  B17      1.0000 0.08662  0.47750  0.09840  Biso   1.000  B
  B18      1.0000 0.08657  0.47750  0.09840  Biso   1.000  B
  C321     1.0000 0.82623  0.61911  0.43840  Biso   1.000  C
  H257     1.0000 0.71993  0.58661  0.43311  Biso   1.000  H
  C322     1.0000 0.82617  0.61911  0.43840  Biso   1.000  C
  H258     1.0000 0.71987  0.58661  0.43311  Biso   1.000  H
  S13      1.0000 0.96220  0.65962  0.44251  Biso   1.000  S
  H259     1.0000 0.85973  0.34531  0.13671  Biso   1.000  H
  H260     1.0000 0.94821  0.33099  0.12501  Biso   1.000  H
  H261     1.0000 0.89671  0.35118  0.07079  Biso   1.000  H
  H262     1.0000 0.85967  0.34531  0.13671  Biso   1.000  H
  H263     1.0000 0.89666  0.35118  0.07079  Biso   1.000  H
  H264     1.0000 0.87999  0.46680  0.12731  Biso   1.000  H
  H265     1.0000 0.82112  0.42558  0.14321  Biso   1.000  H
  H266     1.0000 0.85079  0.43239  0.07531  Biso   1.000  H
  H267     1.0000 0.82106  0.42558  0.14321  Biso   1.000  H
  C323     1.0000 0.11670  0.52820  0.08588  Biso   1.000  C
  C324     1.0000 0.81421  0.66779  0.45082  Biso   1.000  C
  C325     1.0000 0.87999  0.69340  0.45399  Biso   1.000  C
  C326     1.0000 0.19781  0.53859  0.08222  Biso   1.000  C
  C327     1.0000 0.06503  0.56451  0.07712  Biso   1.000  C
  C328     1.0000 0.06497  0.56451  0.07712  Biso   1.000  C
  C329     1.0000 0.73618  0.68829  0.46329  Biso   1.000  C
  C330     1.0000 0.89033  0.74299  0.46722  Biso   1.000  C
  C331     1.0000 0.89027  0.74299  0.46722  Biso   1.000  C
  C332     1.0000 0.22567  0.58171  0.06989  Biso   1.000  C
  H268     1.0000 0.23392  0.51420  0.08868  Biso   1.000  H
  H269     1.0000 0.23386  0.51420  0.08868  Biso   1.000  H
  H270     1.0000 0.01080  0.55861  0.07852  Biso   1.000  H
  C333     1.0000 0.09109  0.60990  0.06600  Biso   1.000  C
  C334     1.0000 0.69519  0.67849  0.51900  Biso   1.000  C
  C335     1.0000 0.69781  0.72009  0.42991  Biso   1.000  C
  H271     1.0000 0.94577  0.75060  0.46682  Biso   1.000  H
  H272     1.0000 0.86861  0.75001  0.50712  Biso   1.000  H
  H273     1.0000 0.86350  0.76151  0.43641  Biso   1.000  H
  C336     1.0000 0.17377  0.61911  0.06162  Biso   1.000  C
  H274     1.0000 0.28007  0.58661  0.06691  Biso   1.000  H
  S14      1.0000 0.03780  0.65962  0.05751  Biso   1.000  S
  C337     1.0000 0.61722  0.70549  0.51461  Biso   1.000  C
  F52      1.0000 0.73072  0.69549  0.56801  Biso   1.000  F
  F53      1.0000 0.68329  0.63259  0.53232  Biso   1.000  F
  C338     1.0000 0.61716  0.70549  0.51461  Biso   1.000  C
  F54      1.0000 0.73067  0.69549  0.56801  Biso   1.000  F
  C339     1.0000 0.62308  0.73249  0.46122  Biso   1.000  C
  C340     1.0000 0.71969  0.73840  0.37140  Biso   1.000  C
  C341     1.0000 0.18579  0.66779  0.04920  Biso   1.000  C
  C342     1.0000 0.12001  0.69340  0.04599  Biso   1.000  C
  F55      1.0000 0.58511  0.71859  0.55979  Biso   1.000  F
  F56      1.0000 0.56259  0.66831  0.49731  Biso   1.000  F
  F57      1.0000 0.62779  0.77882  0.48389  Biso   1.000  F
  F58      1.0000 0.56433  0.73461  0.42580  Biso   1.000  F
  F59      1.0000 0.56427  0.73461  0.42580  Biso   1.000  F
  C343     1.0000 0.71702  0.71429  0.31760  Biso   1.000  C
  C344     1.0000 0.74019  0.78761  0.35970  Biso   1.000  C
  C345     1.0000 0.71696  0.71429  0.31760  Biso   1.000  C
  C346     1.0000 0.26382  0.68829  0.03668  Biso   1.000  C
  C347     1.0000 0.26376  0.68829  0.03668  Biso   1.000  C
  C348     1.0000 0.10967  0.74299  0.03280  Biso   1.000  C
  C349     1.0000 0.69920  0.66359  0.31123  Biso   1.000  C
  S15      1.0000 0.74071  0.74660  0.25588  Biso   1.000  S
  C350     1.0000 0.74762  0.82340  0.40099  Biso   1.000  C
  C351     1.0000 0.75343  0.79650  0.29980  Biso   1.000  C
  C352     1.0000 0.74756  0.82340  0.40099  Biso   1.000  C
  C353     1.0000 0.75337  0.79650  0.29980  Biso   1.000  C
  C354     1.0000 0.30219  0.72009  0.07012  Biso   1.000  C
  C355     1.0000 0.30481  0.67849  0.98098  Biso   1.000  C
  C356     1.0000 0.30475  0.67849  0.98098  Biso   1.000  C
  H275     1.0000 0.13650  0.76151  0.06361  Biso   1.000  H
  H276     1.0000 0.13139  0.75001  0.99291  Biso   1.000  H
  H277     1.0000 0.05423  0.75060  0.03321  Biso   1.000  H
  H278     1.0000 0.05417  0.75060  0.03321  Biso   1.000  H
  H279     1.0000 0.70239  0.65469  0.26862  Biso   1.000  H
  H280     1.0000 0.64671  0.65750  0.32632  Biso   1.000  H
  H281     1.0000 0.73682  0.64552  0.33463  Biso   1.000  H
  H282     1.0000 0.73676  0.64552  0.33463  Biso   1.000  H
  H283     1.0000 0.73653  0.81808  0.44242  Biso   1.000  H
  C357     1.0000 0.77160  0.86750  0.38152  Biso   1.000  C
  H284     1.0000 0.73647  0.81808  0.44242  Biso   1.000  H
  C358     1.0000 0.77340  0.84060  0.27902  Biso   1.000  C
  C359     1.0000 0.28031  0.73840  0.12862  Biso   1.000  C
  C360     1.0000 0.37692  0.73249  0.03881  Biso   1.000  C
  C361     1.0000 0.37686  0.73249  0.03881  Biso   1.000  C
  C362     1.0000 0.38278  0.70549  0.98541  Biso   1.000  C
  F60      1.0000 0.26928  0.69549  0.93201  Biso   1.000  F
  F61      1.0000 0.31671  0.63259  0.96770  Biso   1.000  F
  F62      1.0000 0.31665  0.63259  0.96770  Biso   1.000  F
  H285     1.0000 0.77990  0.89151  0.41030  Biso   1.000  H
  C363     1.0000 0.78321  0.87629  0.32071  Biso   1.000  C
  H286     1.0000 0.78019  0.84620  0.23700  Biso   1.000  H
  C364     1.0000 0.28298  0.71429  0.18238  Biso   1.000  C
  C365     1.0000 0.25981  0.78761  0.14032  Biso   1.000  C
  C366     1.0000 0.25975  0.78761  0.14032  Biso   1.000  C
  F63      1.0000 0.43567  0.73461  0.07418  Biso   1.000  F
  F64      1.0000 0.37221  0.77882  0.01608  Biso   1.000  F
  F65      1.0000 0.37216  0.77882  0.01608  Biso   1.000  F
  F66      1.0000 0.41489  0.71859  0.94019  Biso   1.000  F
  F67      1.0000 0.43741  0.66831  0.00271  Biso   1.000  F
  F68      1.0000 0.43735  0.66831  0.00271  Biso   1.000  F
  B19      1.0000 0.79981  0.92720  0.29831  Biso   1.000  B
  C367     1.0000 0.30080  0.66359  0.18880  Biso   1.000  C
  S16      1.0000 0.25929  0.74660  0.24409  Biso   1.000  S
  C368     1.0000 0.25238  0.82340  0.09898  Biso   1.000  C
  C369     1.0000 0.24657  0.79650  0.20023  Biso   1.000  C
  O39      1.0000 0.78733  0.94099  0.23998  Biso   1.000  O
  O40      1.0000 0.82803  0.96101  0.33400  Biso   1.000  O
  O41      1.0000 0.78727  0.94099  0.23998  Biso   1.000  O
  O42      1.0000 0.82797  0.96101  0.33400  Biso   1.000  O
  H287     1.0000 0.35329  0.65750  0.17371  Biso   1.000  H
  H288     1.0000 0.26318  0.64552  0.16539  Biso   1.000  H
  H289     1.0000 0.29761  0.65469  0.23140  Biso   1.000  H
  H290     1.0000 0.29755  0.65469  0.23140  Biso   1.000  H
  H291     1.0000 0.26347  0.81808  0.05760  Biso   1.000  H
  C370     1.0000 0.22840  0.86750  0.11850  Biso   1.000  C
  C371     1.0000 0.22660  0.84060  0.22101  Biso   1.000  C
  C372     1.0000 0.79970  0.99079  0.23732  Biso   1.000  C
  C373     1.0000 0.84371  0.00031  0.29600  Biso   1.000  C
  H292     1.0000 0.22010  0.89151  0.08972  Biso   1.000  H
  C374     1.0000 0.21679  0.87629  0.17931  Biso   1.000  C
  H293     1.0000 0.21981  0.84620  0.26302  Biso   1.000  H
  H294     1.0000 0.21975  0.84620  0.26302  Biso   1.000  H
  H295     1.0000 0.74948  0.00810  0.23583  Biso   1.000  H
  C375     1.0000 0.85369  0.00459  0.18482  Biso   1.000  C
  C376     1.0000 0.92748  0.00288  0.27689  Biso   1.000  C
  H296     1.0000 0.82623  0.02988  0.31529  Biso   1.000  H
  H297     1.0000 0.82617  0.02988  0.31529  Biso   1.000  H
  B20      1.0000 0.20019  0.92720  0.20172  Biso   1.000  B
  C377     1.0000 0.84678  0.97241  0.12930  Biso   1.000  C
  C378     1.0000 0.93370  0.00351  0.21482  Biso   1.000  C
  C379     1.0000 0.83459  0.05459  0.16720  Biso   1.000  C
  C380     1.0000 0.99408  0.00400  0.31290  Biso   1.000  C
  O43      1.0000 0.21267  0.94099  0.26000  Biso   1.000  O
  O44      1.0000 0.17197  0.96101  0.16598  Biso   1.000  O
  H298     1.0000 0.79459  0.97508  0.11208  Biso   1.000  H
  H299     1.0000 0.85613  0.94020  0.14172  Biso   1.000  H
  H300     1.0000 0.88528  0.98151  0.09889  Biso   1.000  H
  H301     1.0000 0.85607  0.94020  0.14172  Biso   1.000  H
  C381     1.0000 0.00592  0.00400  0.18712  Biso   1.000  C
  C382     1.0000 0.00586  0.00400  0.18712  Biso   1.000  C
  H302     1.0000 0.78373  0.05550  0.14741  Biso   1.000  H
  H303     1.0000 0.87430  0.06620  0.13942  Biso   1.000  H
  H304     1.0000 0.83343  0.07398  0.20352  Biso   1.000  H
  H305     1.0000 0.78367  0.05550  0.14741  Biso   1.000  H
  H306     1.0000 0.83337  0.07398  0.20352  Biso   1.000  H
  H307     1.0000 0.99001  0.00601  0.35518  Biso   1.000  H
  H308     1.0000 0.98996  0.00601  0.35518  Biso   1.000  H
  C383     1.0000 0.06630  0.00351  0.28520  Biso   1.000  C
  C384     1.0000 0.20030  0.99079  0.26271  Biso   1.000  C
  C385     1.0000 0.15629  0.00031  0.20402  Biso   1.000  C
  H309     1.0000 0.00999  0.00601  0.14479  Biso   1.000  H
  C386     1.0000 0.07252  0.00288  0.22309  Biso   1.000  C
  C387     1.0000 0.07246  0.00288  0.22309  Biso   1.000  C
  C388     1.0000 0.14631  0.00459  0.31520  Biso   1.000  C
  H310     1.0000 0.25052  0.00810  0.26420  Biso   1.000  H
  H311     1.0000 0.25046  0.00810  0.26420  Biso   1.000  H
  H312     1.0000 0.17377  0.02988  0.18468  Biso   1.000  H
  C389     1.0000 0.15322  0.97241  0.37073  Biso   1.000  C
  C390     1.0000 0.15316  0.97241  0.37073  Biso   1.000  C
  C391     1.0000 0.16541  0.05459  0.33282  Biso   1.000  C
  C392     1.0000 0.16535  0.05459  0.33282  Biso   1.000  C
  H313     1.0000 0.14387  0.94020  0.35830  Biso   1.000  H
  H314     1.0000 0.20541  0.97508  0.38789  Biso   1.000  H
  H315     1.0000 0.11472  0.98151  0.40113  Biso   1.000  H
  H316     1.0000 0.20535  0.97508  0.38789  Biso   1.000  H
  H317     1.0000 0.11467  0.98151  0.40113  Biso   1.000  H
  H318     1.0000 0.21627  0.05550  0.35261  Biso   1.000  H
  H319     1.0000 0.12570  0.06620  0.36061  Biso   1.000  H
  H320     1.0000 0.16657  0.07398  0.29650  Biso   1.000  H
  C393     1.0000 0.34678  0.47239  0.37073  Biso   1.000  C
  C394     1.0000 0.35369  0.50460  0.31520  Biso   1.000  C
  H321     1.0000 0.29459  0.47510  0.38789  Biso   1.000  H
  H322     1.0000 0.35607  0.44021  0.35830  Biso   1.000  H
  H323     1.0000 0.38528  0.48150  0.40113  Biso   1.000  H
  C395     1.0000 0.29970  0.49081  0.26271  Biso   1.000  C
  C396     1.0000 0.43370  0.50349  0.28520  Biso   1.000  C
  C397     1.0000 0.33459  0.55461  0.33282  Biso   1.000  C
  O45      1.0000 0.28727  0.44101  0.26000  Biso   1.000  O
  C398     1.0000 0.34371  0.50030  0.20402  Biso   1.000  C
  H324     1.0000 0.24948  0.50811  0.26420  Biso   1.000  H
  C399     1.0000 0.42748  0.50290  0.22309  Biso   1.000  C
  C400     1.0000 0.50586  0.50401  0.31290  Biso   1.000  C
  H325     1.0000 0.28367  0.55551  0.35261  Biso   1.000  H
  H326     1.0000 0.37430  0.56622  0.36061  Biso   1.000  H
  H327     1.0000 0.33337  0.57400  0.29650  Biso   1.000  H
  B21      1.0000 0.29981  0.42722  0.20172  Biso   1.000  B
  O46      1.0000 0.32797  0.46099  0.16598  Biso   1.000  O
  H328     1.0000 0.32617  0.52990  0.18468  Biso   1.000  H
  C401     1.0000 0.49408  0.50401  0.18712  Biso   1.000  C
  H329     1.0000 0.50999  0.50599  0.35518  Biso   1.000  H
  C402     1.0000 0.57252  0.50290  0.27689  Biso   1.000  C
  C403     1.0000 0.28321  0.37631  0.17931  Biso   1.000  C
  C404     1.0000 0.56630  0.50349  0.21482  Biso   1.000  C
  H330     1.0000 0.49001  0.50599  0.14479  Biso   1.000  H
  C405     1.0000 0.65629  0.50030  0.29600  Biso   1.000  C
  C406     1.0000 0.27340  0.34058  0.22101  Biso   1.000  C
  C407     1.0000 0.27160  0.36752  0.11850  Biso   1.000  C
  C408     1.0000 0.64631  0.50460  0.18482  Biso   1.000  C
  C409     1.0000 0.70030  0.49081  0.23732  Biso   1.000  C
  H331     1.0000 0.67377  0.52990  0.31529  Biso   1.000  H
  O47      1.0000 0.67197  0.46099  0.33400  Biso   1.000  O
  C410     1.0000 0.25337  0.29649  0.20023  Biso   1.000  C
  H332     1.0000 0.28019  0.34621  0.26302  Biso   1.000  H
  C411     1.0000 0.24762  0.32338  0.09898  Biso   1.000  C
  H333     1.0000 0.27990  0.39149  0.08972  Biso   1.000  H
  C412     1.0000 0.65322  0.47239  0.12930  Biso   1.000  C
  C413     1.0000 0.66541  0.55461  0.16720  Biso   1.000  C
  H334     1.0000 0.75046  0.50811  0.23583  Biso   1.000  H
  O48      1.0000 0.71267  0.44101  0.23998  Biso   1.000  O
  B22      1.0000 0.70019  0.42722  0.29831  Biso   1.000  B
  S17      1.0000 0.24071  0.24662  0.24409  Biso   1.000  S
  C414     1.0000 0.24019  0.28759  0.14032  Biso   1.000  C
  H335     1.0000 0.23647  0.31810  0.05760  Biso   1.000  H
  H336     1.0000 0.70541  0.47510  0.11208  Biso   1.000  H
  H337     1.0000 0.64387  0.44021  0.14172  Biso   1.000  H
  H338     1.0000 0.61467  0.48150  0.09889  Biso   1.000  H
  H339     1.0000 0.71627  0.55551  0.14741  Biso   1.000  H
  H340     1.0000 0.62570  0.56622  0.13942  Biso   1.000  H
  H341     1.0000 0.66657  0.57400  0.20352  Biso   1.000  H
  C415     1.0000 0.71679  0.37631  0.32071  Biso   1.000  C
  C416     1.0000 0.21702  0.21430  0.18238  Biso   1.000  C
  C417     1.0000 0.21969  0.23838  0.12862  Biso   1.000  C
  C418     1.0000 0.72840  0.36752  0.38152  Biso   1.000  C
  C419     1.0000 0.72660  0.34058  0.27902  Biso   1.000  C
  C420     1.0000 0.19920  0.16360  0.18880  Biso   1.000  C
  C421     1.0000 0.19781  0.22011  0.07012  Biso   1.000  C
  C422     1.0000 0.75238  0.32338  0.40099  Biso   1.000  C
  H342     1.0000 0.72010  0.39149  0.41030  Biso   1.000  H
  H343     1.0000 0.71981  0.34621  0.23700  Biso   1.000  H
  C423     1.0000 0.74657  0.29649  0.29980  Biso   1.000  C
  H344     1.0000 0.20239  0.15471  0.23140  Biso   1.000  H
  H345     1.0000 0.14671  0.15749  0.17371  Biso   1.000  H
  H346     1.0000 0.23682  0.14550  0.16539  Biso   1.000  H
  C424     1.0000 0.23618  0.18831  0.03668  Biso   1.000  C
  C425     1.0000 0.12308  0.23251  0.03881  Biso   1.000  C
  C426     1.0000 0.75981  0.28759  0.35970  Biso   1.000  C
  H347     1.0000 0.76347  0.31810  0.44242  Biso   1.000  H
  S18      1.0000 0.75929  0.24662  0.25588  Biso   1.000  S
  C427     1.0000 0.31421  0.16781  0.04920  Biso   1.000  C
  C428     1.0000 0.19519  0.17851  0.98098  Biso   1.000  C
  F69      1.0000 0.12779  0.27880  0.01608  Biso   1.000  F
  F70      1.0000 0.06427  0.23460  0.07418  Biso   1.000  F
  C429     1.0000 0.11722  0.20551  0.98541  Biso   1.000  C
  C430     1.0000 0.78031  0.23838  0.37140  Biso   1.000  C
  C431     1.0000 0.78298  0.21430  0.31760  Biso   1.000  C
  C432     1.0000 0.37999  0.19338  0.04599  Biso   1.000  C
  C433     1.0000 0.32617  0.11909  0.06162  Biso   1.000  C
  F71      1.0000 0.23072  0.19550  0.93201  Biso   1.000  F
  F72      1.0000 0.18329  0.13261  0.96770  Biso   1.000  F
  F73      1.0000 0.06259  0.16829  0.00271  Biso   1.000  F
  F74      1.0000 0.08511  0.21861  0.94019  Biso   1.000  F
  C434     1.0000 0.80219  0.22011  0.42991  Biso   1.000  C
  C435     1.0000 0.80080  0.16360  0.31123  Biso   1.000  C
  C436     1.0000 0.39027  0.24301  0.03280  Biso   1.000  C
  S19      1.0000 0.46220  0.15961  0.05751  Biso   1.000  S
  C437     1.0000 0.27427  0.08170  0.06989  Biso   1.000  C
  C438     1.0000 0.40891  0.10991  0.06600  Biso   1.000  C
  C439     1.0000 0.76376  0.18831  0.46329  Biso   1.000  C
  C440     1.0000 0.87686  0.23251  0.46122  Biso   1.000  C
  H348     1.0000 0.79761  0.15471  0.26862  Biso   1.000  H
  H349     1.0000 0.85329  0.15749  0.32632  Biso   1.000  H
  H350     1.0000 0.76318  0.14550  0.33463  Biso   1.000  H
  H351     1.0000 0.44577  0.25062  0.03321  Biso   1.000  H
  H352     1.0000 0.36350  0.26149  0.06361  Biso   1.000  H
  H353     1.0000 0.36861  0.24999  0.99291  Biso   1.000  H
  H354     1.0000 0.21987  0.08660  0.06691  Biso   1.000  H
  C441     1.0000 0.30219  0.03861  0.08222  Biso   1.000  C
  C442     1.0000 0.43497  0.06450  0.07712  Biso   1.000  C
  C443     1.0000 0.68579  0.16781  0.45082  Biso   1.000  C
  C444     1.0000 0.80481  0.17851  0.51900  Biso   1.000  C
  C445     1.0000 0.88278  0.20551  0.51461  Biso   1.000  C
  F75      1.0000 0.87221  0.27880  0.48389  Biso   1.000  F
  F76      1.0000 0.93567  0.23460  0.42580  Biso   1.000  F
  H355     1.0000 0.26608  0.01421  0.08868  Biso   1.000  H
  C446     1.0000 0.38330  0.02822  0.08588  Biso   1.000  C
  H356     1.0000 0.48920  0.05859  0.07852  Biso   1.000  H
  C447     1.0000 0.62001  0.19338  0.45399  Biso   1.000  C
  C448     1.0000 0.67377  0.11909  0.43840  Biso   1.000  C
  F77      1.0000 0.76928  0.19550  0.56801  Biso   1.000  F
  F78      1.0000 0.81671  0.13261  0.53232  Biso   1.000  F
  F79      1.0000 0.91489  0.21861  0.55979  Biso   1.000  F
  F80      1.0000 0.93735  0.16829  0.49731  Biso   1.000  F
  B23      1.0000 0.41338  0.97752  0.09840  Biso   1.000  B
  S20      1.0000 0.53780  0.15961  0.44251  Biso   1.000  S
  C449     1.0000 0.60967  0.24301  0.46722  Biso   1.000  C
  C450     1.0000 0.72567  0.08170  0.43009  Biso   1.000  C
  C451     1.0000 0.59109  0.10991  0.43402  Biso   1.000  C
  O49      1.0000 0.37041  0.94499  0.12650  Biso   1.000  O
  O50      1.0000 0.48618  0.96480  0.08132  Biso   1.000  O
  H357     1.0000 0.55417  0.25062  0.46682  Biso   1.000  H
  H358     1.0000 0.63139  0.24999  0.50712  Biso   1.000  H
  H359     1.0000 0.63650  0.26149  0.43641  Biso   1.000  H
  C452     1.0000 0.69781  0.03861  0.41780  Biso   1.000  C
  H360     1.0000 0.78007  0.08660  0.43311  Biso   1.000  H
  C453     1.0000 0.56497  0.06450  0.42290  Biso   1.000  C
  C454     1.0000 0.42301  0.90472  0.13598  Biso   1.000  C
  C455     1.0000 0.49350  0.91500  0.09429  Biso   1.000  C
  C456     1.0000 0.61670  0.02822  0.41410  Biso   1.000  C
  H361     1.0000 0.73386  0.01421  0.41129  Biso   1.000  H
  H362     1.0000 0.51080  0.05859  0.42150  Biso   1.000  H
  H363     1.0000 0.39729  0.87459  0.12582  Biso   1.000  H
  C457     1.0000 0.45582  0.90461  0.19720  Biso   1.000  C
  C458     1.0000 0.56700  0.90291  0.13061  Biso   1.000  C
  H364     1.0000 0.49059  0.89620  0.05629  Biso   1.000  H
  B24      1.0000 0.58657  0.97752  0.40163  Biso   1.000  B
  C459     1.0000 0.41947  0.90489  0.25191  Biso   1.000  C
  C460     1.0000 0.53791  0.90472  0.19390  Biso   1.000  C
  C461     1.0000 0.59301  0.85301  0.11430  Biso   1.000  C
  C462     1.0000 0.63470  0.93470  0.11800  Biso   1.000  C
  O51      1.0000 0.62959  0.94499  0.37353  Biso   1.000  O
  O52      1.0000 0.51382  0.96480  0.41870  Biso   1.000  O
  H365     1.0000 0.36467  0.90301  0.25503  Biso   1.000  H
  C463     1.0000 0.46209  0.90472  0.30612  Biso   1.000  C
  C464     1.0000 0.58047  0.90489  0.24811  Biso   1.000  C
  H366     1.0000 0.64027  0.84529  0.13671  Biso   1.000  H
  H367     1.0000 0.55179  0.83101  0.12501  Biso   1.000  H
  H368     1.0000 0.60329  0.85120  0.07079  Biso   1.000  H
  H369     1.0000 0.62001  0.96681  0.12731  Biso   1.000  H
  H370     1.0000 0.67888  0.92560  0.14321  Biso   1.000  H
  H371     1.0000 0.64921  0.93241  0.07531  Biso   1.000  H
  C465     1.0000 0.57699  0.90472  0.36399  Biso   1.000  C
  C466     1.0000 0.50650  0.91500  0.40569  Biso   1.000  C
  C467     1.0000 0.54418  0.90461  0.30282  Biso   1.000  C
  C468     1.0000 0.43300  0.90291  0.36941  Biso   1.000  C
  H372     1.0000 0.63528  0.90301  0.24500  Biso   1.000  H
  H373     1.0000 0.60271  0.87459  0.37420  Biso   1.000  H
  H374     1.0000 0.50941  0.89620  0.44369  Biso   1.000  H
  C469     1.0000 0.40699  0.85301  0.38572  Biso   1.000  C
  C470     1.0000 0.36530  0.93470  0.38202  Biso   1.000  C
  H375     1.0000 0.35967  0.84529  0.36332  Biso   1.000  H
  H376     1.0000 0.44821  0.83101  0.37502  Biso   1.000  H
  H377     1.0000 0.39671  0.85120  0.42923  Biso   1.000  H
  H378     1.0000 0.37999  0.96681  0.37271  Biso   1.000  H
  H379     1.0000 0.32112  0.92560  0.35681  Biso   1.000  H
  H380     1.0000 0.35079  0.93241  0.42471  Biso   1.000  H
  O53      1.0000 0.32797  0.53901  0.66600  Biso   1.000  O
  C471     1.0000 0.34371  0.49970  0.70400  Biso   1.000  C
  B25      1.0000 0.29981  0.57278  0.70169  Biso   1.000  B
  C472     1.0000 0.29970  0.50919  0.76273  Biso   1.000  C
  C473     1.0000 0.42748  0.49710  0.72311  Biso   1.000  C
  H381     1.0000 0.32617  0.47010  0.68471  Biso   1.000  H
  O54      1.0000 0.28727  0.55899  0.76002  Biso   1.000  O
  C474     1.0000 0.28321  0.62369  0.67933  Biso   1.000  C
  H382     1.0000 0.24948  0.49189  0.76422  Biso   1.000  H
  C475     1.0000 0.35369  0.49540  0.81522  Biso   1.000  C
  C476     1.0000 0.49408  0.49599  0.68710  Biso   1.000  C
  C477     1.0000 0.43370  0.49651  0.78523  Biso   1.000  C
  C478     1.0000 0.27160  0.63248  0.61852  Biso   1.000  C
  C479     1.0000 0.27340  0.65942  0.72103  Biso   1.000  C
  C480     1.0000 0.34678  0.52761  0.87070  Biso   1.000  C
  C481     1.0000 0.33459  0.44539  0.83280  Biso   1.000  C
  C482     1.0000 0.56630  0.49651  0.71480  Biso   1.000  C
  H383     1.0000 0.49001  0.49401  0.64482  Biso   1.000  H
  C483     1.0000 0.50586  0.49599  0.81292  Biso   1.000  C
  C484     1.0000 0.24762  0.67662  0.59901  Biso   1.000  C
  H384     1.0000 0.27990  0.60851  0.58970  Biso   1.000  H
  H385     1.0000 0.28019  0.65379  0.76300  Biso   1.000  H
  C485     1.0000 0.25337  0.70351  0.70020  Biso   1.000  C
  H386     1.0000 0.29459  0.52490  0.88792  Biso   1.000  H
  H387     1.0000 0.35607  0.55979  0.85832  Biso   1.000  H
  H388     1.0000 0.38528  0.51850  0.90111  Biso   1.000  H
  H389     1.0000 0.28367  0.44449  0.85263  Biso   1.000  H
  H390     1.0000 0.37430  0.43378  0.86063  Biso   1.000  H
  H391     1.0000 0.33337  0.42600  0.79652  Biso   1.000  H
  C486     1.0000 0.64631  0.49540  0.68480  Biso   1.000  C
  C487     1.0000 0.57252  0.49710  0.77691  Biso   1.000  C
  H392     1.0000 0.50999  0.49401  0.85521  Biso   1.000  H
  C488     1.0000 0.24019  0.71241  0.64030  Biso   1.000  C
  H393     1.0000 0.23647  0.68190  0.55762  Biso   1.000  H
  S21      1.0000 0.24071  0.75338  0.74412  Biso   1.000  S
  C489     1.0000 0.70030  0.50919  0.73729  Biso   1.000  C
  C490     1.0000 0.65322  0.52761  0.62932  Biso   1.000  C
  C491     1.0000 0.66541  0.44539  0.66722  Biso   1.000  C
  C492     1.0000 0.65629  0.49970  0.79602  Biso   1.000  C
  C493     1.0000 0.21969  0.76162  0.62860  Biso   1.000  C
  C494     1.0000 0.21702  0.78570  0.68240  Biso   1.000  C
  H394     1.0000 0.75046  0.49189  0.73580  Biso   1.000  H
  O55      1.0000 0.71267  0.55899  0.74000  Biso   1.000  O
  H395     1.0000 0.70541  0.52490  0.61211  Biso   1.000  H
  H396     1.0000 0.64387  0.55979  0.64170  Biso   1.000  H
  H397     1.0000 0.61467  0.51850  0.59892  Biso   1.000  H
  H398     1.0000 0.71627  0.44449  0.64739  Biso   1.000  H
  H399     1.0000 0.62570  0.43378  0.63939  Biso   1.000  H
  H400     1.0000 0.66657  0.42600  0.70350  Biso   1.000  H
  H401     1.0000 0.67377  0.47010  0.81532  Biso   1.000  H
  O56      1.0000 0.67197  0.53901  0.83402  Biso   1.000  O
  C495     1.0000 0.19781  0.77989  0.57009  Biso   1.000  C
  C496     1.0000 0.19920  0.83640  0.68882  Biso   1.000  C
  B26      1.0000 0.70019  0.57278  0.79833  Biso   1.000  B
  C497     1.0000 0.23618  0.81169  0.53671  Biso   1.000  C
  C498     1.0000 0.12308  0.76749  0.53883  Biso   1.000  C
  H402     1.0000 0.20239  0.84529  0.73142  Biso   1.000  H
  H403     1.0000 0.14671  0.84251  0.67373  Biso   1.000  H
  H404     1.0000 0.23682  0.85450  0.66542  Biso   1.000  H
  C499     1.0000 0.71679  0.62369  0.82074  Biso   1.000  C
  C500     1.0000 0.31421  0.83219  0.54922  Biso   1.000  C
  C501     1.0000 0.19519  0.82149  0.48100  Biso   1.000  C
  C502     1.0000 0.11722  0.79449  0.48543  Biso   1.000  C
  F81      1.0000 0.12779  0.72120  0.51611  Biso   1.000  F
  F82      1.0000 0.06427  0.76540  0.57420  Biso   1.000  F
  C503     1.0000 0.72840  0.63248  0.88150  Biso   1.000  C
  C504     1.0000 0.72660  0.65942  0.77899  Biso   1.000  C
  C505     1.0000 0.37999  0.80662  0.54601  Biso   1.000  C
  C506     1.0000 0.32617  0.88091  0.56160  Biso   1.000  C
  F83      1.0000 0.23072  0.80450  0.43199  Biso   1.000  F
  F84      1.0000 0.18329  0.86739  0.46772  Biso   1.000  F
  F85      1.0000 0.08511  0.78139  0.44021  Biso   1.000  F
  F86      1.0000 0.06259  0.83171  0.50269  Biso   1.000  F
  C507     1.0000 0.75238  0.67662  0.90102  Biso   1.000  C
  H405     1.0000 0.72010  0.60851  0.91032  Biso   1.000  H
  H406     1.0000 0.71981  0.65379  0.73702  Biso   1.000  H
  C508     1.0000 0.74657  0.70351  0.79982  Biso   1.000  C
  C509     1.0000 0.39027  0.75699  0.53282  Biso   1.000  C
  S22      1.0000 0.46220  0.84039  0.55749  Biso   1.000  S
  C510     1.0000 0.27427  0.91830  0.56991  Biso   1.000  C
  C511     1.0000 0.40891  0.89009  0.56603  Biso   1.000  C
  C512     1.0000 0.75981  0.71241  0.85972  Biso   1.000  C
  H407     1.0000 0.76347  0.68190  0.94240  Biso   1.000  H
  S23      1.0000 0.75929  0.75338  0.75591  Biso   1.000  S
  H408     1.0000 0.44577  0.74938  0.53323  Biso   1.000  H
  H409     1.0000 0.36861  0.75001  0.49293  Biso   1.000  H
  H410     1.0000 0.36350  0.73851  0.56363  Biso   1.000  H
  H411     1.0000 0.21987  0.91340  0.56693  Biso   1.000  H
  C513     1.0000 0.30219  0.96139  0.58220  Biso   1.000  C
  C514     1.0000 0.43497  0.93550  0.57710  Biso   1.000  C
  C515     1.0000 0.78031  0.76162  0.87143  Biso   1.000  C
  C516     1.0000 0.78298  0.78570  0.81762  Biso   1.000  C
  H412     1.0000 0.26608  0.98579  0.58871  Biso   1.000  H
  C517     1.0000 0.38330  0.97178  0.58590  Biso   1.000  C
  H413     1.0000 0.48920  0.94141  0.57850  Biso   1.000  H
  C518     1.0000 0.80219  0.77989  0.92993  Biso   1.000  C
  C519     1.0000 0.80080  0.83640  0.81120  Biso   1.000  C
  B27      1.0000 0.41338  0.02248  0.59842  Biso   1.000  B
  C520     1.0000 0.76376  0.81169  0.96332  Biso   1.000  C
  C521     1.0000 0.87686  0.76749  0.96124  Biso   1.000  C
  H414     1.0000 0.79761  0.84529  0.76860  Biso   1.000  H
  H415     1.0000 0.85329  0.84251  0.82629  Biso   1.000  H
  H416     1.0000 0.76318  0.85450  0.83461  Biso   1.000  H
  O57      1.0000 0.37041  0.05501  0.62652  Biso   1.000  O
  O58      1.0000 0.48618  0.03520  0.58130  Biso   1.000  O
  C522     1.0000 0.68579  0.83219  0.95080  Biso   1.000  C
  C523     1.0000 0.80481  0.82149  0.01902  Biso   1.000  C
  F87      1.0000 0.87221  0.72120  0.98392  Biso   1.000  F
  F88      1.0000 0.93567  0.76540  0.92582  Biso   1.000  F
  C524     1.0000 0.88278  0.79449  0.01464  Biso   1.000  C
  C525     1.0000 0.42301  0.09528  0.63601  Biso   1.000  C
  C526     1.0000 0.49350  0.08500  0.59431  Biso   1.000  C
  C527     1.0000 0.62001  0.80662  0.95401  Biso   1.000  C
  C528     1.0000 0.67377  0.88091  0.93842  Biso   1.000  C
  F89      1.0000 0.76928  0.80450  0.06804  Biso   1.000  F
  F90      1.0000 0.81671  0.86739  0.03230  Biso   1.000  F
  F91      1.0000 0.93735  0.83171  0.99733  Biso   1.000  F
  F92      1.0000 0.91489  0.78139  0.05981  Biso   1.000  F
  H417     1.0000 0.39729  0.12541  0.62580  Biso   1.000  H
  C529     1.0000 0.45582  0.09539  0.69722  Biso   1.000  C
  C530     1.0000 0.56700  0.09709  0.63063  Biso   1.000  C
  H418     1.0000 0.49059  0.10380  0.55631  Biso   1.000  H
  C531     1.0000 0.60967  0.75699  0.96720  Biso   1.000  C
  S24      1.0000 0.53780  0.84039  0.94253  Biso   1.000  S
  C532     1.0000 0.72567  0.91830  0.93011  Biso   1.000  C
  C533     1.0000 0.59109  0.89009  0.93400  Biso   1.000  C
  C534     1.0000 0.41947  0.09511  0.75193  Biso   1.000  C
  C535     1.0000 0.53791  0.09528  0.69392  Biso   1.000  C
  C536     1.0000 0.59301  0.14699  0.61432  Biso   1.000  C
  C537     1.0000 0.63470  0.06530  0.61803  Biso   1.000  C
  H419     1.0000 0.55417  0.74938  0.96684  Biso   1.000  H
  H420     1.0000 0.63650  0.73851  0.93644  Biso   1.000  H
  H421     1.0000 0.63139  0.75001  0.00714  Biso   1.000  H
  H422     1.0000 0.78007  0.91340  0.93314  Biso   1.000  H
  C538     1.0000 0.69781  0.96139  0.91782  Biso   1.000  C
  C539     1.0000 0.56497  0.93550  0.92293  Biso   1.000  C
  C540     1.0000 0.46209  0.09528  0.80610  Biso   1.000  C
  H423     1.0000 0.36467  0.09699  0.75500  Biso   1.000  H
  C541     1.0000 0.58047  0.09511  0.74809  Biso   1.000  C
  H424     1.0000 0.64027  0.15471  0.63673  Biso   1.000  H
  H425     1.0000 0.55179  0.16899  0.62503  Biso   1.000  H
  H426     1.0000 0.60329  0.14880  0.57082  Biso   1.000  H
  H427     1.0000 0.62001  0.03319  0.62733  Biso   1.000  H
  H428     1.0000 0.67888  0.07440  0.64319  Biso   1.000  H
  H429     1.0000 0.64921  0.06759  0.57529  Biso   1.000  H
  H430     1.0000 0.73386  0.98579  0.91132  Biso   1.000  H
  C542     1.0000 0.61670  0.97178  0.91412  Biso   1.000  C
  H431     1.0000 0.51080  0.94141  0.92153  Biso   1.000  H
  C543     1.0000 0.54418  0.09539  0.80280  Biso   1.000  C
  C544     1.0000 0.43300  0.09709  0.86944  Biso   1.000  C
  H432     1.0000 0.63528  0.09699  0.74502  Biso   1.000  H
  B28      1.0000 0.58657  0.02248  0.90160  Biso   1.000  B
  C545     1.0000 0.57699  0.09528  0.86402  Biso   1.000  C
  C546     1.0000 0.50650  0.08500  0.90571  Biso   1.000  C
  C547     1.0000 0.40699  0.14699  0.88570  Biso   1.000  C
  C548     1.0000 0.36530  0.06530  0.88200  Biso   1.000  C
  O59      1.0000 0.62959  0.05501  0.87350  Biso   1.000  O
  O60      1.0000 0.51382  0.03520  0.91873  Biso   1.000  O
  H433     1.0000 0.60271  0.12541  0.87423  Biso   1.000  H
  H434     1.0000 0.50941  0.10380  0.94371  Biso   1.000  H
  H435     1.0000 0.35967  0.15471  0.86329  Biso   1.000  H
  H436     1.0000 0.44821  0.16899  0.87499  Biso   1.000  H
  H437     1.0000 0.39671  0.14880  0.92921  Biso   1.000  H
  H438     1.0000 0.37999  0.03319  0.87274  Biso   1.000  H
  H439     1.0000 0.32112  0.07440  0.85683  Biso   1.000  H
  H440     1.0000 0.35079  0.06759  0.92473  Biso   1.000  H
  Ne1      1.0000 0.49999  0.20357  0.25000  Biso   1.000  Ne
  He1      1.0000 0.48633  0.30313  0.31466  Biso   1.000  He
  He2      1.0000 0.57212  0.12631  0.23687  Biso   1.000  He
  Ar1      1.0000 0.50001  0.21286  0.24988  Biso   1.000  Ar
  Ne2      1.0000 0.00120  0.70485  0.24875  Biso   1.000  Ne
  He3      1.0000 0.03646  0.82743  0.35025  Biso   1.000  He
  He4      1.0000 0.95763  0.82662  0.14565  Biso   1.000  He
  Ar2      1.0000 0.99949  0.71228  0.25005  Biso   1.000  Ar
  Ne3      1.0000 0.00120  0.70485  0.24875  Biso   1.000  Ne
  He5      1.0000 0.03646  0.82743  0.35025  Biso   1.000  He
  He6      1.0000 0.95763  0.82662  0.14565  Biso   1.000  He
  Ar3      1.0000 0.99949  0.71228  0.25005  Biso   1.000  Ar
  Ne4      1.0000 0.00120  0.29515  0.74876  Biso   1.000  Ne
  He7      1.0000 0.00000  0.00000  0.00000  Biso   1.000  He
  He8      1.0000 0.86847  0.41604  0.70458  Biso   1.000  He
  Ar4      1.0000 0.00040  0.28772  0.75003  Biso   1.000  Ar
  Ne5      1.0000 0.00120  0.29515  0.74876  Biso   1.000  Ne
  He9      1.0000 0.00000  0.00000  0.00000  Biso   1.000  He
  He10     1.0000 0.86847  0.41604  0.70458  Biso   1.000  He
  Ar5      1.0000 0.00039  0.28771  0.75004  Biso   1.000  Ar
  Ne6      1.0000 0.49999  0.79643  0.75001  Biso   1.000  Ne
  He11     1.0000 0.00000  0.00000  0.00000  Biso   1.000  He
  He12     1.0000 0.51206  0.70623  0.69296  Biso   1.000  He
  Ar6      1.0000 0.49996  0.78735  0.75003  Biso   1.000  Ar
