data_image0
_cell_length_a       30.374
_cell_length_b       30.374
_cell_length_c       25.851
_cell_angle_alpha    90
_cell_angle_beta     90
_cell_angle_gamma    120

_symmetry_space_group_name_H-M    "P 1"
_symmetry_int_tables_number       1

loop_
  _symmetry_equiv_pos_as_xyz
  'x, y, z'

loop_
  _atom_site_label
  _atom_site_occupancy
  _atom_site_fract_x
  _atom_site_fract_y
  _atom_site_fract_z
  _atom_site_thermal_displace_type
  _atom_site_B_iso_or_equiv
  _atom_site_type_symbol
  C1       1.0000 0.62045  0.66258  0.48192  Biso   1.000  C
  C2       1.0000 0.57103  0.61115  0.47248  Biso   1.000  C
  H1       1.0000 0.62348  0.67114  0.51882  Biso   1.000  H
  H2       1.0000 0.61928  0.68935  0.46184  Biso   1.000  H
  H3       1.0000 0.64987  0.65985  0.47105  Biso   1.000  H
  C3       1.0000 0.57291  0.57112  0.50768  Biso   1.000  C
  C4       1.0000 0.57060  0.59776  0.41495  Biso   1.000  C
  C5       1.0000 0.52410  0.61415  0.48598  Biso   1.000  C
  C6       1.0000 0.57877  0.53200  0.48621  Biso   1.000  C
  C7       1.0000 0.56909  0.57309  0.56006  Biso   1.000  C
  H4       1.0000 0.56478  0.62103  0.39364  Biso   1.000  H
  H5       1.0000 0.54338  0.56275  0.40884  Biso   1.000  H
  H6       1.0000 0.60347  0.60103  0.40575  Biso   1.000  H
  H7       1.0000 0.50648  0.59134  0.51514  Biso   1.000  H
  H8       1.0000 0.50138  0.60392  0.45604  Biso   1.000  H
  H9       1.0000 0.53405  0.64912  0.49565  Biso   1.000  H
  C8       1.0000 0.58300  0.49588  0.51917  Biso   1.000  C
  H10      1.0000 0.57995  0.52922  0.44973  Biso   1.000  H
  C9       1.0000 0.57059  0.53751  0.59445  Biso   1.000  C
  H11      1.0000 0.56527  0.59982  0.57433  Biso   1.000  H
  C10      1.0000 0.59187  0.45859  0.49631  Biso   1.000  C
  C11      1.0000 0.57645  0.49938  0.57174  Biso   1.000  C
  C12      1.0000 0.56596  0.54162  0.64941  Biso   1.000  C
  N1       1.0000 0.61017  0.46429  0.44869  Biso   1.000  N
  H12      1.0000 0.58458  0.42905  0.51542  Biso   1.000  H
  O1       1.0000 0.57875  0.46296  0.60415  Biso   1.000  O
  N2       1.0000 0.57269  0.58252  0.67030  Biso   1.000  N
  H13      1.0000 0.55766  0.51303  0.67073  Biso   1.000  H
  C13      1.0000 0.62166  0.42992  0.42613  Biso   1.000  C
  C14      1.0000 0.62662  0.47752  0.62442  Biso   1.000  C
  C15      1.0000 0.56990  0.58598  0.72566  Biso   1.000  C
  C16      1.0000 0.62117  0.42909  0.37213  Biso   1.000  C
  C17      1.0000 0.63655  0.39940  0.45375  Biso   1.000  C
  H14      1.0000 0.65028  0.48315  0.59603  Biso   1.000  H
  H15      1.0000 0.62438  0.45064  0.64713  Biso   1.000  H
  H16      1.0000 0.63886  0.50904  0.64423  Biso   1.000  H
  C18      1.0000 0.55722  0.62046  0.74508  Biso   1.000  C
  C19      1.0000 0.58160  0.55762  0.76152  Biso   1.000  C
  C20      1.0000 0.63547  0.39803  0.34401  Biso   1.000  C
  H17      1.0000 0.61117  0.44984  0.35384  Biso   1.000  H
  C21      1.0000 0.65000  0.36868  0.42610  Biso   1.000  C
  H18      1.0000 0.63735  0.39982  0.49054  Biso   1.000  H
  C22      1.0000 0.55325  0.62555  0.79734  Biso   1.000  C
  H19      1.0000 0.55107  0.64103  0.72183  Biso   1.000  H
  C23      1.0000 0.57637  0.56237  0.81316  Biso   1.000  C
  H20      1.0000 0.59295  0.53542  0.74933  Biso   1.000  H
  C24      1.0000 0.64931  0.36895  0.37236  Biso   1.000  C
  H21      1.0000 0.63536  0.39753  0.30722  Biso   1.000  H
  C25      1.0000 0.66666  0.33333  0.45035  Biso   1.000  C
  C26      1.0000 0.56297  0.59567  0.83231  Biso   1.000  C
  H22      1.0000 0.54396  0.64912  0.81003  Biso   1.000  H
  C27      1.0000 0.58674  0.53306  0.85594  Biso   1.000  C
  C28      1.0000 0.66666  0.33333  0.34962  Biso   1.000  C
  C29      1.0000 0.71868  0.34998  0.42610  Biso   1.000  C
  C30      1.0000 0.63131  0.28132  0.42610  Biso   1.000  C
  H23      1.0000 0.66666  0.33333  0.48903  Biso   1.000  H
  C31      1.0000 0.56128  0.59811  0.89165  Biso   1.000  C
  H24      1.0000 0.59626  0.50812  0.84244  Biso   1.000  H
  C32      1.0000 0.62744  0.57469  0.88921  Biso   1.000  C
  C33      1.0000 0.53803  0.50873  0.88956  Biso   1.000  C
  H25      1.0000 0.66666  0.33333  0.31094  Biso   1.000  H
  C34      1.0000 0.71963  0.35070  0.37236  Biso   1.000  C
  C35      1.0000 0.63106  0.28037  0.37236  Biso   1.000  C
  C36      1.0000 0.76284  0.36343  0.45375  Biso   1.000  C
  C37      1.0000 0.60060  0.23714  0.45375  Biso   1.000  C
  H26      1.0000 0.55156  0.62305  0.90484  Biso   1.000  H
  C38      1.0000 0.61316  0.60894  0.90871  Biso   1.000  C
  C39      1.0000 0.52546  0.54371  0.90797  Biso   1.000  C
  C40      1.0000 0.67426  0.57997  0.90202  Biso   1.000  C
  C41      1.0000 0.50897  0.45589  0.90035  Biso   1.000  C
  C42      1.0000 0.76257  0.36454  0.34401  Biso   1.000  C
  C43      1.0000 0.60195  0.23741  0.34401  Biso   1.000  C
  C44      1.0000 0.80825  0.37834  0.42613  Biso   1.000  C
  H27      1.0000 0.76247  0.36264  0.49054  Biso   1.000  H
  C45      1.0000 0.57008  0.19172  0.42613  Biso   1.000  C
  H28      1.0000 0.60016  0.23752  0.49054  Biso   1.000  H
  C46      1.0000 0.64732  0.64855  0.94136  Biso   1.000  C
  C47      1.0000 0.48258  0.52664  0.93992  Biso   1.000  C
  C48      1.0000 0.70759  0.61845  0.93432  Biso   1.000  C
  H29      1.0000 0.68346  0.55663  0.88832  Biso   1.000  H
  C49      1.0000 0.46688  0.43985  0.93196  Biso   1.000  C
  H30      1.0000 0.51805  0.43262  0.88643  Biso   1.000  H
  H31      1.0000 0.76216  0.36465  0.30722  Biso   1.000  H
  C50      1.0000 0.80794  0.37883  0.37213  Biso   1.000  C
  H32      1.0000 0.60245  0.23783  0.30722  Biso   1.000  H
  C51      1.0000 0.57089  0.19210  0.37213  Biso   1.000  C
  N3       1.0000 0.85412  0.38982  0.44869  Biso   1.000  N
  N4       1.0000 0.53570  0.14587  0.44869  Biso   1.000  N
  H33      1.0000 0.63839  0.67205  0.95505  Biso   1.000  H
  C52      1.0000 0.69340  0.65334  0.95343  Biso   1.000  C
  H34      1.0000 0.47356  0.55013  0.95354  Biso   1.000  H
  C53      1.0000 0.45305  0.47474  0.95165  Biso   1.000  C
  N5       1.0000 0.75596  0.62734  0.94813  Biso   1.000  N
  N6       1.0000 0.43462  0.38909  0.94758  Biso   1.000  N
  H35      1.0000 0.83865  0.38883  0.35384  Biso   1.000  H
  H36      1.0000 0.55018  0.16134  0.35384  Biso   1.000  H
  C54      1.0000 0.86674  0.40814  0.49631  Biso   1.000  C
  C55      1.0000 0.54140  0.13325  0.49631  Biso   1.000  C
  H37      1.0000 0.71628  0.68053  0.97505  Biso   1.000  H
  H38      1.0000 0.42375  0.46304  0.97284  Biso   1.000  H
  C56      1.0000 0.76961  0.59507  0.94070  Biso   1.000  C
  C57      1.0000 0.44776  0.35591  0.94298  Biso   1.000  C
  C58      1.0000 0.91288  0.41700  0.51917  Biso   1.000  C
  H39      1.0000 0.84448  0.41544  0.51542  Biso   1.000  H
  C59      1.0000 0.50412  0.08713  0.51917  Biso   1.000  C
  H40      1.0000 0.57095  0.15552  0.51542  Biso   1.000  H
  H41      1.0000 0.74706  0.56332  0.92503  Biso   1.000  H
  C60      1.0000 0.82142  0.60689  0.95667  Biso   1.000  C
  C61      1.0000 0.41447  0.30230  0.95726  Biso   1.000  C
  H42      1.0000 0.48067  0.36602  0.92975  Biso   1.000  H
  C62      1.0000 0.92290  0.42354  0.57174  Biso   1.000  C
  C63      1.0000 0.95325  0.42122  0.48621  Biso   1.000  C
  C64      1.0000 0.50065  0.07710  0.57174  Biso   1.000  C
  C65      1.0000 0.46800  0.04676  0.48621  Biso   1.000  C
  C66      1.0000 0.83863  0.57336  0.94635  Biso   1.000  C
  C67      1.0000 0.85374  0.65198  0.98139  Biso   1.000  C
  C68      1.0000 0.42664  0.26528  0.94635  Biso   1.000  C
  C69      1.0000 0.36877  0.28801  0.98306  Biso   1.000  C
  O2       1.0000 0.88423  0.42126  0.60415  Biso   1.000  O
  C70      1.0000 0.96690  0.42943  0.59445  Biso   1.000  C
  H43      1.0000 0.94927  0.42004  0.44973  Biso   1.000  H
  C71      1.0000 0.99821  0.42711  0.50768  Biso   1.000  C
  O3       1.0000 0.53706  0.11580  0.60415  Biso   1.000  O
  C72      1.0000 0.46253  0.03311  0.59445  Biso   1.000  C
  H44      1.0000 0.47079  0.05075  0.44973  Biso   1.000  H
  C73      1.0000 0.42889  0.00179  0.50768  Biso   1.000  C
  O4       1.0000 0.80604  0.52667  0.92031  Biso   1.000  O
  C74      1.0000 0.88784  0.58552  0.95726  Biso   1.000  C
  C75      1.0000 0.90184  0.66441  0.99749  Biso   1.000  C
  H45      1.0000 0.84238  0.67555  0.98762  Biso   1.000  H
  O5       1.0000 0.47333  0.27938  0.92031  Biso   1.000  O
  C76      1.0000 0.39310  0.21452  0.95667  Biso   1.000  C
  H46      1.0000 0.35997  0.31314  0.99103  Biso   1.000  H
  C77      1.0000 0.33562  0.23745  0.99749  Biso   1.000  C
  C78      1.0000 0.85090  0.37336  0.62442  Biso   1.000  C
  C79      1.0000 0.97562  0.43403  0.64941  Biso   1.000  C
  C80      1.0000 0.00399  0.43091  0.56006  Biso   1.000  C
  C81      1.0000 0.04013  0.42897  0.47248  Biso   1.000  C
  C82      1.0000 0.52247  0.14910  0.62442  Biso   1.000  C
  C83      1.0000 0.45839  0.02437  0.64941  Biso   1.000  C
  C84      1.0000 0.42692  0.99601  0.56006  Biso   1.000  C
  C85      1.0000 0.38883  0.95986  0.47248  Biso   1.000  C
  C86      1.0000 0.81167  0.52405  0.86554  Biso   1.000  C
  C87      1.0000 0.90813  0.55222  0.94298  Biso   1.000  C
  C88      1.0000 0.91922  0.63122  0.98306  Biso   1.000  C
  C89      1.0000 0.93568  0.71531  0.02329  Biso   1.000  C
  C90      1.0000 0.47597  0.28763  0.86554  Biso   1.000  C
  C91      1.0000 0.40496  0.17457  0.94070  Biso   1.000  C
  C92      1.0000 0.34801  0.20179  0.98139  Biso   1.000  C
  C93      1.0000 0.28468  0.22038  0.02329  Biso   1.000  C
  H47      1.0000 0.83287  0.34975  0.59603  Biso   1.000  H
  H48      1.0000 0.82626  0.37564  0.64713  Biso   1.000  H
  H49      1.0000 0.87016  0.36111  0.64423  Biso   1.000  H
  H50      1.0000 0.95537  0.44232  0.67073  Biso   1.000  H
  N7       1.0000 0.00988  0.42734  0.67030  Biso   1.000  N
  H51      1.0000 0.03459  0.43475  0.57433  Biso   1.000  H
  C94      1.0000 0.02717  0.42939  0.41495  Biso   1.000  C
  C95      1.0000 0.04212  0.37955  0.48192  Biso   1.000  C
  C96      1.0000 0.09005  0.47589  0.48598  Biso   1.000  C
  H52      1.0000 0.51686  0.16712  0.59603  Biso   1.000  H
  H53      1.0000 0.54937  0.17373  0.64713  Biso   1.000  H
  H54      1.0000 0.49097  0.12982  0.64423  Biso   1.000  H
  H55      1.0000 0.48696  0.04463  0.67073  Biso   1.000  H
  N8       1.0000 0.41746  0.99012  0.67030  Biso   1.000  N
  H56      1.0000 0.40016  0.96541  0.57433  Biso   1.000  H
  C97      1.0000 0.40223  0.97282  0.41495  Biso   1.000  C
  C98      1.0000 0.33740  0.95788  0.48192  Biso   1.000  C
  C99      1.0000 0.38586  0.90994  0.48598  Biso   1.000  C
  H57      1.0000 0.84789  0.54025  0.85683  Biso   1.000  H
  H58      1.0000 0.79648  0.54173  0.84774  Biso   1.000  H
  H59      1.0000 0.79437  0.48832  0.85463  Biso   1.000  H
  N9       1.0000 0.95448  0.56538  0.94758  Biso   1.000  N
  H60      1.0000 0.88537  0.51934  0.92975  Biso   1.000  H
  H61      1.0000 0.95316  0.64004  0.99103  Biso   1.000  H
  C100     1.0000 0.95182  0.76036  0.98213  Biso   1.000  C
  C101     1.0000 0.90658  0.72493  0.06445  Biso   1.000  C
  C102     1.0000 0.98743  0.72162  0.04224  Biso   1.000  C
  H62      1.0000 0.45977  0.30763  0.85683  Biso   1.000  H
  H63      1.0000 0.45828  0.25475  0.84774  Biso   1.000  H
  H64      1.0000 0.51168  0.30603  0.85463  Biso   1.000  H
  N10      1.0000 0.37263  0.12861  0.94813  Biso   1.000  N
  H65      1.0000 0.43667  0.18373  0.92503  Biso   1.000  H
  H66      1.0000 0.32447  0.16681  0.98762  Biso   1.000  H
  C103     1.0000 0.23965  0.19149  0.98213  Biso   1.000  C
  C104     1.0000 0.27509  0.18164  0.06445  Biso   1.000  C
  C105     1.0000 0.27839  0.26581  0.04224  Biso   1.000  C
  C106     1.0000 0.01605  0.43008  0.72566  Biso   1.000  C
  H67      1.0000 0.99757  0.39655  0.40575  Biso   1.000  H
  H68      1.0000 0.05627  0.43525  0.39364  Biso   1.000  H
  H69      1.0000 0.01936  0.45665  0.40884  Biso   1.000  H
  H70      1.0000 0.04766  0.37655  0.51882  Biso   1.000  H
  H71      1.0000 0.07007  0.38073  0.46184  Biso   1.000  H
  H72      1.0000 0.00996  0.35013  0.47105  Biso   1.000  H
  H73      1.0000 0.08485  0.49352  0.51514  Biso   1.000  H
  H74      1.0000 0.10257  0.49862  0.45604  Biso   1.000  H
  H75      1.0000 0.11507  0.46593  0.49565  Biso   1.000  H
  C107     1.0000 0.41400  0.98392  0.72566  Biso   1.000  C
  H76      1.0000 0.39896  0.00243  0.40575  Biso   1.000  H
  H77      1.0000 0.37896  0.94374  0.39364  Biso   1.000  H
  H78      1.0000 0.43727  0.98061  0.40884  Biso   1.000  H
  H79      1.0000 0.32887  0.95233  0.51882  Biso   1.000  H
  H80      1.0000 0.31066  0.92994  0.46184  Biso   1.000  H
  H81      1.0000 0.34016  0.99000  0.47105  Biso   1.000  H
  H82      1.0000 0.40866  0.91511  0.51514  Biso   1.000  H
  H83      1.0000 0.39607  0.89743  0.45604  Biso   1.000  H
  H84      1.0000 0.35087  0.88493  0.49565  Biso   1.000  H
  C108     1.0000 0.97296  0.53314  0.93196  Biso   1.000  C
  H85      1.0000 0.97546  0.75945  0.95695  Biso   1.000  H
  H86      1.0000 0.92147  0.75595  0.96414  Biso   1.000  H
  H87      1.0000 0.96837  0.79313  0.00012  Biso   1.000  H
  H88      1.0000 0.87386  0.71835  0.05033  Biso   1.000  H
  H89      1.0000 0.92615  0.76032  0.07582  Biso   1.000  H
  H90      1.0000 0.90069  0.70235  0.09385  Biso   1.000  H
  H91      1.0000 0.98086  0.69452  0.06704  Biso   1.000  H
  H92      1.0000 0.00747  0.75485  0.05903  Biso   1.000  H
  H93      1.0000 0.00628  0.71934  0.01265  Biso   1.000  H
  C109     1.0000 0.38154  0.08915  0.93432  Biso   1.000  C
  H94      1.0000 0.24057  0.21605  0.95695  Biso   1.000  H
  H95      1.0000 0.24405  0.16552  0.96414  Biso   1.000  H
  H96      1.0000 0.20685  0.17522  0.00012  Biso   1.000  H
  H97      1.0000 0.28165  0.15552  0.05033  Biso   1.000  H
  H98      1.0000 0.23966  0.16583  0.07582  Biso   1.000  H
  H99      1.0000 0.29766  0.19833  0.09385  Biso   1.000  H
  H100     1.0000 0.30548  0.28634  0.06704  Biso   1.000  H
  H101     1.0000 0.24516  0.25262  0.05903  Biso   1.000  H
  H102     1.0000 0.28066  0.28695  0.01265  Biso   1.000  H
  C110     1.0000 0.97601  0.41841  0.76152  Biso   1.000  C
  C111     1.0000 0.06328  0.44281  0.74508  Biso   1.000  C
  C112     1.0000 0.44240  0.02399  0.76152  Biso   1.000  C
  C113     1.0000 0.37954  0.93674  0.74508  Biso   1.000  C
  C114     1.0000 0.94693  0.49102  0.90035  Biso   1.000  C
  C115     1.0000 0.02171  0.54694  0.95165  Biso   1.000  C
  C116     1.0000 0.42002  0.09428  0.90202  Biso   1.000  C
  C117     1.0000 0.34666  0.04007  0.95343  Biso   1.000  C
  C118     1.0000 0.98604  0.42365  0.81316  Biso   1.000  C
  H103     1.0000 0.94247  0.40704  0.74933  Biso   1.000  H
  C119     1.0000 0.07230  0.44677  0.79734  Biso   1.000  C
  H104     1.0000 0.08998  0.44893  0.72183  Biso   1.000  H
  C120     1.0000 0.43763  0.01399  0.81316  Biso   1.000  C
  H105     1.0000 0.46456  0.05752  0.74933  Biso   1.000  H
  C121     1.0000 0.37444  0.92766  0.79734  Biso   1.000  C
  H106     1.0000 0.35897  0.91002  0.72183  Biso   1.000  H
  C122     1.0000 0.97070  0.46197  0.88956  Biso   1.000  C
  H107     1.0000 0.91457  0.48193  0.88643  Biso   1.000  H
  C123     1.0000 0.04406  0.51744  0.93992  Biso   1.000  C
  H108     1.0000 0.03926  0.57625  0.97284  Biso   1.000  H
  C124     1.0000 0.42531  0.05277  0.88921  Biso   1.000  C
  H109     1.0000 0.44337  0.12682  0.88832  Biso   1.000  H
  C125     1.0000 0.35142  0.99875  0.94136  Biso   1.000  C
  H110     1.0000 0.31947  0.03574  0.97505  Biso   1.000  H
  C126     1.0000 0.94635  0.41327  0.85594  Biso   1.000  C
  C127     1.0000 0.03272  0.43707  0.83231  Biso   1.000  C
  H111     1.0000 0.10519  0.45604  0.81003  Biso   1.000  H
  C128     1.0000 0.46695  0.05368  0.85594  Biso   1.000  C
  C129     1.0000 0.40432  0.96727  0.83231  Biso   1.000  C
  H112     1.0000 0.35084  0.89481  0.81003  Biso   1.000  H
  C130     1.0000 0.01822  0.47452  0.90797  Biso   1.000  C
  H113     1.0000 0.07658  0.52645  0.95354  Biso   1.000  H
  C131     1.0000 0.39106  0.00422  0.90871  Biso   1.000  C
  H114     1.0000 0.32796  0.96632  0.95505  Biso   1.000  H
  H115     1.0000 0.91188  0.40373  0.84244  Biso   1.000  H
  C132     1.0000 0.94726  0.37256  0.88921  Biso   1.000  C
  C133     1.0000 0.03680  0.43871  0.89165  Biso   1.000  C
  H116     1.0000 0.49184  0.08812  0.84244  Biso   1.000  H
  C134     1.0000 0.49128  0.02931  0.88956  Biso   1.000  C
  C135     1.0000 0.40187  0.96316  0.89165  Biso   1.000  C
  C136     1.0000 0.99579  0.38685  0.90871  Biso   1.000  C
  C137     1.0000 0.90570  0.32572  0.90202  Biso   1.000  C
  H117     1.0000 0.07146  0.44844  0.90484  Biso   1.000  H
  C138     1.0000 0.54408  0.05307  0.90035  Biso   1.000  C
  C139     1.0000 0.45631  0.98175  0.90797  Biso   1.000  C
  H118     1.0000 0.37695  0.92853  0.90484  Biso   1.000  H
  C140     1.0000 0.00125  0.35268  0.94136  Biso   1.000  C
  C141     1.0000 0.91088  0.29242  0.93432  Biso   1.000  C
  H119     1.0000 0.87315  0.31652  0.88832  Biso   1.000  H
  C142     1.0000 0.56017  0.02703  0.93196  Biso   1.000  C
  H120     1.0000 0.56737  0.08542  0.88643  Biso   1.000  H
  C143     1.0000 0.47336  0.95594  0.93992  Biso   1.000  C
  C144     1.0000 0.95994  0.30660  0.95343  Biso   1.000  C
  H121     1.0000 0.03366  0.36165  0.95505  Biso   1.000  H
  N11      1.0000 0.87137  0.24403  0.94813  Biso   1.000  N
  N12      1.0000 0.61089  0.04551  0.94758  Biso   1.000  N
  C145     1.0000 0.52523  0.97829  0.95165  Biso   1.000  C
  H122     1.0000 0.44987  0.92344  0.95354  Biso   1.000  H
  H123     1.0000 0.96429  0.28375  0.97505  Biso   1.000  H
  C146     1.0000 0.82543  0.23038  0.94070  Biso   1.000  C
  C147     1.0000 0.64407  0.09185  0.94298  Biso   1.000  C
  H124     1.0000 0.53696  0.96073  0.97284  Biso   1.000  H
  H125     1.0000 0.81626  0.25292  0.92503  Biso   1.000  H
  C148     1.0000 0.78547  0.17856  0.95667  Biso   1.000  C
  C149     1.0000 0.69768  0.11215  0.95726  Biso   1.000  C
  H126     1.0000 0.63395  0.11462  0.92975  Biso   1.000  H
  C150     1.0000 0.73474  0.16138  0.94635  Biso   1.000  C
  C151     1.0000 0.79822  0.14625  0.98139  Biso   1.000  C
  C152     1.0000 0.71202  0.08078  0.98306  Biso   1.000  C
  O6       1.0000 0.72064  0.19396  0.92031  Biso   1.000  O
  C153     1.0000 0.76255  0.09816  0.99749  Biso   1.000  C
  H127     1.0000 0.83317  0.15761  0.98762  Biso   1.000  H
  H128     1.0000 0.68688  0.04684  0.99103  Biso   1.000  H
  C154     1.0000 0.71236  0.18833  0.86554  Biso   1.000  C
  C155     1.0000 0.77964  0.06432  0.02329  Biso   1.000  C
  H129     1.0000 0.69235  0.15214  0.85683  Biso   1.000  H
  H130     1.0000 0.74528  0.20354  0.84774  Biso   1.000  H
  H131     1.0000 0.69398  0.20563  0.85463  Biso   1.000  H
  C156     1.0000 0.80850  0.04817  0.98213  Biso   1.000  C
  C157     1.0000 0.81834  0.09344  0.06445  Biso   1.000  C
  C158     1.0000 0.73418  0.01258  0.04224  Biso   1.000  C
  H132     1.0000 0.78397  0.02452  0.95695  Biso   1.000  H
  H133     1.0000 0.83446  0.07854  0.96414  Biso   1.000  H
  H134     1.0000 0.82476  0.03163  0.00012  Biso   1.000  H
  H135     1.0000 0.84446  0.12614  0.05033  Biso   1.000  H
  H136     1.0000 0.83417  0.07383  0.07582  Biso   1.000  H
  H137     1.0000 0.80166  0.09934  0.09385  Biso   1.000  H
  H138     1.0000 0.74736  0.99251  0.05903  Biso   1.000  H
  H139     1.0000 0.71307  0.99373  0.01265  Biso   1.000  H
  H140     1.0000 0.71365  0.01912  0.06704  Biso   1.000  H
  C159     1.0000 0.74734  0.65061  0.39233  Biso   1.000  C
  N13      1.0000 0.75080  0.65680  0.33697  Biso   1.000  N
  C160     1.0000 0.71287  0.60339  0.41174  Biso   1.000  C
  C161     1.0000 0.77574  0.69068  0.42818  Biso   1.000  C
  C162     1.0000 0.79171  0.69102  0.31608  Biso   1.000  C
  C163     1.0000 0.70779  0.59434  0.46401  Biso   1.000  C
  H141     1.0000 0.69232  0.57670  0.38850  Biso   1.000  H
  C164     1.0000 0.77095  0.68064  0.47983  Biso   1.000  C
  H142     1.0000 0.79790  0.72421  0.41600  Biso   1.000  H
  C165     1.0000 0.79585  0.69976  0.26111  Biso   1.000  C
  H143     1.0000 0.82030  0.71132  0.33740  Biso   1.000  H
  C166     1.0000 0.73767  0.63396  0.49897  Biso   1.000  C
  H144     1.0000 0.68419  0.56150  0.47669  Biso   1.000  H
  C167     1.0000 0.80028  0.72033  0.52261  Biso   1.000  C
  C168     1.0000 0.76025  0.66266  0.22672  Biso   1.000  C
  C169     1.0000 0.83398  0.74375  0.23840  Biso   1.000  C
  C170     1.0000 0.73522  0.62985  0.55831  Biso   1.000  C
  H145     1.0000 0.82519  0.75481  0.50911  Biso   1.000  H
  C171     1.0000 0.75863  0.71942  0.55588  Biso   1.000  C
  C172     1.0000 0.82462  0.69600  0.55623  Biso   1.000  C
  C173     1.0000 0.76222  0.66844  0.17435  Biso   1.000  C
  H146     1.0000 0.73351  0.63209  0.24100  Biso   1.000  H
  C174     1.0000 0.83745  0.75378  0.18583  Biso   1.000  C
  O7       1.0000 0.87038  0.78245  0.27082  Biso   1.000  O
  H147     1.0000 0.71030  0.59522  0.57151  Biso   1.000  H
  C175     1.0000 0.72439  0.67087  0.57537  Biso   1.000  C
  C176     1.0000 0.78965  0.64844  0.57464  Biso   1.000  C
  C177     1.0000 0.75337  0.76097  0.56868  Biso   1.000  C
  C178     1.0000 0.87743  0.71976  0.56702  Biso   1.000  C
  C179     1.0000 0.72217  0.62654  0.13914  Biso   1.000  C
  C180     1.0000 0.80133  0.71341  0.15288  Biso   1.000  C
  C181     1.0000 0.87475  0.79993  0.16297  Biso   1.000  C
  C182     1.0000 0.85581  0.81579  0.29109  Biso   1.000  C
  C183     1.0000 0.68476  0.66543  0.60802  Biso   1.000  C
  C184     1.0000 0.80670  0.62263  0.60659  Biso   1.000  C
  C185     1.0000 0.71486  0.75580  0.60098  Biso   1.000  C
  H148     1.0000 0.77672  0.79351  0.55499  Biso   1.000  H
  C186     1.0000 0.89351  0.69372  0.59862  Biso   1.000  C
  H149     1.0000 0.90071  0.75211  0.55309  Biso   1.000  H
  C187     1.0000 0.67073  0.62453  0.14858  Biso   1.000  C
  C188     1.0000 0.73557  0.63951  0.08162  Biso   1.000  C
  C189     1.0000 0.71921  0.57663  0.15264  Biso   1.000  C
  H150     1.0000 0.80411  0.71740  0.11640  Biso   1.000  H
  N14      1.0000 0.86904  0.81256  0.11535  Biso   1.000  N
  H151     1.0000 0.90429  0.82221  0.18208  Biso   1.000  H
  H152     1.0000 0.85020  0.83381  0.26270  Biso   1.000  H
  H153     1.0000 0.88269  0.84038  0.31380  Biso   1.000  H
  H154     1.0000 0.82431  0.79651  0.31090  Biso   1.000  H
  H155     1.0000 0.66130  0.63301  0.62172  Biso   1.000  H
  C190     1.0000 0.67999  0.70672  0.62009  Biso   1.000  C
  H156     1.0000 0.78319  0.59009  0.62021  Biso   1.000  H
  C191     1.0000 0.85857  0.64498  0.61831  Biso   1.000  C
  N15      1.0000 0.70597  0.79530  0.61479  Biso   1.000  N
  N16      1.0000 0.94421  0.71216  0.61425  Biso   1.000  N
  H157     1.0000 0.66221  0.61902  0.18549  Biso   1.000  H
  H158     1.0000 0.64398  0.59659  0.12851  Biso   1.000  H
  H159     1.0000 0.67351  0.65669  0.13771  Biso   1.000  H
  H160     1.0000 0.71228  0.61039  0.06031  Biso   1.000  H
  H161     1.0000 0.77061  0.64730  0.07551  Biso   1.000  H
  H162     1.0000 0.73228  0.66908  0.07241  Biso   1.000  H
  H163     1.0000 0.74201  0.58180  0.18181  Biso   1.000  H
  H164     1.0000 0.72940  0.56408  0.12270  Biso   1.000  H
  H165     1.0000 0.68422  0.55161  0.16231  Biso   1.000  H
  C192     1.0000 0.90342  0.85840  0.09280  Biso   1.000  C
  H166     1.0000 0.65280  0.70239  0.64172  Biso   1.000  H
  H167     1.0000 0.87030  0.62742  0.63951  Biso   1.000  H
  C193     1.0000 0.73828  0.84122  0.60737  Biso   1.000  C
  C194     1.0000 0.97741  0.75853  0.60965  Biso   1.000  C
  C195     1.0000 0.90422  0.85875  0.03880  Biso   1.000  C
  C196     1.0000 0.93392  0.90379  0.12042  Biso   1.000  C
  H168     1.0000 0.76999  0.85038  0.59170  Biso   1.000  H
  C197     1.0000 0.72642  0.88117  0.62334  Biso   1.000  C
  H169     1.0000 0.96730  0.78131  0.59642  Biso   1.000  H
  C198     1.0000 0.03102  0.77884  0.62392  Biso   1.000  C
  C199     1.0000 0.93529  0.90410  0.01068  Biso   1.000  C
  H170     1.0000 0.88351  0.82799  0.02050  Biso   1.000  H
  C200     1.0000 0.96465  0.94801  0.09276  Biso   1.000  C
  H171     1.0000 0.93350  0.90421  0.15721  Biso   1.000  H
  C201     1.0000 0.75996  0.93193  0.61301  Biso   1.000  C
  C202     1.0000 0.68134  0.86844  0.64806  Biso   1.000  C
  C203     1.0000 0.06806  0.82803  0.61301  Biso   1.000  C
  C204     1.0000 0.04534  0.74743  0.64972  Biso   1.000  C
  C205     1.0000 0.96441  0.94706  0.03903  Biso   1.000  C
  H172     1.0000 0.93580  0.90452  0.97389  Biso   1.000  H
  C206     1.0000 0.00001  0.00001  0.11702  Biso   1.000  C
  O8       1.0000 0.80666  0.94603  0.58698  Biso   1.000  O
  C207     1.0000 0.74781  0.96899  0.62392  Biso   1.000  C
  C208     1.0000 0.66895  0.90410  0.66415  Biso   1.000  C
  H173     1.0000 0.65781  0.83350  0.65429  Biso   1.000  H
  O9       1.0000 0.05398  0.86065  0.58698  Biso   1.000  O
  C209     1.0000 0.11881  0.84525  0.62334  Biso   1.000  C
  H174     1.0000 0.02021  0.71349  0.65769  Biso   1.000  H
  C210     1.0000 0.09589  0.76485  0.66415  Biso   1.000  C
  C211     1.0000 0.00001  0.00001  0.01629  Biso   1.000  C
  C212     1.0000 0.98335  0.03537  0.09276  Biso   1.000  C
  H175     1.0000 0.00001  0.00001  0.15570  Biso   1.000  H
  C213     1.0000 0.05202  0.01666  0.09276  Biso   1.000  C
  C214     1.0000 0.80932  0.95432  0.53220  Biso   1.000  C
  C215     1.0000 0.70209  0.95466  0.64972  Biso   1.000  C
  C216     1.0000 0.78110  0.02259  0.60965  Biso   1.000  C
  C217     1.0000 0.61801  0.88703  0.68995  Biso   1.000  C
  C218     1.0000 0.04568  0.85498  0.53220  Biso   1.000  C
  C219     1.0000 0.15878  0.89707  0.60737  Biso   1.000  C
  C220     1.0000 0.13154  0.81290  0.64806  Biso   1.000  C
  C221     1.0000 0.11297  0.73097  0.68995  Biso   1.000  C
  C222     1.0000 0.98266  0.03563  0.03903  Biso   1.000  C
  H176     1.0000 0.00001  0.00001  0.97760  Biso   1.000  H
  C223     1.0000 0.05296  0.01735  0.03903  Biso   1.000  C
  C224     1.0000 0.96990  0.06609  0.12042  Biso   1.000  C
  C225     1.0000 0.09618  0.03012  0.12042  Biso   1.000  C
  H177     1.0000 0.79311  0.97431  0.52350  Biso   1.000  H
  H178     1.0000 0.79161  0.92140  0.51441  Biso   1.000  H
  H179     1.0000 0.84502  0.97272  0.52130  Biso   1.000  H
  H180     1.0000 0.69329  0.97979  0.65769  Biso   1.000  H
  N17      1.0000 0.76797  0.05578  0.61425  Biso   1.000  N
  H181     1.0000 0.81401  0.03271  0.59642  Biso   1.000  H
  C226     1.0000 0.60843  0.84833  0.73111  Biso   1.000  C
  C227     1.0000 0.61173  0.93250  0.70891  Biso   1.000  C
  C228     1.0000 0.57297  0.85814  0.64880  Biso   1.000  C
  H182     1.0000 0.02568  0.81879  0.52350  Biso   1.000  H
  H183     1.0000 0.07860  0.87019  0.51441  Biso   1.000  H
  H184     1.0000 0.02732  0.87232  0.52130  Biso   1.000  H
  N18      1.0000 0.20470  0.91068  0.61479  Biso   1.000  N
  H185     1.0000 0.14961  0.91961  0.59170  Biso   1.000  H
  H186     1.0000 0.16651  0.82430  0.65429  Biso   1.000  H
  C229     1.0000 0.15166  0.76009  0.73111  Biso   1.000  C
  C230     1.0000 0.06751  0.67923  0.70891  Biso   1.000  C
  C231     1.0000 0.14185  0.71485  0.64880  Biso   1.000  C
  C232     1.0000 0.96882  0.06472  0.01068  Biso   1.000  C
  C233     1.0000 0.09591  0.03122  0.01068  Biso   1.000  C
  C234     1.0000 0.95500  0.09661  0.09280  Biso   1.000  C
  H187     1.0000 0.97070  0.06650  0.15721  Biso   1.000  H
  C235     1.0000 0.14159  0.04502  0.09280  Biso   1.000  C
  H188     1.0000 0.09582  0.02932  0.15721  Biso   1.000  H
  C236     1.0000 0.80020  0.10650  0.59862  Biso   1.000  C
  H189     1.0000 0.61500  0.82221  0.71699  Biso   1.000  H
  H190     1.0000 0.57300  0.83251  0.74249  Biso   1.000  H
  H191     1.0000 0.63100  0.86502  0.76051  Biso   1.000  H
  H192     1.0000 0.63880  0.95299  0.73370  Biso   1.000  H
  H193     1.0000 0.57850  0.91930  0.72570  Biso   1.000  H
  H194     1.0000 0.61399  0.95360  0.67932  Biso   1.000  H
  H195     1.0000 0.57390  0.88270  0.62361  Biso   1.000  H
  H196     1.0000 0.54020  0.84190  0.66678  Biso   1.000  H
  H197     1.0000 0.57739  0.83221  0.63081  Biso   1.000  H
  C237     1.0000 0.24420  0.95907  0.60098  Biso   1.000  C
  H198     1.0000 0.17779  0.79279  0.71699  Biso   1.000  H
  H199     1.0000 0.16752  0.74052  0.74249  Biso   1.000  H
  H200     1.0000 0.13498  0.76599  0.76051  Biso   1.000  H
  H201     1.0000 0.04699  0.68581  0.73370  Biso   1.000  H
  H202     1.0000 0.08070  0.65920  0.72570  Biso   1.000  H
  H203     1.0000 0.04641  0.66042  0.67932  Biso   1.000  H
  H204     1.0000 0.11732  0.69121  0.62361  Biso   1.000  H
  H205     1.0000 0.15811  0.69832  0.66678  Biso   1.000  H
  H206     1.0000 0.16778  0.74519  0.63081  Biso   1.000  H
  H207     1.0000 0.96870  0.06422  0.97389  Biso   1.000  H
  C238     1.0000 0.95452  0.09578  0.03880  Biso   1.000  C
  H208     1.0000 0.09549  0.03130  0.97389  Biso   1.000  H
  C239     1.0000 0.14126  0.04548  0.03880  Biso   1.000  C
  N19      1.0000 0.94351  0.13098  0.11535  Biso   1.000  N
  N20      1.0000 0.18747  0.05650  0.11535  Biso   1.000  N
  C240     1.0000 0.78639  0.14143  0.61831  Biso   1.000  C
  C241     1.0000 0.84232  0.12258  0.56702  Biso   1.000  C
  C242     1.0000 0.29327  0.97325  0.62009  Biso   1.000  C
  C243     1.0000 0.23904  0.99241  0.56868  Biso   1.000  C
  H209     1.0000 0.94450  0.11649  0.02050  Biso   1.000  H
  H210     1.0000 0.17199  0.05552  0.02050  Biso   1.000  H
  C244     1.0000 0.92522  0.12528  0.16297  Biso   1.000  C
  C245     1.0000 0.20009  0.07483  0.16297  Biso   1.000  C
  C246     1.0000 0.81591  0.19329  0.60659  Biso   1.000  C
  H211     1.0000 0.75710  0.12972  0.63951  Biso   1.000  H
  C247     1.0000 0.87137  0.17542  0.55623  Biso   1.000  C
  H212     1.0000 0.85139  0.09931  0.55309  Biso   1.000  H
  H213     1.0000 0.29761  0.95040  0.64172  Biso   1.000  H
  C248     1.0000 0.33460  0.01936  0.60802  Biso   1.000  C
  H214     1.0000 0.20649  0.98321  0.55499  Biso   1.000  H
  C249     1.0000 0.28060  0.03925  0.55588  Biso   1.000  C
  C250     1.0000 0.91634  0.16257  0.18583  Biso   1.000  C
  H215     1.0000 0.91790  0.09570  0.18208  Biso   1.000  H
  C251     1.0000 0.24621  0.08365  0.18583  Biso   1.000  C
  H216     1.0000 0.17783  0.08213  0.18208  Biso   1.000  H
  C252     1.0000 0.85880  0.21039  0.57464  Biso   1.000  C
  H217     1.0000 0.80690  0.21682  0.62021  Biso   1.000  H
  C253     1.0000 0.92008  0.19975  0.52261  Biso   1.000  C
  C254     1.0000 0.32913  0.05354  0.57537  Biso   1.000  C
  H218     1.0000 0.36698  0.02830  0.62172  Biso   1.000  H
  C255     1.0000 0.27969  0.07996  0.52261  Biso   1.000  C
  C256     1.0000 0.90977  0.16603  0.23840  Biso   1.000  C
  C257     1.0000 0.91211  0.19869  0.15288  Biso   1.000  C
  C258     1.0000 0.25625  0.09023  0.23840  Biso   1.000  C
  C259     1.0000 0.28659  0.08791  0.15288  Biso   1.000  C
  C260     1.0000 0.89463  0.26480  0.55831  Biso   1.000  C
  C261     1.0000 0.90972  0.22906  0.47983  Biso   1.000  C
  H219     1.0000 0.92961  0.17481  0.50911  Biso   1.000  H
  C262     1.0000 0.96078  0.24138  0.55588  Biso   1.000  C
  C263     1.0000 0.37014  0.10539  0.55831  Biso   1.000  C
  C264     1.0000 0.31937  0.09030  0.47983  Biso   1.000  C
  H220     1.0000 0.24522  0.07042  0.50911  Biso   1.000  H
  C265     1.0000 0.30404  0.12866  0.55623  Biso   1.000  C
  O10      1.0000 0.91209  0.12965  0.27082  Biso   1.000  O
  C266     1.0000 0.90392  0.20416  0.26111  Biso   1.000  C
  H221     1.0000 0.91329  0.19591  0.11640  Biso   1.000  H
  C267     1.0000 0.90625  0.23780  0.17435  Biso   1.000  C
  O11      1.0000 0.21757  0.08794  0.27082  Biso   1.000  O
  C268     1.0000 0.30023  0.09608  0.26111  Biso   1.000  C
  H222     1.0000 0.28261  0.08673  0.11640  Biso   1.000  H
  C269     1.0000 0.33155  0.09380  0.17435  Biso   1.000  C
  C270     1.0000 0.89631  0.26236  0.49897  Biso   1.000  C
  H223     1.0000 0.88489  0.28970  0.57151  Biso   1.000  H
  C271     1.0000 0.94650  0.27563  0.57537  Biso   1.000  C
  C272     1.0000 0.91493  0.22427  0.42818  Biso   1.000  C
  C273     1.0000 0.00761  0.24666  0.56868  Biso   1.000  C
  C274     1.0000 0.36604  0.10372  0.49897  Biso   1.000  C
  H224     1.0000 0.40480  0.11513  0.57151  Biso   1.000  H
  C275     1.0000 0.35157  0.14120  0.57464  Biso   1.000  C
  C276     1.0000 0.30933  0.08506  0.42818  Biso   1.000  C
  C277     1.0000 0.28027  0.15770  0.56702  Biso   1.000  C
  C278     1.0000 0.95997  0.14421  0.29109  Biso   1.000  C
  C279     1.0000 0.89931  0.20830  0.31608  Biso   1.000  C
  C280     1.0000 0.90243  0.23978  0.22672  Biso   1.000  C
  C281     1.0000 0.90437  0.27783  0.13914  Biso   1.000  C
  C282     1.0000 0.18424  0.04004  0.29109  Biso   1.000  C
  C283     1.0000 0.30897  0.10072  0.31608  Biso   1.000  C
  C284     1.0000 0.33734  0.09760  0.22672  Biso   1.000  C
  C285     1.0000 0.37347  0.09566  0.13914  Biso   1.000  C
  C286     1.0000 0.88657  0.29220  0.46401  Biso   1.000  C
  C287     1.0000 0.98066  0.31524  0.60802  Biso   1.000  C
  C288     1.0000 0.90325  0.25267  0.39233  Biso   1.000  C
  H225     1.0000 0.92630  0.20211  0.41600  Biso   1.000  H
  C289     1.0000 0.04093  0.28513  0.60098  Biso   1.000  C
  H226     1.0000 0.01681  0.22332  0.55499  Biso   1.000  H
  C290     1.0000 0.40564  0.11345  0.46401  Biso   1.000  C
  C291     1.0000 0.37741  0.18412  0.60659  Biso   1.000  C
  C292     1.0000 0.34940  0.09676  0.39233  Biso   1.000  C
  H227     1.0000 0.27582  0.07373  0.41600  Biso   1.000  H
  C293     1.0000 0.30629  0.19979  0.59862  Biso   1.000  C
  H228     1.0000 0.24791  0.14862  0.55309  Biso   1.000  H
  H229     1.0000 0.98360  0.14980  0.26270  Biso   1.000  H
  H230     1.0000 0.95772  0.11733  0.31380  Biso   1.000  H
  H231     1.0000 0.97220  0.17572  0.31090  Biso   1.000  H
  N21      1.0000 0.90603  0.24921  0.33697  Biso   1.000  N
  H232     1.0000 0.89100  0.17972  0.33740  Biso   1.000  H
  H233     1.0000 0.89861  0.26651  0.24100  Biso   1.000  H
  C294     1.0000 0.90394  0.26445  0.08162  Biso   1.000  C
  C295     1.0000 0.95380  0.32927  0.14858  Biso   1.000  C
  C296     1.0000 0.85745  0.28084  0.15264  Biso   1.000  C
  H234     1.0000 0.16620  0.01640  0.26270  Biso   1.000  H
  H235     1.0000 0.15960  0.04232  0.31380  Biso   1.000  H
  H236     1.0000 0.20350  0.02780  0.31090  Biso   1.000  H
  N22      1.0000 0.34320  0.09399  0.33697  Biso   1.000  N
  H237     1.0000 0.28872  0.10901  0.33740  Biso   1.000  H
  H238     1.0000 0.36791  0.10140  0.24100  Biso   1.000  H
  C297     1.0000 0.36051  0.09608  0.08162  Biso   1.000  C
  C298     1.0000 0.37546  0.04624  0.14858  Biso   1.000  C
  C299     1.0000 0.42340  0.14257  0.15264  Biso   1.000  C
  C300     1.0000 0.89056  0.28715  0.41174  Biso   1.000  C
  H239     1.0000 0.87730  0.31581  0.47669  Biso   1.000  H
  H240     1.0000 0.97171  0.33870  0.62172  Biso   1.000  H
  C301     1.0000 0.02674  0.32003  0.62009  Biso   1.000  C
  N23      1.0000 0.08930  0.29403  0.61479  Biso   1.000  N
  C302     1.0000 0.39660  0.10946  0.41174  Biso   1.000  C
  H241     1.0000 0.43853  0.12273  0.47669  Biso   1.000  H
  H242     1.0000 0.40991  0.19310  0.62021  Biso   1.000  H
  C303     1.0000 0.35505  0.21363  0.61831  Biso   1.000  C
  N24      1.0000 0.28782  0.23206  0.61425  Biso   1.000  N
  H243     1.0000 0.89812  0.28772  0.06031  Biso   1.000  H
  H244     1.0000 0.87670  0.22940  0.07551  Biso   1.000  H
  H245     1.0000 0.93682  0.26772  0.07241  Biso   1.000  H
  H246     1.0000 0.95682  0.33782  0.18549  Biso   1.000  H
  H247     1.0000 0.95261  0.35600  0.12851  Biso   1.000  H
  H248     1.0000 0.98319  0.32650  0.13771  Biso   1.000  H
  H249     1.0000 0.83982  0.25803  0.18181  Biso   1.000  H
  H250     1.0000 0.83472  0.27061  0.12270  Biso   1.000  H
  H251     1.0000 0.86739  0.31581  0.16231  Biso   1.000  H
  H252     1.0000 0.38959  0.10190  0.06031  Biso   1.000  H
  H253     1.0000 0.35269  0.12330  0.07551  Biso   1.000  H
  H254     1.0000 0.33090  0.06320  0.07241  Biso   1.000  H
  H255     1.0000 0.38099  0.04320  0.18549  Biso   1.000  H
  H256     1.0000 0.40341  0.04742  0.12851  Biso   1.000  H
  H257     1.0000 0.34330  0.01682  0.13771  Biso   1.000  H
  H258     1.0000 0.41819  0.16021  0.18181  Biso   1.000  H
  H259     1.0000 0.43592  0.16531  0.12270  Biso   1.000  H
  H260     1.0000 0.44841  0.13261  0.16231  Biso   1.000  H
  H261     1.0000 0.88442  0.30772  0.38850  Biso   1.000  H
  H262     1.0000 0.04962  0.34721  0.64172  Biso   1.000  H
  C304     1.0000 0.10294  0.26172  0.60737  Biso   1.000  C
  H263     1.0000 0.42332  0.11562  0.38850  Biso   1.000  H
  H264     1.0000 0.37258  0.24290  0.63951  Biso   1.000  H
  C305     1.0000 0.24148  0.21891  0.60965  Biso   1.000  C
  H265     1.0000 0.08040  0.23001  0.59170  Biso   1.000  H
  C306     1.0000 0.15476  0.27358  0.62334  Biso   1.000  C
  C307     1.0000 0.22119  0.25221  0.62392  Biso   1.000  C
  H266     1.0000 0.21871  0.18603  0.59642  Biso   1.000  H
  C308     1.0000 0.17198  0.24005  0.61301  Biso   1.000  C
  C309     1.0000 0.18709  0.31866  0.64806  Biso   1.000  C
  C310     1.0000 0.25256  0.29791  0.64972  Biso   1.000  C
  O12      1.0000 0.13936  0.19332  0.58698  Biso   1.000  O
  C311     1.0000 0.23516  0.33106  0.66415  Biso   1.000  C
  H267     1.0000 0.17571  0.34220  0.65429  Biso   1.000  H
  H268     1.0000 0.28650  0.30673  0.65769  Biso   1.000  H
  C312     1.0000 0.14500  0.19070  0.53220  Biso   1.000  C
  C313     1.0000 0.26903  0.38200  0.68995  Biso   1.000  C
  H269     1.0000 0.18121  0.20690  0.52350  Biso   1.000  H
  H270     1.0000 0.12982  0.20842  0.51441  Biso   1.000  H
  H271     1.0000 0.12771  0.15500  0.52130  Biso   1.000  H
  C314     1.0000 0.23991  0.39158  0.73111  Biso   1.000  C
  C315     1.0000 0.32076  0.38827  0.70891  Biso   1.000  C
  C316     1.0000 0.28515  0.42701  0.64880  Biso   1.000  C
  H272     1.0000 0.20718  0.38500  0.71699  Biso   1.000  H
  H273     1.0000 0.25950  0.42701  0.74249  Biso   1.000  H
  H274     1.0000 0.23401  0.36900  0.76051  Biso   1.000  H
  H275     1.0000 0.31420  0.36120  0.73370  Biso   1.000  H
  H276     1.0000 0.34079  0.42150  0.72570  Biso   1.000  H
  H277     1.0000 0.33962  0.38603  0.67932  Biso   1.000  H
  H278     1.0000 0.30879  0.42610  0.62361  Biso   1.000  H
  H279     1.0000 0.30171  0.45982  0.66678  Biso   1.000  H
  H280     1.0000 0.25479  0.42260  0.63081  Biso   1.000  H
  C317     1.0000 0.62661  0.63992  0.28676  Biso   1.000  C
  C318     1.0000 0.57754  0.62574  0.26765  Biso   1.000  C
  C319     1.0000 0.66792  0.68600  0.27469  Biso   1.000  C
  H281     1.0000 0.63095  0.61708  0.30838  Biso   1.000  H
  N25      1.0000 0.53803  0.57735  0.28146  Biso   1.000  N
  C320     1.0000 0.57238  0.65908  0.23535  Biso   1.000  C
  C321     1.0000 0.66247  0.72021  0.24204  Biso   1.000  C
  H282     1.0000 0.70032  0.69497  0.28838  Biso   1.000  H
  C322     1.0000 0.49210  0.56370  0.27403  Biso   1.000  C
  C323     1.0000 0.61392  0.70588  0.22254  Biso   1.000  C
  H283     1.0000 0.53983  0.64988  0.22165  Biso   1.000  H
  C324     1.0000 0.70346  0.77203  0.22498  Biso   1.000  C
  C325     1.0000 0.45215  0.51192  0.29001  Biso   1.000  C
  H284     1.0000 0.48294  0.58628  0.25837  Biso   1.000  H
  C326     1.0000 0.61301  0.74660  0.18928  Biso   1.000  C
  H285     1.0000 0.73812  0.78176  0.23817  Biso   1.000  H
  C327     1.0000 0.69938  0.77040  0.16564  Biso   1.000  C
  C328     1.0000 0.68490  0.80788  0.24131  Biso   1.000  C
  C329     1.0000 0.40140  0.49470  0.27968  Biso   1.000  C
  C330     1.0000 0.46488  0.47957  0.31473  Biso   1.000  C
  H286     1.0000 0.57854  0.73706  0.17578  Biso   1.000  H
  C331     1.0000 0.65270  0.75698  0.14649  Biso   1.000  C
  C332     1.0000 0.63736  0.79530  0.22289  Biso   1.000  C
  C333     1.0000 0.73896  0.78009  0.13067  Biso   1.000  C
  C334     1.0000 0.71072  0.85076  0.27326  Biso   1.000  C
  C335     1.0000 0.36434  0.44547  0.29059  Biso   1.000  C
  O13      1.0000 0.38730  0.52728  0.25365  Biso   1.000  O
  C336     1.0000 0.42921  0.43148  0.33082  Biso   1.000  C
  H287     1.0000 0.49985  0.49098  0.32095  Biso   1.000  H
  C337     1.0000 0.64267  0.75173  0.09485  Biso   1.000  C
  C338     1.0000 0.61359  0.82434  0.23369  Biso   1.000  C
  H288     1.0000 0.77185  0.78937  0.14336  Biso   1.000  H
  C339     1.0000 0.72994  0.77614  0.07841  Biso   1.000  C
  H289     1.0000 0.74325  0.85977  0.28687  Biso   1.000  H
  C340     1.0000 0.68837  0.88026  0.28498  Biso   1.000  C
  C341     1.0000 0.31073  0.42517  0.27631  Biso   1.000  C
  C342     1.0000 0.37868  0.41411  0.31639  Biso   1.000  C
  C343     1.0000 0.37902  0.52166  0.19887  Biso   1.000  C
  C344     1.0000 0.44631  0.39765  0.35662  Biso   1.000  C
  C345     1.0000 0.68273  0.76344  0.05899  Biso   1.000  C
  H290     1.0000 0.60914  0.74036  0.08267  Biso   1.000  H
  C346     1.0000 0.63962  0.86646  0.26529  Biso   1.000  C
  H291     1.0000 0.58123  0.81525  0.21976  Biso   1.000  H
  H292     1.0000 0.75664  0.78226  0.05516  Biso   1.000  H
  H293     1.0000 0.70592  0.90957  0.30618  Biso   1.000  H
  N26      1.0000 0.27755  0.37883  0.28092  Biso   1.000  N
  H294     1.0000 0.30064  0.44798  0.26308  Biso   1.000  H
  H295     1.0000 0.35354  0.38016  0.32436  Biso   1.000  H
  H296     1.0000 0.35902  0.48547  0.19017  Biso   1.000  H
  H297     1.0000 0.41194  0.53686  0.18108  Biso   1.000  H
  H298     1.0000 0.36064  0.53895  0.18796  Biso   1.000  H
  C347     1.0000 0.48500  0.42677  0.39778  Biso   1.000  C
  C348     1.0000 0.40085  0.34591  0.37558  Biso   1.000  C
  C349     1.0000 0.47519  0.38153  0.31546  Biso   1.000  C
  N27      1.0000 0.67654  0.76066  0.00364  Biso   1.000  N
  N28      1.0000 0.62114  0.89870  0.28092  Biso   1.000  N
  C350     1.0000 0.22685  0.36039  0.26529  Biso   1.000  C
  H299     1.0000 0.51112  0.45946  0.38366  Biso   1.000  H
  H300     1.0000 0.50084  0.40715  0.40915  Biso   1.000  H
  H301     1.0000 0.46832  0.43266  0.42718  Biso   1.000  H
  H302     1.0000 0.38033  0.35249  0.40037  Biso   1.000  H
  H303     1.0000 0.41404  0.32587  0.39236  Biso   1.000  H
  H304     1.0000 0.37973  0.32705  0.34598  Biso   1.000  H
  H305     1.0000 0.45065  0.35788  0.29028  Biso   1.000  H
  H306     1.0000 0.49143  0.36495  0.33345  Biso   1.000  H
  H307     1.0000 0.50112  0.41187  0.29747  Biso   1.000  H
  C351     1.0000 0.64229  0.76735  0.98275  Biso   1.000  C
  C352     1.0000 0.57479  0.88555  0.27631  Biso   1.000  C
  C353     1.0000 0.19189  0.31162  0.28498  Biso   1.000  C
  C354     1.0000 0.21075  0.38640  0.23369  Biso   1.000  C
  H308     1.0000 0.62205  0.77568  0.00406  Biso   1.000  H
  C355     1.0000 0.63357  0.76275  0.92778  Biso   1.000  C
  C356     1.0000 0.55451  0.91885  0.29059  Biso   1.000  C
  H309     1.0000 0.55203  0.85266  0.26308  Biso   1.000  H
  C357     1.0000 0.14002  0.28926  0.27326  Biso   1.000  C
  H310     1.0000 0.20362  0.29405  0.30618  Biso   1.000  H
  C358     1.0000 0.15794  0.36264  0.22289  Biso   1.000  C
  H311     1.0000 0.23405  0.41879  0.21976  Biso   1.000  H
  C359     1.0000 0.58958  0.75690  0.90507  Biso   1.000  C
  C360     1.0000 0.67065  0.76424  0.89339  Biso   1.000  C
  C361     1.0000 0.50529  0.90668  0.27968  Biso   1.000  C
  C362     1.0000 0.58590  0.96458  0.31639  Biso   1.000  C
  C363     1.0000 0.12299  0.31512  0.24131  Biso   1.000  C
  H312     1.0000 0.11653  0.25676  0.28687  Biso   1.000  H
  C364     1.0000 0.13362  0.38700  0.18928  Biso   1.000  C
  O14      1.0000 0.55089  0.75458  0.93749  Biso   1.000  O
  C365     1.0000 0.57955  0.75032  0.85250  Biso   1.000  C
  C366     1.0000 0.66487  0.76044  0.84101  Biso   1.000  C
  H313     1.0000 0.70125  0.76808  0.90766  Biso   1.000  H
  O15      1.0000 0.47270  0.86000  0.25365  Biso   1.000  O
  C367     1.0000 0.48810  0.94025  0.29001  Biso   1.000  C
  H314     1.0000 0.61982  0.97336  0.32436  Biso   1.000  H
  C368     1.0000 0.56850  0.99773  0.33082  Biso   1.000  C
  C369     1.0000 0.06856  0.29653  0.22498  Biso   1.000  C
  C370     1.0000 0.09197  0.38609  0.22254  Biso   1.000  C
  C371     1.0000 0.10429  0.34731  0.14649  Biso   1.000  C
  H315     1.0000 0.15853  0.42148  0.17578  Biso   1.000  H
  C372     1.0000 0.51758  0.70672  0.95776  Biso   1.000  C
  C373     1.0000 0.53340  0.74147  0.82964  Biso   1.000  C
  C374     1.0000 0.61993  0.75458  0.81954  Biso   1.000  C
  C375     1.0000 0.70679  0.76230  0.80581  Biso   1.000  C
  C376     1.0000 0.47834  0.85738  0.19887  Biso   1.000  C
  C377     1.0000 0.43628  0.92839  0.27403  Biso   1.000  C
  C378     1.0000 0.52040  0.98530  0.31473  Biso   1.000  C
  C379     1.0000 0.60236  0.04867  0.35662  Biso   1.000  C
  H316     1.0000 0.04362  0.26185  0.23817  Biso   1.000  H
  C380     1.0000 0.05772  0.33754  0.24204  Biso   1.000  C
  C381     1.0000 0.07100  0.30063  0.16564  Biso   1.000  C
  C382     1.0000 0.08669  0.42760  0.23535  Biso   1.000  C
  C383     1.0000 0.10908  0.35735  0.09485  Biso   1.000  C
  H317     1.0000 0.49953  0.68307  0.92936  Biso   1.000  H
  H318     1.0000 0.49292  0.70896  0.98046  Biso   1.000  H
  H319     1.0000 0.53684  0.69448  0.97756  Biso   1.000  H
  N29      1.0000 0.52081  0.72318  0.78202  Biso   1.000  N
  H320     1.0000 0.51114  0.74876  0.84875  Biso   1.000  H
  H321     1.0000 0.61593  0.75336  0.78306  Biso   1.000  H
  C384     1.0000 0.69383  0.76272  0.74829  Biso   1.000  C
  C385     1.0000 0.70878  0.71288  0.81525  Biso   1.000  C
  C386     1.0000 0.75673  0.80925  0.81931  Biso   1.000  C
  H322     1.0000 0.51455  0.87357  0.19017  Biso   1.000  H
  H323     1.0000 0.46314  0.87505  0.18108  Biso   1.000  H
  H324     1.0000 0.46105  0.82168  0.18796  Biso   1.000  H
  N30      1.0000 0.42264  0.96070  0.28146  Biso   1.000  N
  H325     1.0000 0.41374  0.89669  0.25837  Biso   1.000  H
  H326     1.0000 0.50904  0.00887  0.32095  Biso   1.000  H
  C387     1.0000 0.57324  0.05825  0.39778  Biso   1.000  C
  C388     1.0000 0.65409  0.05495  0.37558  Biso   1.000  C
  C389     1.0000 0.61848  0.09368  0.31546  Biso   1.000  C
  C390     1.0000 0.01808  0.33207  0.27469  Biso   1.000  C
  C391     1.0000 0.04112  0.26102  0.13067  Biso   1.000  C
  C392     1.0000 0.04820  0.42247  0.26765  Biso   1.000  C
  H327     1.0000 0.11006  0.46018  0.22165  Biso   1.000  H
  C393     1.0000 0.08066  0.31724  0.05899  Biso   1.000  C
  H328     1.0000 0.13124  0.39088  0.08267  Biso   1.000  H
  C394     1.0000 0.47493  0.71170  0.75947  Biso   1.000  C
  H329     1.0000 0.72293  0.76857  0.72697  Biso   1.000  H
  H330     1.0000 0.68603  0.78997  0.74218  Biso   1.000  H
  H331     1.0000 0.66424  0.72987  0.73908  Biso   1.000  H
  H332     1.0000 0.71432  0.70987  0.85215  Biso   1.000  H
  H333     1.0000 0.73673  0.71406  0.79517  Biso   1.000  H
  H334     1.0000 0.67662  0.68345  0.80438  Biso   1.000  H
  H335     1.0000 0.75151  0.82685  0.84848  Biso   1.000  H
  H336     1.0000 0.76925  0.83198  0.78937  Biso   1.000  H
  H337     1.0000 0.78173  0.79925  0.82898  Biso   1.000  H
  C395     1.0000 0.37425  0.95177  0.26765  Biso   1.000  C
  H338     1.0000 0.54052  0.05168  0.38366  Biso   1.000  H
  H339     1.0000 0.59284  0.09368  0.40915  Biso   1.000  H
  H340     1.0000 0.56735  0.03567  0.42718  Biso   1.000  H
  H341     1.0000 0.64754  0.02788  0.40037  Biso   1.000  H
  H342     1.0000 0.67413  0.08817  0.39236  Biso   1.000  H
  H343     1.0000 0.67294  0.05267  0.34598  Biso   1.000  H
  H344     1.0000 0.64213  0.09277  0.29028  Biso   1.000  H
  H345     1.0000 0.63505  0.12649  0.33345  Biso   1.000  H
  H346     1.0000 0.58813  0.08927  0.29747  Biso   1.000  H
  C396     1.0000 0.01333  0.37339  0.28676  Biso   1.000  C
  H347     1.0000 0.99464  0.29968  0.28838  Biso   1.000  H
  H348     1.0000 0.01752  0.22817  0.14336  Biso   1.000  H
  C397     1.0000 0.04621  0.27007  0.07841  Biso   1.000  C
  N31      1.0000 0.03931  0.46197  0.28146  Biso   1.000  N
  N32      1.0000 0.08414  0.32348  0.00364  Biso   1.000  N
  C398     1.0000 0.42950  0.69676  0.78709  Biso   1.000  C
  C399     1.0000 0.47460  0.71216  0.70547  Biso   1.000  C
  C400     1.0000 0.34093  0.91330  0.23535  Biso   1.000  C
  C401     1.0000 0.36006  0.98667  0.28676  Biso   1.000  C
  H349     1.0000 0.98614  0.36906  0.30838  Biso   1.000  H
  H350     1.0000 0.02565  0.24338  0.05516  Biso   1.000  H
  C402     1.0000 0.07162  0.50789  0.27403  Biso   1.000  C
  C403     1.0000 0.12505  0.35769  0.98275  Biso   1.000  C
  C404     1.0000 0.38534  0.68330  0.75943  Biso   1.000  C
  H351     1.0000 0.42914  0.69596  0.82388  Biso   1.000  H
  C405     1.0000 0.42923  0.69786  0.67734  Biso   1.000  C
  H352     1.0000 0.50531  0.72215  0.68717  Biso   1.000  H
  C406     1.0000 0.29410  0.90801  0.22254  Biso   1.000  C
  H353     1.0000 0.35013  0.88996  0.22165  Biso   1.000  H
  C407     1.0000 0.31400  0.98192  0.27469  Biso   1.000  C
  H354     1.0000 0.38296  0.01389  0.30838  Biso   1.000  H
  H355     1.0000 0.10333  0.51706  0.25837  Biso   1.000  H
  C408     1.0000 0.05976  0.54785  0.29001  Biso   1.000  C
  H356     1.0000 0.15362  0.37796  0.00406  Biso   1.000  H
  C409     1.0000 0.12919  0.36644  0.92778  Biso   1.000  C
  C410     1.0000 0.33333  0.66665  0.78368  Biso   1.000  C
  C411     1.0000 0.38629  0.68402  0.70570  Biso   1.000  C
  H357     1.0000 0.42883  0.69798  0.64056  Biso   1.000  H
  C412     1.0000 0.25340  0.86639  0.18928  Biso   1.000  C
  C413     1.0000 0.27982  0.94227  0.24204  Biso   1.000  C
  H358     1.0000 0.30505  0.00537  0.28838  Biso   1.000  H
  C414     1.0000 0.09330  0.59860  0.27968  Biso   1.000  C
  C415     1.0000 0.01468  0.53511  0.31473  Biso   1.000  C
  C416     1.0000 0.16732  0.41042  0.90507  Biso   1.000  C
  C417     1.0000 0.09359  0.32933  0.89339  Biso   1.000  C
  C418     1.0000 0.29799  0.61468  0.75943  Biso   1.000  C
  H359     1.0000 0.33333  0.66665  0.82237  Biso   1.000  H
  C419     1.0000 0.31666  0.70201  0.75943  Biso   1.000  C
  C420     1.0000 0.33333  0.66665  0.68295  Biso   1.000  C
  C421     1.0000 0.20469  0.84206  0.22289  Biso   1.000  C
  H360     1.0000 0.26292  0.84145  0.17578  Biso   1.000  H
  C422     1.0000 0.24305  0.89573  0.14649  Biso   1.000  C
  C423     1.0000 0.22795  0.93143  0.22498  Biso   1.000  C
  O16      1.0000 0.13999  0.61271  0.25365  Biso   1.000  O
  C424     1.0000 0.08113  0.63563  0.29059  Biso   1.000  C
  C425     1.0000 0.00228  0.57077  0.33082  Biso   1.000  C
  H361     1.0000 0.99115  0.50018  0.32095  Biso   1.000  H
  O17      1.0000 0.20372  0.44912  0.93749  Biso   1.000  O
  C426     1.0000 0.17079  0.42046  0.85250  Biso   1.000  C
  C427     1.0000 0.09555  0.33511  0.84101  Biso   1.000  C
  H362     1.0000 0.06685  0.29877  0.90766  Biso   1.000  H
  C428     1.0000 0.26726  0.57047  0.78709  Biso   1.000  C
  C429     1.0000 0.29773  0.61369  0.70570  Biso   1.000  C
  C430     1.0000 0.31597  0.70227  0.70570  Biso   1.000  C
  C431     1.0000 0.30323  0.73276  0.78709  Biso   1.000  C
  H363     1.0000 0.33333  0.66665  0.64427  Biso   1.000  H
  C432     1.0000 0.17566  0.78925  0.23369  Biso   1.000  C
  C433     1.0000 0.19212  0.87703  0.24131  Biso   1.000  C
  C434     1.0000 0.22963  0.92900  0.16564  Biso   1.000  C
  C435     1.0000 0.24826  0.89094  0.09485  Biso   1.000  C
  H364     1.0000 0.21823  0.95637  0.23817  Biso   1.000  H
  C436     1.0000 0.14264  0.62095  0.19887  Biso   1.000  C
  C437     1.0000 0.11444  0.68927  0.27631  Biso   1.000  C
  C438     1.0000 0.03543  0.62133  0.31639  Biso   1.000  C
  C439     1.0000 0.95134  0.55370  0.35662  Biso   1.000  C
  C440     1.0000 0.18913  0.48242  0.95776  Biso   1.000  C
  C441     1.0000 0.20809  0.46661  0.82964  Biso   1.000  C
  C442     1.0000 0.13467  0.38008  0.81954  Biso   1.000  C
  C443     1.0000 0.05551  0.29322  0.80581  Biso   1.000  C
  C444     1.0000 0.23676  0.52508  0.75947  Biso   1.000  C
  H365     1.0000 0.26682  0.57085  0.82388  Biso   1.000  H
  C445     1.0000 0.26863  0.57077  0.67734  Biso   1.000  C
  C446     1.0000 0.30215  0.73139  0.67734  Biso   1.000  C
  C447     1.0000 0.28832  0.76325  0.75947  Biso   1.000  C
  H366     1.0000 0.30404  0.73318  0.82388  Biso   1.000  H
  C448     1.0000 0.13354  0.77317  0.26529  Biso   1.000  C
  H367     1.0000 0.18471  0.76595  0.21976  Biso   1.000  H
  C449     1.0000 0.14925  0.85996  0.27326  Biso   1.000  C
  C450     1.0000 0.21991  0.95888  0.13067  Biso   1.000  C
  C451     1.0000 0.23657  0.91930  0.05899  Biso   1.000  C
  H368     1.0000 0.25964  0.86878  0.08267  Biso   1.000  H
  H369     1.0000 0.12643  0.64095  0.19017  Biso   1.000  H
  H370     1.0000 0.12494  0.58807  0.18108  Biso   1.000  H
  H371     1.0000 0.17834  0.63935  0.18796  Biso   1.000  H
  N33      1.0000 0.10130  0.72246  0.28092  Biso   1.000  N
  H372     1.0000 0.14735  0.69938  0.26308  Biso   1.000  H
  H373     1.0000 0.02663  0.64646  0.32436  Biso   1.000  H
  C452     1.0000 0.94177  0.51500  0.39778  Biso   1.000  C
  C453     1.0000 0.94505  0.59913  0.37558  Biso   1.000  C
  C454     1.0000 0.90631  0.52481  0.31546  Biso   1.000  C
  H374     1.0000 0.18354  0.50048  0.92936  Biso   1.000  H
  H375     1.0000 0.21603  0.50706  0.98046  Biso   1.000  H
  H376     1.0000 0.15763  0.46315  0.97756  Biso   1.000  H
  N34      1.0000 0.20238  0.47923  0.78202  Biso   1.000  N
  H377     1.0000 0.23761  0.48885  0.84875  Biso   1.000  H
  H378     1.0000 0.13745  0.38408  0.78306  Biso   1.000  H
  C455     1.0000 0.06891  0.30618  0.74829  Biso   1.000  C
  C456     1.0000 0.00407  0.29120  0.81525  Biso   1.000  C
  C457     1.0000 0.05255  0.24330  0.81931  Biso   1.000  C
  C458     1.0000 0.23756  0.52542  0.70547  Biso   1.000  C
  H379     1.0000 0.26912  0.57115  0.64056  Biso   1.000  H
  H380     1.0000 0.30202  0.73086  0.64056  Biso   1.000  H
  C459     1.0000 0.28786  0.76245  0.70547  Biso   1.000  C
  N35      1.0000 0.27683  0.79762  0.78202  Biso   1.000  N
  C460     1.0000 0.11971  0.80807  0.28498  Biso   1.000  C
  H381     1.0000 0.14022  0.88346  0.28687  Biso   1.000  H
  H382     1.0000 0.21062  0.98245  0.14336  Biso   1.000  H
  C461     1.0000 0.22388  0.95379  0.07841  Biso   1.000  C
  N36      1.0000 0.23937  0.91588  0.00364  Biso   1.000  N
  H383     1.0000 0.94832  0.48885  0.38366  Biso   1.000  H
  H384     1.0000 0.90632  0.49915  0.40915  Biso   1.000  H
  H385     1.0000 0.96432  0.53165  0.42718  Biso   1.000  H
  H386     1.0000 0.97214  0.61966  0.40037  Biso   1.000  H
  H387     1.0000 0.91184  0.58598  0.39236  Biso   1.000  H
  H388     1.0000 0.94732  0.62027  0.34598  Biso   1.000  H
  H389     1.0000 0.90723  0.54937  0.29028  Biso   1.000  H
  H390     1.0000 0.87354  0.50858  0.33345  Biso   1.000  H
  H391     1.0000 0.91073  0.49889  0.29747  Biso   1.000  H
  H392     1.0000 0.04562  0.27706  0.72697  Biso   1.000  H
  H393     1.0000 0.10395  0.31397  0.74218  Biso   1.000  H
  H394     1.0000 0.06562  0.33576  0.73908  Biso   1.000  H
  H395     1.0000 0.99553  0.28565  0.85215  Biso   1.000  H
  H396     1.0000 0.97732  0.26326  0.79517  Biso   1.000  H
  H397     1.0000 0.00685  0.32336  0.80438  Biso   1.000  H
  H398     1.0000 0.07535  0.24847  0.84848  Biso   1.000  H
  H399     1.0000 0.06274  0.23076  0.78937  Biso   1.000  H
  H400     1.0000 0.01753  0.21825  0.82898  Biso   1.000  H
  H401     1.0000 0.21685  0.49467  0.68717  Biso   1.000  H
  H402     1.0000 0.27784  0.78317  0.68717  Biso   1.000  H
  C462     1.0000 0.25856  0.79195  0.82964  Biso   1.000  C
  H403     1.0000 0.09042  0.79636  0.30618  Biso   1.000  H
  H404     1.0000 0.21774  0.97435  0.05516  Biso   1.000  H
  C463     1.0000 0.23262  0.87494  0.98275  Biso   1.000  C
  C464     1.0000 0.24968  0.82924  0.85250  Biso   1.000  C
  H405     1.0000 0.25124  0.76237  0.84875  Biso   1.000  H
  H406     1.0000 0.22432  0.84635  0.00406  Biso   1.000  H
  C465     1.0000 0.23725  0.87083  0.92778  Biso   1.000  C
  C466     1.0000 0.24311  0.83270  0.90507  Biso   1.000  C
  C467     1.0000 0.24545  0.86536  0.81954  Biso   1.000  C
  C468     1.0000 0.23575  0.90642  0.89339  Biso   1.000  C
  O18      1.0000 0.24541  0.79628  0.93749  Biso   1.000  O
  C469     1.0000 0.23957  0.90444  0.84101  Biso   1.000  C
  H407     1.0000 0.24663  0.86258  0.78306  Biso   1.000  H
  H408     1.0000 0.23195  0.93318  0.90766  Biso   1.000  H
  C470     1.0000 0.29329  0.81085  0.95776  Biso   1.000  C
  C471     1.0000 0.23769  0.94447  0.80581  Biso   1.000  C
  H409     1.0000 0.31694  0.81647  0.92936  Biso   1.000  H
  H410     1.0000 0.29104  0.78397  0.98046  Biso   1.000  H
  H411     1.0000 0.30552  0.84236  0.97756  Biso   1.000  H
  C472     1.0000 0.23726  0.93109  0.74829  Biso   1.000  C
  C473     1.0000 0.28712  0.99591  0.81525  Biso   1.000  C
  C474     1.0000 0.19077  0.94747  0.81931  Biso   1.000  C
  H412     1.0000 0.23144  0.95436  0.72697  Biso   1.000  H
  H413     1.0000 0.21004  0.89608  0.74218  Biso   1.000  H
  H414     1.0000 0.27014  0.93436  0.73908  Biso   1.000  H
  H415     1.0000 0.31653  0.99317  0.80438  Biso   1.000  H
  H416     1.0000 0.29014  0.00446  0.85215  Biso   1.000  H
  H417     1.0000 0.28595  0.02267  0.79517  Biso   1.000  H
  H418     1.0000 0.17314  0.92467  0.84848  Biso   1.000  H
  H419     1.0000 0.16804  0.93725  0.78937  Biso   1.000  H
  H420     1.0000 0.20071  0.98245  0.82898  Biso   1.000  H
  Ne1      1.0000 0.33333  0.66667  0.08693  Biso   1.000  Ne
  He1      1.0000 0.33335  0.66667  0.19312  Biso   1.000  He
  He2      1.0000 0.36658  0.56635  0.02506  Biso   1.000  He
  He3      1.0000 0.20151  0.63369  0.02597  Biso   1.000  He
  He4      1.0000 0.43235  0.79870  0.02587  Biso   1.000  He
  Ar1      1.0000 0.33334  0.66665  0.08433  Biso   1.000  Ar
  Ne2      1.0000 0.66667  0.33333  0.75360  Biso   1.000  Ne
  He5      1.0000 0.66667  0.33332  0.85978  Biso   1.000  He
  He6      1.0000 0.69990  0.23299  0.69173  Biso   1.000  He
  He7      1.0000 0.53484  0.30036  0.69264  Biso   1.000  He
  He8      1.0000 0.76569  0.46537  0.69254  Biso   1.000  He
  Ar2      1.0000 0.66666  0.33334  0.75097  Biso   1.000  Ar
  Ne3      1.0000 0.00000  0.00001  0.42027  Biso   1.000  Ne
  He9      1.0000 0.00001  0.00001  0.52645  Biso   1.000  He
  He10     1.0000 0.03324  0.89968  0.35840  Biso   1.000  He
  He11     1.0000 0.86819  0.96705  0.35930  Biso   1.000  He
  He12     1.0000 0.09903  0.13206  0.35920  Biso   1.000  He
  Ar3      1.0000 0.00001  0.00001  0.41765  Biso   1.000  Ar
