data_image0
_cell_length_a       18.884
_cell_length_b       19.395
_cell_length_c       28.82
_cell_angle_alpha    103.49
_cell_angle_beta     104.19
_cell_angle_gamma    97.82

_symmetry_space_group_name_H-M    "P 1"
_symmetry_int_tables_number       1

loop_
  _symmetry_equiv_pos_as_xyz
  'x, y, z'

loop_
  _atom_site_label
  _atom_site_occupancy
  _atom_site_fract_x
  _atom_site_fract_y
  _atom_site_fract_z
  _atom_site_thermal_displace_type
  _atom_site_B_iso_or_equiv
  _atom_site_type_symbol
  N1       1.0000 0.40613  0.17897  0.14991  Biso   1.000  N
  H1       1.0000 0.50414  0.20124  0.20482  Biso   1.000  H
  N2       1.0000 0.52530  0.24732  0.15330  Biso   1.000  N
  H2       1.0000 0.50412  0.20122  0.20479  Biso   1.000  H
  H3       1.0000 0.46798  0.27082  0.20251  Biso   1.000  H
  C1       1.0000 0.37559  0.11894  0.16120  Biso   1.000  C
  C2       1.0000 0.37564  0.11888  0.16120  Biso   1.000  C
  C3       1.0000 0.34650  0.21232  0.12540  Biso   1.000  C
  C4       1.0000 0.47802  0.22668  0.18199  Biso   1.000  C
  C5       1.0000 0.47799  0.22675  0.18202  Biso   1.000  C
  C6       1.0000 0.47797  0.22673  0.18199  Biso   1.000  C
  C7       1.0000 0.52160  0.31281  0.13609  Biso   1.000  C
  C8       1.0000 0.59592  0.23718  0.16340  Biso   1.000  C
  N3       1.0000 0.30281  0.09893  0.13691  Biso   1.000  N
  O1       1.0000 0.41075  0.08914  0.19015  Biso   1.000  O
  O2       1.0000 0.41073  0.08908  0.19011  Biso   1.000  O
  O3       1.0000 0.41070  0.08914  0.19015  Biso   1.000  O
  O4       1.0000 0.41068  0.08913  0.19011  Biso   1.000  O
  C9       1.0000 0.27513  0.15093  0.11102  Biso   1.000  C
  C10      1.0000 0.27511  0.15086  0.11098  Biso   1.000  C
  C11      1.0000 0.27506  0.15092  0.11098  Biso   1.000  C
  H4       1.0000 0.34192  0.25725  0.14891  Biso   1.000  H
  N4       1.0000 0.35026  0.22430  0.08017  Biso   1.000  N
  N5       1.0000 0.46932  0.30071  0.08650  Biso   1.000  N
  N6       1.0000 0.46927  0.30071  0.08650  Biso   1.000  N
  C12      1.0000 0.59662  0.33343  0.12890  Biso   1.000  C
  C13      1.0000 0.59661  0.33338  0.12890  Biso   1.000  C
  C14      1.0000 0.59657  0.33343  0.12890  Biso   1.000  C
  H5       1.0000 0.51170  0.35255  0.16131  Biso   1.000  H
  O5       1.0000 0.61903  0.18945  0.18143  Biso   1.000  O
  O6       1.0000 0.61901  0.18944  0.18139  Biso   1.000  O
  N7       1.0000 0.63886  0.28382  0.14626  Biso   1.000  N
  C15      1.0000 0.25371  0.03430  0.13821  Biso   1.000  C
  C16      1.0000 0.25371  0.03435  0.13821  Biso   1.000  C
  N8       1.0000 0.25852  0.12968  0.05670  Biso   1.000  N
  N9       1.0000 0.25847  0.12973  0.05670  Biso   1.000  N
  H6       1.0000 0.23340  0.16944  0.12219  Biso   1.000  H
  C17      1.0000 0.29470  0.17895  0.03990  Biso   1.000  C
  C18      1.0000 0.38939  0.29331  0.07760  Biso   1.000  C
  C19      1.0000 0.50558  0.30352  0.05171  Biso   1.000  C
  C20      1.0000 0.50557  0.30347  0.05171  Biso   1.000  C
  H7       1.0000 0.62088  0.38512  0.14671  Biso   1.000  H
  N10      1.0000 0.57969  0.31817  0.07421  Biso   1.000  N
  C21      1.0000 0.71883  0.29919  0.16191  Biso   1.000  C
  C22      1.0000 0.71878  0.29924  0.16191  Biso   1.000  C
  N11      1.0000 0.23126  0.97658  0.09410  Biso   1.000  N
  H8       1.0000 0.20850  0.04851  0.14570  Biso   1.000  H
  H9       1.0000 0.27985  0.01654  0.16589  Biso   1.000  H
  H10      1.0000 0.27984  0.01648  0.16589  Biso   1.000  H
  H11      1.0000 0.20851  0.04856  0.14570  Biso   1.000  H
  H12      1.0000 0.27980  0.01654  0.16589  Biso   1.000  H
  C23      1.0000 0.18508  0.08529  0.02589  Biso   1.000  C
  C24      1.0000 0.18508  0.08534  0.02589  Biso   1.000  C
  O7       1.0000 0.28411  0.17992  0.99680  Biso   1.000  O
  H13      1.0000 0.36417  0.33051  0.07060  Biso   1.000  H
  O8       1.0000 0.47450  0.29650  0.00723  Biso   1.000  O
  O9       1.0000 0.47445  0.29650  0.00723  Biso   1.000  O
  C25      1.0000 0.63322  0.34331  0.05022  Biso   1.000  C
  C26      1.0000 0.63318  0.34336  0.05022  Biso   1.000  C
  C27      1.0000 0.63315  0.34329  0.05018  Biso   1.000  C
  H14      1.0000 0.73701  0.35223  0.17610  Biso   1.000  H
  N12      1.0000 0.75188  0.27370  0.12119  Biso   1.000  N
  H15      1.0000 0.73621  0.27597  0.18858  Biso   1.000  H
  N13      1.0000 0.75188  0.27375  0.12119  Biso   1.000  N
  H16      1.0000 0.73622  0.27602  0.18858  Biso   1.000  H
  C28      1.0000 0.25276  0.90994  0.09381  Biso   1.000  C
  C29      1.0000 0.25277  0.91000  0.09381  Biso   1.000  C
  C30      1.0000 0.16885  0.96769  0.05249  Biso   1.000  C
  H17      1.0000 0.17182  0.09720  0.99378  Biso   1.000  H
  H18      1.0000 0.17182  0.09726  0.99378  Biso   1.000  H
  N14      1.0000 0.18460  0.00762  0.01669  Biso   1.000  N
  N15      1.0000 0.18459  0.00757  0.01669  Biso   1.000  N
  H19      1.0000 0.14691  0.09724  0.04299  Biso   1.000  H
  H20      1.0000 0.60600  0.34549  0.01669  Biso   1.000  H
  N16      1.0000 0.68577  0.29769  0.04538  Biso   1.000  N
  N17      1.0000 0.68580  0.29775  0.04541  Biso   1.000  N
  H21      1.0000 0.60595  0.34554  0.01669  Biso   1.000  H
  H22      1.0000 0.66026  0.39301  0.06981  Biso   1.000  H
  H23      1.0000 0.66024  0.39299  0.06978  Biso   1.000  H
  C31      1.0000 0.75628  0.30869  0.08308  Biso   1.000  C
  C32      1.0000 0.75630  0.30876  0.08311  Biso   1.000  C
  C33      1.0000 0.79473  0.22235  0.12201  Biso   1.000  C
  O10      1.0000 0.30249  0.90020  0.12562  Biso   1.000  O
  N18      1.0000 0.21358  0.86182  0.04910  Biso   1.000  N
  O11      1.0000 0.30243  0.90020  0.12562  Biso   1.000  O
  H24      1.0000 0.12435  0.97968  0.06311  Biso   1.000  H
  C34      1.0000 0.15437  0.88829  0.02250  Biso   1.000  C
  C35      1.0000 0.15432  0.88829  0.02250  Biso   1.000  C
  C36      1.0000 0.17081  0.96143  0.97046  Biso   1.000  C
  C37      1.0000 0.69032  0.26123  0.99966  Biso   1.000  C
  C38      1.0000 0.69031  0.26118  0.99966  Biso   1.000  C
  H25      1.0000 0.77921  0.36137  0.09779  Biso   1.000  H
  C39      1.0000 0.80619  0.26855  0.05570  Biso   1.000  C
  H26      1.0000 0.77916  0.36142  0.09779  Biso   1.000  H
  O12      1.0000 0.80761  0.18882  0.15408  Biso   1.000  O
  N19      1.0000 0.82270  0.21432  0.08200  Biso   1.000  N
  C40      1.0000 0.21664  0.78497  0.03729  Biso   1.000  C
  N20      1.0000 0.15813  0.89175  0.97307  Biso   1.000  N
  N21      1.0000 0.15812  0.89170  0.97307  Biso   1.000  N
  N22      1.0000 0.15807  0.89175  0.97307  Biso   1.000  N
  H27      1.0000 0.10454  0.86116  0.02131  Biso   1.000  H
  H28      1.0000 0.10453  0.86120  0.02127  Biso   1.000  H
  H29      1.0000 0.10453  0.86115  0.02127  Biso   1.000  H
  O13      1.0000 0.17481  0.98182  0.93305  Biso   1.000  O
  O14      1.0000 0.17479  0.98181  0.93302  Biso   1.000  O
  O15      1.0000 0.17481  0.98188  0.93305  Biso   1.000  O
  N23      1.0000 0.75591  0.23991  0.00473  Biso   1.000  N
  O16      1.0000 0.64005  0.24980  0.95988  Biso   1.000  O
  O17      1.0000 0.64001  0.24981  0.95991  Biso   1.000  O
  O18      1.0000 0.64001  0.24985  0.95988  Biso   1.000  O
  H30      1.0000 0.85251  0.30193  0.05719  Biso   1.000  H
  C41      1.0000 0.87269  0.16908  0.07101  Biso   1.000  C
  N24      1.0000 0.24425  0.76023  0.99534  Biso   1.000  N
  N25      1.0000 0.24420  0.76028  0.99534  Biso   1.000  N
  N26      1.0000 0.24418  0.76021  0.99531  Biso   1.000  N
  H31      1.0000 0.16596  0.75616  0.03051  Biso   1.000  H
  H32      1.0000 0.24908  0.77554  0.06680  Biso   1.000  H
  H33      1.0000 0.24903  0.77559  0.06680  Biso   1.000  H
  H34      1.0000 0.16595  0.75614  0.03047  Biso   1.000  H
  C42      1.0000 0.12741  0.83106  0.92907  Biso   1.000  C
  C43      1.0000 0.78345  0.21511  0.96278  Biso   1.000  C
  C44      1.0000 0.78344  0.21510  0.96275  Biso   1.000  C
  C45      1.0000 0.78344  0.21515  0.96275  Biso   1.000  C
  H35      1.0000 0.91642  0.19891  0.06691  Biso   1.000  H
  N27      1.0000 0.84203  0.10838  0.02701  Biso   1.000  N
  N28      1.0000 0.84201  0.10837  0.02697  Biso   1.000  N
  N29      1.0000 0.84198  0.10843  0.02701  Biso   1.000  N
  N30      1.0000 0.84196  0.10842  0.02697  Biso   1.000  N
  H36      1.0000 0.89092  0.15023  0.09988  Biso   1.000  H
  C46      1.0000 0.19391  0.73164  0.94438  Biso   1.000  C
  C47      1.0000 0.30976  0.73889  0.00037  Biso   1.000  C
  C48      1.0000 0.30976  0.73884  0.00037  Biso   1.000  C
  H37      1.0000 0.08368  0.80122  0.93317  Biso   1.000  H
  H38      1.0000 0.10917  0.84988  0.90016  Biso   1.000  H
  N31      1.0000 0.17741  0.78587  0.91808  Biso   1.000  N
  N32      1.0000 0.78657  0.13832  0.95097  Biso   1.000  N
  H39      1.0000 0.83413  0.24392  0.96956  Biso   1.000  H
  N33      1.0000 0.78652  0.13832  0.95097  Biso   1.000  N
  H40      1.0000 0.83412  0.24387  0.96956  Biso   1.000  H
  H41      1.0000 0.75101  0.22454  0.93328  Biso   1.000  H
  C49      1.0000 0.84577  0.11179  0.97757  Biso   1.000  C
  C50      1.0000 0.84573  0.11184  0.97757  Biso   1.000  C
  C51      1.0000 0.82935  0.03871  0.02962  Biso   1.000  C
  C52      1.0000 0.82930  0.03876  0.02962  Biso   1.000  C
  C53      1.0000 0.82928  0.03869  0.02958  Biso   1.000  C
  C54      1.0000 0.24381  0.69143  0.91696  Biso   1.000  C
  H42      1.0000 0.14763  0.69819  0.94285  Biso   1.000  H
  H43      1.0000 0.14760  0.69825  0.94289  Biso   1.000  H
  H44      1.0000 0.14758  0.69824  0.94285  Biso   1.000  H
  N34      1.0000 0.31431  0.70243  0.95466  Biso   1.000  N
  O19      1.0000 0.36008  0.75027  0.04016  Biso   1.000  O
  C55      1.0000 0.20542  0.77779  0.87807  Biso   1.000  C
  C56      1.0000 0.20537  0.77784  0.87807  Biso   1.000  C
  C57      1.0000 0.74733  0.09009  0.90627  Biso   1.000  C
  H45      1.0000 0.89555  0.13892  0.97876  Biso   1.000  H
  C58      1.0000 0.83124  0.03239  0.94758  Biso   1.000  C
  C59      1.0000 0.83123  0.03243  0.94755  Biso   1.000  C
  N35      1.0000 0.81550  0.99256  0.98338  Biso   1.000  N
  N36      1.0000 0.81549  0.99255  0.98335  Biso   1.000  N
  O20      1.0000 0.82534  0.01831  0.06702  Biso   1.000  O
  N37      1.0000 0.24821  0.72642  0.87885  Biso   1.000  N
  H46      1.0000 0.22089  0.63877  0.90228  Biso   1.000  H
  H47      1.0000 0.22087  0.63870  0.90224  Biso   1.000  H
  C60      1.0000 0.36688  0.65683  0.94986  Biso   1.000  C
  O21      1.0000 0.19249  0.81131  0.84599  Biso   1.000  O
  N38      1.0000 0.76884  0.02351  0.90597  Biso   1.000  N
  O22      1.0000 0.69761  0.09988  0.87445  Biso   1.000  O
  O23      1.0000 0.69761  0.09993  0.87445  Biso   1.000  O
  H48      1.0000 0.87574  0.02041  0.93697  Biso   1.000  H
  H49      1.0000 0.87575  0.02046  0.93697  Biso   1.000  H
  C61      1.0000 0.81502  0.91484  0.97418  Biso   1.000  C
  C62      1.0000 0.81501  0.91483  0.97415  Biso   1.000  C
  C63      1.0000 0.28131  0.70089  0.83817  Biso   1.000  C
  C64      1.0000 0.28127  0.70094  0.83817  Biso   1.000  C
  C65      1.0000 0.28132  0.70094  0.83817  Biso   1.000  C
  N39      1.0000 0.42040  0.68191  0.92586  Biso   1.000  N
  H50      1.0000 0.33984  0.60713  0.93026  Biso   1.000  H
  N40      1.0000 0.42041  0.68196  0.92586  Biso   1.000  N
  H51      1.0000 0.39410  0.65464  0.98338  Biso   1.000  H
  H52      1.0000 0.33979  0.60713  0.93026  Biso   1.000  H
  H53      1.0000 0.39409  0.65463  0.98335  Biso   1.000  H
  C66      1.0000 0.74639  0.96584  0.86186  Biso   1.000  C
  C67      1.0000 0.74639  0.96578  0.86186  Biso   1.000  C
  H54      1.0000 0.85324  0.90294  0.95708  Biso   1.000  H
  N41      1.0000 0.74163  0.87040  0.94337  Biso   1.000  N
  H55      1.0000 0.85323  0.90293  0.95705  Biso   1.000  H
  N42      1.0000 0.74158  0.87045  0.94337  Biso   1.000  N
  H56      1.0000 0.85319  0.90294  0.95708  Biso   1.000  H
  H57      1.0000 0.85318  0.90293  0.95705  Biso   1.000  H
  H58      1.0000 0.82822  0.90288  0.00630  Biso   1.000  H
  H59      1.0000 0.26309  0.64791  0.82397  Biso   1.000  H
  H60      1.0000 0.26392  0.72409  0.81146  Biso   1.000  H
  N43      1.0000 0.36118  0.71635  0.85378  Biso   1.000  N
  H61      1.0000 0.26387  0.72415  0.81146  Biso   1.000  H
  H62      1.0000 0.26310  0.64796  0.82397  Biso   1.000  H
  N44      1.0000 0.36117  0.71630  0.85378  Biso   1.000  N
  C68      1.0000 0.49452  0.69661  0.94837  Biso   1.000  C
  C69      1.0000 0.40353  0.66670  0.87117  Biso   1.000  C
  C70      1.0000 0.49453  0.69666  0.94837  Biso   1.000  C
  C71      1.0000 0.40349  0.66675  0.87117  Biso   1.000  C
  N45      1.0000 0.69729  0.90120  0.86316  Biso   1.000  N
  H63      1.0000 0.79160  0.95162  0.85437  Biso   1.000  H
  H64      1.0000 0.72030  0.98360  0.83418  Biso   1.000  H
  H65      1.0000 0.72029  0.98358  0.83414  Biso   1.000  H
  N46      1.0000 0.69729  0.90125  0.86316  Biso   1.000  N
  H66      1.0000 0.72031  0.98365  0.83418  Biso   1.000  H
  H67      1.0000 0.72030  0.98363  0.83414  Biso   1.000  H
  C72      1.0000 0.70541  0.82124  0.96018  Biso   1.000  C
  C73      1.0000 0.72497  0.84920  0.88906  Biso   1.000  C
  C74      1.0000 0.40421  0.76288  0.83664  Biso   1.000  C
  C75      1.0000 0.40417  0.76294  0.83664  Biso   1.000  C
  O24      1.0000 0.52565  0.70364  0.99285  Biso   1.000  O
  N47      1.0000 0.53083  0.69943  0.91357  Biso   1.000  N
  O25      1.0000 0.52563  0.70362  0.99281  Biso   1.000  O
  O26      1.0000 0.52561  0.70369  0.99285  Biso   1.000  O
  O27      1.0000 0.52558  0.70362  0.99281  Biso   1.000  O
  C76      1.0000 0.47850  0.68732  0.86398  Biso   1.000  C
  C77      1.0000 0.47848  0.68731  0.86395  Biso   1.000  C
  H68      1.0000 0.37922  0.61507  0.85337  Biso   1.000  H
  C78      1.0000 0.47850  0.68737  0.86398  Biso   1.000  C
  C79      1.0000 0.62450  0.88123  0.83884  Biso   1.000  C
  N48      1.0000 0.64977  0.77582  0.91987  Biso   1.000  N
  O28      1.0000 0.71599  0.82021  0.00328  Biso   1.000  O
  O29      1.0000 0.71593  0.82016  0.00328  Biso   1.000  O
  C80      1.0000 0.65361  0.78787  0.87468  Biso   1.000  C
  H69      1.0000 0.76670  0.83073  0.87784  Biso   1.000  H
  O30      1.0000 0.38108  0.81074  0.81865  Biso   1.000  O
  N49      1.0000 0.47479  0.75286  0.84674  Biso   1.000  N
  C81      1.0000 0.61071  0.70682  0.92247  Biso   1.000  C
  C82      1.0000 0.61072  0.70687  0.92247  Biso   1.000  C
  H70      1.0000 0.48840  0.64763  0.83876  Biso   1.000  H
  H71      1.0000 0.48840  0.64758  0.83876  Biso   1.000  H
  N50      1.0000 0.59403  0.82122  0.85016  Biso   1.000  N
  O31      1.0000 0.58940  0.91099  0.80993  Biso   1.000  O
  O32      1.0000 0.58936  0.91104  0.80993  Biso   1.000  O
  H72      1.0000 0.65823  0.74288  0.85117  Biso   1.000  H
  H73      1.0000 0.65818  0.74294  0.85117  Biso   1.000  H
  C83      1.0000 0.52211  0.77339  0.81805  Biso   1.000  C
  C84      1.0000 0.52206  0.77344  0.81805  Biso   1.000  C
  H74      1.0000 0.63593  0.66963  0.92948  Biso   1.000  H
  H75      1.0000 0.63594  0.66968  0.92948  Biso   1.000  H
  H76      1.0000 0.53206  0.72931  0.79756  Biso   1.000  H
  H77      1.0000 0.49597  0.79895  0.79525  Biso   1.000  H
  O33      1.0000 0.35393  0.25793  0.23142  Biso   1.000  O
  C85      1.0000 0.33464  0.29364  0.26432  Biso   1.000  C
  N51      1.0000 0.26875  0.31784  0.25892  Biso   1.000  N
  N52      1.0000 0.37033  0.30955  0.31443  Biso   1.000  N
  C86      1.0000 0.25424  0.34505  0.30582  Biso   1.000  C
  C87      1.0000 0.21254  0.29964  0.21201  Biso   1.000  C
  C88      1.0000 0.32393  0.33886  0.34423  Biso   1.000  C
  C89      1.0000 0.42452  0.27016  0.33160  Biso   1.000  C
  N53      1.0000 0.25510  0.42242  0.31983  Biso   1.000  N
  H78      1.0000 0.20780  0.31592  0.30791  Biso   1.000  H
  N54      1.0000 0.20518  0.36022  0.19011  Biso   1.000  N
  H79      1.0000 0.16391  0.28101  0.21652  Biso   1.000  H
  H80      1.0000 0.22442  0.26015  0.18832  Biso   1.000  H
  N55      1.0000 0.35370  0.41293  0.37560  Biso   1.000  N
  H81      1.0000 0.31052  0.30593  0.36412  Biso   1.000  H
  N56      1.0000 0.49604  0.31842  0.36491  Biso   1.000  N
  H82      1.0000 0.41615  0.21872  0.32292  Biso   1.000  H
  C90      1.0000 0.30903  0.45872  0.36282  Biso   1.000  C
  C91      1.0000 0.19129  0.45221  0.29822  Biso   1.000  C
  C92      1.0000 0.15867  0.41083  0.20330  Biso   1.000  C
  C93      1.0000 0.21699  0.35849  0.14559  Biso   1.000  C
  C94      1.0000 0.40482  0.42865  0.42343  Biso   1.000  C
  C95      1.0000 0.50322  0.35344  0.41673  Biso   1.000  C
  C96      1.0000 0.56342  0.30344  0.35950  Biso   1.000  C
  O34      1.0000 0.31453  0.52066  0.38707  Biso   1.000  O
  N57      1.0000 0.19230  0.46521  0.25150  Biso   1.000  N
  H83      1.0000 0.14450  0.41795  0.29353  Biso   1.000  H
  H84      1.0000 0.19150  0.49831  0.32192  Biso   1.000  H
  C97      1.0000 0.15689  0.45371  0.16552  Biso   1.000  C
  H85      1.0000 0.10758  0.38513  0.20061  Biso   1.000  H
  O35      1.0000 0.24171  0.31324  0.12115  Biso   1.000  O
  N58      1.0000 0.19088  0.41491  0.13102  Biso   1.000  N
  N59      1.0000 0.47872  0.42135  0.42481  Biso   1.000  N
  H86      1.0000 0.39035  0.44335  0.45301  Biso   1.000  H
  H87      1.0000 0.47878  0.31978  0.43234  Biso   1.000  H
  C98      1.0000 0.58574  0.37415  0.44031  Biso   1.000  C
  O36      1.0000 0.57283  0.26776  0.32113  Biso   1.000  O
  N60      1.0000 0.61643  0.33454  0.40380  Biso   1.000  N
  C99      1.0000 0.21668  0.53143  0.24551  Biso   1.000  C
  N61      1.0000 0.20387  0.52621  0.19622  Biso   1.000  N
  H88      1.0000 0.10498  0.45710  0.14879  Biso   1.000  H
  C100     1.0000 0.18730  0.42621  0.08270  Biso   1.000  C
  C101     1.0000 0.53925  0.48045  0.44463  Biso   1.000  C
  N62      1.0000 0.60232  0.45247  0.44944  Biso   1.000  N
  H89      1.0000 0.59993  0.36025  0.47212  Biso   1.000  H
  C102     1.0000 0.69326  0.32417  0.41162  Biso   1.000  C
  O37      1.0000 0.24301  0.58725  0.27974  Biso   1.000  O
  C103     1.0000 0.20820  0.58793  0.17610  Biso   1.000  C
  N63      1.0000 0.25049  0.48223  0.08431  Biso   1.000  N
  H90      1.0000 0.13979  0.44107  0.06989  Biso   1.000  H
  H91      1.0000 0.18740  0.37993  0.05920  Biso   1.000  H
  O38      1.0000 0.53575  0.54337  0.45596  Biso   1.000  O
  C104     1.0000 0.67286  0.49847  0.47883  Biso   1.000  C
  N64      1.0000 0.74637  0.38327  0.40991  Biso   1.000  N
  H92      1.0000 0.71002  0.31475  0.44452  Biso   1.000  H
  H93      1.0000 0.69366  0.28037  0.38603  Biso   1.000  H
  N65      1.0000 0.26588  0.59062  0.15092  Biso   1.000  N
  H94      1.0000 0.21887  0.63293  0.20352  Biso   1.000  H
  H95      1.0000 0.15938  0.58498  0.15230  Biso   1.000  H
  C105     1.0000 0.25139  0.55791  0.09850  Biso   1.000  C
  C106     1.0000 0.30366  0.46621  0.06229  Biso   1.000  C
  N66      1.0000 0.73033  0.50066  0.45201  Biso   1.000  N
  H96      1.0000 0.69173  0.48153  0.50841  Biso   1.000  H
  H97      1.0000 0.66512  0.54826  0.49064  Biso   1.000  H
  C107     1.0000 0.77903  0.45057  0.44873  Biso   1.000  C
  C108     1.0000 0.78154  0.37442  0.37560  Biso   1.000  C
  C109     1.0000 0.33170  0.64312  0.17010  Biso   1.000  C
  C110     1.0000 0.32287  0.59193  0.08621  Biso   1.000  C
  H98      1.0000 0.20529  0.56939  0.07872  Biso   1.000  H
  O39      1.0000 0.31148  0.40519  0.04031  Biso   1.000  O
  N67      1.0000 0.35299  0.52961  0.06784  Biso   1.000  N
  C111     1.0000 0.75743  0.56437  0.44120  Biso   1.000  C
  H99      1.0000 0.79905  0.44137  0.48162  Biso   1.000  H
  C112     1.0000 0.84002  0.48708  0.43293  Biso   1.000  C
  O40      1.0000 0.77083  0.32027  0.34073  Biso   1.000  O
  N68      1.0000 0.83742  0.43502  0.38610  Biso   1.000  N
  O41      1.0000 0.35301  0.68332  0.21231  Biso   1.000  O
  N69      1.0000 0.36779  0.63924  0.13482  Biso   1.000  N
  H100     1.0000 0.31047  0.61940  0.06091  Biso   1.000  H
  C113     1.0000 0.40347  0.53189  0.03971  Biso   1.000  C
  O42      1.0000 0.73161  0.61924  0.44512  Biso   1.000  O
  N70      1.0000 0.81925  0.55333  0.42612  Biso   1.000  N
  H101     1.0000 0.88952  0.49633  0.45830  Biso   1.000  H
  C114     1.0000 0.89162  0.44176  0.35962  Biso   1.000  C
  C115     1.0000 0.42655  0.70031  0.13941  Biso   1.000  C
  N71      1.0000 0.47939  0.56860  0.06799  Biso   1.000  N
  H102     1.0000 0.38527  0.55648  0.01401  Biso   1.000  H
  H103     1.0000 0.40399  0.48172  0.02232  Biso   1.000  H
  C116     1.0000 0.87322  0.61457  0.42593  Biso   1.000  C
  N72      1.0000 0.88255  0.49485  0.33153  Biso   1.000  N
  H104     1.0000 0.88791  0.39393  0.33641  Biso   1.000  H
  H105     1.0000 0.94200  0.45572  0.38361  Biso   1.000  H
  N73      1.0000 0.49541  0.67953  0.13292  Biso   1.000  N
  H106     1.0000 0.40766  0.72562  0.11430  Biso   1.000  H
  H107     1.0000 0.43759  0.73493  0.17282  Biso   1.000  H
  C117     1.0000 0.50316  0.64662  0.08412  Biso   1.000  C
  C118     1.0000 0.53909  0.53500  0.07011  Biso   1.000  C
  N74      1.0000 0.87941  0.61632  0.37910  Biso   1.000  N
  H108     1.0000 0.85915  0.65986  0.44132  Biso   1.000  H
  H109     1.0000 0.92283  0.61344  0.44713  Biso   1.000  H
  C119     1.0000 0.91981  0.56972  0.35261  Biso   1.000  C
  C120     1.0000 0.86220  0.47512  0.28082  Biso   1.000  C
  C121     1.0000 0.56245  0.72222  0.16440  Biso   1.000  C
  C122     1.0000 0.58596  0.66009  0.09261  Biso   1.000  C
  H110     1.0000 0.47806  0.66942  0.05849  Biso   1.000  H
  O43      1.0000 0.53487  0.46899  0.05704  Biso   1.000  O
  N75      1.0000 0.60295  0.58771  0.09019  Biso   1.000  N
  C123     1.0000 0.86492  0.67133  0.35820  Biso   1.000  C
  H111     1.0000 0.97170  0.57432  0.37381  Biso   1.000  H
  C124     1.0000 0.92063  0.59914  0.30701  Biso   1.000  C
  O44      1.0000 0.83571  0.41504  0.25512  Biso   1.000  O
  N76      1.0000 0.87689  0.53742  0.26510  Biso   1.000  N
  O45      1.0000 0.57149  0.76300  0.20561  Biso   1.000  O
  N77      1.0000 0.61609  0.71054  0.14101  Biso   1.000  N
  H112     1.0000 0.60059  0.68000  0.06639  Biso   1.000  H
  C125     1.0000 0.67249  0.57059  0.08699  Biso   1.000  C
  O46      1.0000 0.84062  0.72205  0.37593  Biso   1.000  O
  N78      1.0000 0.88442  0.65985  0.31480  Biso   1.000  N
  H113     1.0000 0.97242  0.61383  0.30523  Biso   1.000  H
  C126     1.0000 0.87499  0.53533  0.21481  Biso   1.000  C
  C127     1.0000 0.69358  0.75192  0.15829  Biso   1.000  C
  N79      1.0000 0.72861  0.58873  0.13412  Biso   1.000  N
  H114     1.0000 0.68125  0.54909  0.05629  Biso   1.000  H
  C128     1.0000 0.89398  0.71535  0.28921  Biso   1.000  C
  N80      1.0000 0.82201  0.57450  0.19361  Biso   1.000  N
  H115     1.0000 0.86172  0.48423  0.19432  Biso   1.000  H
  H116     1.0000 0.92531  0.55645  0.21403  Biso   1.000  H
  N81      1.0000 0.74416  0.71450  0.18292  Biso   1.000  N
  H117     1.0000 0.70880  0.76113  0.12942  Biso   1.000  H
  H118     1.0000 0.69629  0.79933  0.18150  Biso   1.000  H
  C129     1.0000 0.77648  0.66192  0.15632  Biso   1.000  C
  C130     1.0000 0.75769  0.53874  0.15621  Biso   1.000  C
  N82      1.0000 0.83632  0.69933  0.24141  Biso   1.000  N
  H119     1.0000 0.94360  0.71932  0.28332  Biso   1.000  H
  H120     1.0000 0.89230  0.76253  0.31081  Biso   1.000  H
  C131     1.0000 0.84161  0.65002  0.19711  Biso   1.000  C
  C132     1.0000 0.78371  0.73701  0.23250  Biso   1.000  C
  H121     1.0000 0.79557  0.67971  0.13091  Biso   1.000  H
  O47      1.0000 0.73208  0.47371  0.14261  Biso   1.000  O
  H122     1.0000 0.89101  0.66254  0.19100  Biso   1.000  H
  O48      1.0000 0.76881  0.78522  0.26272  Biso   1.000  O
  N83      1.0000 0.46493  0.69053  0.40022  Biso   1.000  N
  C133     1.0000 0.59200  0.70362  0.40700  Biso   1.000  C
  H123     1.0000 0.50493  0.65431  0.34091  Biso   1.000  H
  N84      1.0000 0.52290  0.76526  0.35611  Biso   1.000  N
  H124     1.0000 0.50489  0.65436  0.34091  Biso   1.000  H
  C134     1.0000 0.50184  0.69858  0.44944  Biso   1.000  C
  C135     1.0000 0.51651  0.69755  0.37042  Biso   1.000  C
  C136     1.0000 0.38589  0.66663  0.37891  Biso   1.000  C
  N85      1.0000 0.57491  0.71134  0.45514  Biso   1.000  N
  N86      1.0000 0.63682  0.77010  0.40473  Biso   1.000  N
  H125     1.0000 0.61439  0.66041  0.39780  Biso   1.000  H
  N87      1.0000 0.63682  0.77016  0.40473  Biso   1.000  N
  H126     1.0000 0.61440  0.66046  0.39780  Biso   1.000  H
  C137     1.0000 0.47660  0.76971  0.31040  Biso   1.000  C
  C138     1.0000 0.59630  0.80275  0.37370  Biso   1.000  C
  O49      1.0000 0.47063  0.69387  0.48159  Biso   1.000  O
  N88      1.0000 0.34862  0.71963  0.36297  Biso   1.000  N
  H127     1.0000 0.37604  0.62370  0.34993  Biso   1.000  H
  H128     1.0000 0.37599  0.62375  0.34993  Biso   1.000  H
  H129     1.0000 0.36439  0.65112  0.40380  Biso   1.000  H
  C139     1.0000 0.63031  0.70703  0.49951  Biso   1.000  C
  C140     1.0000 0.71811  0.78647  0.42142  Biso   1.000  C
  N89      1.0000 0.40484  0.78693  0.31413  Biso   1.000  N
  H130     1.0000 0.46762  0.72288  0.28492  Biso   1.000  H
  H131     1.0000 0.50311  0.80740  0.29923  Biso   1.000  H
  N90      1.0000 0.40478  0.78693  0.31413  Biso   1.000  N
  H132     1.0000 0.46758  0.72294  0.28492  Biso   1.000  H
  H133     1.0000 0.50311  0.80745  0.29923  Biso   1.000  H
  O50      1.0000 0.62099  0.85753  0.36319  Biso   1.000  O
  C141     1.0000 0.29342  0.74363  0.38040  Biso   1.000  C
  C142     1.0000 0.34378  0.73262  0.31432  Biso   1.000  C
  H134     1.0000 0.60402  0.69393  0.52301  Biso   1.000  H
  H135     1.0000 0.65696  0.66802  0.48963  Biso   1.000  H
  N91      1.0000 0.68354  0.77299  0.52443  Biso   1.000  N
  H136     1.0000 0.65692  0.66807  0.48963  Biso   1.000  H
  N92      1.0000 0.75062  0.82253  0.47335  Biso   1.000  N
  H137     1.0000 0.73581  0.74052  0.41371  Biso   1.000  H
  H138     1.0000 0.73651  0.81704  0.40201  Biso   1.000  H
  C143     1.0000 0.37717  0.83700  0.29211  Biso   1.000  C
  N93      1.0000 0.25452  0.77939  0.34870  Biso   1.000  N
  O51      1.0000 0.27802  0.73606  0.41993  Biso   1.000  O
  N94      1.0000 0.25447  0.77944  0.34870  Biso   1.000  N
  H139     1.0000 0.33810  0.68625  0.28842  Biso   1.000  H
  C144     1.0000 0.27450  0.76546  0.30273  Biso   1.000  C
  C145     1.0000 0.75302  0.78904  0.51351  Biso   1.000  C
  C146     1.0000 0.68773  0.81029  0.57223  Biso   1.000  C
  C147     1.0000 0.79511  0.89004  0.48963  Biso   1.000  C
  N95      1.0000 0.30151  0.82841  0.28913  Biso   1.000  N
  O52      1.0000 0.41072  0.88123  0.27751  Biso   1.000  O
  O53      1.0000 0.41067  0.88123  0.27751  Biso   1.000  O
  C148     1.0000 0.18279  0.79452  0.35332  Biso   1.000  C
  H140     1.0000 0.23328  0.73115  0.27471  Biso   1.000  H
  C149     1.0000 0.80393  0.84786  0.56023  Biso   1.000  C
  H141     1.0000 0.77505  0.74482  0.50752  Biso   1.000  H
  H142     1.0000 0.77501  0.74487  0.50752  Biso   1.000  H
  N96      1.0000 0.75542  0.85877  0.59253  Biso   1.000  N
  O54      1.0000 0.63913  0.80339  0.59227  Biso   1.000  O
  N97      1.0000 0.82153  0.90865  0.54153  Biso   1.000  N
  O55      1.0000 0.80823  0.92934  0.46400  Biso   1.000  O
  C150     1.0000 0.25247  0.87214  0.26711  Biso   1.000  C
  N98      1.0000 0.18230  0.87112  0.36103  Biso   1.000  N
  H143     1.0000 0.17201  0.77915  0.38163  Biso   1.000  H
  H144     1.0000 0.14302  0.76642  0.32262  Biso   1.000  H
  H145     1.0000 0.14297  0.76642  0.32262  Biso   1.000  H
  H146     1.0000 0.84973  0.83175  0.57614  Biso   1.000  H
  C151     1.0000 0.78295  0.89290  0.64614  Biso   1.000  C
  C152     1.0000 0.87282  0.97682  0.57092  Biso   1.000  C
  C153     1.0000 0.87282  0.97688  0.57092  Biso   1.000  C
  N99      1.0000 0.23168  0.92451  0.30351  Biso   1.000  N
  H147     1.0000 0.27797  0.89810  0.24800  Biso   1.000  H
  H148     1.0000 0.20661  0.83931  0.24342  Biso   1.000  H
  H149     1.0000 0.20656  0.83931  0.24342  Biso   1.000  H
  C154     1.0000 0.16768  0.90512  0.32031  Biso   1.000  C
  C155     1.0000 0.17349  0.91381  0.40451  Biso   1.000  C
  C156     1.0000 0.17350  0.91386  0.40451  Biso   1.000  C
  N100     1.0000 0.78785  0.96977  0.65955  Biso   1.000  N
  H150     1.0000 0.83303  0.88286  0.65892  Biso   1.000  H
  H151     1.0000 0.74933  0.87078  0.66264  Biso   1.000  H
  H152     1.0000 0.91822  0.96646  0.59141  Biso   1.000  H
  N101     1.0000 0.84000  0.02191  0.60281  Biso   1.000  N
  H153     1.0000 0.88809  0.00321  0.54824  Biso   1.000  H
  C157     1.0000 0.25157  0.99481  0.31301  Biso   1.000  C
  H154     1.0000 0.12390  0.87568  0.29200  Biso   1.000  H
  H155     1.0000 0.12386  0.87573  0.29200  Biso   1.000  H
  C158     1.0000 0.15216  0.97843  0.34542  Biso   1.000  C
  O56      1.0000 0.18130  0.89654  0.44385  Biso   1.000  O
  N102     1.0000 0.16012  0.97821  0.39721  Biso   1.000  N
  N103     1.0000 0.16007  0.97826  0.39721  Biso   1.000  N
  C159     1.0000 0.84792  0.02170  0.65463  Biso   1.000  C
  C160     1.0000 0.74851  0.00533  0.68705  Biso   1.000  C
  C161     1.0000 0.84787  0.02175  0.65463  Biso   1.000  C
  C162     1.0000 0.82657  0.08631  0.59551  Biso   1.000  C
  N104     1.0000 0.21226  0.03035  0.34047  Biso   1.000  N
  N105     1.0000 0.21222  0.03040  0.34047  Biso   1.000  N
  O57      1.0000 0.30194  0.02707  0.29830  Biso   1.000  O
  H156     1.0000 0.10169  0.98513  0.32862  Biso   1.000  H
  C163     1.0000 0.12725  0.02326  0.42913  Biso   1.000  C
  C164     1.0000 0.12726  0.02331  0.42913  Biso   1.000  C
  C165     1.0000 0.83240  0.09502  0.67974  Biso   1.000  C
  H157     1.0000 0.89839  0.01506  0.67144  Biso   1.000  H
  O58      1.0000 0.69814  0.97307  0.70176  Biso   1.000  O
  N106     1.0000 0.76840  0.07562  0.69655  Biso   1.000  N
  O59      1.0000 0.81878  0.10359  0.55621  Biso   1.000  O
  N107     1.0000 0.81778  0.12901  0.63902  Biso   1.000  N
  C166     1.0000 0.21714  0.10729  0.35392  Biso   1.000  C
  H158     1.0000 0.11200  0.99697  0.45182  Biso   1.000  H
  H159     1.0000 0.08184  0.03366  0.40861  Biso   1.000  H
  N108     1.0000 0.17855  0.09149  0.45853  Biso   1.000  N
  H160     1.0000 0.08185  0.03371  0.40861  Biso   1.000  H
  H161     1.0000 0.87620  0.12439  0.70802  Biso   1.000  H
  H162     1.0000 0.87621  0.12444  0.70802  Biso   1.000  H
  C167     1.0000 0.74762  0.12805  0.73294  Biso   1.000  C
  C168     1.0000 0.81729  0.20561  0.64674  Biso   1.000  C
  H163     1.0000 0.16703  0.11726  0.34110  Biso   1.000  H
  H164     1.0000 0.25074  0.12935  0.33741  Biso   1.000  H
  N109     1.0000 0.24466  0.14137  0.40753  Biso   1.000  N
  H165     1.0000 0.25075  0.12941  0.33741  Biso   1.000  H
  N110     1.0000 0.24466  0.14142  0.40753  Biso   1.000  N
  C169     1.0000 0.19615  0.15227  0.43983  Biso   1.000  C
  C170     1.0000 0.20496  0.11009  0.51042  Biso   1.000  C
  C171     1.0000 0.19616  0.15232  0.43983  Biso   1.000  C
  N111     1.0000 0.69862  0.17172  0.71093  Biso   1.000  N
  H166     1.0000 0.72210  0.10202  0.75202  Biso   1.000  H
  N112     1.0000 0.69856  0.17172  0.71093  Biso   1.000  N
  H167     1.0000 0.79347  0.16082  0.75664  Biso   1.000  H
  N113     1.0000 0.74559  0.22068  0.65132  Biso   1.000  N
  N114     1.0000 0.74555  0.22073  0.65132  Biso   1.000  N
  H168     1.0000 0.85706  0.23372  0.67743  Biso   1.000  H
  H169     1.0000 0.82807  0.22103  0.61842  Biso   1.000  H
  C172     1.0000 0.31236  0.18990  0.42783  Biso   1.000  C
  H170     1.0000 0.15035  0.16838  0.42392  Biso   1.000  H
  C173     1.0000 0.24704  0.21108  0.48651  Biso   1.000  C
  O60      1.0000 0.19189  0.07078  0.53602  Biso   1.000  O
  N115     1.0000 0.24945  0.17761  0.52670  Biso   1.000  N
  O61      1.0000 0.19184  0.07083  0.53602  Biso   1.000  O
  C174     1.0000 0.72558  0.23472  0.69733  Biso   1.000  C
  C175     1.0000 0.62291  0.16313  0.70795  Biso   1.000  C
  C176     1.0000 0.70664  0.25649  0.61962  Biso   1.000  C
  C177     1.0000 0.70665  0.25654  0.61962  Biso   1.000  C
  O62      1.0000 0.36095  0.19679  0.40779  Biso   1.000  O
  N116     1.0000 0.31655  0.22720  0.47563  Biso   1.000  N
  H171     1.0000 0.22508  0.25531  0.49254  Biso   1.000  H
  H172     1.0000 0.22503  0.25531  0.49254  Biso   1.000  H
  C178     1.0000 0.28198  0.21372  0.57864  Biso   1.000  C
  C179     1.0000 0.65630  0.26752  0.68574  Biso   1.000  C
  H173     1.0000 0.76680  0.26904  0.72534  Biso   1.000  H
  O63      1.0000 0.58941  0.11891  0.72255  Biso   1.000  O
  N117     1.0000 0.59529  0.21321  0.68593  Biso   1.000  N
  O64      1.0000 0.58936  0.11896  0.72255  Biso   1.000  O
  O65      1.0000 0.72205  0.26411  0.58009  Biso   1.000  O
  N118     1.0000 0.65151  0.28051  0.63709  Biso   1.000  N
  N119     1.0000 0.65146  0.28051  0.63709  Biso   1.000  N
  C180     1.0000 0.36975  0.29309  0.50051  Biso   1.000  C
  N120     1.0000 0.36325  0.22998  0.59533  Biso   1.000  N
  H174     1.0000 0.26425  0.25959  0.58631  Biso   1.000  H
  N121     1.0000 0.36326  0.23003  0.59533  Biso   1.000  N
  H175     1.0000 0.26357  0.18314  0.59804  Biso   1.000  H
  H176     1.0000 0.66199  0.31393  0.71163  Biso   1.000  H
  C181     1.0000 0.52346  0.23041  0.68962  Biso   1.000  C
  C182     1.0000 0.61419  0.33351  0.62114  Biso   1.000  C
  N122     1.0000 0.42516  0.28879  0.54492  Biso   1.000  N
  H177     1.0000 0.39604  0.30618  0.47701  Biso   1.000  H
  H178     1.0000 0.34316  0.33206  0.51042  Biso   1.000  H
  H179     1.0000 0.34312  0.33211  0.51042  Biso   1.000  H
  C183     1.0000 0.40807  0.29649  0.59302  Biso   1.000  C
  C184     1.0000 0.40377  0.19742  0.62632  Biso   1.000  C
  N123     1.0000 0.47719  0.23493  0.64394  Biso   1.000  N
  H180     1.0000 0.53250  0.27720  0.71514  Biso   1.000  H
  H181     1.0000 0.49697  0.19273  0.70083  Biso   1.000  H
  H182     1.0000 0.53246  0.27725  0.71514  Biso   1.000  H
  H183     1.0000 0.62408  0.37638  0.65013  Biso   1.000  H
  H184     1.0000 0.63568  0.34900  0.59622  Biso   1.000  H
  N124     1.0000 0.53514  0.30960  0.59983  Biso   1.000  N
  H185     1.0000 0.62404  0.37643  0.65013  Biso   1.000  H
  H186     1.0000 0.63562  0.34900  0.59622  Biso   1.000  H
  C185     1.0000 0.49825  0.30160  0.55062  Biso   1.000  C
  H187     1.0000 0.38567  0.33971  0.60222  Biso   1.000  H
  C186     1.0000 0.48357  0.30259  0.62964  Biso   1.000  C
  C187     1.0000 0.48358  0.30264  0.62964  Biso   1.000  C
  O66      1.0000 0.37908  0.14261  0.63686  Biso   1.000  O
  O67      1.0000 0.52944  0.30630  0.51843  Biso   1.000  O
  H188     1.0000 0.49520  0.34583  0.65914  Biso   1.000  H
  H189     1.0000 0.49514  0.34583  0.65914  Biso   1.000  H
  O68      1.0000 0.46433  0.45675  0.54410  Biso   1.000  O
  C188     1.0000 0.46083  0.51966  0.55543  Biso   1.000  C
  N125     1.0000 0.39776  0.54765  0.55062  Biso   1.000  N
  N126     1.0000 0.52134  0.57875  0.57521  Biso   1.000  N
  C189     1.0000 0.32722  0.50164  0.52123  Biso   1.000  C
  C190     1.0000 0.41432  0.62595  0.55971  Biso   1.000  C
  C191     1.0000 0.49686  0.64667  0.58333  Biso   1.000  C
  C192     1.0000 0.59526  0.57147  0.57662  Biso   1.000  C
  N127     1.0000 0.26973  0.49944  0.54801  Biso   1.000  N
  H190     1.0000 0.30834  0.51857  0.49161  Biso   1.000  H
  H191     1.0000 0.33496  0.45186  0.50942  Biso   1.000  H
  N128     1.0000 0.38364  0.66556  0.59622  Biso   1.000  N
  H192     1.0000 0.40014  0.63987  0.52793  Biso   1.000  H
  N129     1.0000 0.50402  0.68168  0.63511  Biso   1.000  N
  H193     1.0000 0.52136  0.68039  0.56772  Biso   1.000  H
  N130     1.0000 0.64636  0.58717  0.62442  Biso   1.000  N
  H194     1.0000 0.60973  0.55677  0.54704  Biso   1.000  H
  C193     1.0000 0.24264  0.43578  0.55882  Biso   1.000  C
  C194     1.0000 0.22105  0.54955  0.55133  Biso   1.000  C
  C195     1.0000 0.30682  0.67595  0.58843  Biso   1.000  C
  C196     1.0000 0.43664  0.69666  0.64051  Biso   1.000  C
  C197     1.0000 0.57555  0.72999  0.66842  Biso   1.000  C
  C198     1.0000 0.69104  0.54139  0.63724  Biso   1.000  C
  C199     1.0000 0.67615  0.66126  0.65583  Biso   1.000  C
  O69      1.0000 0.26846  0.38087  0.55494  Biso   1.000  O
  N131     1.0000 0.18083  0.44678  0.57394  Biso   1.000  N
  N132     1.0000 0.25376  0.61688  0.59011  Biso   1.000  N
  H195     1.0000 0.20102  0.55875  0.51843  Biso   1.000  H
  C200     1.0000 0.16006  0.51309  0.56712  Biso   1.000  C
  H196     1.0000 0.29006  0.68536  0.55554  Biso   1.000  H
  H197     1.0000 0.30642  0.71980  0.61403  Biso   1.000  H
  O70      1.0000 0.42725  0.73236  0.67892  Biso   1.000  O
  N133     1.0000 0.62975  0.69057  0.68563  Biso   1.000  N
  H198     1.0000 0.58393  0.78139  0.67714  Biso   1.000  H
  O71      1.0000 0.68554  0.47949  0.61295  Biso   1.000  O
  N134     1.0000 0.74498  0.57769  0.68023  Biso   1.000  N
  C201     1.0000 0.74583  0.65506  0.69424  Biso   1.000  C
  H199     1.0000 0.68956  0.69419  0.63593  Biso   1.000  H
  C202     1.0000 0.12686  0.38555  0.57413  Biso   1.000  C
  C203     1.0000 0.21852  0.62568  0.62442  Biso   1.000  C
  N135     1.0000 0.16265  0.56508  0.61392  Biso   1.000  N
  H200     1.0000 0.11055  0.50377  0.54172  Biso   1.000  H
  C204     1.0000 0.66544  0.70648  0.73574  Biso   1.000  C
  C205     1.0000 0.80879  0.54790  0.70184  Biso   1.000  C
  N136     1.0000 0.73139  0.68227  0.74114  Biso   1.000  N
  H201     1.0000 0.79228  0.68420  0.69215  Biso   1.000  H
  N137     1.0000 0.12066  0.38377  0.62092  Biso   1.000  N
  H202     1.0000 0.14098  0.34025  0.55874  Biso   1.000  H
  H203     1.0000 0.07725  0.38667  0.55293  Biso   1.000  H
  O72      1.0000 0.22926  0.67990  0.65933  Biso   1.000  O
  C206     1.0000 0.10846  0.55840  0.64044  Biso   1.000  C
  O73      1.0000 0.64613  0.74217  0.76860  Biso   1.000  O
  N138     1.0000 0.80777  0.53491  0.74855  Biso   1.000  N
  H204     1.0000 0.85558  0.58217  0.70653  Biso   1.000  H
  H205     1.0000 0.80858  0.50180  0.67814  Biso   1.000  H
  C207     1.0000 0.78759  0.70047  0.78804  Biso   1.000  C
  C208     1.0000 0.13514  0.32877  0.64182  Biso   1.000  C
  C209     1.0000 0.08027  0.43039  0.64744  Biso   1.000  C
  N139     1.0000 0.11753  0.50526  0.66853  Biso   1.000  N
  H206     1.0000 0.11216  0.60617  0.66361  Biso   1.000  H
  H207     1.0000 0.05806  0.54438  0.61641  Biso   1.000  H
  C210     1.0000 0.78339  0.46868  0.75455  Biso   1.000  C
  C211     1.0000 0.84139  0.58927  0.79672  Biso   1.000  C
  N140     1.0000 0.79490  0.63989  0.80995  Biso   1.000  N
  H208     1.0000 0.83617  0.71911  0.78353  Biso   1.000  H
  H209     1.0000 0.77566  0.74002  0.81174  Biso   1.000  H
  O74      1.0000 0.15945  0.27807  0.62412  Biso   1.000  O
  N141     1.0000 0.11566  0.34031  0.68522  Biso   1.000  N
  H210     1.0000 0.02838  0.42579  0.62625  Biso   1.000  H
  C212     1.0000 0.07945  0.40097  0.69304  Biso   1.000  C
  C213     1.0000 0.13788  0.52500  0.71923  Biso   1.000  C
  O75      1.0000 0.75707  0.41292  0.72031  Biso   1.000  O
  N142     1.0000 0.79621  0.47390  0.80384  Biso   1.000  N
  C214     1.0000 0.84319  0.54641  0.83454  Biso   1.000  C
  H211     1.0000 0.89249  0.61499  0.79944  Biso   1.000  H
  C215     1.0000 0.78308  0.64161  0.85443  Biso   1.000  C
  C216     1.0000 0.10610  0.28482  0.71085  Biso   1.000  C
  N143     1.0000 0.12318  0.46268  0.73492  Biso   1.000  N
  H212     1.0000 0.02766  0.38629  0.69483  Biso   1.000  H
  O76      1.0000 0.16437  0.58508  0.74494  Biso   1.000  O
  C217     1.0000 0.79189  0.41223  0.82396  Biso   1.000  C
  N144     1.0000 0.80920  0.58521  0.86903  Biso   1.000  N
  H213     1.0000 0.89508  0.54299  0.85123  Biso   1.000  H
  O77      1.0000 0.75837  0.68693  0.87891  Biso   1.000  O
  N145     1.0000 0.16376  0.30078  0.75865  Biso   1.000  N
  H214     1.0000 0.05648  0.28079  0.71674  Biso   1.000  H
  H215     1.0000 0.10778  0.23758  0.68924  Biso   1.000  H
  C218     1.0000 0.12509  0.46479  0.78525  Biso   1.000  C
  N146     1.0000 0.73420  0.40949  0.84914  Biso   1.000  N
  H216     1.0000 0.78121  0.36718  0.79654  Biso   1.000  H
  H217     1.0000 0.84069  0.41511  0.84772  Biso   1.000  H
  C219     1.0000 0.81278  0.57390  0.91735  Biso   1.000  C
  C220     1.0000 0.21637  0.26310  0.76755  Biso   1.000  C
  C221     1.0000 0.15847  0.35010  0.80294  Biso   1.000  C
  N147     1.0000 0.17807  0.42562  0.80645  Biso   1.000  N
  H218     1.0000 0.13836  0.51589  0.80574  Biso   1.000  H
  H219     1.0000 0.07478  0.44371  0.78603  Biso   1.000  H
  C222     1.0000 0.66843  0.35699  0.82995  Biso   1.000  C
  C223     1.0000 0.74869  0.44221  0.90156  Biso   1.000  C
  N148     1.0000 0.74960  0.51793  0.91575  Biso   1.000  N
  H220     1.0000 0.86028  0.55902  0.93013  Biso   1.000  H
  H221     1.0000 0.81269  0.62024  0.94086  Biso   1.000  H
  O78      1.0000 0.23127  0.21489  0.73734  Biso   1.000  O
  N149     1.0000 0.25592  0.28562  0.81714  Biso   1.000  N
  H222     1.0000 0.10908  0.33762  0.80905  Biso   1.000  H
  C224     1.0000 0.22360  0.33820  0.84374  Biso   1.000  C
  C225     1.0000 0.24239  0.46143  0.84385  Biso   1.000  C
  O79      1.0000 0.64707  0.31679  0.78774  Biso   1.000  O
  N150     1.0000 0.63229  0.36093  0.86523  Biso   1.000  N
  C226     1.0000 0.67722  0.40824  0.91385  Biso   1.000  C
  H223     1.0000 0.79479  0.43073  0.92134  Biso   1.000  H
  C227     1.0000 0.69641  0.53394  0.93773  Biso   1.000  C
  C228     1.0000 0.30648  0.24818  0.84173  Biso   1.000  C
  N151     1.0000 0.27147  0.41138  0.86594  Biso   1.000  N
  H224     1.0000 0.20451  0.32040  0.86915  Biso   1.000  H
  O80      1.0000 0.26800  0.52641  0.85745  Biso   1.000  O
  C229     1.0000 0.57353  0.29980  0.86065  Biso   1.000  C
  N152     1.0000 0.64707  0.47049  0.93218  Biso   1.000  N
  H225     1.0000 0.68961  0.38072  0.93915  Biso   1.000  H
  O81      1.0000 0.68860  0.59492  0.95975  Biso   1.000  O
  N153     1.0000 0.38400  0.28963  0.85905  Biso   1.000  N
  H226     1.0000 0.29128  0.23898  0.87064  Biso   1.000  H
  H227     1.0000 0.30379  0.20079  0.81855  Biso   1.000  H
  C230     1.0000 0.32757  0.42951  0.91303  Biso   1.000  C
  N154     1.0000 0.50473  0.32063  0.86713  Biso   1.000  N
  H228     1.0000 0.59241  0.27453  0.88572  Biso   1.000  H
  H229     1.0000 0.56249  0.26518  0.82723  Biso   1.000  H
  C231     1.0000 0.59661  0.46823  0.96034  Biso   1.000  C
  C232     1.0000 0.43763  0.27790  0.83565  Biso   1.000  C
  C233     1.0000 0.41412  0.34003  0.90744  Biso   1.000  C
  N155     1.0000 0.39711  0.41239  0.90983  Biso   1.000  N
  H230     1.0000 0.31881  0.45101  0.94373  Biso   1.000  H
  C234     1.0000 0.49692  0.35350  0.91594  Biso   1.000  C
  N156     1.0000 0.52067  0.43150  0.93203  Biso   1.000  N
  H231     1.0000 0.61481  0.44363  0.98605  Biso   1.000  H
  H232     1.0000 0.59610  0.51845  0.97774  Biso   1.000  H
  O82      1.0000 0.42859  0.23711  0.79445  Biso   1.000  O
  H233     1.0000 0.39953  0.32010  0.93363  Biso   1.000  H
  C235     1.0000 0.46099  0.46511  0.92994  Biso   1.000  C
  H234     1.0000 0.52201  0.33073  0.94153  Biso   1.000  H
  O83      1.0000 0.46519  0.53111  0.94298  Biso   1.000  O
  Ne1      1.0000 0.54527  0.50959  0.25824  Biso   1.000  Ne
  He1      1.0000 0.55043  0.66282  0.32856  Biso   1.000  He
  He2      1.0000 0.53748  0.35381  0.17626  Biso   1.000  He
  Ar1      1.0000 0.54779  0.50998  0.25921  Biso   1.000  Ar
  Ne2      1.0000 0.50581  0.00298  0.00185  Biso   1.000  Ne
  He3      1.0000 0.57481  0.93847  0.10299  Biso   1.000  He
  He4      1.0000 0.42479  0.06196  0.89650  Biso   1.000  He
  Ar2      1.0000 0.50478  0.00017  0.99992  Biso   1.000  Ar
  Ne3      1.0000 0.49022  0.00867  0.49999  Biso   1.000  Ne
  He5      1.0000 0.44040  0.92501  0.56091  Biso   1.000  He
  He6      1.0000 0.57502  0.09169  0.42252  Biso   1.000  He
  Ar3      1.0000 0.49363  0.00120  0.49501  Biso   1.000  Ar
  Ne4      1.0000 0.45481  0.49053  0.74181  Biso   1.000  Ne
  He7      1.0000 0.46235  0.65633  0.82842  Biso   1.000  He
  He8      1.0000 0.46516  0.35152  0.66741  Biso   1.000  He
  Ar4      1.0000 0.45227  0.49013  0.74083  Biso   1.000  Ar
