data_image0
_cell_length_a       20.33
_cell_length_b       20.33
_cell_length_c       20.33
_cell_angle_alpha    90
_cell_angle_beta     90
_cell_angle_gamma    90

_symmetry_space_group_name_H-M    "P 1"
_symmetry_int_tables_number       1

loop_
  _symmetry_equiv_pos_as_xyz
  'x, y, z'

loop_
  _atom_site_label
  _atom_site_occupancy
  _atom_site_fract_x
  _atom_site_fract_y
  _atom_site_fract_z
  _atom_site_thermal_displace_type
  _atom_site_B_iso_or_equiv
  _atom_site_type_symbol
  C1       1.0000 0.90915  0.83242  0.82086  Biso   1.000  C
  C2       1.0000 0.87575  0.88810  0.79882  Biso   1.000  C
  C3       1.0000 0.88810  0.79882  0.87575  Biso   1.000  C
  H1       1.0000 0.94688  0.81741  0.79769  Biso   1.000  H
  H2       1.0000 0.94693  0.81741  0.79769  Biso   1.000  H
  C4       1.0000 0.90059  0.92700  0.73984  Biso   1.000  C
  C5       1.0000 0.82086  0.90915  0.83242  Biso   1.000  C
  C6       1.0000 0.83242  0.82086  0.90915  Biso   1.000  C
  C7       1.0000 0.92700  0.73984  0.90059  Biso   1.000  C
  N1       1.0000 0.97245  0.93109  0.73896  Biso   1.000  N
  N2       1.0000 0.97245  0.93114  0.73896  Biso   1.000  N
  H3       1.0000 0.88190  0.97191  0.74132  Biso   1.000  H
  H4       1.0000 0.88519  0.90561  0.69892  Biso   1.000  H
  H5       1.0000 0.79769  0.94688  0.81741  Biso   1.000  H
  C8       1.0000 0.79882  0.87575  0.88810  Biso   1.000  C
  H6       1.0000 0.79769  0.94693  0.81741  Biso   1.000  H
  H7       1.0000 0.81741  0.79769  0.94688  Biso   1.000  H
  H8       1.0000 0.81741  0.79769  0.94693  Biso   1.000  H
  N3       1.0000 0.93109  0.73896  0.97245  Biso   1.000  N
  H9       1.0000 0.97191  0.74132  0.88190  Biso   1.000  H
  H10      1.0000 0.90561  0.69892  0.88519  Biso   1.000  H
  N4       1.0000 0.93114  0.73896  0.97245  Biso   1.000  N
  C9       1.0000 0.01358  0.90989  0.69090  Biso   1.000  C
  C10      1.0000 0.01363  0.90989  0.69090  Biso   1.000  C
  C11      1.0000 0.00290  0.96272  0.79651  Biso   1.000  C
  C12      1.0000 0.73984  0.90059  0.92700  Biso   1.000  C
  C13      1.0000 0.96272  0.79651  0.00290  Biso   1.000  C
  C14      1.0000 0.90989  0.69090  0.01358  Biso   1.000  C
  C15      1.0000 0.90989  0.69090  0.01363  Biso   1.000  C
  C16      1.0000 0.98869  0.87418  0.63000  Biso   1.000  C
  C17      1.0000 0.98869  0.87423  0.63000  Biso   1.000  C
  O1       1.0000 0.07329  0.91854  0.69651  Biso   1.000  O
  H11      1.0000 0.98190  0.94530  0.83689  Biso   1.000  H
  C18      1.0000 0.99710  0.03728  0.79651  Biso   1.000  C
  H12      1.0000 0.05002  0.95061  0.79788  Biso   1.000  H
  N5       1.0000 0.73896  0.97245  0.93109  Biso   1.000  N
  H13      1.0000 0.74132  0.88190  0.97191  Biso   1.000  H
  H14      1.0000 0.69892  0.88519  0.90561  Biso   1.000  H
  N6       1.0000 0.73896  0.97245  0.93114  Biso   1.000  N
  H15      1.0000 0.94530  0.83689  0.98190  Biso   1.000  H
  H16      1.0000 0.95061  0.79788  0.05002  Biso   1.000  H
  C19      1.0000 0.03728  0.79651  0.99710  Biso   1.000  C
  C20      1.0000 0.87418  0.63000  0.98869  Biso   1.000  C
  C21      1.0000 0.87423  0.63000  0.98869  Biso   1.000  C
  O2       1.0000 0.91854  0.69651  0.07329  Biso   1.000  O
  C22      1.0000 0.94850  0.80679  0.63891  Biso   1.000  C
  Br1      1.0000 0.92774  0.92961  0.58032  Biso   1.000  Br
  Br2      1.0000 0.94245  0.79867  0.64643  Biso   1.000  Br
  C23      1.0000 0.95170  0.92691  0.58721  Biso   1.000  C
  C24      1.0000 0.04761  0.85470  0.58731  Biso   1.000  C
  H17      1.0000 0.94998  0.04939  0.79788  Biso   1.000  H
  H18      1.0000 0.95002  0.04939  0.79788  Biso   1.000  H
  N7       1.0000 0.02755  0.06891  0.73896  Biso   1.000  N
  H19      1.0000 0.01810  0.05470  0.83689  Biso   1.000  H
  C25      1.0000 0.79651  0.00290  0.96272  Biso   1.000  C
  C26      1.0000 0.69090  0.01358  0.90989  Biso   1.000  C
  C27      1.0000 0.69090  0.01363  0.90989  Biso   1.000  C
  H20      1.0000 0.04939  0.79788  0.94998  Biso   1.000  H
  H21      1.0000 0.04939  0.79788  0.95002  Biso   1.000  H
  N8       1.0000 0.06891  0.73896  0.02755  Biso   1.000  N
  H22      1.0000 0.05470  0.83689  0.01810  Biso   1.000  H
  Br3      1.0000 0.92961  0.58032  0.92774  Biso   1.000  Br
  C28      1.0000 0.80679  0.63891  0.94850  Biso   1.000  C
  Br4      1.0000 0.79867  0.64643  0.94245  Biso   1.000  Br
  C29      1.0000 0.92691  0.58721  0.95170  Biso   1.000  C
  C30      1.0000 0.85470  0.58731  0.04761  Biso   1.000  C
  H23      1.0000 0.93532  0.79011  0.59572  Biso   1.000  H
  H24      1.0000 0.97649  0.77418  0.66080  Biso   1.000  H
  H25      1.0000 0.90930  0.81490  0.66581  Biso   1.000  H
  H26      1.0000 0.97649  0.77423  0.66080  Biso   1.000  H
  H27      1.0000 0.93473  0.90610  0.54722  Biso   1.000  H
  H28      1.0000 0.91510  0.94540  0.61249  Biso   1.000  H
  H29      1.0000 0.98229  0.96222  0.57511  Biso   1.000  H
  H30      1.0000 0.07378  0.89390  0.57727  Biso   1.000  H
  H31      1.0000 0.07491  0.82282  0.61112  Biso   1.000  H
  H32      1.0000 0.03192  0.83502  0.54629  Biso   1.000  H
  H33      1.0000 0.07378  0.89390  0.57732  Biso   1.000  H
  C31      1.0000 0.98642  0.09011  0.69090  Biso   1.000  C
  C32      1.0000 0.09941  0.07300  0.73984  Biso   1.000  C
  H34      1.0000 0.83689  0.98190  0.94530  Biso   1.000  H
  C33      1.0000 0.79651  0.99710  0.03728  Biso   1.000  C
  H35      1.0000 0.79788  0.05002  0.95061  Biso   1.000  H
  C34      1.0000 0.63000  0.98869  0.87418  Biso   1.000  C
  C35      1.0000 0.63000  0.98869  0.87423  Biso   1.000  C
  O3       1.0000 0.69651  0.07329  0.91854  Biso   1.000  O
  C36      1.0000 0.09011  0.69090  0.98642  Biso   1.000  C
  C37      1.0000 0.07300  0.73984  0.09941  Biso   1.000  C
  H36      1.0000 0.79011  0.59572  0.93532  Biso   1.000  H
  H37      1.0000 0.77418  0.66080  0.97649  Biso   1.000  H
  H38      1.0000 0.81490  0.66581  0.90930  Biso   1.000  H
  H39      1.0000 0.77423  0.66080  0.97649  Biso   1.000  H
  H40      1.0000 0.90610  0.54722  0.93473  Biso   1.000  H
  H41      1.0000 0.94540  0.61249  0.91510  Biso   1.000  H
  H42      1.0000 0.96222  0.57511  0.98229  Biso   1.000  H
  H43      1.0000 0.89390  0.57727  0.07378  Biso   1.000  H
  H44      1.0000 0.82282  0.61112  0.07491  Biso   1.000  H
  H45      1.0000 0.83502  0.54629  0.03192  Biso   1.000  H
  H46      1.0000 0.89390  0.57732  0.07378  Biso   1.000  H
  O4       1.0000 0.92671  0.08146  0.69651  Biso   1.000  O
  C38      1.0000 0.01131  0.12582  0.63000  Biso   1.000  C
  C39      1.0000 0.12425  0.11190  0.79882  Biso   1.000  C
  H47      1.0000 0.11810  0.02809  0.74132  Biso   1.000  H
  H48      1.0000 0.11481  0.09439  0.69892  Biso   1.000  H
  H49      1.0000 0.79788  0.94998  0.04939  Biso   1.000  H
  H50      1.0000 0.79788  0.95002  0.04939  Biso   1.000  H
  N9       1.0000 0.73896  0.02755  0.06891  Biso   1.000  N
  H51      1.0000 0.83689  0.01810  0.05470  Biso   1.000  H
  Br5      1.0000 0.58032  0.92774  0.92961  Biso   1.000  Br
  C40      1.0000 0.63891  0.94850  0.80679  Biso   1.000  C
  Br6      1.0000 0.64643  0.94245  0.79867  Biso   1.000  Br
  C41      1.0000 0.58721  0.95170  0.92691  Biso   1.000  C
  C42      1.0000 0.58731  0.04761  0.85470  Biso   1.000  C
  O5       1.0000 0.08146  0.69651  0.92671  Biso   1.000  O
  C43      1.0000 0.12582  0.63000  0.01131  Biso   1.000  C
  C44      1.0000 0.11190  0.79882  0.12425  Biso   1.000  C
  H52      1.0000 0.02809  0.74132  0.11810  Biso   1.000  H
  H53      1.0000 0.09439  0.69892  0.11481  Biso   1.000  H
  C45      1.0000 0.95239  0.14530  0.58731  Biso   1.000  C
  Br7      1.0000 0.07226  0.07039  0.58032  Biso   1.000  Br
  C46      1.0000 0.05150  0.19321  0.63891  Biso   1.000  C
  Br8      1.0000 0.05755  0.20133  0.64643  Biso   1.000  Br
  C47      1.0000 0.04830  0.07309  0.58721  Biso   1.000  C
  C48      1.0000 0.17914  0.09085  0.83242  Biso   1.000  C
  C49      1.0000 0.09085  0.16758  0.82086  Biso   1.000  C
  C50      1.0000 0.69090  0.98642  0.09011  Biso   1.000  C
  C51      1.0000 0.73984  0.09941  0.07300  Biso   1.000  C
  H54      1.0000 0.59572  0.93532  0.79011  Biso   1.000  H
  H55      1.0000 0.66080  0.97649  0.77418  Biso   1.000  H
  H56      1.0000 0.66581  0.90930  0.81490  Biso   1.000  H
  H57      1.0000 0.66080  0.97649  0.77423  Biso   1.000  H
  H58      1.0000 0.54722  0.93473  0.90610  Biso   1.000  H
  H59      1.0000 0.61249  0.91510  0.94540  Biso   1.000  H
  H60      1.0000 0.57511  0.98229  0.96222  Biso   1.000  H
  H61      1.0000 0.57727  0.07378  0.89390  Biso   1.000  H
  H62      1.0000 0.61112  0.07491  0.82282  Biso   1.000  H
  H63      1.0000 0.54629  0.03192  0.83502  Biso   1.000  H
  H64      1.0000 0.57732  0.07378  0.89390  Biso   1.000  H
  C52      1.0000 0.14530  0.58731  0.95239  Biso   1.000  C
  Br9      1.0000 0.07039  0.58032  0.07226  Biso   1.000  Br
  C53      1.0000 0.19321  0.63891  0.05150  Biso   1.000  C
  Br10     1.0000 0.20133  0.64643  0.05755  Biso   1.000  Br
  C54      1.0000 0.07309  0.58721  0.04830  Biso   1.000  C
  C55      1.0000 0.09085  0.83242  0.17914  Biso   1.000  C
  C56      1.0000 0.16758  0.82086  0.09085  Biso   1.000  C
  H65      1.0000 0.92622  0.10610  0.57727  Biso   1.000  H
  H66      1.0000 0.92509  0.17718  0.61112  Biso   1.000  H
  H67      1.0000 0.96808  0.16498  0.54629  Biso   1.000  H
  H68      1.0000 0.92622  0.10610  0.57732  Biso   1.000  H
  H69      1.0000 0.92509  0.17723  0.61112  Biso   1.000  H
  H70      1.0000 0.96808  0.16503  0.54629  Biso   1.000  H
  H71      1.0000 0.96813  0.16498  0.54629  Biso   1.000  H
  H72      1.0000 0.96813  0.16503  0.54629  Biso   1.000  H
  H73      1.0000 0.06468  0.20989  0.59572  Biso   1.000  H
  H74      1.0000 0.02351  0.22582  0.66080  Biso   1.000  H
  H75      1.0000 0.09070  0.18510  0.66581  Biso   1.000  H
  H76      1.0000 0.06532  0.09390  0.54722  Biso   1.000  H
  H77      1.0000 0.08490  0.05460  0.61249  Biso   1.000  H
  H78      1.0000 0.01771  0.03778  0.57511  Biso   1.000  H
  H79      1.0000 0.20231  0.05312  0.81741  Biso   1.000  H
  C57      1.0000 0.20118  0.12425  0.88810  Biso   1.000  C
  C58      1.0000 0.20123  0.12425  0.88810  Biso   1.000  C
  H80      1.0000 0.05312  0.18259  0.79769  Biso   1.000  H
  C59      1.0000 0.11190  0.20118  0.87575  Biso   1.000  C
  C60      1.0000 0.11190  0.20123  0.87575  Biso   1.000  C
  O6       1.0000 0.69651  0.92671  0.08146  Biso   1.000  O
  C61      1.0000 0.63000  0.01131  0.12582  Biso   1.000  C
  C62      1.0000 0.79882  0.12425  0.11190  Biso   1.000  C
  H81      1.0000 0.74132  0.11810  0.02809  Biso   1.000  H
  H82      1.0000 0.69892  0.11481  0.09439  Biso   1.000  H
  H83      1.0000 0.10610  0.57727  0.92622  Biso   1.000  H
  H84      1.0000 0.17718  0.61112  0.92509  Biso   1.000  H
  H85      1.0000 0.16498  0.54629  0.96808  Biso   1.000  H
  H86      1.0000 0.16498  0.54629  0.96813  Biso   1.000  H
  H87      1.0000 0.10610  0.57732  0.92622  Biso   1.000  H
  H88      1.0000 0.17723  0.61112  0.92509  Biso   1.000  H
  H89      1.0000 0.16503  0.54629  0.96808  Biso   1.000  H
  H90      1.0000 0.16503  0.54629  0.96813  Biso   1.000  H
  H91      1.0000 0.20989  0.59572  0.06468  Biso   1.000  H
  H92      1.0000 0.22582  0.66080  0.02351  Biso   1.000  H
  H93      1.0000 0.18510  0.66581  0.09070  Biso   1.000  H
  H94      1.0000 0.09390  0.54722  0.06532  Biso   1.000  H
  H95      1.0000 0.05460  0.61249  0.08490  Biso   1.000  H
  H96      1.0000 0.03778  0.57511  0.01771  Biso   1.000  H
  H97      1.0000 0.05312  0.81741  0.20231  Biso   1.000  H
  C63      1.0000 0.12425  0.88810  0.20118  Biso   1.000  C
  C64      1.0000 0.12425  0.88810  0.20123  Biso   1.000  C
  C65      1.0000 0.20118  0.87575  0.11190  Biso   1.000  C
  H98      1.0000 0.18259  0.79769  0.05312  Biso   1.000  H
  C66      1.0000 0.20123  0.87575  0.11190  Biso   1.000  C
  C67      1.0000 0.26016  0.09941  0.92700  Biso   1.000  C
  C68      1.0000 0.16758  0.17914  0.90915  Biso   1.000  C
  C69      1.0000 0.07300  0.26016  0.90059  Biso   1.000  C
  C70      1.0000 0.58731  0.95239  0.14530  Biso   1.000  C
  Br11     1.0000 0.58032  0.07226  0.07039  Biso   1.000  Br
  C71      1.0000 0.63891  0.05150  0.19321  Biso   1.000  C
  Br12     1.0000 0.64643  0.05755  0.20133  Biso   1.000  Br
  C72      1.0000 0.58721  0.04830  0.07309  Biso   1.000  C
  C73      1.0000 0.82086  0.09085  0.16758  Biso   1.000  C
  C74      1.0000 0.83242  0.17914  0.09085  Biso   1.000  C
  C75      1.0000 0.09941  0.92700  0.26016  Biso   1.000  C
  C76      1.0000 0.17914  0.90915  0.16758  Biso   1.000  C
  C77      1.0000 0.26016  0.90059  0.07300  Biso   1.000  C
  N10      1.0000 0.26104  0.02755  0.93109  Biso   1.000  N
  H99      1.0000 0.25868  0.11810  0.97191  Biso   1.000  H
  H100     1.0000 0.30108  0.11481  0.90561  Biso   1.000  H
  N11      1.0000 0.26104  0.02755  0.93114  Biso   1.000  N
  H101     1.0000 0.18259  0.20231  0.94688  Biso   1.000  H
  H102     1.0000 0.18259  0.20231  0.94693  Biso   1.000  H
  N12      1.0000 0.06891  0.26104  0.97245  Biso   1.000  N
  H103     1.0000 0.02809  0.25868  0.88190  Biso   1.000  H
  H104     1.0000 0.09439  0.30108  0.88519  Biso   1.000  H
  H105     1.0000 0.57727  0.92622  0.10610  Biso   1.000  H
  H106     1.0000 0.61112  0.92509  0.17718  Biso   1.000  H
  H107     1.0000 0.54629  0.96808  0.16498  Biso   1.000  H
  H108     1.0000 0.61112  0.92509  0.17723  Biso   1.000  H
  H109     1.0000 0.54629  0.96808  0.16503  Biso   1.000  H
  H110     1.0000 0.54629  0.96813  0.16498  Biso   1.000  H
  H111     1.0000 0.54629  0.96813  0.16503  Biso   1.000  H
  H112     1.0000 0.57732  0.92622  0.10610  Biso   1.000  H
  H113     1.0000 0.59572  0.06468  0.20989  Biso   1.000  H
  H114     1.0000 0.66080  0.02351  0.22582  Biso   1.000  H
  H115     1.0000 0.66581  0.09070  0.18510  Biso   1.000  H
  H116     1.0000 0.54722  0.06532  0.09390  Biso   1.000  H
  H117     1.0000 0.61249  0.08490  0.05460  Biso   1.000  H
  H118     1.0000 0.57511  0.01771  0.03778  Biso   1.000  H
  H119     1.0000 0.79769  0.05312  0.18259  Biso   1.000  H
  C78      1.0000 0.87575  0.11190  0.20118  Biso   1.000  C
  C79      1.0000 0.87575  0.11190  0.20123  Biso   1.000  C
  H120     1.0000 0.81741  0.20231  0.05312  Biso   1.000  H
  C80      1.0000 0.88810  0.20118  0.12425  Biso   1.000  C
  C81      1.0000 0.88810  0.20123  0.12425  Biso   1.000  C
  N13      1.0000 0.02755  0.93109  0.26104  Biso   1.000  N
  H121     1.0000 0.11810  0.97191  0.25868  Biso   1.000  H
  H122     1.0000 0.11481  0.90561  0.30108  Biso   1.000  H
  N14      1.0000 0.02755  0.93114  0.26104  Biso   1.000  N
  H123     1.0000 0.20231  0.94688  0.18259  Biso   1.000  H
  H124     1.0000 0.20231  0.94693  0.18259  Biso   1.000  H
  N15      1.0000 0.26104  0.97245  0.06891  Biso   1.000  N
  H125     1.0000 0.25868  0.88190  0.02809  Biso   1.000  H
  H126     1.0000 0.30108  0.88519  0.09439  Biso   1.000  H
  C82      1.0000 0.20349  0.99710  0.96272  Biso   1.000  C
  C83      1.0000 0.30910  0.98642  0.90989  Biso   1.000  C
  C84      1.0000 0.03728  0.20349  0.00290  Biso   1.000  C
  C85      1.0000 0.09011  0.30910  0.01358  Biso   1.000  C
  C86      1.0000 0.09011  0.30910  0.01363  Biso   1.000  C
  C87      1.0000 0.90915  0.16758  0.17914  Biso   1.000  C
  C88      1.0000 0.90059  0.07300  0.26016  Biso   1.000  C
  C89      1.0000 0.92700  0.26016  0.09941  Biso   1.000  C
  C90      1.0000 0.99710  0.96272  0.20349  Biso   1.000  C
  C91      1.0000 0.98642  0.90989  0.30910  Biso   1.000  C
  C92      1.0000 0.20349  0.00290  0.03728  Biso   1.000  C
  C93      1.0000 0.30910  0.01358  0.09011  Biso   1.000  C
  C94      1.0000 0.30910  0.01363  0.09011  Biso   1.000  C
  H127     1.0000 0.20212  0.94998  0.95061  Biso   1.000  H
  H128     1.0000 0.20212  0.95002  0.95061  Biso   1.000  H
  H129     1.0000 0.16311  0.01810  0.94530  Biso   1.000  H
  O7       1.0000 0.30349  0.92671  0.91854  Biso   1.000  O
  C95      1.0000 0.37000  0.01131  0.87418  Biso   1.000  C
  C96      1.0000 0.37000  0.01131  0.87423  Biso   1.000  C
  C97      1.0000 0.96272  0.20349  0.99710  Biso   1.000  C
  H130     1.0000 0.05470  0.16311  0.98190  Biso   1.000  H
  H131     1.0000 0.04939  0.20212  0.05002  Biso   1.000  H
  C98      1.0000 0.12582  0.37000  0.98869  Biso   1.000  C
  O8       1.0000 0.08146  0.30349  0.07329  Biso   1.000  O
  H132     1.0000 0.94688  0.18259  0.20231  Biso   1.000  H
  H133     1.0000 0.94693  0.18259  0.20231  Biso   1.000  H
  N16      1.0000 0.97245  0.06891  0.26104  Biso   1.000  N
  H134     1.0000 0.88190  0.02809  0.25868  Biso   1.000  H
  H135     1.0000 0.88519  0.09439  0.30108  Biso   1.000  H
  N17      1.0000 0.93109  0.26104  0.02755  Biso   1.000  N
  N18      1.0000 0.93114  0.26104  0.02755  Biso   1.000  N
  H136     1.0000 0.97191  0.25868  0.11810  Biso   1.000  H
  H137     1.0000 0.90561  0.30108  0.11481  Biso   1.000  H
  C99      1.0000 0.00290  0.03728  0.20349  Biso   1.000  C
  H138     1.0000 0.94998  0.95061  0.20212  Biso   1.000  H
  H139     1.0000 0.95002  0.95061  0.20212  Biso   1.000  H
  H140     1.0000 0.01810  0.94530  0.16311  Biso   1.000  H
  O9       1.0000 0.92671  0.91854  0.30349  Biso   1.000  O
  C100     1.0000 0.01131  0.87418  0.37000  Biso   1.000  C
  C101     1.0000 0.01131  0.87423  0.37000  Biso   1.000  C
  H141     1.0000 0.16311  0.98190  0.05470  Biso   1.000  H
  H142     1.0000 0.20212  0.05002  0.04939  Biso   1.000  H
  C102     1.0000 0.37000  0.98869  0.12582  Biso   1.000  C
  O10      1.0000 0.30349  0.07329  0.08146  Biso   1.000  O
  C103     1.0000 0.41269  0.95239  0.85470  Biso   1.000  C
  Br13     1.0000 0.41968  0.07226  0.92961  Biso   1.000  Br
  C104     1.0000 0.36109  0.05150  0.80679  Biso   1.000  C
  Br14     1.0000 0.35357  0.05755  0.79867  Biso   1.000  Br
  C105     1.0000 0.41279  0.04830  0.92691  Biso   1.000  C
  H143     1.0000 0.95061  0.20212  0.94998  Biso   1.000  H
  H144     1.0000 0.95061  0.20212  0.95002  Biso   1.000  H
  H145     1.0000 0.94530  0.16311  0.01810  Biso   1.000  H
  Br15     1.0000 0.07039  0.41968  0.92774  Biso   1.000  Br
  C106     1.0000 0.19321  0.36109  0.94850  Biso   1.000  C
  Br16     1.0000 0.20133  0.35357  0.94245  Biso   1.000  Br
  C107     1.0000 0.07309  0.41279  0.95170  Biso   1.000  C
  C108     1.0000 0.14530  0.41269  0.04761  Biso   1.000  C
  C109     1.0000 0.01358  0.09011  0.30910  Biso   1.000  C
  C110     1.0000 0.01363  0.09011  0.30910  Biso   1.000  C
  C111     1.0000 0.90989  0.30910  0.98642  Biso   1.000  C
  H146     1.0000 0.98190  0.05470  0.16311  Biso   1.000  H
  H147     1.0000 0.05002  0.04939  0.20212  Biso   1.000  H
  C112     1.0000 0.95239  0.85470  0.41269  Biso   1.000  C
  Br17     1.0000 0.07226  0.92961  0.41968  Biso   1.000  Br
  C113     1.0000 0.05150  0.80679  0.36109  Biso   1.000  C
  Br18     1.0000 0.05755  0.79867  0.35357  Biso   1.000  Br
  C114     1.0000 0.04830  0.92691  0.41279  Biso   1.000  C
  Br19     1.0000 0.41968  0.92774  0.07039  Biso   1.000  Br
  C115     1.0000 0.36109  0.94850  0.19321  Biso   1.000  C
  Br20     1.0000 0.35357  0.94245  0.20133  Biso   1.000  Br
  C116     1.0000 0.41279  0.95170  0.07309  Biso   1.000  C
  C117     1.0000 0.41269  0.04761  0.14530  Biso   1.000  C
  H148     1.0000 0.42273  0.92622  0.89390  Biso   1.000  H
  H149     1.0000 0.38888  0.92509  0.82282  Biso   1.000  H
  H150     1.0000 0.45371  0.96808  0.83502  Biso   1.000  H
  H151     1.0000 0.45371  0.96813  0.83502  Biso   1.000  H
  H152     1.0000 0.40428  0.06468  0.79011  Biso   1.000  H
  H153     1.0000 0.33920  0.02351  0.77418  Biso   1.000  H
  H154     1.0000 0.33419  0.09070  0.81490  Biso   1.000  H
  H155     1.0000 0.33920  0.02351  0.77423  Biso   1.000  H
  H156     1.0000 0.40433  0.06468  0.79011  Biso   1.000  H
  H157     1.0000 0.45278  0.06532  0.90610  Biso   1.000  H
  H158     1.0000 0.38751  0.08490  0.94540  Biso   1.000  H
  H159     1.0000 0.42489  0.01771  0.96222  Biso   1.000  H
  H160     1.0000 0.20989  0.40428  0.93532  Biso   1.000  H
  H161     1.0000 0.22582  0.33920  0.97649  Biso   1.000  H
  H162     1.0000 0.18510  0.33419  0.90930  Biso   1.000  H
  H163     1.0000 0.20989  0.40433  0.93532  Biso   1.000  H
  H164     1.0000 0.09390  0.45278  0.93473  Biso   1.000  H
  H165     1.0000 0.05460  0.38751  0.91510  Biso   1.000  H
  H166     1.0000 0.03778  0.42489  0.98229  Biso   1.000  H
  H167     1.0000 0.10610  0.42273  0.07378  Biso   1.000  H
  H168     1.0000 0.17718  0.38888  0.07491  Biso   1.000  H
  H169     1.0000 0.16498  0.45371  0.03192  Biso   1.000  H
  H170     1.0000 0.17723  0.38888  0.07491  Biso   1.000  H
  H171     1.0000 0.16503  0.45371  0.03192  Biso   1.000  H
  C118     1.0000 0.98869  0.12582  0.37000  Biso   1.000  C
  O11      1.0000 0.07329  0.08146  0.30349  Biso   1.000  O
  O12      1.0000 0.91854  0.30349  0.92671  Biso   1.000  O
  C119     1.0000 0.87418  0.37000  0.01131  Biso   1.000  C
  C120     1.0000 0.87423  0.37000  0.01131  Biso   1.000  C
  H172     1.0000 0.92622  0.89390  0.42273  Biso   1.000  H
  H173     1.0000 0.92509  0.82282  0.38888  Biso   1.000  H
  H174     1.0000 0.96808  0.83502  0.45371  Biso   1.000  H
  H175     1.0000 0.96813  0.83502  0.45371  Biso   1.000  H
  H176     1.0000 0.06468  0.79011  0.40428  Biso   1.000  H
  H177     1.0000 0.02351  0.77418  0.33920  Biso   1.000  H
  H178     1.0000 0.09070  0.81490  0.33419  Biso   1.000  H
  H179     1.0000 0.06468  0.79011  0.40433  Biso   1.000  H
  H180     1.0000 0.02351  0.77423  0.33920  Biso   1.000  H
  H181     1.0000 0.06532  0.90610  0.45278  Biso   1.000  H
  H182     1.0000 0.08490  0.94540  0.38751  Biso   1.000  H
  H183     1.0000 0.01771  0.96222  0.42489  Biso   1.000  H
  H184     1.0000 0.40428  0.93532  0.20989  Biso   1.000  H
  H185     1.0000 0.33920  0.97649  0.22582  Biso   1.000  H
  H186     1.0000 0.33419  0.90930  0.18510  Biso   1.000  H
  H187     1.0000 0.40433  0.93532  0.20989  Biso   1.000  H
  H188     1.0000 0.45278  0.93473  0.09390  Biso   1.000  H
  H189     1.0000 0.38751  0.91510  0.05460  Biso   1.000  H
  H190     1.0000 0.42489  0.98229  0.03778  Biso   1.000  H
  H191     1.0000 0.42273  0.07378  0.10610  Biso   1.000  H
  H192     1.0000 0.38888  0.07491  0.17718  Biso   1.000  H
  H193     1.0000 0.45371  0.03192  0.16498  Biso   1.000  H
  H194     1.0000 0.38888  0.07491  0.17723  Biso   1.000  H
  H195     1.0000 0.45371  0.03192  0.16503  Biso   1.000  H
  Br21     1.0000 0.92774  0.07039  0.41968  Biso   1.000  Br
  C121     1.0000 0.94850  0.19321  0.36109  Biso   1.000  C
  Br22     1.0000 0.94245  0.20133  0.35357  Biso   1.000  Br
  C122     1.0000 0.95170  0.07309  0.41279  Biso   1.000  C
  C123     1.0000 0.04761  0.14530  0.41269  Biso   1.000  C
  C124     1.0000 0.85470  0.41269  0.95239  Biso   1.000  C
  Br23     1.0000 0.92961  0.41968  0.07226  Biso   1.000  Br
  C125     1.0000 0.80679  0.36109  0.05150  Biso   1.000  C
  Br24     1.0000 0.79867  0.35357  0.05755  Biso   1.000  Br
  C126     1.0000 0.92691  0.41279  0.04830  Biso   1.000  C
  H196     1.0000 0.93532  0.20989  0.40428  Biso   1.000  H
  H197     1.0000 0.97649  0.22582  0.33920  Biso   1.000  H
  H198     1.0000 0.90930  0.18510  0.33419  Biso   1.000  H
  H199     1.0000 0.93532  0.20989  0.40433  Biso   1.000  H
  H200     1.0000 0.93473  0.09390  0.45278  Biso   1.000  H
  H201     1.0000 0.91510  0.05460  0.38751  Biso   1.000  H
  H202     1.0000 0.98229  0.03778  0.42489  Biso   1.000  H
  H203     1.0000 0.07378  0.10610  0.42273  Biso   1.000  H
  H204     1.0000 0.07491  0.17718  0.38888  Biso   1.000  H
  H205     1.0000 0.03192  0.16498  0.45371  Biso   1.000  H
  H206     1.0000 0.07491  0.17723  0.38888  Biso   1.000  H
  H207     1.0000 0.03192  0.16503  0.45371  Biso   1.000  H
  H208     1.0000 0.89390  0.42273  0.92622  Biso   1.000  H
  H209     1.0000 0.82282  0.38888  0.92509  Biso   1.000  H
  H210     1.0000 0.83502  0.45371  0.96808  Biso   1.000  H
  H211     1.0000 0.83502  0.45371  0.96813  Biso   1.000  H
  H212     1.0000 0.79011  0.40428  0.06468  Biso   1.000  H
  H213     1.0000 0.77418  0.33920  0.02351  Biso   1.000  H
  H214     1.0000 0.81490  0.33419  0.09070  Biso   1.000  H
  H215     1.0000 0.79011  0.40433  0.06468  Biso   1.000  H
  H216     1.0000 0.77423  0.33920  0.02351  Biso   1.000  H
  H217     1.0000 0.90610  0.45278  0.06532  Biso   1.000  H
  H218     1.0000 0.94540  0.38751  0.08490  Biso   1.000  H
  H219     1.0000 0.96222  0.42489  0.01771  Biso   1.000  H
  C127     1.0000 0.90915  0.83242  0.82086  Biso   1.000  C
  C128     1.0000 0.87575  0.88810  0.79882  Biso   1.000  C
  C129     1.0000 0.88810  0.79882  0.87575  Biso   1.000  C
  H220     1.0000 0.94688  0.81741  0.79769  Biso   1.000  H
  H221     1.0000 0.94693  0.81741  0.79769  Biso   1.000  H
  C130     1.0000 0.90059  0.92700  0.73984  Biso   1.000  C
  C131     1.0000 0.82086  0.90915  0.83242  Biso   1.000  C
  C132     1.0000 0.83242  0.82086  0.90915  Biso   1.000  C
  C133     1.0000 0.92700  0.73984  0.90059  Biso   1.000  C
  N19      1.0000 0.97245  0.93109  0.73896  Biso   1.000  N
  N20      1.0000 0.97245  0.93114  0.73896  Biso   1.000  N
  H222     1.0000 0.88190  0.97191  0.74132  Biso   1.000  H
  H223     1.0000 0.88519  0.90561  0.69892  Biso   1.000  H
  H224     1.0000 0.79769  0.94688  0.81741  Biso   1.000  H
  C134     1.0000 0.79882  0.87575  0.88810  Biso   1.000  C
  H225     1.0000 0.79769  0.94693  0.81741  Biso   1.000  H
  H226     1.0000 0.81741  0.79769  0.94688  Biso   1.000  H
  H227     1.0000 0.81741  0.79769  0.94693  Biso   1.000  H
  N21      1.0000 0.93109  0.73896  0.97245  Biso   1.000  N
  H228     1.0000 0.97191  0.74132  0.88190  Biso   1.000  H
  H229     1.0000 0.90561  0.69892  0.88519  Biso   1.000  H
  N22      1.0000 0.93114  0.73896  0.97245  Biso   1.000  N
  C135     1.0000 0.01358  0.90989  0.69090  Biso   1.000  C
  C136     1.0000 0.01363  0.90989  0.69090  Biso   1.000  C
  C137     1.0000 0.00290  0.96272  0.79651  Biso   1.000  C
  C138     1.0000 0.73984  0.90059  0.92700  Biso   1.000  C
  C139     1.0000 0.96272  0.79651  0.00290  Biso   1.000  C
  C140     1.0000 0.90989  0.69090  0.01358  Biso   1.000  C
  C141     1.0000 0.90989  0.69090  0.01363  Biso   1.000  C
  C142     1.0000 0.98869  0.87418  0.63000  Biso   1.000  C
  C143     1.0000 0.98869  0.87423  0.63000  Biso   1.000  C
  O13      1.0000 0.07329  0.91854  0.69651  Biso   1.000  O
  H230     1.0000 0.98190  0.94530  0.83689  Biso   1.000  H
  C144     1.0000 0.99710  0.03728  0.79651  Biso   1.000  C
  H231     1.0000 0.05002  0.95061  0.79788  Biso   1.000  H
  H232     1.0000 0.74132  0.88190  0.97191  Biso   1.000  H
  H233     1.0000 0.69892  0.88519  0.90561  Biso   1.000  H
  N23      1.0000 0.73896  0.97245  0.93109  Biso   1.000  N
  N24      1.0000 0.73896  0.97245  0.93114  Biso   1.000  N
  H234     1.0000 0.94530  0.83689  0.98190  Biso   1.000  H
  H235     1.0000 0.95061  0.79788  0.05002  Biso   1.000  H
  C145     1.0000 0.03728  0.79651  0.99710  Biso   1.000  C
  C146     1.0000 0.87418  0.63000  0.98869  Biso   1.000  C
  C147     1.0000 0.87423  0.63000  0.98869  Biso   1.000  C
  O14      1.0000 0.91854  0.69651  0.07329  Biso   1.000  O
  C148     1.0000 0.94850  0.80679  0.63891  Biso   1.000  C
  Br25     1.0000 0.92774  0.92961  0.58032  Biso   1.000  Br
  Br26     1.0000 0.94245  0.79867  0.64643  Biso   1.000  Br
  C149     1.0000 0.95170  0.92691  0.58721  Biso   1.000  C
  C150     1.0000 0.04761  0.85470  0.58731  Biso   1.000  C
  H236     1.0000 0.94998  0.04939  0.79788  Biso   1.000  H
  H237     1.0000 0.95002  0.04939  0.79788  Biso   1.000  H
  N25      1.0000 0.02755  0.06891  0.73896  Biso   1.000  N
  H238     1.0000 0.01810  0.05470  0.83689  Biso   1.000  H
  C151     1.0000 0.79651  0.00290  0.96272  Biso   1.000  C
  C152     1.0000 0.69090  0.01358  0.90989  Biso   1.000  C
  C153     1.0000 0.69090  0.01363  0.90989  Biso   1.000  C
  H239     1.0000 0.04939  0.79788  0.94998  Biso   1.000  H
  H240     1.0000 0.04939  0.79788  0.95002  Biso   1.000  H
  N26      1.0000 0.06891  0.73896  0.02755  Biso   1.000  N
  H241     1.0000 0.05470  0.83689  0.01810  Biso   1.000  H
  Br27     1.0000 0.92961  0.58032  0.92774  Biso   1.000  Br
  C154     1.0000 0.80679  0.63891  0.94850  Biso   1.000  C
  Br28     1.0000 0.79867  0.64643  0.94245  Biso   1.000  Br
  C155     1.0000 0.92691  0.58721  0.95170  Biso   1.000  C
  C156     1.0000 0.85470  0.58731  0.04761  Biso   1.000  C
  H242     1.0000 0.93532  0.79011  0.59572  Biso   1.000  H
  H243     1.0000 0.97649  0.77418  0.66080  Biso   1.000  H
  H244     1.0000 0.90930  0.81490  0.66581  Biso   1.000  H
  H245     1.0000 0.97649  0.77423  0.66080  Biso   1.000  H
  H246     1.0000 0.93473  0.90610  0.54722  Biso   1.000  H
  H247     1.0000 0.91510  0.94540  0.61249  Biso   1.000  H
  H248     1.0000 0.98229  0.96222  0.57511  Biso   1.000  H
  H249     1.0000 0.07378  0.89390  0.57727  Biso   1.000  H
  H250     1.0000 0.07491  0.82282  0.61112  Biso   1.000  H
  H251     1.0000 0.03192  0.83502  0.54629  Biso   1.000  H
  H252     1.0000 0.07378  0.89390  0.57732  Biso   1.000  H
  C157     1.0000 0.98642  0.09011  0.69090  Biso   1.000  C
  C158     1.0000 0.09941  0.07300  0.73984  Biso   1.000  C
  H253     1.0000 0.83689  0.98190  0.94530  Biso   1.000  H
  C159     1.0000 0.79651  0.99710  0.03728  Biso   1.000  C
  H254     1.0000 0.79788  0.05002  0.95061  Biso   1.000  H
  C160     1.0000 0.63000  0.98869  0.87418  Biso   1.000  C
  C161     1.0000 0.63000  0.98869  0.87423  Biso   1.000  C
  O15      1.0000 0.69651  0.07329  0.91854  Biso   1.000  O
  C162     1.0000 0.09011  0.69090  0.98642  Biso   1.000  C
  C163     1.0000 0.07300  0.73984  0.09941  Biso   1.000  C
  H255     1.0000 0.79011  0.59572  0.93532  Biso   1.000  H
  H256     1.0000 0.77418  0.66080  0.97649  Biso   1.000  H
  H257     1.0000 0.81490  0.66581  0.90930  Biso   1.000  H
  H258     1.0000 0.77423  0.66080  0.97649  Biso   1.000  H
  H259     1.0000 0.90610  0.54722  0.93473  Biso   1.000  H
  H260     1.0000 0.94540  0.61249  0.91510  Biso   1.000  H
  H261     1.0000 0.96222  0.57511  0.98229  Biso   1.000  H
  H262     1.0000 0.89390  0.57727  0.07378  Biso   1.000  H
  H263     1.0000 0.82282  0.61112  0.07491  Biso   1.000  H
  H264     1.0000 0.83502  0.54629  0.03192  Biso   1.000  H
  H265     1.0000 0.89390  0.57732  0.07378  Biso   1.000  H
  O16      1.0000 0.92671  0.08146  0.69651  Biso   1.000  O
  C164     1.0000 0.01131  0.12582  0.63000  Biso   1.000  C
  C165     1.0000 0.12425  0.11190  0.79882  Biso   1.000  C
  H266     1.0000 0.11810  0.02809  0.74132  Biso   1.000  H
  H267     1.0000 0.11481  0.09439  0.69892  Biso   1.000  H
  H268     1.0000 0.79788  0.94998  0.04939  Biso   1.000  H
  H269     1.0000 0.79788  0.95002  0.04939  Biso   1.000  H
  N27      1.0000 0.73896  0.02755  0.06891  Biso   1.000  N
  H270     1.0000 0.83689  0.01810  0.05470  Biso   1.000  H
  Br29     1.0000 0.58032  0.92774  0.92961  Biso   1.000  Br
  C166     1.0000 0.63891  0.94850  0.80679  Biso   1.000  C
  Br30     1.0000 0.64643  0.94245  0.79867  Biso   1.000  Br
  C167     1.0000 0.58721  0.95170  0.92691  Biso   1.000  C
  C168     1.0000 0.58731  0.04761  0.85470  Biso   1.000  C
  O17      1.0000 0.08146  0.69651  0.92671  Biso   1.000  O
  C169     1.0000 0.12582  0.63000  0.01131  Biso   1.000  C
  C170     1.0000 0.11190  0.79882  0.12425  Biso   1.000  C
  H271     1.0000 0.02809  0.74132  0.11810  Biso   1.000  H
  H272     1.0000 0.09439  0.69892  0.11481  Biso   1.000  H
  C171     1.0000 0.95239  0.14530  0.58731  Biso   1.000  C
  Br31     1.0000 0.07226  0.07039  0.58032  Biso   1.000  Br
  C172     1.0000 0.05150  0.19321  0.63891  Biso   1.000  C
  Br32     1.0000 0.05755  0.20133  0.64643  Biso   1.000  Br
  C173     1.0000 0.04830  0.07309  0.58721  Biso   1.000  C
  C174     1.0000 0.17914  0.09085  0.83242  Biso   1.000  C
  C175     1.0000 0.09085  0.16758  0.82086  Biso   1.000  C
  C176     1.0000 0.69090  0.98642  0.09011  Biso   1.000  C
  C177     1.0000 0.73984  0.09941  0.07300  Biso   1.000  C
  H273     1.0000 0.59572  0.93532  0.79011  Biso   1.000  H
  H274     1.0000 0.66581  0.90930  0.81490  Biso   1.000  H
  H275     1.0000 0.66080  0.97649  0.77418  Biso   1.000  H
  H276     1.0000 0.66080  0.97649  0.77423  Biso   1.000  H
  H277     1.0000 0.54722  0.93473  0.90610  Biso   1.000  H
  H278     1.0000 0.61249  0.91510  0.94540  Biso   1.000  H
  H279     1.0000 0.57511  0.98229  0.96222  Biso   1.000  H
  H280     1.0000 0.57727  0.07378  0.89390  Biso   1.000  H
  H281     1.0000 0.61112  0.07491  0.82282  Biso   1.000  H
  H282     1.0000 0.54629  0.03192  0.83502  Biso   1.000  H
  H283     1.0000 0.57732  0.07378  0.89390  Biso   1.000  H
  C178     1.0000 0.14530  0.58731  0.95239  Biso   1.000  C
  Br33     1.0000 0.07039  0.58032  0.07226  Biso   1.000  Br
  C179     1.0000 0.19321  0.63891  0.05150  Biso   1.000  C
  Br34     1.0000 0.20133  0.64643  0.05755  Biso   1.000  Br
  C180     1.0000 0.07309  0.58721  0.04830  Biso   1.000  C
  C181     1.0000 0.09085  0.83242  0.17914  Biso   1.000  C
  C182     1.0000 0.16758  0.82086  0.09085  Biso   1.000  C
  H284     1.0000 0.92622  0.10610  0.57727  Biso   1.000  H
  H285     1.0000 0.92509  0.17718  0.61112  Biso   1.000  H
  H286     1.0000 0.96808  0.16498  0.54629  Biso   1.000  H
  H287     1.0000 0.92622  0.10610  0.57732  Biso   1.000  H
  H288     1.0000 0.92509  0.17723  0.61112  Biso   1.000  H
  H289     1.0000 0.96808  0.16503  0.54629  Biso   1.000  H
  H290     1.0000 0.96813  0.16498  0.54629  Biso   1.000  H
  H291     1.0000 0.96813  0.16503  0.54629  Biso   1.000  H
  H292     1.0000 0.06468  0.20989  0.59572  Biso   1.000  H
  H293     1.0000 0.02351  0.22582  0.66080  Biso   1.000  H
  H294     1.0000 0.09070  0.18510  0.66581  Biso   1.000  H
  H295     1.0000 0.06532  0.09390  0.54722  Biso   1.000  H
  H296     1.0000 0.08490  0.05460  0.61249  Biso   1.000  H
  H297     1.0000 0.01771  0.03778  0.57511  Biso   1.000  H
  H298     1.0000 0.20231  0.05312  0.81741  Biso   1.000  H
  C183     1.0000 0.20118  0.12425  0.88810  Biso   1.000  C
  C184     1.0000 0.20123  0.12425  0.88810  Biso   1.000  C
  H299     1.0000 0.05312  0.18259  0.79769  Biso   1.000  H
  C185     1.0000 0.11190  0.20118  0.87575  Biso   1.000  C
  C186     1.0000 0.11190  0.20123  0.87575  Biso   1.000  C
  O18      1.0000 0.69651  0.92671  0.08146  Biso   1.000  O
  C187     1.0000 0.63000  0.01131  0.12582  Biso   1.000  C
  C188     1.0000 0.79882  0.12425  0.11190  Biso   1.000  C
  H300     1.0000 0.74132  0.11810  0.02809  Biso   1.000  H
  H301     1.0000 0.69892  0.11481  0.09439  Biso   1.000  H
  H302     1.0000 0.10610  0.57727  0.92622  Biso   1.000  H
  H303     1.0000 0.17718  0.61112  0.92509  Biso   1.000  H
  H304     1.0000 0.16498  0.54629  0.96808  Biso   1.000  H
  H305     1.0000 0.16498  0.54629  0.96813  Biso   1.000  H
  H306     1.0000 0.10610  0.57732  0.92622  Biso   1.000  H
  H307     1.0000 0.17723  0.61112  0.92509  Biso   1.000  H
  H308     1.0000 0.16503  0.54629  0.96808  Biso   1.000  H
  H309     1.0000 0.16503  0.54629  0.96813  Biso   1.000  H
  H310     1.0000 0.20989  0.59572  0.06468  Biso   1.000  H
  H311     1.0000 0.22582  0.66080  0.02351  Biso   1.000  H
  H312     1.0000 0.18510  0.66581  0.09070  Biso   1.000  H
  H313     1.0000 0.09390  0.54722  0.06532  Biso   1.000  H
  H314     1.0000 0.05460  0.61249  0.08490  Biso   1.000  H
  H315     1.0000 0.03778  0.57511  0.01771  Biso   1.000  H
  H316     1.0000 0.05312  0.81741  0.20231  Biso   1.000  H
  C189     1.0000 0.12425  0.88810  0.20118  Biso   1.000  C
  C190     1.0000 0.12425  0.88810  0.20123  Biso   1.000  C
  C191     1.0000 0.20118  0.87575  0.11190  Biso   1.000  C
  H317     1.0000 0.18259  0.79769  0.05312  Biso   1.000  H
  C192     1.0000 0.20123  0.87575  0.11190  Biso   1.000  C
  C193     1.0000 0.26016  0.09941  0.92700  Biso   1.000  C
  C194     1.0000 0.16758  0.17914  0.90915  Biso   1.000  C
  C195     1.0000 0.07300  0.26016  0.90059  Biso   1.000  C
  C196     1.0000 0.58731  0.95239  0.14530  Biso   1.000  C
  Br35     1.0000 0.58032  0.07226  0.07039  Biso   1.000  Br
  C197     1.0000 0.63891  0.05150  0.19321  Biso   1.000  C
  Br36     1.0000 0.64643  0.05755  0.20133  Biso   1.000  Br
  C198     1.0000 0.58721  0.04830  0.07309  Biso   1.000  C
  C199     1.0000 0.82086  0.09085  0.16758  Biso   1.000  C
  C200     1.0000 0.83242  0.17914  0.09085  Biso   1.000  C
  C201     1.0000 0.09941  0.92700  0.26016  Biso   1.000  C
  C202     1.0000 0.17914  0.90915  0.16758  Biso   1.000  C
  C203     1.0000 0.26016  0.90059  0.07300  Biso   1.000  C
  N28      1.0000 0.26104  0.02755  0.93109  Biso   1.000  N
  H318     1.0000 0.25868  0.11810  0.97191  Biso   1.000  H
  H319     1.0000 0.30108  0.11481  0.90561  Biso   1.000  H
  N29      1.0000 0.26104  0.02755  0.93114  Biso   1.000  N
  H320     1.0000 0.18259  0.20231  0.94688  Biso   1.000  H
  H321     1.0000 0.18259  0.20231  0.94693  Biso   1.000  H
  N30      1.0000 0.06891  0.26104  0.97245  Biso   1.000  N
  H322     1.0000 0.02809  0.25868  0.88190  Biso   1.000  H
  H323     1.0000 0.09439  0.30108  0.88519  Biso   1.000  H
  H324     1.0000 0.57727  0.92622  0.10610  Biso   1.000  H
  H325     1.0000 0.61112  0.92509  0.17718  Biso   1.000  H
  H326     1.0000 0.54629  0.96808  0.16498  Biso   1.000  H
  H327     1.0000 0.61112  0.92509  0.17723  Biso   1.000  H
  H328     1.0000 0.54629  0.96808  0.16503  Biso   1.000  H
  H329     1.0000 0.54629  0.96813  0.16498  Biso   1.000  H
  H330     1.0000 0.54629  0.96813  0.16503  Biso   1.000  H
  H331     1.0000 0.57732  0.92622  0.10610  Biso   1.000  H
  H332     1.0000 0.59572  0.06468  0.20989  Biso   1.000  H
  H333     1.0000 0.66080  0.02351  0.22582  Biso   1.000  H
  H334     1.0000 0.66581  0.09070  0.18510  Biso   1.000  H
  H335     1.0000 0.54722  0.06532  0.09390  Biso   1.000  H
  H336     1.0000 0.61249  0.08490  0.05460  Biso   1.000  H
  H337     1.0000 0.57511  0.01771  0.03778  Biso   1.000  H
  H338     1.0000 0.79769  0.05312  0.18259  Biso   1.000  H
  C204     1.0000 0.87575  0.11190  0.20118  Biso   1.000  C
  C205     1.0000 0.87575  0.11190  0.20123  Biso   1.000  C
  H339     1.0000 0.81741  0.20231  0.05312  Biso   1.000  H
  C206     1.0000 0.88810  0.20118  0.12425  Biso   1.000  C
  C207     1.0000 0.88810  0.20123  0.12425  Biso   1.000  C
  N31      1.0000 0.02755  0.93109  0.26104  Biso   1.000  N
  H340     1.0000 0.11810  0.97191  0.25868  Biso   1.000  H
  H341     1.0000 0.11481  0.90561  0.30108  Biso   1.000  H
  N32      1.0000 0.02755  0.93114  0.26104  Biso   1.000  N
  H342     1.0000 0.20231  0.94688  0.18259  Biso   1.000  H
  H343     1.0000 0.20231  0.94693  0.18259  Biso   1.000  H
  N33      1.0000 0.26104  0.97245  0.06891  Biso   1.000  N
  H344     1.0000 0.25868  0.88190  0.02809  Biso   1.000  H
  H345     1.0000 0.30108  0.88519  0.09439  Biso   1.000  H
  C208     1.0000 0.20349  0.99710  0.96272  Biso   1.000  C
  C209     1.0000 0.30910  0.98642  0.90989  Biso   1.000  C
  C210     1.0000 0.03728  0.20349  0.00290  Biso   1.000  C
  C211     1.0000 0.09011  0.30910  0.01358  Biso   1.000  C
  C212     1.0000 0.09011  0.30910  0.01363  Biso   1.000  C
  C213     1.0000 0.90915  0.16758  0.17914  Biso   1.000  C
  C214     1.0000 0.90059  0.07300  0.26016  Biso   1.000  C
  C215     1.0000 0.92700  0.26016  0.09941  Biso   1.000  C
  C216     1.0000 0.99710  0.96272  0.20349  Biso   1.000  C
  C217     1.0000 0.98642  0.90989  0.30910  Biso   1.000  C
  C218     1.0000 0.20349  0.00290  0.03728  Biso   1.000  C
  C219     1.0000 0.30910  0.01358  0.09011  Biso   1.000  C
  C220     1.0000 0.30910  0.01363  0.09011  Biso   1.000  C
  H346     1.0000 0.20212  0.94998  0.95061  Biso   1.000  H
  H347     1.0000 0.20212  0.95002  0.95061  Biso   1.000  H
  H348     1.0000 0.16311  0.01810  0.94530  Biso   1.000  H
  O19      1.0000 0.30349  0.92671  0.91854  Biso   1.000  O
  C221     1.0000 0.37000  0.01131  0.87418  Biso   1.000  C
  C222     1.0000 0.37000  0.01131  0.87423  Biso   1.000  C
  C223     1.0000 0.96272  0.20349  0.99710  Biso   1.000  C
  H349     1.0000 0.05470  0.16311  0.98190  Biso   1.000  H
  H350     1.0000 0.04939  0.20212  0.05002  Biso   1.000  H
  C224     1.0000 0.12582  0.37000  0.98869  Biso   1.000  C
  O20      1.0000 0.08146  0.30349  0.07329  Biso   1.000  O
  H351     1.0000 0.94688  0.18259  0.20231  Biso   1.000  H
  H352     1.0000 0.94693  0.18259  0.20231  Biso   1.000  H
  N34      1.0000 0.97245  0.06891  0.26104  Biso   1.000  N
  H353     1.0000 0.88190  0.02809  0.25868  Biso   1.000  H
  H354     1.0000 0.88519  0.09439  0.30108  Biso   1.000  H
  N35      1.0000 0.93109  0.26104  0.02755  Biso   1.000  N
  N36      1.0000 0.93114  0.26104  0.02755  Biso   1.000  N
  H355     1.0000 0.97191  0.25868  0.11810  Biso   1.000  H
  H356     1.0000 0.90561  0.30108  0.11481  Biso   1.000  H
  C225     1.0000 0.00290  0.03728  0.20349  Biso   1.000  C
  H357     1.0000 0.94998  0.95061  0.20212  Biso   1.000  H
  H358     1.0000 0.95002  0.95061  0.20212  Biso   1.000  H
  H359     1.0000 0.01810  0.94530  0.16311  Biso   1.000  H
  O21      1.0000 0.92671  0.91854  0.30349  Biso   1.000  O
  C226     1.0000 0.01131  0.87418  0.37000  Biso   1.000  C
  C227     1.0000 0.01131  0.87423  0.37000  Biso   1.000  C
  H360     1.0000 0.16311  0.98190  0.05470  Biso   1.000  H
  H361     1.0000 0.20212  0.05002  0.04939  Biso   1.000  H
  C228     1.0000 0.37000  0.98869  0.12582  Biso   1.000  C
  O22      1.0000 0.30349  0.07329  0.08146  Biso   1.000  O
  C229     1.0000 0.41269  0.95239  0.85470  Biso   1.000  C
  Br37     1.0000 0.41968  0.07226  0.92961  Biso   1.000  Br
  C230     1.0000 0.36109  0.05150  0.80679  Biso   1.000  C
  Br38     1.0000 0.35357  0.05755  0.79867  Biso   1.000  Br
  C231     1.0000 0.41279  0.04830  0.92691  Biso   1.000  C
  H362     1.0000 0.95061  0.20212  0.94998  Biso   1.000  H
  H363     1.0000 0.95061  0.20212  0.95002  Biso   1.000  H
  H364     1.0000 0.94530  0.16311  0.01810  Biso   1.000  H
  Br39     1.0000 0.07039  0.41968  0.92774  Biso   1.000  Br
  C232     1.0000 0.19321  0.36109  0.94850  Biso   1.000  C
  Br40     1.0000 0.20133  0.35357  0.94245  Biso   1.000  Br
  C233     1.0000 0.07309  0.41279  0.95170  Biso   1.000  C
  C234     1.0000 0.14530  0.41269  0.04761  Biso   1.000  C
  C235     1.0000 0.01358  0.09011  0.30910  Biso   1.000  C
  C236     1.0000 0.01363  0.09011  0.30910  Biso   1.000  C
  C237     1.0000 0.90989  0.30910  0.98642  Biso   1.000  C
  H365     1.0000 0.98190  0.05470  0.16311  Biso   1.000  H
  H366     1.0000 0.05002  0.04939  0.20212  Biso   1.000  H
  C238     1.0000 0.95239  0.85470  0.41269  Biso   1.000  C
  Br41     1.0000 0.07226  0.92961  0.41968  Biso   1.000  Br
  C239     1.0000 0.05150  0.80679  0.36109  Biso   1.000  C
  Br42     1.0000 0.05755  0.79867  0.35357  Biso   1.000  Br
  C240     1.0000 0.04830  0.92691  0.41279  Biso   1.000  C
  Br43     1.0000 0.41968  0.92774  0.07039  Biso   1.000  Br
  C241     1.0000 0.36109  0.94850  0.19321  Biso   1.000  C
  Br44     1.0000 0.35357  0.94245  0.20133  Biso   1.000  Br
  C242     1.0000 0.41279  0.95170  0.07309  Biso   1.000  C
  C243     1.0000 0.41269  0.04761  0.14530  Biso   1.000  C
  H367     1.0000 0.42273  0.92622  0.89390  Biso   1.000  H
  H368     1.0000 0.38888  0.92509  0.82282  Biso   1.000  H
  H369     1.0000 0.45371  0.96808  0.83502  Biso   1.000  H
  H370     1.0000 0.45371  0.96813  0.83502  Biso   1.000  H
  H371     1.0000 0.40428  0.06468  0.79011  Biso   1.000  H
  H372     1.0000 0.33920  0.02351  0.77418  Biso   1.000  H
  H373     1.0000 0.33419  0.09070  0.81490  Biso   1.000  H
  H374     1.0000 0.33920  0.02351  0.77423  Biso   1.000  H
  H375     1.0000 0.40433  0.06468  0.79011  Biso   1.000  H
  H376     1.0000 0.45278  0.06532  0.90610  Biso   1.000  H
  H377     1.0000 0.38751  0.08490  0.94540  Biso   1.000  H
  H378     1.0000 0.42489  0.01771  0.96222  Biso   1.000  H
  H379     1.0000 0.20989  0.40428  0.93532  Biso   1.000  H
  H380     1.0000 0.22582  0.33920  0.97649  Biso   1.000  H
  H381     1.0000 0.18510  0.33419  0.90930  Biso   1.000  H
  H382     1.0000 0.20989  0.40433  0.93532  Biso   1.000  H
  H383     1.0000 0.09390  0.45278  0.93473  Biso   1.000  H
  H384     1.0000 0.05460  0.38751  0.91510  Biso   1.000  H
  H385     1.0000 0.03778  0.42489  0.98229  Biso   1.000  H
  H386     1.0000 0.10610  0.42273  0.07378  Biso   1.000  H
  H387     1.0000 0.17718  0.38888  0.07491  Biso   1.000  H
  H388     1.0000 0.16498  0.45371  0.03192  Biso   1.000  H
  H389     1.0000 0.17723  0.38888  0.07491  Biso   1.000  H
  H390     1.0000 0.16503  0.45371  0.03192  Biso   1.000  H
  C244     1.0000 0.98869  0.12582  0.37000  Biso   1.000  C
  O23      1.0000 0.07329  0.08146  0.30349  Biso   1.000  O
  O24      1.0000 0.91854  0.30349  0.92671  Biso   1.000  O
  C245     1.0000 0.87418  0.37000  0.01131  Biso   1.000  C
  C246     1.0000 0.87423  0.37000  0.01131  Biso   1.000  C
  H391     1.0000 0.92622  0.89390  0.42273  Biso   1.000  H
  H392     1.0000 0.92509  0.82282  0.38888  Biso   1.000  H
  H393     1.0000 0.96808  0.83502  0.45371  Biso   1.000  H
  H394     1.0000 0.96813  0.83502  0.45371  Biso   1.000  H
  H395     1.0000 0.06468  0.79011  0.40428  Biso   1.000  H
  H396     1.0000 0.02351  0.77418  0.33920  Biso   1.000  H
  H397     1.0000 0.09070  0.81490  0.33419  Biso   1.000  H
  H398     1.0000 0.06468  0.79011  0.40433  Biso   1.000  H
  H399     1.0000 0.02351  0.77423  0.33920  Biso   1.000  H
  H400     1.0000 0.06532  0.90610  0.45278  Biso   1.000  H
  H401     1.0000 0.08490  0.94540  0.38751  Biso   1.000  H
  H402     1.0000 0.01771  0.96222  0.42489  Biso   1.000  H
  H403     1.0000 0.40428  0.93532  0.20989  Biso   1.000  H
  H404     1.0000 0.33920  0.97649  0.22582  Biso   1.000  H
  H405     1.0000 0.33419  0.90930  0.18510  Biso   1.000  H
  H406     1.0000 0.40433  0.93532  0.20989  Biso   1.000  H
  H407     1.0000 0.45278  0.93473  0.09390  Biso   1.000  H
  H408     1.0000 0.38751  0.91510  0.05460  Biso   1.000  H
  H409     1.0000 0.42489  0.98229  0.03778  Biso   1.000  H
  H410     1.0000 0.42273  0.07378  0.10610  Biso   1.000  H
  H411     1.0000 0.38888  0.07491  0.17718  Biso   1.000  H
  H412     1.0000 0.45371  0.03192  0.16498  Biso   1.000  H
  H413     1.0000 0.38888  0.07491  0.17723  Biso   1.000  H
  H414     1.0000 0.45371  0.03192  0.16503  Biso   1.000  H
  Br45     1.0000 0.92774  0.07039  0.41968  Biso   1.000  Br
  C247     1.0000 0.94850  0.19321  0.36109  Biso   1.000  C
  Br46     1.0000 0.94245  0.20133  0.35357  Biso   1.000  Br
  C248     1.0000 0.95170  0.07309  0.41279  Biso   1.000  C
  C249     1.0000 0.04761  0.14530  0.41269  Biso   1.000  C
  C250     1.0000 0.85470  0.41269  0.95239  Biso   1.000  C
  Br47     1.0000 0.92961  0.41968  0.07226  Biso   1.000  Br
  C251     1.0000 0.80679  0.36109  0.05150  Biso   1.000  C
  Br48     1.0000 0.79867  0.35357  0.05755  Biso   1.000  Br
  C252     1.0000 0.92691  0.41279  0.04830  Biso   1.000  C
  H415     1.0000 0.93532  0.20989  0.40428  Biso   1.000  H
  H416     1.0000 0.97649  0.22582  0.33920  Biso   1.000  H
  H417     1.0000 0.90930  0.18510  0.33419  Biso   1.000  H
  H418     1.0000 0.93532  0.20989  0.40433  Biso   1.000  H
  H419     1.0000 0.93473  0.09390  0.45278  Biso   1.000  H
  H420     1.0000 0.91510  0.05460  0.38751  Biso   1.000  H
  H421     1.0000 0.98229  0.03778  0.42489  Biso   1.000  H
  H422     1.0000 0.07378  0.10610  0.42273  Biso   1.000  H
  H423     1.0000 0.07491  0.17718  0.38888  Biso   1.000  H
  H424     1.0000 0.03192  0.16498  0.45371  Biso   1.000  H
  H425     1.0000 0.07491  0.17723  0.38888  Biso   1.000  H
  H426     1.0000 0.03192  0.16503  0.45371  Biso   1.000  H
  H427     1.0000 0.89390  0.42273  0.92622  Biso   1.000  H
  H428     1.0000 0.82282  0.38888  0.92509  Biso   1.000  H
  H429     1.0000 0.83502  0.45371  0.96808  Biso   1.000  H
  H430     1.0000 0.83502  0.45371  0.96813  Biso   1.000  H
  H431     1.0000 0.79011  0.40428  0.06468  Biso   1.000  H
  H432     1.0000 0.77418  0.33920  0.02351  Biso   1.000  H
  H433     1.0000 0.81490  0.33419  0.09070  Biso   1.000  H
  H434     1.0000 0.79011  0.40433  0.06468  Biso   1.000  H
  H435     1.0000 0.77423  0.33920  0.02351  Biso   1.000  H
  H436     1.0000 0.90610  0.45278  0.06532  Biso   1.000  H
  H437     1.0000 0.94540  0.38751  0.08490  Biso   1.000  H
  H438     1.0000 0.96222  0.42489  0.01771  Biso   1.000  H
  C253     1.0000 0.90915  0.83242  0.82086  Biso   1.000  C
  C254     1.0000 0.87575  0.88810  0.79882  Biso   1.000  C
  C255     1.0000 0.88810  0.79882  0.87575  Biso   1.000  C
  H439     1.0000 0.94688  0.81741  0.79769  Biso   1.000  H
  H440     1.0000 0.94693  0.81741  0.79769  Biso   1.000  H
  C256     1.0000 0.90059  0.92700  0.73984  Biso   1.000  C
  C257     1.0000 0.82086  0.90915  0.83242  Biso   1.000  C
  C258     1.0000 0.83242  0.82086  0.90915  Biso   1.000  C
  C259     1.0000 0.92700  0.73984  0.90059  Biso   1.000  C
  N37      1.0000 0.97245  0.93109  0.73896  Biso   1.000  N
  N38      1.0000 0.97245  0.93114  0.73896  Biso   1.000  N
  H441     1.0000 0.88190  0.97191  0.74132  Biso   1.000  H
  H442     1.0000 0.88519  0.90561  0.69892  Biso   1.000  H
  C260     1.0000 0.79882  0.87575  0.88810  Biso   1.000  C
  H443     1.0000 0.79769  0.94688  0.81741  Biso   1.000  H
  H444     1.0000 0.79769  0.94693  0.81741  Biso   1.000  H
  H445     1.0000 0.81741  0.79769  0.94688  Biso   1.000  H
  H446     1.0000 0.81741  0.79769  0.94693  Biso   1.000  H
  N39      1.0000 0.93109  0.73896  0.97245  Biso   1.000  N
  H447     1.0000 0.97191  0.74132  0.88190  Biso   1.000  H
  H448     1.0000 0.90561  0.69892  0.88519  Biso   1.000  H
  N40      1.0000 0.93114  0.73896  0.97245  Biso   1.000  N
  C261     1.0000 0.01358  0.90989  0.69090  Biso   1.000  C
  C262     1.0000 0.01363  0.90989  0.69090  Biso   1.000  C
  C263     1.0000 0.00290  0.96272  0.79651  Biso   1.000  C
  C264     1.0000 0.73984  0.90059  0.92700  Biso   1.000  C
  C265     1.0000 0.96272  0.79651  0.00290  Biso   1.000  C
  C266     1.0000 0.90989  0.69090  0.01358  Biso   1.000  C
  C267     1.0000 0.90989  0.69090  0.01363  Biso   1.000  C
  C268     1.0000 0.98869  0.87418  0.63000  Biso   1.000  C
  C269     1.0000 0.98869  0.87423  0.63000  Biso   1.000  C
  O25      1.0000 0.07329  0.91854  0.69651  Biso   1.000  O
  H449     1.0000 0.98190  0.94530  0.83689  Biso   1.000  H
  C270     1.0000 0.99710  0.03728  0.79651  Biso   1.000  C
  H450     1.0000 0.05002  0.95061  0.79788  Biso   1.000  H
  H451     1.0000 0.74132  0.88190  0.97191  Biso   1.000  H
  H452     1.0000 0.69892  0.88519  0.90561  Biso   1.000  H
  N41      1.0000 0.73896  0.97245  0.93109  Biso   1.000  N
  N42      1.0000 0.73896  0.97245  0.93114  Biso   1.000  N
  H453     1.0000 0.94530  0.83689  0.98190  Biso   1.000  H
  H454     1.0000 0.95061  0.79788  0.05002  Biso   1.000  H
  C271     1.0000 0.03728  0.79651  0.99710  Biso   1.000  C
  C272     1.0000 0.87418  0.63000  0.98869  Biso   1.000  C
  C273     1.0000 0.87423  0.63000  0.98869  Biso   1.000  C
  O26      1.0000 0.91854  0.69651  0.07329  Biso   1.000  O
  C274     1.0000 0.94850  0.80679  0.63891  Biso   1.000  C
  Br49     1.0000 0.92774  0.92961  0.58032  Biso   1.000  Br
  Br50     1.0000 0.94245  0.79867  0.64643  Biso   1.000  Br
  C275     1.0000 0.95170  0.92691  0.58721  Biso   1.000  C
  C276     1.0000 0.04761  0.85470  0.58731  Biso   1.000  C
  H455     1.0000 0.94998  0.04939  0.79788  Biso   1.000  H
  H456     1.0000 0.95002  0.04939  0.79788  Biso   1.000  H
  N43      1.0000 0.02755  0.06891  0.73896  Biso   1.000  N
  H457     1.0000 0.01810  0.05470  0.83689  Biso   1.000  H
  C277     1.0000 0.79651  0.00290  0.96272  Biso   1.000  C
  C278     1.0000 0.69090  0.01358  0.90989  Biso   1.000  C
  C279     1.0000 0.69090  0.01363  0.90989  Biso   1.000  C
  H458     1.0000 0.04939  0.79788  0.94998  Biso   1.000  H
  H459     1.0000 0.04939  0.79788  0.95002  Biso   1.000  H
  N44      1.0000 0.06891  0.73896  0.02755  Biso   1.000  N
  H460     1.0000 0.05470  0.83689  0.01810  Biso   1.000  H
  Br51     1.0000 0.92961  0.58032  0.92774  Biso   1.000  Br
  C280     1.0000 0.80679  0.63891  0.94850  Biso   1.000  C
  Br52     1.0000 0.79867  0.64643  0.94245  Biso   1.000  Br
  C281     1.0000 0.92691  0.58721  0.95170  Biso   1.000  C
  C282     1.0000 0.85470  0.58731  0.04761  Biso   1.000  C
  H461     1.0000 0.93532  0.79011  0.59572  Biso   1.000  H
  H462     1.0000 0.90930  0.81490  0.66581  Biso   1.000  H
  H463     1.0000 0.97649  0.77418  0.66080  Biso   1.000  H
  H464     1.0000 0.97649  0.77423  0.66080  Biso   1.000  H
  H465     1.0000 0.93473  0.90610  0.54722  Biso   1.000  H
  H466     1.0000 0.91510  0.94540  0.61249  Biso   1.000  H
  H467     1.0000 0.98229  0.96222  0.57511  Biso   1.000  H
  H468     1.0000 0.07378  0.89390  0.57727  Biso   1.000  H
  H469     1.0000 0.07491  0.82282  0.61112  Biso   1.000  H
  H470     1.0000 0.03192  0.83502  0.54629  Biso   1.000  H
  H471     1.0000 0.07378  0.89390  0.57732  Biso   1.000  H
  C283     1.0000 0.98642  0.09011  0.69090  Biso   1.000  C
  C284     1.0000 0.09941  0.07300  0.73984  Biso   1.000  C
  H472     1.0000 0.83689  0.98190  0.94530  Biso   1.000  H
  C285     1.0000 0.79651  0.99710  0.03728  Biso   1.000  C
  H473     1.0000 0.79788  0.05002  0.95061  Biso   1.000  H
  C286     1.0000 0.63000  0.98869  0.87418  Biso   1.000  C
  C287     1.0000 0.63000  0.98869  0.87423  Biso   1.000  C
  O27      1.0000 0.69651  0.07329  0.91854  Biso   1.000  O
  C288     1.0000 0.09011  0.69090  0.98642  Biso   1.000  C
  C289     1.0000 0.07300  0.73984  0.09941  Biso   1.000  C
  H474     1.0000 0.79011  0.59572  0.93532  Biso   1.000  H
  H475     1.0000 0.77418  0.66080  0.97649  Biso   1.000  H
  H476     1.0000 0.81490  0.66581  0.90930  Biso   1.000  H
  H477     1.0000 0.77423  0.66080  0.97649  Biso   1.000  H
  H478     1.0000 0.90610  0.54722  0.93473  Biso   1.000  H
  H479     1.0000 0.94540  0.61249  0.91510  Biso   1.000  H
  H480     1.0000 0.96222  0.57511  0.98229  Biso   1.000  H
  H481     1.0000 0.89390  0.57727  0.07378  Biso   1.000  H
  H482     1.0000 0.82282  0.61112  0.07491  Biso   1.000  H
  H483     1.0000 0.83502  0.54629  0.03192  Biso   1.000  H
  H484     1.0000 0.89390  0.57732  0.07378  Biso   1.000  H
  O28      1.0000 0.92671  0.08146  0.69651  Biso   1.000  O
  C290     1.0000 0.01131  0.12582  0.63000  Biso   1.000  C
  C291     1.0000 0.12425  0.11190  0.79882  Biso   1.000  C
  H485     1.0000 0.11810  0.02809  0.74132  Biso   1.000  H
  H486     1.0000 0.11481  0.09439  0.69892  Biso   1.000  H
  H487     1.0000 0.79788  0.94998  0.04939  Biso   1.000  H
  H488     1.0000 0.79788  0.95002  0.04939  Biso   1.000  H
  N45      1.0000 0.73896  0.02755  0.06891  Biso   1.000  N
  H489     1.0000 0.83689  0.01810  0.05470  Biso   1.000  H
  Br53     1.0000 0.58032  0.92774  0.92961  Biso   1.000  Br
  C292     1.0000 0.63891  0.94850  0.80679  Biso   1.000  C
  Br54     1.0000 0.64643  0.94245  0.79867  Biso   1.000  Br
  C293     1.0000 0.58721  0.95170  0.92691  Biso   1.000  C
  C294     1.0000 0.58731  0.04761  0.85470  Biso   1.000  C
  O29      1.0000 0.08146  0.69651  0.92671  Biso   1.000  O
  C295     1.0000 0.12582  0.63000  0.01131  Biso   1.000  C
  C296     1.0000 0.11190  0.79882  0.12425  Biso   1.000  C
  H490     1.0000 0.02809  0.74132  0.11810  Biso   1.000  H
  H491     1.0000 0.09439  0.69892  0.11481  Biso   1.000  H
  C297     1.0000 0.95239  0.14530  0.58731  Biso   1.000  C
  Br55     1.0000 0.07226  0.07039  0.58032  Biso   1.000  Br
  C298     1.0000 0.05150  0.19321  0.63891  Biso   1.000  C
  Br56     1.0000 0.05755  0.20133  0.64643  Biso   1.000  Br
  C299     1.0000 0.04830  0.07309  0.58721  Biso   1.000  C
  C300     1.0000 0.17914  0.09085  0.83242  Biso   1.000  C
  C301     1.0000 0.09085  0.16758  0.82086  Biso   1.000  C
  C302     1.0000 0.69090  0.98642  0.09011  Biso   1.000  C
  C303     1.0000 0.73984  0.09941  0.07300  Biso   1.000  C
  H492     1.0000 0.59572  0.93532  0.79011  Biso   1.000  H
  H493     1.0000 0.66581  0.90930  0.81490  Biso   1.000  H
  H494     1.0000 0.66080  0.97649  0.77418  Biso   1.000  H
  H495     1.0000 0.66080  0.97649  0.77423  Biso   1.000  H
  H496     1.0000 0.54722  0.93473  0.90610  Biso   1.000  H
  H497     1.0000 0.61249  0.91510  0.94540  Biso   1.000  H
  H498     1.0000 0.57511  0.98229  0.96222  Biso   1.000  H
  H499     1.0000 0.57727  0.07378  0.89390  Biso   1.000  H
  H500     1.0000 0.61112  0.07491  0.82282  Biso   1.000  H
  H501     1.0000 0.54629  0.03192  0.83502  Biso   1.000  H
  H502     1.0000 0.57732  0.07378  0.89390  Biso   1.000  H
  C304     1.0000 0.14530  0.58731  0.95239  Biso   1.000  C
  Br57     1.0000 0.07039  0.58032  0.07226  Biso   1.000  Br
  C305     1.0000 0.19321  0.63891  0.05150  Biso   1.000  C
  Br58     1.0000 0.20133  0.64643  0.05755  Biso   1.000  Br
  C306     1.0000 0.07309  0.58721  0.04830  Biso   1.000  C
  C307     1.0000 0.09085  0.83242  0.17914  Biso   1.000  C
  C308     1.0000 0.16758  0.82086  0.09085  Biso   1.000  C
  H503     1.0000 0.92622  0.10610  0.57727  Biso   1.000  H
  H504     1.0000 0.92509  0.17718  0.61112  Biso   1.000  H
  H505     1.0000 0.96808  0.16498  0.54629  Biso   1.000  H
  H506     1.0000 0.92622  0.10610  0.57732  Biso   1.000  H
  H507     1.0000 0.92509  0.17723  0.61112  Biso   1.000  H
  H508     1.0000 0.96808  0.16503  0.54629  Biso   1.000  H
  H509     1.0000 0.96813  0.16498  0.54629  Biso   1.000  H
  H510     1.0000 0.96813  0.16503  0.54629  Biso   1.000  H
  H511     1.0000 0.06468  0.20989  0.59572  Biso   1.000  H
  H512     1.0000 0.02351  0.22582  0.66080  Biso   1.000  H
  H513     1.0000 0.09070  0.18510  0.66581  Biso   1.000  H
  H514     1.0000 0.06532  0.09390  0.54722  Biso   1.000  H
  H515     1.0000 0.08490  0.05460  0.61249  Biso   1.000  H
  H516     1.0000 0.01771  0.03778  0.57511  Biso   1.000  H
  H517     1.0000 0.20231  0.05312  0.81741  Biso   1.000  H
  C309     1.0000 0.20118  0.12425  0.88810  Biso   1.000  C
  C310     1.0000 0.20123  0.12425  0.88810  Biso   1.000  C
  H518     1.0000 0.05312  0.18259  0.79769  Biso   1.000  H
  C311     1.0000 0.11190  0.20118  0.87575  Biso   1.000  C
  C312     1.0000 0.11190  0.20123  0.87575  Biso   1.000  C
  O30      1.0000 0.69651  0.92671  0.08146  Biso   1.000  O
  C313     1.0000 0.63000  0.01131  0.12582  Biso   1.000  C
  C314     1.0000 0.79882  0.12425  0.11190  Biso   1.000  C
  H519     1.0000 0.74132  0.11810  0.02809  Biso   1.000  H
  H520     1.0000 0.69892  0.11481  0.09439  Biso   1.000  H
  H521     1.0000 0.10610  0.57727  0.92622  Biso   1.000  H
  H522     1.0000 0.17718  0.61112  0.92509  Biso   1.000  H
  H523     1.0000 0.16498  0.54629  0.96808  Biso   1.000  H
  H524     1.0000 0.16498  0.54629  0.96813  Biso   1.000  H
  H525     1.0000 0.10610  0.57732  0.92622  Biso   1.000  H
  H526     1.0000 0.17723  0.61112  0.92509  Biso   1.000  H
  H527     1.0000 0.16503  0.54629  0.96808  Biso   1.000  H
  H528     1.0000 0.16503  0.54629  0.96813  Biso   1.000  H
  H529     1.0000 0.20989  0.59572  0.06468  Biso   1.000  H
  H530     1.0000 0.22582  0.66080  0.02351  Biso   1.000  H
  H531     1.0000 0.18510  0.66581  0.09070  Biso   1.000  H
  H532     1.0000 0.09390  0.54722  0.06532  Biso   1.000  H
  H533     1.0000 0.05460  0.61249  0.08490  Biso   1.000  H
  H534     1.0000 0.03778  0.57511  0.01771  Biso   1.000  H
  H535     1.0000 0.05312  0.81741  0.20231  Biso   1.000  H
  C315     1.0000 0.12425  0.88810  0.20118  Biso   1.000  C
  C316     1.0000 0.12425  0.88810  0.20123  Biso   1.000  C
  C317     1.0000 0.20118  0.87575  0.11190  Biso   1.000  C
  H536     1.0000 0.18259  0.79769  0.05312  Biso   1.000  H
  C318     1.0000 0.20123  0.87575  0.11190  Biso   1.000  C
  C319     1.0000 0.26016  0.09941  0.92700  Biso   1.000  C
  C320     1.0000 0.16758  0.17914  0.90915  Biso   1.000  C
  C321     1.0000 0.07300  0.26016  0.90059  Biso   1.000  C
  C322     1.0000 0.58731  0.95239  0.14530  Biso   1.000  C
  Br59     1.0000 0.58032  0.07226  0.07039  Biso   1.000  Br
  C323     1.0000 0.63891  0.05150  0.19321  Biso   1.000  C
  Br60     1.0000 0.64643  0.05755  0.20133  Biso   1.000  Br
  C324     1.0000 0.58721  0.04830  0.07309  Biso   1.000  C
  C325     1.0000 0.82086  0.09085  0.16758  Biso   1.000  C
  C326     1.0000 0.83242  0.17914  0.09085  Biso   1.000  C
  C327     1.0000 0.09941  0.92700  0.26016  Biso   1.000  C
  C328     1.0000 0.17914  0.90915  0.16758  Biso   1.000  C
  C329     1.0000 0.26016  0.90059  0.07300  Biso   1.000  C
  N46      1.0000 0.26104  0.02755  0.93109  Biso   1.000  N
  H537     1.0000 0.25868  0.11810  0.97191  Biso   1.000  H
  H538     1.0000 0.30108  0.11481  0.90561  Biso   1.000  H
  N47      1.0000 0.26104  0.02755  0.93114  Biso   1.000  N
  H539     1.0000 0.18259  0.20231  0.94688  Biso   1.000  H
  H540     1.0000 0.18259  0.20231  0.94693  Biso   1.000  H
  N48      1.0000 0.06891  0.26104  0.97245  Biso   1.000  N
  H541     1.0000 0.02809  0.25868  0.88190  Biso   1.000  H
  H542     1.0000 0.09439  0.30108  0.88519  Biso   1.000  H
  H543     1.0000 0.57727  0.92622  0.10610  Biso   1.000  H
  H544     1.0000 0.61112  0.92509  0.17718  Biso   1.000  H
  H545     1.0000 0.54629  0.96808  0.16498  Biso   1.000  H
  H546     1.0000 0.61112  0.92509  0.17723  Biso   1.000  H
  H547     1.0000 0.54629  0.96808  0.16503  Biso   1.000  H
  H548     1.0000 0.54629  0.96813  0.16498  Biso   1.000  H
  H549     1.0000 0.54629  0.96813  0.16503  Biso   1.000  H
  H550     1.0000 0.57732  0.92622  0.10610  Biso   1.000  H
  H551     1.0000 0.59572  0.06468  0.20989  Biso   1.000  H
  H552     1.0000 0.66080  0.02351  0.22582  Biso   1.000  H
  H553     1.0000 0.66581  0.09070  0.18510  Biso   1.000  H
  H554     1.0000 0.54722  0.06532  0.09390  Biso   1.000  H
  H555     1.0000 0.61249  0.08490  0.05460  Biso   1.000  H
  H556     1.0000 0.57511  0.01771  0.03778  Biso   1.000  H
  H557     1.0000 0.79769  0.05312  0.18259  Biso   1.000  H
  C330     1.0000 0.87575  0.11190  0.20118  Biso   1.000  C
  C331     1.0000 0.87575  0.11190  0.20123  Biso   1.000  C
  H558     1.0000 0.81741  0.20231  0.05312  Biso   1.000  H
  C332     1.0000 0.88810  0.20118  0.12425  Biso   1.000  C
  C333     1.0000 0.88810  0.20123  0.12425  Biso   1.000  C
  N49      1.0000 0.02755  0.93109  0.26104  Biso   1.000  N
  H559     1.0000 0.11810  0.97191  0.25868  Biso   1.000  H
  H560     1.0000 0.11481  0.90561  0.30108  Biso   1.000  H
  N50      1.0000 0.02755  0.93114  0.26104  Biso   1.000  N
  H561     1.0000 0.20231  0.94688  0.18259  Biso   1.000  H
  H562     1.0000 0.20231  0.94693  0.18259  Biso   1.000  H
  N51      1.0000 0.26104  0.97245  0.06891  Biso   1.000  N
  H563     1.0000 0.25868  0.88190  0.02809  Biso   1.000  H
  H564     1.0000 0.30108  0.88519  0.09439  Biso   1.000  H
  C334     1.0000 0.20349  0.99710  0.96272  Biso   1.000  C
  C335     1.0000 0.30910  0.98642  0.90989  Biso   1.000  C
  C336     1.0000 0.03728  0.20349  0.00290  Biso   1.000  C
  C337     1.0000 0.09011  0.30910  0.01358  Biso   1.000  C
  C338     1.0000 0.09011  0.30910  0.01363  Biso   1.000  C
  C339     1.0000 0.90915  0.16758  0.17914  Biso   1.000  C
  C340     1.0000 0.90059  0.07300  0.26016  Biso   1.000  C
  C341     1.0000 0.92700  0.26016  0.09941  Biso   1.000  C
  C342     1.0000 0.99710  0.96272  0.20349  Biso   1.000  C
  C343     1.0000 0.98642  0.90989  0.30910  Biso   1.000  C
  C344     1.0000 0.20349  0.00290  0.03728  Biso   1.000  C
  C345     1.0000 0.30910  0.01358  0.09011  Biso   1.000  C
  C346     1.0000 0.30910  0.01363  0.09011  Biso   1.000  C
  H565     1.0000 0.20212  0.94998  0.95061  Biso   1.000  H
  H566     1.0000 0.20212  0.95002  0.95061  Biso   1.000  H
  H567     1.0000 0.16311  0.01810  0.94530  Biso   1.000  H
  O31      1.0000 0.30349  0.92671  0.91854  Biso   1.000  O
  C347     1.0000 0.37000  0.01131  0.87418  Biso   1.000  C
  C348     1.0000 0.37000  0.01131  0.87423  Biso   1.000  C
  C349     1.0000 0.96272  0.20349  0.99710  Biso   1.000  C
  H568     1.0000 0.05470  0.16311  0.98190  Biso   1.000  H
  H569     1.0000 0.04939  0.20212  0.05002  Biso   1.000  H
  C350     1.0000 0.12582  0.37000  0.98869  Biso   1.000  C
  O32      1.0000 0.08146  0.30349  0.07329  Biso   1.000  O
  H570     1.0000 0.94688  0.18259  0.20231  Biso   1.000  H
  H571     1.0000 0.94693  0.18259  0.20231  Biso   1.000  H
  N52      1.0000 0.97245  0.06891  0.26104  Biso   1.000  N
  H572     1.0000 0.88190  0.02809  0.25868  Biso   1.000  H
  H573     1.0000 0.88519  0.09439  0.30108  Biso   1.000  H
  N53      1.0000 0.93109  0.26104  0.02755  Biso   1.000  N
  N54      1.0000 0.93114  0.26104  0.02755  Biso   1.000  N
  H574     1.0000 0.97191  0.25868  0.11810  Biso   1.000  H
  H575     1.0000 0.90561  0.30108  0.11481  Biso   1.000  H
  C351     1.0000 0.00290  0.03728  0.20349  Biso   1.000  C
  H576     1.0000 0.94998  0.95061  0.20212  Biso   1.000  H
  H577     1.0000 0.95002  0.95061  0.20212  Biso   1.000  H
  H578     1.0000 0.01810  0.94530  0.16311  Biso   1.000  H
  O33      1.0000 0.92671  0.91854  0.30349  Biso   1.000  O
  C352     1.0000 0.01131  0.87418  0.37000  Biso   1.000  C
  C353     1.0000 0.01131  0.87423  0.37000  Biso   1.000  C
  H579     1.0000 0.16311  0.98190  0.05470  Biso   1.000  H
  H580     1.0000 0.20212  0.05002  0.04939  Biso   1.000  H
  C354     1.0000 0.37000  0.98869  0.12582  Biso   1.000  C
  O34      1.0000 0.30349  0.07329  0.08146  Biso   1.000  O
  C355     1.0000 0.41269  0.95239  0.85470  Biso   1.000  C
  Br61     1.0000 0.41968  0.07226  0.92961  Biso   1.000  Br
  C356     1.0000 0.36109  0.05150  0.80679  Biso   1.000  C
  Br62     1.0000 0.35357  0.05755  0.79867  Biso   1.000  Br
  C357     1.0000 0.41279  0.04830  0.92691  Biso   1.000  C
  H581     1.0000 0.95061  0.20212  0.94998  Biso   1.000  H
  H582     1.0000 0.95061  0.20212  0.95002  Biso   1.000  H
  H583     1.0000 0.94530  0.16311  0.01810  Biso   1.000  H
  Br63     1.0000 0.07039  0.41968  0.92774  Biso   1.000  Br
  C358     1.0000 0.19321  0.36109  0.94850  Biso   1.000  C
  Br64     1.0000 0.20133  0.35357  0.94245  Biso   1.000  Br
  C359     1.0000 0.07309  0.41279  0.95170  Biso   1.000  C
  C360     1.0000 0.14530  0.41269  0.04761  Biso   1.000  C
  C361     1.0000 0.01358  0.09011  0.30910  Biso   1.000  C
  C362     1.0000 0.01363  0.09011  0.30910  Biso   1.000  C
  C363     1.0000 0.90989  0.30910  0.98642  Biso   1.000  C
  H584     1.0000 0.98190  0.05470  0.16311  Biso   1.000  H
  H585     1.0000 0.05002  0.04939  0.20212  Biso   1.000  H
  C364     1.0000 0.95239  0.85470  0.41269  Biso   1.000  C
  Br65     1.0000 0.07226  0.92961  0.41968  Biso   1.000  Br
  C365     1.0000 0.05150  0.80679  0.36109  Biso   1.000  C
  Br66     1.0000 0.05755  0.79867  0.35357  Biso   1.000  Br
  C366     1.0000 0.04830  0.92691  0.41279  Biso   1.000  C
  Br67     1.0000 0.41968  0.92774  0.07039  Biso   1.000  Br
  C367     1.0000 0.36109  0.94850  0.19321  Biso   1.000  C
  Br68     1.0000 0.35357  0.94245  0.20133  Biso   1.000  Br
  C368     1.0000 0.41279  0.95170  0.07309  Biso   1.000  C
  C369     1.0000 0.41269  0.04761  0.14530  Biso   1.000  C
  H586     1.0000 0.42273  0.92622  0.89390  Biso   1.000  H
  H587     1.0000 0.38888  0.92509  0.82282  Biso   1.000  H
  H588     1.0000 0.45371  0.96808  0.83502  Biso   1.000  H
  H589     1.0000 0.45371  0.96813  0.83502  Biso   1.000  H
  H590     1.0000 0.40428  0.06468  0.79011  Biso   1.000  H
  H591     1.0000 0.33920  0.02351  0.77418  Biso   1.000  H
  H592     1.0000 0.33419  0.09070  0.81490  Biso   1.000  H
  H593     1.0000 0.33920  0.02351  0.77423  Biso   1.000  H
  H594     1.0000 0.40433  0.06468  0.79011  Biso   1.000  H
  H595     1.0000 0.45278  0.06532  0.90610  Biso   1.000  H
  H596     1.0000 0.38751  0.08490  0.94540  Biso   1.000  H
  H597     1.0000 0.42489  0.01771  0.96222  Biso   1.000  H
  H598     1.0000 0.20989  0.40428  0.93532  Biso   1.000  H
  H599     1.0000 0.22582  0.33920  0.97649  Biso   1.000  H
  H600     1.0000 0.18510  0.33419  0.90930  Biso   1.000  H
  H601     1.0000 0.20989  0.40433  0.93532  Biso   1.000  H
  H602     1.0000 0.09390  0.45278  0.93473  Biso   1.000  H
  H603     1.0000 0.05460  0.38751  0.91510  Biso   1.000  H
  H604     1.0000 0.03778  0.42489  0.98229  Biso   1.000  H
  H605     1.0000 0.10610  0.42273  0.07378  Biso   1.000  H
  H606     1.0000 0.17718  0.38888  0.07491  Biso   1.000  H
  H607     1.0000 0.16498  0.45371  0.03192  Biso   1.000  H
  H608     1.0000 0.17723  0.38888  0.07491  Biso   1.000  H
  H609     1.0000 0.16503  0.45371  0.03192  Biso   1.000  H
  C370     1.0000 0.98869  0.12582  0.37000  Biso   1.000  C
  O35      1.0000 0.07329  0.08146  0.30349  Biso   1.000  O
  O36      1.0000 0.91854  0.30349  0.92671  Biso   1.000  O
  C371     1.0000 0.87418  0.37000  0.01131  Biso   1.000  C
  C372     1.0000 0.87423  0.37000  0.01131  Biso   1.000  C
  H610     1.0000 0.92622  0.89390  0.42273  Biso   1.000  H
  H611     1.0000 0.92509  0.82282  0.38888  Biso   1.000  H
  H612     1.0000 0.96808  0.83502  0.45371  Biso   1.000  H
  H613     1.0000 0.96813  0.83502  0.45371  Biso   1.000  H
  H614     1.0000 0.06468  0.79011  0.40428  Biso   1.000  H
  H615     1.0000 0.02351  0.77418  0.33920  Biso   1.000  H
  H616     1.0000 0.09070  0.81490  0.33419  Biso   1.000  H
  H617     1.0000 0.06468  0.79011  0.40433  Biso   1.000  H
  H618     1.0000 0.02351  0.77423  0.33920  Biso   1.000  H
  H619     1.0000 0.06532  0.90610  0.45278  Biso   1.000  H
  H620     1.0000 0.08490  0.94540  0.38751  Biso   1.000  H
  H621     1.0000 0.01771  0.96222  0.42489  Biso   1.000  H
  H622     1.0000 0.40428  0.93532  0.20989  Biso   1.000  H
  H623     1.0000 0.33920  0.97649  0.22582  Biso   1.000  H
  H624     1.0000 0.33419  0.90930  0.18510  Biso   1.000  H
  H625     1.0000 0.40433  0.93532  0.20989  Biso   1.000  H
  H626     1.0000 0.45278  0.93473  0.09390  Biso   1.000  H
  H627     1.0000 0.38751  0.91510  0.05460  Biso   1.000  H
  H628     1.0000 0.42489  0.98229  0.03778  Biso   1.000  H
  H629     1.0000 0.42273  0.07378  0.10610  Biso   1.000  H
  H630     1.0000 0.38888  0.07491  0.17718  Biso   1.000  H
  H631     1.0000 0.45371  0.03192  0.16498  Biso   1.000  H
  H632     1.0000 0.38888  0.07491  0.17723  Biso   1.000  H
  H633     1.0000 0.45371  0.03192  0.16503  Biso   1.000  H
  Br69     1.0000 0.92774  0.07039  0.41968  Biso   1.000  Br
  C373     1.0000 0.94850  0.19321  0.36109  Biso   1.000  C
  Br70     1.0000 0.94245  0.20133  0.35357  Biso   1.000  Br
  C374     1.0000 0.95170  0.07309  0.41279  Biso   1.000  C
  C375     1.0000 0.04761  0.14530  0.41269  Biso   1.000  C
  C376     1.0000 0.85470  0.41269  0.95239  Biso   1.000  C
  Br71     1.0000 0.92961  0.41968  0.07226  Biso   1.000  Br
  C377     1.0000 0.80679  0.36109  0.05150  Biso   1.000  C
  Br72     1.0000 0.79867  0.35357  0.05755  Biso   1.000  Br
  C378     1.0000 0.92691  0.41279  0.04830  Biso   1.000  C
  H634     1.0000 0.93532  0.20989  0.40428  Biso   1.000  H
  H635     1.0000 0.97649  0.22582  0.33920  Biso   1.000  H
  H636     1.0000 0.90930  0.18510  0.33419  Biso   1.000  H
  H637     1.0000 0.93532  0.20989  0.40433  Biso   1.000  H
  H638     1.0000 0.93473  0.09390  0.45278  Biso   1.000  H
  H639     1.0000 0.91510  0.05460  0.38751  Biso   1.000  H
  H640     1.0000 0.98229  0.03778  0.42489  Biso   1.000  H
  H641     1.0000 0.07378  0.10610  0.42273  Biso   1.000  H
  H642     1.0000 0.07491  0.17718  0.38888  Biso   1.000  H
  H643     1.0000 0.03192  0.16498  0.45371  Biso   1.000  H
  H644     1.0000 0.07491  0.17723  0.38888  Biso   1.000  H
  H645     1.0000 0.03192  0.16503  0.45371  Biso   1.000  H
  H646     1.0000 0.89390  0.42273  0.92622  Biso   1.000  H
  H647     1.0000 0.82282  0.38888  0.92509  Biso   1.000  H
  H648     1.0000 0.83502  0.45371  0.96808  Biso   1.000  H
  H649     1.0000 0.83502  0.45371  0.96813  Biso   1.000  H
  H650     1.0000 0.79011  0.40428  0.06468  Biso   1.000  H
  H651     1.0000 0.77418  0.33920  0.02351  Biso   1.000  H
  H652     1.0000 0.81490  0.33419  0.09070  Biso   1.000  H
  H653     1.0000 0.79011  0.40433  0.06468  Biso   1.000  H
  H654     1.0000 0.77423  0.33920  0.02351  Biso   1.000  H
  H655     1.0000 0.90610  0.45278  0.06532  Biso   1.000  H
  H656     1.0000 0.94540  0.38751  0.08490  Biso   1.000  H
  H657     1.0000 0.96222  0.42489  0.01771  Biso   1.000  H
  C379     1.0000 0.90915  0.83242  0.82086  Biso   1.000  C
  C380     1.0000 0.87575  0.88810  0.79882  Biso   1.000  C
  C381     1.0000 0.88810  0.79882  0.87575  Biso   1.000  C
  H658     1.0000 0.94688  0.81741  0.79769  Biso   1.000  H
  H659     1.0000 0.94693  0.81741  0.79769  Biso   1.000  H
  C382     1.0000 0.90059  0.92700  0.73984  Biso   1.000  C
  C383     1.0000 0.82086  0.90915  0.83242  Biso   1.000  C
  C384     1.0000 0.83242  0.82086  0.90915  Biso   1.000  C
  C385     1.0000 0.92700  0.73984  0.90059  Biso   1.000  C
  N55      1.0000 0.97245  0.93109  0.73896  Biso   1.000  N
  N56      1.0000 0.97245  0.93114  0.73896  Biso   1.000  N
  H660     1.0000 0.88190  0.97191  0.74132  Biso   1.000  H
  H661     1.0000 0.88519  0.90561  0.69892  Biso   1.000  H
  C386     1.0000 0.79882  0.87575  0.88810  Biso   1.000  C
  H662     1.0000 0.79769  0.94688  0.81741  Biso   1.000  H
  H663     1.0000 0.79769  0.94693  0.81741  Biso   1.000  H
  H664     1.0000 0.81741  0.79769  0.94688  Biso   1.000  H
  H665     1.0000 0.81741  0.79769  0.94693  Biso   1.000  H
  N57      1.0000 0.93109  0.73896  0.97245  Biso   1.000  N
  H666     1.0000 0.97191  0.74132  0.88190  Biso   1.000  H
  H667     1.0000 0.90561  0.69892  0.88519  Biso   1.000  H
  N58      1.0000 0.93114  0.73896  0.97245  Biso   1.000  N
  C387     1.0000 0.01358  0.90989  0.69090  Biso   1.000  C
  C388     1.0000 0.01363  0.90989  0.69090  Biso   1.000  C
  C389     1.0000 0.00290  0.96272  0.79651  Biso   1.000  C
  C390     1.0000 0.73984  0.90059  0.92700  Biso   1.000  C
  C391     1.0000 0.96272  0.79651  0.00290  Biso   1.000  C
  C392     1.0000 0.90989  0.69090  0.01358  Biso   1.000  C
  C393     1.0000 0.90989  0.69090  0.01363  Biso   1.000  C
  C394     1.0000 0.98869  0.87418  0.63000  Biso   1.000  C
  C395     1.0000 0.98869  0.87423  0.63000  Biso   1.000  C
  O37      1.0000 0.07329  0.91854  0.69651  Biso   1.000  O
  H668     1.0000 0.98190  0.94530  0.83689  Biso   1.000  H
  C396     1.0000 0.99710  0.03728  0.79651  Biso   1.000  C
  H669     1.0000 0.05002  0.95061  0.79788  Biso   1.000  H
  H670     1.0000 0.74132  0.88190  0.97191  Biso   1.000  H
  H671     1.0000 0.69892  0.88519  0.90561  Biso   1.000  H
  N59      1.0000 0.73896  0.97245  0.93109  Biso   1.000  N
  N60      1.0000 0.73896  0.97245  0.93114  Biso   1.000  N
  H672     1.0000 0.94530  0.83689  0.98190  Biso   1.000  H
  H673     1.0000 0.95061  0.79788  0.05002  Biso   1.000  H
  C397     1.0000 0.03728  0.79651  0.99710  Biso   1.000  C
  C398     1.0000 0.87418  0.63000  0.98869  Biso   1.000  C
  C399     1.0000 0.87423  0.63000  0.98869  Biso   1.000  C
  O38      1.0000 0.91854  0.69651  0.07329  Biso   1.000  O
  C400     1.0000 0.94850  0.80679  0.63891  Biso   1.000  C
  Br73     1.0000 0.92774  0.92961  0.58032  Biso   1.000  Br
  Br74     1.0000 0.94245  0.79867  0.64643  Biso   1.000  Br
  C401     1.0000 0.95170  0.92691  0.58721  Biso   1.000  C
  C402     1.0000 0.04761  0.85470  0.58731  Biso   1.000  C
  H674     1.0000 0.94998  0.04939  0.79788  Biso   1.000  H
  H675     1.0000 0.95002  0.04939  0.79788  Biso   1.000  H
  N61      1.0000 0.02755  0.06891  0.73896  Biso   1.000  N
  H676     1.0000 0.01810  0.05470  0.83689  Biso   1.000  H
  C403     1.0000 0.79651  0.00290  0.96272  Biso   1.000  C
  C404     1.0000 0.69090  0.01358  0.90989  Biso   1.000  C
  C405     1.0000 0.69090  0.01363  0.90989  Biso   1.000  C
  H677     1.0000 0.04939  0.79788  0.94998  Biso   1.000  H
  H678     1.0000 0.04939  0.79788  0.95002  Biso   1.000  H
  N62      1.0000 0.06891  0.73896  0.02755  Biso   1.000  N
  H679     1.0000 0.05470  0.83689  0.01810  Biso   1.000  H
  Br75     1.0000 0.92961  0.58032  0.92774  Biso   1.000  Br
  C406     1.0000 0.80679  0.63891  0.94850  Biso   1.000  C
  Br76     1.0000 0.79867  0.64643  0.94245  Biso   1.000  Br
  C407     1.0000 0.92691  0.58721  0.95170  Biso   1.000  C
  C408     1.0000 0.85470  0.58731  0.04761  Biso   1.000  C
  H680     1.0000 0.93532  0.79011  0.59572  Biso   1.000  H
  H681     1.0000 0.90930  0.81490  0.66581  Biso   1.000  H
  H682     1.0000 0.97649  0.77418  0.66080  Biso   1.000  H
  H683     1.0000 0.97649  0.77423  0.66080  Biso   1.000  H
  H684     1.0000 0.93473  0.90610  0.54722  Biso   1.000  H
  H685     1.0000 0.91510  0.94540  0.61249  Biso   1.000  H
  H686     1.0000 0.98229  0.96222  0.57511  Biso   1.000  H
  H687     1.0000 0.07378  0.89390  0.57727  Biso   1.000  H
  H688     1.0000 0.07491  0.82282  0.61112  Biso   1.000  H
  H689     1.0000 0.03192  0.83502  0.54629  Biso   1.000  H
  H690     1.0000 0.07378  0.89390  0.57732  Biso   1.000  H
  C409     1.0000 0.98642  0.09011  0.69090  Biso   1.000  C
  C410     1.0000 0.09941  0.07300  0.73984  Biso   1.000  C
  H691     1.0000 0.83689  0.98190  0.94530  Biso   1.000  H
  C411     1.0000 0.79651  0.99710  0.03728  Biso   1.000  C
  H692     1.0000 0.79788  0.05002  0.95061  Biso   1.000  H
  C412     1.0000 0.63000  0.98869  0.87418  Biso   1.000  C
  C413     1.0000 0.63000  0.98869  0.87423  Biso   1.000  C
  O39      1.0000 0.69651  0.07329  0.91854  Biso   1.000  O
  C414     1.0000 0.09011  0.69090  0.98642  Biso   1.000  C
  C415     1.0000 0.07300  0.73984  0.09941  Biso   1.000  C
  H693     1.0000 0.79011  0.59572  0.93532  Biso   1.000  H
  H694     1.0000 0.77418  0.66080  0.97649  Biso   1.000  H
  H695     1.0000 0.81490  0.66581  0.90930  Biso   1.000  H
  H696     1.0000 0.77423  0.66080  0.97649  Biso   1.000  H
  H697     1.0000 0.90610  0.54722  0.93473  Biso   1.000  H
  H698     1.0000 0.94540  0.61249  0.91510  Biso   1.000  H
  H699     1.0000 0.96222  0.57511  0.98229  Biso   1.000  H
  H700     1.0000 0.89390  0.57727  0.07378  Biso   1.000  H
  H701     1.0000 0.82282  0.61112  0.07491  Biso   1.000  H
  H702     1.0000 0.83502  0.54629  0.03192  Biso   1.000  H
  H703     1.0000 0.89390  0.57732  0.07378  Biso   1.000  H
  O40      1.0000 0.92671  0.08146  0.69651  Biso   1.000  O
  C416     1.0000 0.01131  0.12582  0.63000  Biso   1.000  C
  C417     1.0000 0.12425  0.11190  0.79882  Biso   1.000  C
  H704     1.0000 0.11810  0.02809  0.74132  Biso   1.000  H
  H705     1.0000 0.11481  0.09439  0.69892  Biso   1.000  H
  H706     1.0000 0.79788  0.94998  0.04939  Biso   1.000  H
  H707     1.0000 0.79788  0.95002  0.04939  Biso   1.000  H
  N63      1.0000 0.73896  0.02755  0.06891  Biso   1.000  N
  H708     1.0000 0.83689  0.01810  0.05470  Biso   1.000  H
  Br77     1.0000 0.58032  0.92774  0.92961  Biso   1.000  Br
  C418     1.0000 0.63891  0.94850  0.80679  Biso   1.000  C
  Br78     1.0000 0.64643  0.94245  0.79867  Biso   1.000  Br
  C419     1.0000 0.58721  0.95170  0.92691  Biso   1.000  C
  C420     1.0000 0.58731  0.04761  0.85470  Biso   1.000  C
  O41      1.0000 0.08146  0.69651  0.92671  Biso   1.000  O
  C421     1.0000 0.12582  0.63000  0.01131  Biso   1.000  C
  C422     1.0000 0.11190  0.79882  0.12425  Biso   1.000  C
  H709     1.0000 0.02809  0.74132  0.11810  Biso   1.000  H
  H710     1.0000 0.09439  0.69892  0.11481  Biso   1.000  H
  C423     1.0000 0.95239  0.14530  0.58731  Biso   1.000  C
  Br79     1.0000 0.07226  0.07039  0.58032  Biso   1.000  Br
  C424     1.0000 0.05150  0.19321  0.63891  Biso   1.000  C
  Br80     1.0000 0.05755  0.20133  0.64643  Biso   1.000  Br
  C425     1.0000 0.04830  0.07309  0.58721  Biso   1.000  C
  C426     1.0000 0.17914  0.09085  0.83242  Biso   1.000  C
  C427     1.0000 0.09085  0.16758  0.82086  Biso   1.000  C
  C428     1.0000 0.69090  0.98642  0.09011  Biso   1.000  C
  C429     1.0000 0.73984  0.09941  0.07300  Biso   1.000  C
  H711     1.0000 0.59572  0.93532  0.79011  Biso   1.000  H
  H712     1.0000 0.66581  0.90930  0.81490  Biso   1.000  H
  H713     1.0000 0.66080  0.97649  0.77418  Biso   1.000  H
  H714     1.0000 0.66080  0.97649  0.77423  Biso   1.000  H
  H715     1.0000 0.54722  0.93473  0.90610  Biso   1.000  H
  H716     1.0000 0.61249  0.91510  0.94540  Biso   1.000  H
  H717     1.0000 0.57511  0.98229  0.96222  Biso   1.000  H
  H718     1.0000 0.57727  0.07378  0.89390  Biso   1.000  H
  H719     1.0000 0.61112  0.07491  0.82282  Biso   1.000  H
  H720     1.0000 0.54629  0.03192  0.83502  Biso   1.000  H
  H721     1.0000 0.57732  0.07378  0.89390  Biso   1.000  H
  C430     1.0000 0.14530  0.58731  0.95239  Biso   1.000  C
  Br81     1.0000 0.07039  0.58032  0.07226  Biso   1.000  Br
  C431     1.0000 0.19321  0.63891  0.05150  Biso   1.000  C
  Br82     1.0000 0.20133  0.64643  0.05755  Biso   1.000  Br
  C432     1.0000 0.07309  0.58721  0.04830  Biso   1.000  C
  C433     1.0000 0.09085  0.83242  0.17914  Biso   1.000  C
  C434     1.0000 0.16758  0.82086  0.09085  Biso   1.000  C
  H722     1.0000 0.92622  0.10610  0.57727  Biso   1.000  H
  H723     1.0000 0.92509  0.17718  0.61112  Biso   1.000  H
  H724     1.0000 0.96808  0.16498  0.54629  Biso   1.000  H
  H725     1.0000 0.92622  0.10610  0.57732  Biso   1.000  H
  H726     1.0000 0.92509  0.17723  0.61112  Biso   1.000  H
  H727     1.0000 0.96808  0.16503  0.54629  Biso   1.000  H
  H728     1.0000 0.96813  0.16498  0.54629  Biso   1.000  H
  H729     1.0000 0.96813  0.16503  0.54629  Biso   1.000  H
  H730     1.0000 0.06468  0.20989  0.59572  Biso   1.000  H
  H731     1.0000 0.02351  0.22582  0.66080  Biso   1.000  H
  H732     1.0000 0.09070  0.18510  0.66581  Biso   1.000  H
  H733     1.0000 0.06532  0.09390  0.54722  Biso   1.000  H
  H734     1.0000 0.08490  0.05460  0.61249  Biso   1.000  H
  H735     1.0000 0.01771  0.03778  0.57511  Biso   1.000  H
  H736     1.0000 0.20231  0.05312  0.81741  Biso   1.000  H
  C435     1.0000 0.20118  0.12425  0.88810  Biso   1.000  C
  C436     1.0000 0.20123  0.12425  0.88810  Biso   1.000  C
  H737     1.0000 0.05312  0.18259  0.79769  Biso   1.000  H
  C437     1.0000 0.11190  0.20118  0.87575  Biso   1.000  C
  C438     1.0000 0.11190  0.20123  0.87575  Biso   1.000  C
  O42      1.0000 0.69651  0.92671  0.08146  Biso   1.000  O
  C439     1.0000 0.63000  0.01131  0.12582  Biso   1.000  C
  C440     1.0000 0.79882  0.12425  0.11190  Biso   1.000  C
  H738     1.0000 0.74132  0.11810  0.02809  Biso   1.000  H
  H739     1.0000 0.69892  0.11481  0.09439  Biso   1.000  H
  H740     1.0000 0.10610  0.57727  0.92622  Biso   1.000  H
  H741     1.0000 0.17718  0.61112  0.92509  Biso   1.000  H
  H742     1.0000 0.16498  0.54629  0.96808  Biso   1.000  H
  H743     1.0000 0.16498  0.54629  0.96813  Biso   1.000  H
  H744     1.0000 0.10610  0.57732  0.92622  Biso   1.000  H
  H745     1.0000 0.17723  0.61112  0.92509  Biso   1.000  H
  H746     1.0000 0.16503  0.54629  0.96808  Biso   1.000  H
  H747     1.0000 0.16503  0.54629  0.96813  Biso   1.000  H
  H748     1.0000 0.20989  0.59572  0.06468  Biso   1.000  H
  H749     1.0000 0.22582  0.66080  0.02351  Biso   1.000  H
  H750     1.0000 0.18510  0.66581  0.09070  Biso   1.000  H
  H751     1.0000 0.09390  0.54722  0.06532  Biso   1.000  H
  H752     1.0000 0.05460  0.61249  0.08490  Biso   1.000  H
  H753     1.0000 0.03778  0.57511  0.01771  Biso   1.000  H
  H754     1.0000 0.05312  0.81741  0.20231  Biso   1.000  H
  C441     1.0000 0.12425  0.88810  0.20118  Biso   1.000  C
  C442     1.0000 0.12425  0.88810  0.20123  Biso   1.000  C
  C443     1.0000 0.20118  0.87575  0.11190  Biso   1.000  C
  H755     1.0000 0.18259  0.79769  0.05312  Biso   1.000  H
  C444     1.0000 0.20123  0.87575  0.11190  Biso   1.000  C
  C445     1.0000 0.26016  0.09941  0.92700  Biso   1.000  C
  C446     1.0000 0.16758  0.17914  0.90915  Biso   1.000  C
  C447     1.0000 0.07300  0.26016  0.90059  Biso   1.000  C
  C448     1.0000 0.58731  0.95239  0.14530  Biso   1.000  C
  Br83     1.0000 0.58032  0.07226  0.07039  Biso   1.000  Br
  C449     1.0000 0.63891  0.05150  0.19321  Biso   1.000  C
  Br84     1.0000 0.64643  0.05755  0.20133  Biso   1.000  Br
  C450     1.0000 0.58721  0.04830  0.07309  Biso   1.000  C
  C451     1.0000 0.82086  0.09085  0.16758  Biso   1.000  C
  C452     1.0000 0.83242  0.17914  0.09085  Biso   1.000  C
  C453     1.0000 0.09941  0.92700  0.26016  Biso   1.000  C
  C454     1.0000 0.17914  0.90915  0.16758  Biso   1.000  C
  C455     1.0000 0.26016  0.90059  0.07300  Biso   1.000  C
  N64      1.0000 0.26104  0.02755  0.93109  Biso   1.000  N
  H756     1.0000 0.25868  0.11810  0.97191  Biso   1.000  H
  H757     1.0000 0.30108  0.11481  0.90561  Biso   1.000  H
  N65      1.0000 0.26104  0.02755  0.93114  Biso   1.000  N
  H758     1.0000 0.18259  0.20231  0.94688  Biso   1.000  H
  H759     1.0000 0.18259  0.20231  0.94693  Biso   1.000  H
  N66      1.0000 0.06891  0.26104  0.97245  Biso   1.000  N
  H760     1.0000 0.02809  0.25868  0.88190  Biso   1.000  H
  H761     1.0000 0.09439  0.30108  0.88519  Biso   1.000  H
  H762     1.0000 0.57727  0.92622  0.10610  Biso   1.000  H
  H763     1.0000 0.61112  0.92509  0.17718  Biso   1.000  H
  H764     1.0000 0.54629  0.96808  0.16498  Biso   1.000  H
  H765     1.0000 0.61112  0.92509  0.17723  Biso   1.000  H
  H766     1.0000 0.54629  0.96808  0.16503  Biso   1.000  H
  H767     1.0000 0.54629  0.96813  0.16498  Biso   1.000  H
  H768     1.0000 0.54629  0.96813  0.16503  Biso   1.000  H
  H769     1.0000 0.57732  0.92622  0.10610  Biso   1.000  H
  H770     1.0000 0.59572  0.06468  0.20989  Biso   1.000  H
  H771     1.0000 0.66080  0.02351  0.22582  Biso   1.000  H
  H772     1.0000 0.66581  0.09070  0.18510  Biso   1.000  H
  H773     1.0000 0.54722  0.06532  0.09390  Biso   1.000  H
  H774     1.0000 0.61249  0.08490  0.05460  Biso   1.000  H
  H775     1.0000 0.57511  0.01771  0.03778  Biso   1.000  H
  H776     1.0000 0.79769  0.05312  0.18259  Biso   1.000  H
  C456     1.0000 0.87575  0.11190  0.20118  Biso   1.000  C
  C457     1.0000 0.87575  0.11190  0.20123  Biso   1.000  C
  H777     1.0000 0.81741  0.20231  0.05312  Biso   1.000  H
  C458     1.0000 0.88810  0.20118  0.12425  Biso   1.000  C
  C459     1.0000 0.88810  0.20123  0.12425  Biso   1.000  C
  N67      1.0000 0.02755  0.93109  0.26104  Biso   1.000  N
  H778     1.0000 0.11810  0.97191  0.25868  Biso   1.000  H
  H779     1.0000 0.11481  0.90561  0.30108  Biso   1.000  H
  N68      1.0000 0.02755  0.93114  0.26104  Biso   1.000  N
  H780     1.0000 0.20231  0.94688  0.18259  Biso   1.000  H
  H781     1.0000 0.20231  0.94693  0.18259  Biso   1.000  H
  N69      1.0000 0.26104  0.97245  0.06891  Biso   1.000  N
  H782     1.0000 0.25868  0.88190  0.02809  Biso   1.000  H
  H783     1.0000 0.30108  0.88519  0.09439  Biso   1.000  H
  C460     1.0000 0.20349  0.99710  0.96272  Biso   1.000  C
  C461     1.0000 0.30910  0.98642  0.90989  Biso   1.000  C
  C462     1.0000 0.03728  0.20349  0.00290  Biso   1.000  C
  C463     1.0000 0.09011  0.30910  0.01358  Biso   1.000  C
  C464     1.0000 0.09011  0.30910  0.01363  Biso   1.000  C
  C465     1.0000 0.90915  0.16758  0.17914  Biso   1.000  C
  C466     1.0000 0.90059  0.07300  0.26016  Biso   1.000  C
  C467     1.0000 0.92700  0.26016  0.09941  Biso   1.000  C
  C468     1.0000 0.99710  0.96272  0.20349  Biso   1.000  C
  C469     1.0000 0.98642  0.90989  0.30910  Biso   1.000  C
  C470     1.0000 0.20349  0.00290  0.03728  Biso   1.000  C
  C471     1.0000 0.30910  0.01358  0.09011  Biso   1.000  C
  C472     1.0000 0.30910  0.01363  0.09011  Biso   1.000  C
  H784     1.0000 0.20212  0.94998  0.95061  Biso   1.000  H
  H785     1.0000 0.20212  0.95002  0.95061  Biso   1.000  H
  H786     1.0000 0.16311  0.01810  0.94530  Biso   1.000  H
  O43      1.0000 0.30349  0.92671  0.91854  Biso   1.000  O
  C473     1.0000 0.37000  0.01131  0.87418  Biso   1.000  C
  C474     1.0000 0.37000  0.01131  0.87423  Biso   1.000  C
  C475     1.0000 0.96272  0.20349  0.99710  Biso   1.000  C
  H787     1.0000 0.05470  0.16311  0.98190  Biso   1.000  H
  H788     1.0000 0.04939  0.20212  0.05002  Biso   1.000  H
  C476     1.0000 0.12582  0.37000  0.98869  Biso   1.000  C
  O44      1.0000 0.08146  0.30349  0.07329  Biso   1.000  O
  H789     1.0000 0.94688  0.18259  0.20231  Biso   1.000  H
  H790     1.0000 0.94693  0.18259  0.20231  Biso   1.000  H
  N70      1.0000 0.97245  0.06891  0.26104  Biso   1.000  N
  H791     1.0000 0.88190  0.02809  0.25868  Biso   1.000  H
  H792     1.0000 0.88519  0.09439  0.30108  Biso   1.000  H
  N71      1.0000 0.93109  0.26104  0.02755  Biso   1.000  N
  N72      1.0000 0.93114  0.26104  0.02755  Biso   1.000  N
  H793     1.0000 0.97191  0.25868  0.11810  Biso   1.000  H
  H794     1.0000 0.90561  0.30108  0.11481  Biso   1.000  H
  C477     1.0000 0.00290  0.03728  0.20349  Biso   1.000  C
  H795     1.0000 0.94998  0.95061  0.20212  Biso   1.000  H
  H796     1.0000 0.95002  0.95061  0.20212  Biso   1.000  H
  H797     1.0000 0.01810  0.94530  0.16311  Biso   1.000  H
  O45      1.0000 0.92671  0.91854  0.30349  Biso   1.000  O
  C478     1.0000 0.01131  0.87418  0.37000  Biso   1.000  C
  C479     1.0000 0.01131  0.87423  0.37000  Biso   1.000  C
  H798     1.0000 0.16311  0.98190  0.05470  Biso   1.000  H
  H799     1.0000 0.20212  0.05002  0.04939  Biso   1.000  H
  C480     1.0000 0.37000  0.98869  0.12582  Biso   1.000  C
  O46      1.0000 0.30349  0.07329  0.08146  Biso   1.000  O
  C481     1.0000 0.41269  0.95239  0.85470  Biso   1.000  C
  Br85     1.0000 0.41968  0.07226  0.92961  Biso   1.000  Br
  C482     1.0000 0.36109  0.05150  0.80679  Biso   1.000  C
  Br86     1.0000 0.35357  0.05755  0.79867  Biso   1.000  Br
  C483     1.0000 0.41279  0.04830  0.92691  Biso   1.000  C
  H800     1.0000 0.95061  0.20212  0.94998  Biso   1.000  H
  H801     1.0000 0.95061  0.20212  0.95002  Biso   1.000  H
  H802     1.0000 0.94530  0.16311  0.01810  Biso   1.000  H
  Br87     1.0000 0.07039  0.41968  0.92774  Biso   1.000  Br
  C484     1.0000 0.19321  0.36109  0.94850  Biso   1.000  C
  Br88     1.0000 0.20133  0.35357  0.94245  Biso   1.000  Br
  C485     1.0000 0.07309  0.41279  0.95170  Biso   1.000  C
  C486     1.0000 0.14530  0.41269  0.04761  Biso   1.000  C
  C487     1.0000 0.01358  0.09011  0.30910  Biso   1.000  C
  C488     1.0000 0.01363  0.09011  0.30910  Biso   1.000  C
  C489     1.0000 0.90989  0.30910  0.98642  Biso   1.000  C
  H803     1.0000 0.98190  0.05470  0.16311  Biso   1.000  H
  H804     1.0000 0.05002  0.04939  0.20212  Biso   1.000  H
  C490     1.0000 0.95239  0.85470  0.41269  Biso   1.000  C
  Br89     1.0000 0.07226  0.92961  0.41968  Biso   1.000  Br
  C491     1.0000 0.05150  0.80679  0.36109  Biso   1.000  C
  Br90     1.0000 0.05755  0.79867  0.35357  Biso   1.000  Br
  C492     1.0000 0.04830  0.92691  0.41279  Biso   1.000  C
  Br91     1.0000 0.41968  0.92774  0.07039  Biso   1.000  Br
  C493     1.0000 0.36109  0.94850  0.19321  Biso   1.000  C
  Br92     1.0000 0.35357  0.94245  0.20133  Biso   1.000  Br
  C494     1.0000 0.41279  0.95170  0.07309  Biso   1.000  C
  C495     1.0000 0.41269  0.04761  0.14530  Biso   1.000  C
  H805     1.0000 0.42273  0.92622  0.89390  Biso   1.000  H
  H806     1.0000 0.38888  0.92509  0.82282  Biso   1.000  H
  H807     1.0000 0.45371  0.96808  0.83502  Biso   1.000  H
  H808     1.0000 0.45371  0.96813  0.83502  Biso   1.000  H
  H809     1.0000 0.40428  0.06468  0.79011  Biso   1.000  H
  H810     1.0000 0.33920  0.02351  0.77418  Biso   1.000  H
  H811     1.0000 0.33419  0.09070  0.81490  Biso   1.000  H
  H812     1.0000 0.33920  0.02351  0.77423  Biso   1.000  H
  H813     1.0000 0.40433  0.06468  0.79011  Biso   1.000  H
  H814     1.0000 0.45278  0.06532  0.90610  Biso   1.000  H
  H815     1.0000 0.38751  0.08490  0.94540  Biso   1.000  H
  H816     1.0000 0.42489  0.01771  0.96222  Biso   1.000  H
  H817     1.0000 0.20989  0.40428  0.93532  Biso   1.000  H
  H818     1.0000 0.22582  0.33920  0.97649  Biso   1.000  H
  H819     1.0000 0.18510  0.33419  0.90930  Biso   1.000  H
  H820     1.0000 0.20989  0.40433  0.93532  Biso   1.000  H
  H821     1.0000 0.09390  0.45278  0.93473  Biso   1.000  H
  H822     1.0000 0.05460  0.38751  0.91510  Biso   1.000  H
  H823     1.0000 0.03778  0.42489  0.98229  Biso   1.000  H
  H824     1.0000 0.10610  0.42273  0.07378  Biso   1.000  H
  H825     1.0000 0.17718  0.38888  0.07491  Biso   1.000  H
  H826     1.0000 0.16498  0.45371  0.03192  Biso   1.000  H
  H827     1.0000 0.17723  0.38888  0.07491  Biso   1.000  H
  H828     1.0000 0.16503  0.45371  0.03192  Biso   1.000  H
  C496     1.0000 0.98869  0.12582  0.37000  Biso   1.000  C
  O47      1.0000 0.07329  0.08146  0.30349  Biso   1.000  O
  O48      1.0000 0.91854  0.30349  0.92671  Biso   1.000  O
  C497     1.0000 0.87418  0.37000  0.01131  Biso   1.000  C
  C498     1.0000 0.87423  0.37000  0.01131  Biso   1.000  C
  H829     1.0000 0.92622  0.89390  0.42273  Biso   1.000  H
  H830     1.0000 0.92509  0.82282  0.38888  Biso   1.000  H
  H831     1.0000 0.96808  0.83502  0.45371  Biso   1.000  H
  H832     1.0000 0.96813  0.83502  0.45371  Biso   1.000  H
  H833     1.0000 0.06468  0.79011  0.40428  Biso   1.000  H
  H834     1.0000 0.02351  0.77418  0.33920  Biso   1.000  H
  H835     1.0000 0.09070  0.81490  0.33419  Biso   1.000  H
  H836     1.0000 0.06468  0.79011  0.40433  Biso   1.000  H
  H837     1.0000 0.02351  0.77423  0.33920  Biso   1.000  H
  H838     1.0000 0.06532  0.90610  0.45278  Biso   1.000  H
  H839     1.0000 0.08490  0.94540  0.38751  Biso   1.000  H
  H840     1.0000 0.01771  0.96222  0.42489  Biso   1.000  H
  H841     1.0000 0.40428  0.93532  0.20989  Biso   1.000  H
  H842     1.0000 0.33920  0.97649  0.22582  Biso   1.000  H
  H843     1.0000 0.33419  0.90930  0.18510  Biso   1.000  H
  H844     1.0000 0.40433  0.93532  0.20989  Biso   1.000  H
  H845     1.0000 0.45278  0.93473  0.09390  Biso   1.000  H
  H846     1.0000 0.38751  0.91510  0.05460  Biso   1.000  H
  H847     1.0000 0.42489  0.98229  0.03778  Biso   1.000  H
  H848     1.0000 0.42273  0.07378  0.10610  Biso   1.000  H
  H849     1.0000 0.38888  0.07491  0.17718  Biso   1.000  H
  H850     1.0000 0.45371  0.03192  0.16498  Biso   1.000  H
  H851     1.0000 0.38888  0.07491  0.17723  Biso   1.000  H
  H852     1.0000 0.45371  0.03192  0.16503  Biso   1.000  H
  Br93     1.0000 0.92774  0.07039  0.41968  Biso   1.000  Br
  C499     1.0000 0.94850  0.19321  0.36109  Biso   1.000  C
  Br94     1.0000 0.94245  0.20133  0.35357  Biso   1.000  Br
  C500     1.0000 0.95170  0.07309  0.41279  Biso   1.000  C
  C501     1.0000 0.04761  0.14530  0.41269  Biso   1.000  C
  C502     1.0000 0.85470  0.41269  0.95239  Biso   1.000  C
  Br95     1.0000 0.92961  0.41968  0.07226  Biso   1.000  Br
  C503     1.0000 0.80679  0.36109  0.05150  Biso   1.000  C
  Br96     1.0000 0.79867  0.35357  0.05755  Biso   1.000  Br
  C504     1.0000 0.92691  0.41279  0.04830  Biso   1.000  C
  H853     1.0000 0.93532  0.20989  0.40428  Biso   1.000  H
  H854     1.0000 0.97649  0.22582  0.33920  Biso   1.000  H
  H855     1.0000 0.90930  0.18510  0.33419  Biso   1.000  H
  H856     1.0000 0.93532  0.20989  0.40433  Biso   1.000  H
  H857     1.0000 0.93473  0.09390  0.45278  Biso   1.000  H
  H858     1.0000 0.91510  0.05460  0.38751  Biso   1.000  H
  H859     1.0000 0.98229  0.03778  0.42489  Biso   1.000  H
  H860     1.0000 0.07378  0.10610  0.42273  Biso   1.000  H
  H861     1.0000 0.07491  0.17718  0.38888  Biso   1.000  H
  H862     1.0000 0.03192  0.16498  0.45371  Biso   1.000  H
  H863     1.0000 0.07491  0.17723  0.38888  Biso   1.000  H
  H864     1.0000 0.03192  0.16503  0.45371  Biso   1.000  H
  H865     1.0000 0.89390  0.42273  0.92622  Biso   1.000  H
  H866     1.0000 0.82282  0.38888  0.92509  Biso   1.000  H
  H867     1.0000 0.83502  0.45371  0.96808  Biso   1.000  H
  H868     1.0000 0.83502  0.45371  0.96813  Biso   1.000  H
  H869     1.0000 0.79011  0.40428  0.06468  Biso   1.000  H
  H870     1.0000 0.77418  0.33920  0.02351  Biso   1.000  H
  H871     1.0000 0.81490  0.33419  0.09070  Biso   1.000  H
  H872     1.0000 0.79011  0.40433  0.06468  Biso   1.000  H
  H873     1.0000 0.77423  0.33920  0.02351  Biso   1.000  H
  H874     1.0000 0.90610  0.45278  0.06532  Biso   1.000  H
  H875     1.0000 0.94540  0.38751  0.08490  Biso   1.000  H
  H876     1.0000 0.96222  0.42489  0.01771  Biso   1.000  H
  C505     1.0000 0.90915  0.83242  0.82086  Biso   1.000  C
  C506     1.0000 0.87575  0.88810  0.79882  Biso   1.000  C
  C507     1.0000 0.88810  0.79882  0.87575  Biso   1.000  C
  H877     1.0000 0.94688  0.81741  0.79769  Biso   1.000  H
  H878     1.0000 0.94693  0.81741  0.79769  Biso   1.000  H
  C508     1.0000 0.90059  0.92700  0.73984  Biso   1.000  C
  C509     1.0000 0.82086  0.90915  0.83242  Biso   1.000  C
  C510     1.0000 0.83242  0.82086  0.90915  Biso   1.000  C
  C511     1.0000 0.92700  0.73984  0.90059  Biso   1.000  C
  N73      1.0000 0.97245  0.93109  0.73896  Biso   1.000  N
  N74      1.0000 0.97245  0.93114  0.73896  Biso   1.000  N
  H879     1.0000 0.88190  0.97191  0.74132  Biso   1.000  H
  H880     1.0000 0.88519  0.90561  0.69892  Biso   1.000  H
  C512     1.0000 0.79882  0.87575  0.88810  Biso   1.000  C
  H881     1.0000 0.79769  0.94688  0.81741  Biso   1.000  H
  H882     1.0000 0.79769  0.94693  0.81741  Biso   1.000  H
  H883     1.0000 0.81741  0.79769  0.94688  Biso   1.000  H
  H884     1.0000 0.81741  0.79769  0.94693  Biso   1.000  H
  H885     1.0000 0.97191  0.74132  0.88190  Biso   1.000  H
  H886     1.0000 0.90561  0.69892  0.88519  Biso   1.000  H
  N75      1.0000 0.93109  0.73896  0.97245  Biso   1.000  N
  N76      1.0000 0.93114  0.73896  0.97245  Biso   1.000  N
  C513     1.0000 0.01358  0.90989  0.69090  Biso   1.000  C
  C514     1.0000 0.01363  0.90989  0.69090  Biso   1.000  C
  C515     1.0000 0.00290  0.96272  0.79651  Biso   1.000  C
  C516     1.0000 0.73984  0.90059  0.92700  Biso   1.000  C
  C517     1.0000 0.96272  0.79651  0.00290  Biso   1.000  C
  C518     1.0000 0.90989  0.69090  0.01358  Biso   1.000  C
  C519     1.0000 0.90989  0.69090  0.01363  Biso   1.000  C
  C520     1.0000 0.98869  0.87418  0.63000  Biso   1.000  C
  C521     1.0000 0.98869  0.87423  0.63000  Biso   1.000  C
  O49      1.0000 0.07329  0.91854  0.69651  Biso   1.000  O
  H887     1.0000 0.98190  0.94530  0.83689  Biso   1.000  H
  C522     1.0000 0.99710  0.03728  0.79651  Biso   1.000  C
  H888     1.0000 0.05002  0.95061  0.79788  Biso   1.000  H
  H889     1.0000 0.74132  0.88190  0.97191  Biso   1.000  H
  H890     1.0000 0.69892  0.88519  0.90561  Biso   1.000  H
  N77      1.0000 0.73896  0.97245  0.93109  Biso   1.000  N
  N78      1.0000 0.73896  0.97245  0.93114  Biso   1.000  N
  H891     1.0000 0.94530  0.83689  0.98190  Biso   1.000  H
  H892     1.0000 0.95061  0.79788  0.05002  Biso   1.000  H
  C523     1.0000 0.03728  0.79651  0.99710  Biso   1.000  C
  C524     1.0000 0.87418  0.63000  0.98869  Biso   1.000  C
  C525     1.0000 0.87423  0.63000  0.98869  Biso   1.000  C
  O50      1.0000 0.91854  0.69651  0.07329  Biso   1.000  O
  C526     1.0000 0.94850  0.80679  0.63891  Biso   1.000  C
  Br97     1.0000 0.92774  0.92961  0.58032  Biso   1.000  Br
  Br98     1.0000 0.94245  0.79867  0.64643  Biso   1.000  Br
  C527     1.0000 0.95170  0.92691  0.58721  Biso   1.000  C
  C528     1.0000 0.04761  0.85470  0.58731  Biso   1.000  C
  H893     1.0000 0.94998  0.04939  0.79788  Biso   1.000  H
  H894     1.0000 0.95002  0.04939  0.79788  Biso   1.000  H
  N79      1.0000 0.02755  0.06891  0.73896  Biso   1.000  N
  H895     1.0000 0.01810  0.05470  0.83689  Biso   1.000  H
  C529     1.0000 0.79651  0.00290  0.96272  Biso   1.000  C
  C530     1.0000 0.69090  0.01358  0.90989  Biso   1.000  C
  C531     1.0000 0.69090  0.01363  0.90989  Biso   1.000  C
  H896     1.0000 0.04939  0.79788  0.94998  Biso   1.000  H
  H897     1.0000 0.04939  0.79788  0.95002  Biso   1.000  H
  N80      1.0000 0.06891  0.73896  0.02755  Biso   1.000  N
  H898     1.0000 0.05470  0.83689  0.01810  Biso   1.000  H
  Br99     1.0000 0.92961  0.58032  0.92774  Biso   1.000  Br
  C532     1.0000 0.80679  0.63891  0.94850  Biso   1.000  C
  Br100    1.0000 0.79867  0.64643  0.94245  Biso   1.000  Br
  C533     1.0000 0.92691  0.58721  0.95170  Biso   1.000  C
  C534     1.0000 0.85470  0.58731  0.04761  Biso   1.000  C
  H899     1.0000 0.93532  0.79011  0.59572  Biso   1.000  H
  H900     1.0000 0.90930  0.81490  0.66581  Biso   1.000  H
  H901     1.0000 0.97649  0.77418  0.66080  Biso   1.000  H
  H902     1.0000 0.97649  0.77423  0.66080  Biso   1.000  H
  H903     1.0000 0.93473  0.90610  0.54722  Biso   1.000  H
  H904     1.0000 0.91510  0.94540  0.61249  Biso   1.000  H
  H905     1.0000 0.98229  0.96222  0.57511  Biso   1.000  H
  H906     1.0000 0.07378  0.89390  0.57727  Biso   1.000  H
  H907     1.0000 0.07491  0.82282  0.61112  Biso   1.000  H
  H908     1.0000 0.03192  0.83502  0.54629  Biso   1.000  H
  H909     1.0000 0.07378  0.89390  0.57732  Biso   1.000  H
  C535     1.0000 0.98642  0.09011  0.69090  Biso   1.000  C
  C536     1.0000 0.09941  0.07300  0.73984  Biso   1.000  C
  H910     1.0000 0.83689  0.98190  0.94530  Biso   1.000  H
  C537     1.0000 0.79651  0.99710  0.03728  Biso   1.000  C
  H911     1.0000 0.79788  0.05002  0.95061  Biso   1.000  H
  C538     1.0000 0.63000  0.98869  0.87418  Biso   1.000  C
  C539     1.0000 0.63000  0.98869  0.87423  Biso   1.000  C
  O51      1.0000 0.69651  0.07329  0.91854  Biso   1.000  O
  C540     1.0000 0.09011  0.69090  0.98642  Biso   1.000  C
  C541     1.0000 0.07300  0.73984  0.09941  Biso   1.000  C
  H912     1.0000 0.79011  0.59572  0.93532  Biso   1.000  H
  H913     1.0000 0.81490  0.66581  0.90930  Biso   1.000  H
  H914     1.0000 0.77418  0.66080  0.97649  Biso   1.000  H
  H915     1.0000 0.77423  0.66080  0.97649  Biso   1.000  H
  H916     1.0000 0.90610  0.54722  0.93473  Biso   1.000  H
  H917     1.0000 0.94540  0.61249  0.91510  Biso   1.000  H
  H918     1.0000 0.96222  0.57511  0.98229  Biso   1.000  H
  H919     1.0000 0.89390  0.57727  0.07378  Biso   1.000  H
  H920     1.0000 0.82282  0.61112  0.07491  Biso   1.000  H
  H921     1.0000 0.83502  0.54629  0.03192  Biso   1.000  H
  H922     1.0000 0.89390  0.57732  0.07378  Biso   1.000  H
  O52      1.0000 0.92671  0.08146  0.69651  Biso   1.000  O
  C542     1.0000 0.01131  0.12582  0.63000  Biso   1.000  C
  C543     1.0000 0.12425  0.11190  0.79882  Biso   1.000  C
  H923     1.0000 0.11810  0.02809  0.74132  Biso   1.000  H
  H924     1.0000 0.11481  0.09439  0.69892  Biso   1.000  H
  H925     1.0000 0.79788  0.94998  0.04939  Biso   1.000  H
  H926     1.0000 0.79788  0.95002  0.04939  Biso   1.000  H
  N81      1.0000 0.73896  0.02755  0.06891  Biso   1.000  N
  H927     1.0000 0.83689  0.01810  0.05470  Biso   1.000  H
  Br101    1.0000 0.58032  0.92774  0.92961  Biso   1.000  Br
  C544     1.0000 0.63891  0.94850  0.80679  Biso   1.000  C
  Br102    1.0000 0.64643  0.94245  0.79867  Biso   1.000  Br
  C545     1.0000 0.58721  0.95170  0.92691  Biso   1.000  C
  C546     1.0000 0.58731  0.04761  0.85470  Biso   1.000  C
  O53      1.0000 0.08146  0.69651  0.92671  Biso   1.000  O
  C547     1.0000 0.12582  0.63000  0.01131  Biso   1.000  C
  C548     1.0000 0.11190  0.79882  0.12425  Biso   1.000  C
  H928     1.0000 0.02809  0.74132  0.11810  Biso   1.000  H
  H929     1.0000 0.09439  0.69892  0.11481  Biso   1.000  H
  C549     1.0000 0.95239  0.14530  0.58731  Biso   1.000  C
  Br103    1.0000 0.07226  0.07039  0.58032  Biso   1.000  Br
  C550     1.0000 0.05150  0.19321  0.63891  Biso   1.000  C
  Br104    1.0000 0.05755  0.20133  0.64643  Biso   1.000  Br
  C551     1.0000 0.04830  0.07309  0.58721  Biso   1.000  C
  C552     1.0000 0.17914  0.09085  0.83242  Biso   1.000  C
  C553     1.0000 0.09085  0.16758  0.82086  Biso   1.000  C
  C554     1.0000 0.69090  0.98642  0.09011  Biso   1.000  C
  C555     1.0000 0.73984  0.09941  0.07300  Biso   1.000  C
  H930     1.0000 0.59572  0.93532  0.79011  Biso   1.000  H
  H931     1.0000 0.66581  0.90930  0.81490  Biso   1.000  H
  H932     1.0000 0.66080  0.97649  0.77418  Biso   1.000  H
  H933     1.0000 0.66080  0.97649  0.77423  Biso   1.000  H
  H934     1.0000 0.54722  0.93473  0.90610  Biso   1.000  H
  H935     1.0000 0.61249  0.91510  0.94540  Biso   1.000  H
  H936     1.0000 0.57511  0.98229  0.96222  Biso   1.000  H
  H937     1.0000 0.57727  0.07378  0.89390  Biso   1.000  H
  H938     1.0000 0.61112  0.07491  0.82282  Biso   1.000  H
  H939     1.0000 0.54629  0.03192  0.83502  Biso   1.000  H
  H940     1.0000 0.57732  0.07378  0.89390  Biso   1.000  H
  C556     1.0000 0.14530  0.58731  0.95239  Biso   1.000  C
  Br105    1.0000 0.07039  0.58032  0.07226  Biso   1.000  Br
  C557     1.0000 0.19321  0.63891  0.05150  Biso   1.000  C
  Br106    1.0000 0.20133  0.64643  0.05755  Biso   1.000  Br
  C558     1.0000 0.07309  0.58721  0.04830  Biso   1.000  C
  C559     1.0000 0.09085  0.83242  0.17914  Biso   1.000  C
  C560     1.0000 0.16758  0.82086  0.09085  Biso   1.000  C
  H941     1.0000 0.92622  0.10610  0.57727  Biso   1.000  H
  H942     1.0000 0.92509  0.17718  0.61112  Biso   1.000  H
  H943     1.0000 0.96808  0.16498  0.54629  Biso   1.000  H
  H944     1.0000 0.92622  0.10610  0.57732  Biso   1.000  H
  H945     1.0000 0.92509  0.17723  0.61112  Biso   1.000  H
  H946     1.0000 0.96808  0.16503  0.54629  Biso   1.000  H
  H947     1.0000 0.96813  0.16498  0.54629  Biso   1.000  H
  H948     1.0000 0.96813  0.16503  0.54629  Biso   1.000  H
  H949     1.0000 0.06468  0.20989  0.59572  Biso   1.000  H
  H950     1.0000 0.02351  0.22582  0.66080  Biso   1.000  H
  H951     1.0000 0.09070  0.18510  0.66581  Biso   1.000  H
  H952     1.0000 0.06532  0.09390  0.54722  Biso   1.000  H
  H953     1.0000 0.08490  0.05460  0.61249  Biso   1.000  H
  H954     1.0000 0.01771  0.03778  0.57511  Biso   1.000  H
  H955     1.0000 0.20231  0.05312  0.81741  Biso   1.000  H
  C561     1.0000 0.20118  0.12425  0.88810  Biso   1.000  C
  C562     1.0000 0.20123  0.12425  0.88810  Biso   1.000  C
  H956     1.0000 0.05312  0.18259  0.79769  Biso   1.000  H
  C563     1.0000 0.11190  0.20118  0.87575  Biso   1.000  C
  C564     1.0000 0.11190  0.20123  0.87575  Biso   1.000  C
  O54      1.0000 0.69651  0.92671  0.08146  Biso   1.000  O
  C565     1.0000 0.63000  0.01131  0.12582  Biso   1.000  C
  C566     1.0000 0.79882  0.12425  0.11190  Biso   1.000  C
  H957     1.0000 0.74132  0.11810  0.02809  Biso   1.000  H
  H958     1.0000 0.69892  0.11481  0.09439  Biso   1.000  H
  H959     1.0000 0.10610  0.57727  0.92622  Biso   1.000  H
  H960     1.0000 0.17718  0.61112  0.92509  Biso   1.000  H
  H961     1.0000 0.16498  0.54629  0.96808  Biso   1.000  H
  H962     1.0000 0.16498  0.54629  0.96813  Biso   1.000  H
  H963     1.0000 0.10610  0.57732  0.92622  Biso   1.000  H
  H964     1.0000 0.17723  0.61112  0.92509  Biso   1.000  H
  H965     1.0000 0.16503  0.54629  0.96808  Biso   1.000  H
  H966     1.0000 0.16503  0.54629  0.96813  Biso   1.000  H
  H967     1.0000 0.20989  0.59572  0.06468  Biso   1.000  H
  H968     1.0000 0.22582  0.66080  0.02351  Biso   1.000  H
  H969     1.0000 0.18510  0.66581  0.09070  Biso   1.000  H
  H970     1.0000 0.09390  0.54722  0.06532  Biso   1.000  H
  H971     1.0000 0.05460  0.61249  0.08490  Biso   1.000  H
  H972     1.0000 0.03778  0.57511  0.01771  Biso   1.000  H
  H973     1.0000 0.05312  0.81741  0.20231  Biso   1.000  H
  C567     1.0000 0.12425  0.88810  0.20118  Biso   1.000  C
  C568     1.0000 0.12425  0.88810  0.20123  Biso   1.000  C
  C569     1.0000 0.20118  0.87575  0.11190  Biso   1.000  C
  H974     1.0000 0.18259  0.79769  0.05312  Biso   1.000  H
  C570     1.0000 0.20123  0.87575  0.11190  Biso   1.000  C
  C571     1.0000 0.26016  0.09941  0.92700  Biso   1.000  C
  C572     1.0000 0.16758  0.17914  0.90915  Biso   1.000  C
  C573     1.0000 0.07300  0.26016  0.90059  Biso   1.000  C
  C574     1.0000 0.58731  0.95239  0.14530  Biso   1.000  C
  Br107    1.0000 0.58032  0.07226  0.07039  Biso   1.000  Br
  C575     1.0000 0.63891  0.05150  0.19321  Biso   1.000  C
  Br108    1.0000 0.64643  0.05755  0.20133  Biso   1.000  Br
  C576     1.0000 0.58721  0.04830  0.07309  Biso   1.000  C
  C577     1.0000 0.82086  0.09085  0.16758  Biso   1.000  C
  C578     1.0000 0.83242  0.17914  0.09085  Biso   1.000  C
  C579     1.0000 0.09941  0.92700  0.26016  Biso   1.000  C
  C580     1.0000 0.17914  0.90915  0.16758  Biso   1.000  C
  C581     1.0000 0.26016  0.90059  0.07300  Biso   1.000  C
  N82      1.0000 0.26104  0.02755  0.93109  Biso   1.000  N
  H975     1.0000 0.25868  0.11810  0.97191  Biso   1.000  H
  H976     1.0000 0.30108  0.11481  0.90561  Biso   1.000  H
  N83      1.0000 0.26104  0.02755  0.93114  Biso   1.000  N
  H977     1.0000 0.18259  0.20231  0.94688  Biso   1.000  H
  H978     1.0000 0.18259  0.20231  0.94693  Biso   1.000  H
  N84      1.0000 0.06891  0.26104  0.97245  Biso   1.000  N
  H979     1.0000 0.02809  0.25868  0.88190  Biso   1.000  H
  H980     1.0000 0.09439  0.30108  0.88519  Biso   1.000  H
  H981     1.0000 0.57727  0.92622  0.10610  Biso   1.000  H
  H982     1.0000 0.61112  0.92509  0.17718  Biso   1.000  H
  H983     1.0000 0.54629  0.96808  0.16498  Biso   1.000  H
  H984     1.0000 0.61112  0.92509  0.17723  Biso   1.000  H
  H985     1.0000 0.54629  0.96808  0.16503  Biso   1.000  H
  H986     1.0000 0.54629  0.96813  0.16498  Biso   1.000  H
  H987     1.0000 0.54629  0.96813  0.16503  Biso   1.000  H
  H988     1.0000 0.57732  0.92622  0.10610  Biso   1.000  H
  H989     1.0000 0.59572  0.06468  0.20989  Biso   1.000  H
  H990     1.0000 0.66080  0.02351  0.22582  Biso   1.000  H
  H991     1.0000 0.66581  0.09070  0.18510  Biso   1.000  H
  H992     1.0000 0.54722  0.06532  0.09390  Biso   1.000  H
  H993     1.0000 0.61249  0.08490  0.05460  Biso   1.000  H
  H994     1.0000 0.57511  0.01771  0.03778  Biso   1.000  H
  H995     1.0000 0.79769  0.05312  0.18259  Biso   1.000  H
  C582     1.0000 0.87575  0.11190  0.20118  Biso   1.000  C
  C583     1.0000 0.87575  0.11190  0.20123  Biso   1.000  C
  H996     1.0000 0.81741  0.20231  0.05312  Biso   1.000  H
  C584     1.0000 0.88810  0.20118  0.12425  Biso   1.000  C
  C585     1.0000 0.88810  0.20123  0.12425  Biso   1.000  C
  N85      1.0000 0.02755  0.93109  0.26104  Biso   1.000  N
  H997     1.0000 0.11810  0.97191  0.25868  Biso   1.000  H
  H998     1.0000 0.11481  0.90561  0.30108  Biso   1.000  H
  N86      1.0000 0.02755  0.93114  0.26104  Biso   1.000  N
  H999     1.0000 0.20231  0.94688  0.18259  Biso   1.000  H
  H1000    1.0000 0.20231  0.94693  0.18259  Biso   1.000  H
  N87      1.0000 0.26104  0.97245  0.06891  Biso   1.000  N
  H1001    1.0000 0.25868  0.88190  0.02809  Biso   1.000  H
  H1002    1.0000 0.30108  0.88519  0.09439  Biso   1.000  H
  C586     1.0000 0.20349  0.99710  0.96272  Biso   1.000  C
  C587     1.0000 0.30910  0.98642  0.90989  Biso   1.000  C
  C588     1.0000 0.03728  0.20349  0.00290  Biso   1.000  C
  C589     1.0000 0.09011  0.30910  0.01358  Biso   1.000  C
  C590     1.0000 0.09011  0.30910  0.01363  Biso   1.000  C
  C591     1.0000 0.90915  0.16758  0.17914  Biso   1.000  C
  C592     1.0000 0.90059  0.07300  0.26016  Biso   1.000  C
  C593     1.0000 0.92700  0.26016  0.09941  Biso   1.000  C
  C594     1.0000 0.99710  0.96272  0.20349  Biso   1.000  C
  C595     1.0000 0.98642  0.90989  0.30910  Biso   1.000  C
  C596     1.0000 0.20349  0.00290  0.03728  Biso   1.000  C
  C597     1.0000 0.30910  0.01358  0.09011  Biso   1.000  C
  C598     1.0000 0.30910  0.01363  0.09011  Biso   1.000  C
  H1003    1.0000 0.20212  0.94998  0.95061  Biso   1.000  H
  H1004    1.0000 0.20212  0.95002  0.95061  Biso   1.000  H
  H1005    1.0000 0.16311  0.01810  0.94530  Biso   1.000  H
  O55      1.0000 0.30349  0.92671  0.91854  Biso   1.000  O
  C599     1.0000 0.37000  0.01131  0.87418  Biso   1.000  C
  C600     1.0000 0.37000  0.01131  0.87423  Biso   1.000  C
  C601     1.0000 0.96272  0.20349  0.99710  Biso   1.000  C
  H1006    1.0000 0.05470  0.16311  0.98190  Biso   1.000  H
  H1007    1.0000 0.04939  0.20212  0.05002  Biso   1.000  H
  C602     1.0000 0.12582  0.37000  0.98869  Biso   1.000  C
  O56      1.0000 0.08146  0.30349  0.07329  Biso   1.000  O
  H1008    1.0000 0.94688  0.18259  0.20231  Biso   1.000  H
  H1009    1.0000 0.94693  0.18259  0.20231  Biso   1.000  H
  N88      1.0000 0.97245  0.06891  0.26104  Biso   1.000  N
  H1010    1.0000 0.88190  0.02809  0.25868  Biso   1.000  H
  H1011    1.0000 0.88519  0.09439  0.30108  Biso   1.000  H
  N89      1.0000 0.93109  0.26104  0.02755  Biso   1.000  N
  N90      1.0000 0.93114  0.26104  0.02755  Biso   1.000  N
  H1012    1.0000 0.97191  0.25868  0.11810  Biso   1.000  H
  H1013    1.0000 0.90561  0.30108  0.11481  Biso   1.000  H
  C603     1.0000 0.00290  0.03728  0.20349  Biso   1.000  C
  H1014    1.0000 0.94998  0.95061  0.20212  Biso   1.000  H
  H1015    1.0000 0.95002  0.95061  0.20212  Biso   1.000  H
  H1016    1.0000 0.01810  0.94530  0.16311  Biso   1.000  H
  O57      1.0000 0.92671  0.91854  0.30349  Biso   1.000  O
  C604     1.0000 0.01131  0.87418  0.37000  Biso   1.000  C
  C605     1.0000 0.01131  0.87423  0.37000  Biso   1.000  C
  H1017    1.0000 0.16311  0.98190  0.05470  Biso   1.000  H
  H1018    1.0000 0.20212  0.05002  0.04939  Biso   1.000  H
  C606     1.0000 0.37000  0.98869  0.12582  Biso   1.000  C
  O58      1.0000 0.30349  0.07329  0.08146  Biso   1.000  O
  C607     1.0000 0.41269  0.95239  0.85470  Biso   1.000  C
  Br109    1.0000 0.41968  0.07226  0.92961  Biso   1.000  Br
  C608     1.0000 0.36109  0.05150  0.80679  Biso   1.000  C
  Br110    1.0000 0.35357  0.05755  0.79867  Biso   1.000  Br
  C609     1.0000 0.41279  0.04830  0.92691  Biso   1.000  C
  H1019    1.0000 0.95061  0.20212  0.94998  Biso   1.000  H
  H1020    1.0000 0.95061  0.20212  0.95002  Biso   1.000  H
  H1021    1.0000 0.94530  0.16311  0.01810  Biso   1.000  H
  Br111    1.0000 0.07039  0.41968  0.92774  Biso   1.000  Br
  C610     1.0000 0.19321  0.36109  0.94850  Biso   1.000  C
  Br112    1.0000 0.20133  0.35357  0.94245  Biso   1.000  Br
  C611     1.0000 0.07309  0.41279  0.95170  Biso   1.000  C
  C612     1.0000 0.14530  0.41269  0.04761  Biso   1.000  C
  C613     1.0000 0.01358  0.09011  0.30910  Biso   1.000  C
  C614     1.0000 0.01363  0.09011  0.30910  Biso   1.000  C
  C615     1.0000 0.90989  0.30910  0.98642  Biso   1.000  C
  H1022    1.0000 0.98190  0.05470  0.16311  Biso   1.000  H
  H1023    1.0000 0.05002  0.04939  0.20212  Biso   1.000  H
  C616     1.0000 0.95239  0.85470  0.41269  Biso   1.000  C
  Br113    1.0000 0.07226  0.92961  0.41968  Biso   1.000  Br
  C617     1.0000 0.05150  0.80679  0.36109  Biso   1.000  C
  Br114    1.0000 0.05755  0.79867  0.35357  Biso   1.000  Br
  C618     1.0000 0.04830  0.92691  0.41279  Biso   1.000  C
  Br115    1.0000 0.41968  0.92774  0.07039  Biso   1.000  Br
  C619     1.0000 0.36109  0.94850  0.19321  Biso   1.000  C
  Br116    1.0000 0.35357  0.94245  0.20133  Biso   1.000  Br
  C620     1.0000 0.41279  0.95170  0.07309  Biso   1.000  C
  C621     1.0000 0.41269  0.04761  0.14530  Biso   1.000  C
  H1024    1.0000 0.42273  0.92622  0.89390  Biso   1.000  H
  H1025    1.0000 0.38888  0.92509  0.82282  Biso   1.000  H
  H1026    1.0000 0.45371  0.96808  0.83502  Biso   1.000  H
  H1027    1.0000 0.45371  0.96813  0.83502  Biso   1.000  H
  H1028    1.0000 0.40428  0.06468  0.79011  Biso   1.000  H
  H1029    1.0000 0.33920  0.02351  0.77418  Biso   1.000  H
  H1030    1.0000 0.33419  0.09070  0.81490  Biso   1.000  H
  H1031    1.0000 0.33920  0.02351  0.77423  Biso   1.000  H
  H1032    1.0000 0.40433  0.06468  0.79011  Biso   1.000  H
  H1033    1.0000 0.45278  0.06532  0.90610  Biso   1.000  H
  H1034    1.0000 0.38751  0.08490  0.94540  Biso   1.000  H
  H1035    1.0000 0.42489  0.01771  0.96222  Biso   1.000  H
  H1036    1.0000 0.20989  0.40428  0.93532  Biso   1.000  H
  H1037    1.0000 0.22582  0.33920  0.97649  Biso   1.000  H
  H1038    1.0000 0.18510  0.33419  0.90930  Biso   1.000  H
  H1039    1.0000 0.20989  0.40433  0.93532  Biso   1.000  H
  H1040    1.0000 0.09390  0.45278  0.93473  Biso   1.000  H
  H1041    1.0000 0.05460  0.38751  0.91510  Biso   1.000  H
  H1042    1.0000 0.03778  0.42489  0.98229  Biso   1.000  H
  H1043    1.0000 0.10610  0.42273  0.07378  Biso   1.000  H
  H1044    1.0000 0.17718  0.38888  0.07491  Biso   1.000  H
  H1045    1.0000 0.16498  0.45371  0.03192  Biso   1.000  H
  H1046    1.0000 0.17723  0.38888  0.07491  Biso   1.000  H
  H1047    1.0000 0.16503  0.45371  0.03192  Biso   1.000  H
  C622     1.0000 0.98869  0.12582  0.37000  Biso   1.000  C
  O59      1.0000 0.07329  0.08146  0.30349  Biso   1.000  O
  O60      1.0000 0.91854  0.30349  0.92671  Biso   1.000  O
  C623     1.0000 0.87418  0.37000  0.01131  Biso   1.000  C
  C624     1.0000 0.87423  0.37000  0.01131  Biso   1.000  C
  H1048    1.0000 0.92622  0.89390  0.42273  Biso   1.000  H
  H1049    1.0000 0.92509  0.82282  0.38888  Biso   1.000  H
  H1050    1.0000 0.96808  0.83502  0.45371  Biso   1.000  H
  H1051    1.0000 0.96813  0.83502  0.45371  Biso   1.000  H
  H1052    1.0000 0.06468  0.79011  0.40428  Biso   1.000  H
  H1053    1.0000 0.02351  0.77418  0.33920  Biso   1.000  H
  H1054    1.0000 0.09070  0.81490  0.33419  Biso   1.000  H
  H1055    1.0000 0.06468  0.79011  0.40433  Biso   1.000  H
  H1056    1.0000 0.02351  0.77423  0.33920  Biso   1.000  H
  H1057    1.0000 0.06532  0.90610  0.45278  Biso   1.000  H
  H1058    1.0000 0.08490  0.94540  0.38751  Biso   1.000  H
  H1059    1.0000 0.01771  0.96222  0.42489  Biso   1.000  H
  H1060    1.0000 0.40428  0.93532  0.20989  Biso   1.000  H
  H1061    1.0000 0.33920  0.97649  0.22582  Biso   1.000  H
  H1062    1.0000 0.33419  0.90930  0.18510  Biso   1.000  H
  H1063    1.0000 0.40433  0.93532  0.20989  Biso   1.000  H
  H1064    1.0000 0.45278  0.93473  0.09390  Biso   1.000  H
  H1065    1.0000 0.38751  0.91510  0.05460  Biso   1.000  H
  H1066    1.0000 0.42489  0.98229  0.03778  Biso   1.000  H
  H1067    1.0000 0.42273  0.07378  0.10610  Biso   1.000  H
  H1068    1.0000 0.38888  0.07491  0.17718  Biso   1.000  H
  H1069    1.0000 0.45371  0.03192  0.16498  Biso   1.000  H
  H1070    1.0000 0.38888  0.07491  0.17723  Biso   1.000  H
  H1071    1.0000 0.45371  0.03192  0.16503  Biso   1.000  H
  Br117    1.0000 0.92774  0.07039  0.41968  Biso   1.000  Br
  C625     1.0000 0.94850  0.19321  0.36109  Biso   1.000  C
  Br118    1.0000 0.94245  0.20133  0.35357  Biso   1.000  Br
  C626     1.0000 0.95170  0.07309  0.41279  Biso   1.000  C
  C627     1.0000 0.04761  0.14530  0.41269  Biso   1.000  C
  C628     1.0000 0.85470  0.41269  0.95239  Biso   1.000  C
  Br119    1.0000 0.92961  0.41968  0.07226  Biso   1.000  Br
  C629     1.0000 0.80679  0.36109  0.05150  Biso   1.000  C
  Br120    1.0000 0.79867  0.35357  0.05755  Biso   1.000  Br
  C630     1.0000 0.92691  0.41279  0.04830  Biso   1.000  C
  H1072    1.0000 0.93532  0.20989  0.40428  Biso   1.000  H
  H1073    1.0000 0.97649  0.22582  0.33920  Biso   1.000  H
  H1074    1.0000 0.90930  0.18510  0.33419  Biso   1.000  H
  H1075    1.0000 0.93532  0.20989  0.40433  Biso   1.000  H
  H1076    1.0000 0.93473  0.09390  0.45278  Biso   1.000  H
  H1077    1.0000 0.91510  0.05460  0.38751  Biso   1.000  H
  H1078    1.0000 0.98229  0.03778  0.42489  Biso   1.000  H
  H1079    1.0000 0.07378  0.10610  0.42273  Biso   1.000  H
  H1080    1.0000 0.07491  0.17718  0.38888  Biso   1.000  H
  H1081    1.0000 0.03192  0.16498  0.45371  Biso   1.000  H
  H1082    1.0000 0.07491  0.17723  0.38888  Biso   1.000  H
  H1083    1.0000 0.03192  0.16503  0.45371  Biso   1.000  H
  H1084    1.0000 0.89390  0.42273  0.92622  Biso   1.000  H
  H1085    1.0000 0.82282  0.38888  0.92509  Biso   1.000  H
  H1086    1.0000 0.83502  0.45371  0.96808  Biso   1.000  H
  H1087    1.0000 0.83502  0.45371  0.96813  Biso   1.000  H
  H1088    1.0000 0.79011  0.40428  0.06468  Biso   1.000  H
  H1089    1.0000 0.77418  0.33920  0.02351  Biso   1.000  H
  H1090    1.0000 0.81490  0.33419  0.09070  Biso   1.000  H
  H1091    1.0000 0.79011  0.40433  0.06468  Biso   1.000  H
  H1092    1.0000 0.77423  0.33920  0.02351  Biso   1.000  H
  H1093    1.0000 0.90610  0.45278  0.06532  Biso   1.000  H
  H1094    1.0000 0.94540  0.38751  0.08490  Biso   1.000  H
  H1095    1.0000 0.96222  0.42489  0.01771  Biso   1.000  H
  C631     1.0000 0.90915  0.83242  0.82086  Biso   1.000  C
  C632     1.0000 0.87575  0.88810  0.79882  Biso   1.000  C
  C633     1.0000 0.88810  0.79882  0.87575  Biso   1.000  C
  H1096    1.0000 0.94688  0.81741  0.79769  Biso   1.000  H
  H1097    1.0000 0.94693  0.81741  0.79769  Biso   1.000  H
  C634     1.0000 0.90059  0.92700  0.73984  Biso   1.000  C
  C635     1.0000 0.82086  0.90915  0.83242  Biso   1.000  C
  C636     1.0000 0.83242  0.82086  0.90915  Biso   1.000  C
  C637     1.0000 0.92700  0.73984  0.90059  Biso   1.000  C
  N91      1.0000 0.97245  0.93109  0.73896  Biso   1.000  N
  N92      1.0000 0.97245  0.93114  0.73896  Biso   1.000  N
  H1098    1.0000 0.88190  0.97191  0.74132  Biso   1.000  H
  H1099    1.0000 0.88519  0.90561  0.69892  Biso   1.000  H
  C638     1.0000 0.79882  0.87575  0.88810  Biso   1.000  C
  H1100    1.0000 0.79769  0.94688  0.81741  Biso   1.000  H
  H1101    1.0000 0.79769  0.94693  0.81741  Biso   1.000  H
  H1102    1.0000 0.81741  0.79769  0.94688  Biso   1.000  H
  H1103    1.0000 0.81741  0.79769  0.94693  Biso   1.000  H
  H1104    1.0000 0.97191  0.74132  0.88190  Biso   1.000  H
  H1105    1.0000 0.90561  0.69892  0.88519  Biso   1.000  H
  N93      1.0000 0.93109  0.73896  0.97245  Biso   1.000  N
  N94      1.0000 0.93114  0.73896  0.97245  Biso   1.000  N
  C639     1.0000 0.01358  0.90989  0.69090  Biso   1.000  C
  C640     1.0000 0.01363  0.90989  0.69090  Biso   1.000  C
  C641     1.0000 0.00290  0.96272  0.79651  Biso   1.000  C
  C642     1.0000 0.73984  0.90059  0.92700  Biso   1.000  C
  C643     1.0000 0.96272  0.79651  0.00290  Biso   1.000  C
  C644     1.0000 0.90989  0.69090  0.01358  Biso   1.000  C
  C645     1.0000 0.90989  0.69090  0.01363  Biso   1.000  C
  C646     1.0000 0.98869  0.87418  0.63000  Biso   1.000  C
  C647     1.0000 0.98869  0.87423  0.63000  Biso   1.000  C
  O61      1.0000 0.07329  0.91854  0.69651  Biso   1.000  O
  H1106    1.0000 0.98190  0.94530  0.83689  Biso   1.000  H
  C648     1.0000 0.99710  0.03728  0.79651  Biso   1.000  C
  H1107    1.0000 0.05002  0.95061  0.79788  Biso   1.000  H
  H1108    1.0000 0.74132  0.88190  0.97191  Biso   1.000  H
  H1109    1.0000 0.69892  0.88519  0.90561  Biso   1.000  H
  N95      1.0000 0.73896  0.97245  0.93109  Biso   1.000  N
  N96      1.0000 0.73896  0.97245  0.93114  Biso   1.000  N
  H1110    1.0000 0.94530  0.83689  0.98190  Biso   1.000  H
  H1111    1.0000 0.95061  0.79788  0.05002  Biso   1.000  H
  C649     1.0000 0.03728  0.79651  0.99710  Biso   1.000  C
  C650     1.0000 0.87418  0.63000  0.98869  Biso   1.000  C
  C651     1.0000 0.87423  0.63000  0.98869  Biso   1.000  C
  O62      1.0000 0.91854  0.69651  0.07329  Biso   1.000  O
  C652     1.0000 0.94850  0.80679  0.63891  Biso   1.000  C
  Br121    1.0000 0.92774  0.92961  0.58032  Biso   1.000  Br
  Br122    1.0000 0.94245  0.79867  0.64643  Biso   1.000  Br
  C653     1.0000 0.95170  0.92691  0.58721  Biso   1.000  C
  C654     1.0000 0.04761  0.85470  0.58731  Biso   1.000  C
  H1112    1.0000 0.94998  0.04939  0.79788  Biso   1.000  H
  H1113    1.0000 0.95002  0.04939  0.79788  Biso   1.000  H
  N97      1.0000 0.02755  0.06891  0.73896  Biso   1.000  N
  H1114    1.0000 0.01810  0.05470  0.83689  Biso   1.000  H
  C655     1.0000 0.79651  0.00290  0.96272  Biso   1.000  C
  C656     1.0000 0.69090  0.01358  0.90989  Biso   1.000  C
  C657     1.0000 0.69090  0.01363  0.90989  Biso   1.000  C
  H1115    1.0000 0.04939  0.79788  0.94998  Biso   1.000  H
  H1116    1.0000 0.04939  0.79788  0.95002  Biso   1.000  H
  N98      1.0000 0.06891  0.73896  0.02755  Biso   1.000  N
  H1117    1.0000 0.05470  0.83689  0.01810  Biso   1.000  H
  Br123    1.0000 0.92961  0.58032  0.92774  Biso   1.000  Br
  C658     1.0000 0.80679  0.63891  0.94850  Biso   1.000  C
  Br124    1.0000 0.79867  0.64643  0.94245  Biso   1.000  Br
  C659     1.0000 0.92691  0.58721  0.95170  Biso   1.000  C
  C660     1.0000 0.85470  0.58731  0.04761  Biso   1.000  C
  H1118    1.0000 0.93532  0.79011  0.59572  Biso   1.000  H
  H1119    1.0000 0.90930  0.81490  0.66581  Biso   1.000  H
  H1120    1.0000 0.97649  0.77418  0.66080  Biso   1.000  H
  H1121    1.0000 0.97649  0.77423  0.66080  Biso   1.000  H
  H1122    1.0000 0.93473  0.90610  0.54722  Biso   1.000  H
  H1123    1.0000 0.91510  0.94540  0.61249  Biso   1.000  H
  H1124    1.0000 0.98229  0.96222  0.57511  Biso   1.000  H
  H1125    1.0000 0.07378  0.89390  0.57727  Biso   1.000  H
  H1126    1.0000 0.07491  0.82282  0.61112  Biso   1.000  H
  H1127    1.0000 0.03192  0.83502  0.54629  Biso   1.000  H
  H1128    1.0000 0.07378  0.89390  0.57732  Biso   1.000  H
  C661     1.0000 0.98642  0.09011  0.69090  Biso   1.000  C
  C662     1.0000 0.09941  0.07300  0.73984  Biso   1.000  C
  H1129    1.0000 0.83689  0.98190  0.94530  Biso   1.000  H
  C663     1.0000 0.79651  0.99710  0.03728  Biso   1.000  C
  H1130    1.0000 0.79788  0.05002  0.95061  Biso   1.000  H
  C664     1.0000 0.63000  0.98869  0.87418  Biso   1.000  C
  C665     1.0000 0.63000  0.98869  0.87423  Biso   1.000  C
  O63      1.0000 0.69651  0.07329  0.91854  Biso   1.000  O
  C666     1.0000 0.09011  0.69090  0.98642  Biso   1.000  C
  C667     1.0000 0.07300  0.73984  0.09941  Biso   1.000  C
  H1131    1.0000 0.79011  0.59572  0.93532  Biso   1.000  H
  H1132    1.0000 0.81490  0.66581  0.90930  Biso   1.000  H
  H1133    1.0000 0.77418  0.66080  0.97649  Biso   1.000  H
  H1134    1.0000 0.77423  0.66080  0.97649  Biso   1.000  H
  H1135    1.0000 0.90610  0.54722  0.93473  Biso   1.000  H
  H1136    1.0000 0.94540  0.61249  0.91510  Biso   1.000  H
  H1137    1.0000 0.96222  0.57511  0.98229  Biso   1.000  H
  H1138    1.0000 0.89390  0.57727  0.07378  Biso   1.000  H
  H1139    1.0000 0.82282  0.61112  0.07491  Biso   1.000  H
  H1140    1.0000 0.83502  0.54629  0.03192  Biso   1.000  H
  H1141    1.0000 0.89390  0.57732  0.07378  Biso   1.000  H
  O64      1.0000 0.92671  0.08146  0.69651  Biso   1.000  O
  C668     1.0000 0.01131  0.12582  0.63000  Biso   1.000  C
  C669     1.0000 0.12425  0.11190  0.79882  Biso   1.000  C
  H1142    1.0000 0.11810  0.02809  0.74132  Biso   1.000  H
  H1143    1.0000 0.11481  0.09439  0.69892  Biso   1.000  H
  H1144    1.0000 0.79788  0.94998  0.04939  Biso   1.000  H
  H1145    1.0000 0.79788  0.95002  0.04939  Biso   1.000  H
  N99      1.0000 0.73896  0.02755  0.06891  Biso   1.000  N
  H1146    1.0000 0.83689  0.01810  0.05470  Biso   1.000  H
  Br125    1.0000 0.58032  0.92774  0.92961  Biso   1.000  Br
  C670     1.0000 0.63891  0.94850  0.80679  Biso   1.000  C
  Br126    1.0000 0.64643  0.94245  0.79867  Biso   1.000  Br
  C671     1.0000 0.58721  0.95170  0.92691  Biso   1.000  C
  C672     1.0000 0.58731  0.04761  0.85470  Biso   1.000  C
  O65      1.0000 0.08146  0.69651  0.92671  Biso   1.000  O
  C673     1.0000 0.12582  0.63000  0.01131  Biso   1.000  C
  C674     1.0000 0.11190  0.79882  0.12425  Biso   1.000  C
  H1147    1.0000 0.02809  0.74132  0.11810  Biso   1.000  H
  H1148    1.0000 0.09439  0.69892  0.11481  Biso   1.000  H
  C675     1.0000 0.95239  0.14530  0.58731  Biso   1.000  C
  Br127    1.0000 0.07226  0.07039  0.58032  Biso   1.000  Br
  C676     1.0000 0.05150  0.19321  0.63891  Biso   1.000  C
  Br128    1.0000 0.05755  0.20133  0.64643  Biso   1.000  Br
  C677     1.0000 0.04830  0.07309  0.58721  Biso   1.000  C
  C678     1.0000 0.17914  0.09085  0.83242  Biso   1.000  C
  C679     1.0000 0.09085  0.16758  0.82086  Biso   1.000  C
  C680     1.0000 0.69090  0.98642  0.09011  Biso   1.000  C
  C681     1.0000 0.73984  0.09941  0.07300  Biso   1.000  C
  H1149    1.0000 0.59572  0.93532  0.79011  Biso   1.000  H
  H1150    1.0000 0.66581  0.90930  0.81490  Biso   1.000  H
  H1151    1.0000 0.66080  0.97649  0.77418  Biso   1.000  H
  H1152    1.0000 0.66080  0.97649  0.77423  Biso   1.000  H
  H1153    1.0000 0.54722  0.93473  0.90610  Biso   1.000  H
  H1154    1.0000 0.61249  0.91510  0.94540  Biso   1.000  H
  H1155    1.0000 0.57511  0.98229  0.96222  Biso   1.000  H
  H1156    1.0000 0.57727  0.07378  0.89390  Biso   1.000  H
  H1157    1.0000 0.61112  0.07491  0.82282  Biso   1.000  H
  H1158    1.0000 0.54629  0.03192  0.83502  Biso   1.000  H
  H1159    1.0000 0.57732  0.07378  0.89390  Biso   1.000  H
  C682     1.0000 0.14530  0.58731  0.95239  Biso   1.000  C
  Br129    1.0000 0.07039  0.58032  0.07226  Biso   1.000  Br
  C683     1.0000 0.19321  0.63891  0.05150  Biso   1.000  C
  Br130    1.0000 0.20133  0.64643  0.05755  Biso   1.000  Br
  C684     1.0000 0.07309  0.58721  0.04830  Biso   1.000  C
  C685     1.0000 0.09085  0.83242  0.17914  Biso   1.000  C
  C686     1.0000 0.16758  0.82086  0.09085  Biso   1.000  C
  H1160    1.0000 0.92622  0.10610  0.57727  Biso   1.000  H
  H1161    1.0000 0.92509  0.17718  0.61112  Biso   1.000  H
  H1162    1.0000 0.96808  0.16498  0.54629  Biso   1.000  H
  H1163    1.0000 0.92622  0.10610  0.57732  Biso   1.000  H
  H1164    1.0000 0.92509  0.17723  0.61112  Biso   1.000  H
  H1165    1.0000 0.96808  0.16503  0.54629  Biso   1.000  H
  H1166    1.0000 0.96813  0.16498  0.54629  Biso   1.000  H
  H1167    1.0000 0.96813  0.16503  0.54629  Biso   1.000  H
  H1168    1.0000 0.06468  0.20989  0.59572  Biso   1.000  H
  H1169    1.0000 0.02351  0.22582  0.66080  Biso   1.000  H
  H1170    1.0000 0.09070  0.18510  0.66581  Biso   1.000  H
  H1171    1.0000 0.06532  0.09390  0.54722  Biso   1.000  H
  H1172    1.0000 0.08490  0.05460  0.61249  Biso   1.000  H
  H1173    1.0000 0.01771  0.03778  0.57511  Biso   1.000  H
  H1174    1.0000 0.20231  0.05312  0.81741  Biso   1.000  H
  C687     1.0000 0.20118  0.12425  0.88810  Biso   1.000  C
  C688     1.0000 0.20123  0.12425  0.88810  Biso   1.000  C
  H1175    1.0000 0.05312  0.18259  0.79769  Biso   1.000  H
  C689     1.0000 0.11190  0.20118  0.87575  Biso   1.000  C
  C690     1.0000 0.11190  0.20123  0.87575  Biso   1.000  C
  O66      1.0000 0.69651  0.92671  0.08146  Biso   1.000  O
  C691     1.0000 0.63000  0.01131  0.12582  Biso   1.000  C
  C692     1.0000 0.79882  0.12425  0.11190  Biso   1.000  C
  H1176    1.0000 0.74132  0.11810  0.02809  Biso   1.000  H
  H1177    1.0000 0.69892  0.11481  0.09439  Biso   1.000  H
  H1178    1.0000 0.10610  0.57727  0.92622  Biso   1.000  H
  H1179    1.0000 0.17718  0.61112  0.92509  Biso   1.000  H
  H1180    1.0000 0.16498  0.54629  0.96808  Biso   1.000  H
  H1181    1.0000 0.16498  0.54629  0.96813  Biso   1.000  H
  H1182    1.0000 0.10610  0.57732  0.92622  Biso   1.000  H
  H1183    1.0000 0.17723  0.61112  0.92509  Biso   1.000  H
  H1184    1.0000 0.16503  0.54629  0.96808  Biso   1.000  H
  H1185    1.0000 0.16503  0.54629  0.96813  Biso   1.000  H
  H1186    1.0000 0.20989  0.59572  0.06468  Biso   1.000  H
  H1187    1.0000 0.22582  0.66080  0.02351  Biso   1.000  H
  H1188    1.0000 0.18510  0.66581  0.09070  Biso   1.000  H
  H1189    1.0000 0.09390  0.54722  0.06532  Biso   1.000  H
  H1190    1.0000 0.05460  0.61249  0.08490  Biso   1.000  H
  H1191    1.0000 0.03778  0.57511  0.01771  Biso   1.000  H
  H1192    1.0000 0.05312  0.81741  0.20231  Biso   1.000  H
  C693     1.0000 0.12425  0.88810  0.20118  Biso   1.000  C
  C694     1.0000 0.12425  0.88810  0.20123  Biso   1.000  C
  C695     1.0000 0.20118  0.87575  0.11190  Biso   1.000  C
  H1193    1.0000 0.18259  0.79769  0.05312  Biso   1.000  H
  C696     1.0000 0.20123  0.87575  0.11190  Biso   1.000  C
  C697     1.0000 0.26016  0.09941  0.92700  Biso   1.000  C
  C698     1.0000 0.16758  0.17914  0.90915  Biso   1.000  C
  C699     1.0000 0.07300  0.26016  0.90059  Biso   1.000  C
  C700     1.0000 0.58731  0.95239  0.14530  Biso   1.000  C
  Br131    1.0000 0.58032  0.07226  0.07039  Biso   1.000  Br
  C701     1.0000 0.63891  0.05150  0.19321  Biso   1.000  C
  Br132    1.0000 0.64643  0.05755  0.20133  Biso   1.000  Br
  C702     1.0000 0.58721  0.04830  0.07309  Biso   1.000  C
  C703     1.0000 0.82086  0.09085  0.16758  Biso   1.000  C
  C704     1.0000 0.83242  0.17914  0.09085  Biso   1.000  C
  C705     1.0000 0.09941  0.92700  0.26016  Biso   1.000  C
  C706     1.0000 0.17914  0.90915  0.16758  Biso   1.000  C
  C707     1.0000 0.26016  0.90059  0.07300  Biso   1.000  C
  N100     1.0000 0.26104  0.02755  0.93109  Biso   1.000  N
  H1194    1.0000 0.25868  0.11810  0.97191  Biso   1.000  H
  H1195    1.0000 0.30108  0.11481  0.90561  Biso   1.000  H
  N101     1.0000 0.26104  0.02755  0.93114  Biso   1.000  N
  H1196    1.0000 0.18259  0.20231  0.94688  Biso   1.000  H
  H1197    1.0000 0.18259  0.20231  0.94693  Biso   1.000  H
  N102     1.0000 0.06891  0.26104  0.97245  Biso   1.000  N
  H1198    1.0000 0.02809  0.25868  0.88190  Biso   1.000  H
  H1199    1.0000 0.09439  0.30108  0.88519  Biso   1.000  H
  H1200    1.0000 0.57727  0.92622  0.10610  Biso   1.000  H
  H1201    1.0000 0.61112  0.92509  0.17718  Biso   1.000  H
  H1202    1.0000 0.54629  0.96808  0.16498  Biso   1.000  H
  H1203    1.0000 0.61112  0.92509  0.17723  Biso   1.000  H
  H1204    1.0000 0.54629  0.96808  0.16503  Biso   1.000  H
  H1205    1.0000 0.54629  0.96813  0.16498  Biso   1.000  H
  H1206    1.0000 0.54629  0.96813  0.16503  Biso   1.000  H
  H1207    1.0000 0.57732  0.92622  0.10610  Biso   1.000  H
  H1208    1.0000 0.59572  0.06468  0.20989  Biso   1.000  H
  H1209    1.0000 0.66080  0.02351  0.22582  Biso   1.000  H
  H1210    1.0000 0.66581  0.09070  0.18510  Biso   1.000  H
  H1211    1.0000 0.54722  0.06532  0.09390  Biso   1.000  H
  H1212    1.0000 0.61249  0.08490  0.05460  Biso   1.000  H
  H1213    1.0000 0.57511  0.01771  0.03778  Biso   1.000  H
  H1214    1.0000 0.79769  0.05312  0.18259  Biso   1.000  H
  C708     1.0000 0.87575  0.11190  0.20118  Biso   1.000  C
  C709     1.0000 0.87575  0.11190  0.20123  Biso   1.000  C
  H1215    1.0000 0.81741  0.20231  0.05312  Biso   1.000  H
  C710     1.0000 0.88810  0.20118  0.12425  Biso   1.000  C
  C711     1.0000 0.88810  0.20123  0.12425  Biso   1.000  C
  N103     1.0000 0.02755  0.93109  0.26104  Biso   1.000  N
  H1216    1.0000 0.11810  0.97191  0.25868  Biso   1.000  H
  H1217    1.0000 0.11481  0.90561  0.30108  Biso   1.000  H
  N104     1.0000 0.02755  0.93114  0.26104  Biso   1.000  N
  H1218    1.0000 0.20231  0.94688  0.18259  Biso   1.000  H
  H1219    1.0000 0.20231  0.94693  0.18259  Biso   1.000  H
  N105     1.0000 0.26104  0.97245  0.06891  Biso   1.000  N
  H1220    1.0000 0.25868  0.88190  0.02809  Biso   1.000  H
  H1221    1.0000 0.30108  0.88519  0.09439  Biso   1.000  H
  C712     1.0000 0.20349  0.99710  0.96272  Biso   1.000  C
  C713     1.0000 0.30910  0.98642  0.90989  Biso   1.000  C
  C714     1.0000 0.03728  0.20349  0.00290  Biso   1.000  C
  C715     1.0000 0.09011  0.30910  0.01358  Biso   1.000  C
  C716     1.0000 0.09011  0.30910  0.01363  Biso   1.000  C
  C717     1.0000 0.90915  0.16758  0.17914  Biso   1.000  C
  C718     1.0000 0.90059  0.07300  0.26016  Biso   1.000  C
  C719     1.0000 0.92700  0.26016  0.09941  Biso   1.000  C
  C720     1.0000 0.99710  0.96272  0.20349  Biso   1.000  C
  C721     1.0000 0.98642  0.90989  0.30910  Biso   1.000  C
  C722     1.0000 0.20349  0.00290  0.03728  Biso   1.000  C
  C723     1.0000 0.30910  0.01358  0.09011  Biso   1.000  C
  C724     1.0000 0.30910  0.01363  0.09011  Biso   1.000  C
  H1222    1.0000 0.20212  0.94998  0.95061  Biso   1.000  H
  H1223    1.0000 0.20212  0.95002  0.95061  Biso   1.000  H
  H1224    1.0000 0.16311  0.01810  0.94530  Biso   1.000  H
  O67      1.0000 0.30349  0.92671  0.91854  Biso   1.000  O
  C725     1.0000 0.37000  0.01131  0.87418  Biso   1.000  C
  C726     1.0000 0.37000  0.01131  0.87423  Biso   1.000  C
  C727     1.0000 0.96272  0.20349  0.99710  Biso   1.000  C
  H1225    1.0000 0.05470  0.16311  0.98190  Biso   1.000  H
  H1226    1.0000 0.04939  0.20212  0.05002  Biso   1.000  H
  C728     1.0000 0.12582  0.37000  0.98869  Biso   1.000  C
  O68      1.0000 0.08146  0.30349  0.07329  Biso   1.000  O
  H1227    1.0000 0.94688  0.18259  0.20231  Biso   1.000  H
  H1228    1.0000 0.94693  0.18259  0.20231  Biso   1.000  H
  N106     1.0000 0.97245  0.06891  0.26104  Biso   1.000  N
  H1229    1.0000 0.88190  0.02809  0.25868  Biso   1.000  H
  H1230    1.0000 0.88519  0.09439  0.30108  Biso   1.000  H
  N107     1.0000 0.93109  0.26104  0.02755  Biso   1.000  N
  N108     1.0000 0.93114  0.26104  0.02755  Biso   1.000  N
  H1231    1.0000 0.97191  0.25868  0.11810  Biso   1.000  H
  H1232    1.0000 0.90561  0.30108  0.11481  Biso   1.000  H
  C729     1.0000 0.00290  0.03728  0.20349  Biso   1.000  C
  H1233    1.0000 0.94998  0.95061  0.20212  Biso   1.000  H
  H1234    1.0000 0.95002  0.95061  0.20212  Biso   1.000  H
  H1235    1.0000 0.01810  0.94530  0.16311  Biso   1.000  H
  O69      1.0000 0.92671  0.91854  0.30349  Biso   1.000  O
  C730     1.0000 0.01131  0.87418  0.37000  Biso   1.000  C
  C731     1.0000 0.01131  0.87423  0.37000  Biso   1.000  C
  H1236    1.0000 0.16311  0.98190  0.05470  Biso   1.000  H
  H1237    1.0000 0.20212  0.05002  0.04939  Biso   1.000  H
  C732     1.0000 0.37000  0.98869  0.12582  Biso   1.000  C
  O70      1.0000 0.30349  0.07329  0.08146  Biso   1.000  O
  C733     1.0000 0.41269  0.95239  0.85470  Biso   1.000  C
  Br133    1.0000 0.41968  0.07226  0.92961  Biso   1.000  Br
  C734     1.0000 0.36109  0.05150  0.80679  Biso   1.000  C
  Br134    1.0000 0.35357  0.05755  0.79867  Biso   1.000  Br
  C735     1.0000 0.41279  0.04830  0.92691  Biso   1.000  C
  H1238    1.0000 0.95061  0.20212  0.94998  Biso   1.000  H
  H1239    1.0000 0.95061  0.20212  0.95002  Biso   1.000  H
  H1240    1.0000 0.94530  0.16311  0.01810  Biso   1.000  H
  Br135    1.0000 0.07039  0.41968  0.92774  Biso   1.000  Br
  C736     1.0000 0.19321  0.36109  0.94850  Biso   1.000  C
  Br136    1.0000 0.20133  0.35357  0.94245  Biso   1.000  Br
  C737     1.0000 0.07309  0.41279  0.95170  Biso   1.000  C
  C738     1.0000 0.14530  0.41269  0.04761  Biso   1.000  C
  C739     1.0000 0.01358  0.09011  0.30910  Biso   1.000  C
  C740     1.0000 0.01363  0.09011  0.30910  Biso   1.000  C
  C741     1.0000 0.90989  0.30910  0.98642  Biso   1.000  C
  H1241    1.0000 0.98190  0.05470  0.16311  Biso   1.000  H
  H1242    1.0000 0.05002  0.04939  0.20212  Biso   1.000  H
  C742     1.0000 0.95239  0.85470  0.41269  Biso   1.000  C
  Br137    1.0000 0.07226  0.92961  0.41968  Biso   1.000  Br
  C743     1.0000 0.05150  0.80679  0.36109  Biso   1.000  C
  Br138    1.0000 0.05755  0.79867  0.35357  Biso   1.000  Br
  C744     1.0000 0.04830  0.92691  0.41279  Biso   1.000  C
  Br139    1.0000 0.41968  0.92774  0.07039  Biso   1.000  Br
  C745     1.0000 0.36109  0.94850  0.19321  Biso   1.000  C
  Br140    1.0000 0.35357  0.94245  0.20133  Biso   1.000  Br
  C746     1.0000 0.41279  0.95170  0.07309  Biso   1.000  C
  C747     1.0000 0.41269  0.04761  0.14530  Biso   1.000  C
  H1243    1.0000 0.42273  0.92622  0.89390  Biso   1.000  H
  H1244    1.0000 0.38888  0.92509  0.82282  Biso   1.000  H
  H1245    1.0000 0.45371  0.96808  0.83502  Biso   1.000  H
  H1246    1.0000 0.45371  0.96813  0.83502  Biso   1.000  H
  H1247    1.0000 0.40428  0.06468  0.79011  Biso   1.000  H
  H1248    1.0000 0.33920  0.02351  0.77418  Biso   1.000  H
  H1249    1.0000 0.33419  0.09070  0.81490  Biso   1.000  H
  H1250    1.0000 0.33920  0.02351  0.77423  Biso   1.000  H
  H1251    1.0000 0.40433  0.06468  0.79011  Biso   1.000  H
  H1252    1.0000 0.45278  0.06532  0.90610  Biso   1.000  H
  H1253    1.0000 0.38751  0.08490  0.94540  Biso   1.000  H
  H1254    1.0000 0.42489  0.01771  0.96222  Biso   1.000  H
  H1255    1.0000 0.20989  0.40428  0.93532  Biso   1.000  H
  H1256    1.0000 0.22582  0.33920  0.97649  Biso   1.000  H
  H1257    1.0000 0.18510  0.33419  0.90930  Biso   1.000  H
  H1258    1.0000 0.20989  0.40433  0.93532  Biso   1.000  H
  H1259    1.0000 0.09390  0.45278  0.93473  Biso   1.000  H
  H1260    1.0000 0.05460  0.38751  0.91510  Biso   1.000  H
  H1261    1.0000 0.03778  0.42489  0.98229  Biso   1.000  H
  H1262    1.0000 0.10610  0.42273  0.07378  Biso   1.000  H
  H1263    1.0000 0.17718  0.38888  0.07491  Biso   1.000  H
  H1264    1.0000 0.16498  0.45371  0.03192  Biso   1.000  H
  H1265    1.0000 0.17723  0.38888  0.07491  Biso   1.000  H
  H1266    1.0000 0.16503  0.45371  0.03192  Biso   1.000  H
  C748     1.0000 0.98869  0.12582  0.37000  Biso   1.000  C
  O71      1.0000 0.07329  0.08146  0.30349  Biso   1.000  O
  O72      1.0000 0.91854  0.30349  0.92671  Biso   1.000  O
  C749     1.0000 0.87418  0.37000  0.01131  Biso   1.000  C
  C750     1.0000 0.87423  0.37000  0.01131  Biso   1.000  C
  H1267    1.0000 0.92622  0.89390  0.42273  Biso   1.000  H
  H1268    1.0000 0.92509  0.82282  0.38888  Biso   1.000  H
  H1269    1.0000 0.96808  0.83502  0.45371  Biso   1.000  H
  H1270    1.0000 0.96813  0.83502  0.45371  Biso   1.000  H
  H1271    1.0000 0.06468  0.79011  0.40428  Biso   1.000  H
  H1272    1.0000 0.02351  0.77418  0.33920  Biso   1.000  H
  H1273    1.0000 0.09070  0.81490  0.33419  Biso   1.000  H
  H1274    1.0000 0.06468  0.79011  0.40433  Biso   1.000  H
  H1275    1.0000 0.02351  0.77423  0.33920  Biso   1.000  H
  H1276    1.0000 0.06532  0.90610  0.45278  Biso   1.000  H
  H1277    1.0000 0.08490  0.94540  0.38751  Biso   1.000  H
  H1278    1.0000 0.01771  0.96222  0.42489  Biso   1.000  H
  H1279    1.0000 0.40428  0.93532  0.20989  Biso   1.000  H
  H1280    1.0000 0.33920  0.97649  0.22582  Biso   1.000  H
  H1281    1.0000 0.33419  0.90930  0.18510  Biso   1.000  H
  H1282    1.0000 0.40433  0.93532  0.20989  Biso   1.000  H
  H1283    1.0000 0.45278  0.93473  0.09390  Biso   1.000  H
  H1284    1.0000 0.38751  0.91510  0.05460  Biso   1.000  H
  H1285    1.0000 0.42489  0.98229  0.03778  Biso   1.000  H
  H1286    1.0000 0.42273  0.07378  0.10610  Biso   1.000  H
  H1287    1.0000 0.38888  0.07491  0.17718  Biso   1.000  H
  H1288    1.0000 0.45371  0.03192  0.16498  Biso   1.000  H
  H1289    1.0000 0.38888  0.07491  0.17723  Biso   1.000  H
  H1290    1.0000 0.45371  0.03192  0.16503  Biso   1.000  H
  Br141    1.0000 0.92774  0.07039  0.41968  Biso   1.000  Br
  C751     1.0000 0.94850  0.19321  0.36109  Biso   1.000  C
  Br142    1.0000 0.94245  0.20133  0.35357  Biso   1.000  Br
  C752     1.0000 0.95170  0.07309  0.41279  Biso   1.000  C
  C753     1.0000 0.04761  0.14530  0.41269  Biso   1.000  C
  C754     1.0000 0.85470  0.41269  0.95239  Biso   1.000  C
  Br143    1.0000 0.92961  0.41968  0.07226  Biso   1.000  Br
  C755     1.0000 0.80679  0.36109  0.05150  Biso   1.000  C
  Br144    1.0000 0.79867  0.35357  0.05755  Biso   1.000  Br
  C756     1.0000 0.92691  0.41279  0.04830  Biso   1.000  C
  H1291    1.0000 0.93532  0.20989  0.40428  Biso   1.000  H
  H1292    1.0000 0.97649  0.22582  0.33920  Biso   1.000  H
  H1293    1.0000 0.90930  0.18510  0.33419  Biso   1.000  H
  H1294    1.0000 0.93532  0.20989  0.40433  Biso   1.000  H
  H1295    1.0000 0.93473  0.09390  0.45278  Biso   1.000  H
  H1296    1.0000 0.91510  0.05460  0.38751  Biso   1.000  H
  H1297    1.0000 0.98229  0.03778  0.42489  Biso   1.000  H
  H1298    1.0000 0.07378  0.10610  0.42273  Biso   1.000  H
  H1299    1.0000 0.07491  0.17718  0.38888  Biso   1.000  H
  H1300    1.0000 0.03192  0.16498  0.45371  Biso   1.000  H
  H1301    1.0000 0.07491  0.17723  0.38888  Biso   1.000  H
  H1302    1.0000 0.03192  0.16503  0.45371  Biso   1.000  H
  H1303    1.0000 0.89390  0.42273  0.92622  Biso   1.000  H
  H1304    1.0000 0.82282  0.38888  0.92509  Biso   1.000  H
  H1305    1.0000 0.83502  0.45371  0.96808  Biso   1.000  H
  H1306    1.0000 0.83502  0.45371  0.96813  Biso   1.000  H
  H1307    1.0000 0.79011  0.40428  0.06468  Biso   1.000  H
  H1308    1.0000 0.77418  0.33920  0.02351  Biso   1.000  H
  H1309    1.0000 0.81490  0.33419  0.09070  Biso   1.000  H
  H1310    1.0000 0.79011  0.40433  0.06468  Biso   1.000  H
  H1311    1.0000 0.77423  0.33920  0.02351  Biso   1.000  H
  H1312    1.0000 0.90610  0.45278  0.06532  Biso   1.000  H
  H1313    1.0000 0.94540  0.38751  0.08490  Biso   1.000  H
  H1314    1.0000 0.96222  0.42489  0.01771  Biso   1.000  H
  C757     1.0000 0.90915  0.83242  0.82086  Biso   1.000  C
  C758     1.0000 0.87575  0.88810  0.79882  Biso   1.000  C
  C759     1.0000 0.88810  0.79882  0.87575  Biso   1.000  C
  H1315    1.0000 0.94688  0.81741  0.79769  Biso   1.000  H
  H1316    1.0000 0.94693  0.81741  0.79769  Biso   1.000  H
  C760     1.0000 0.90059  0.92700  0.73984  Biso   1.000  C
  C761     1.0000 0.82086  0.90915  0.83242  Biso   1.000  C
  C762     1.0000 0.83242  0.82086  0.90915  Biso   1.000  C
  C763     1.0000 0.92700  0.73984  0.90059  Biso   1.000  C
  N109     1.0000 0.97245  0.93109  0.73896  Biso   1.000  N
  N110     1.0000 0.97245  0.93114  0.73896  Biso   1.000  N
  H1317    1.0000 0.88190  0.97191  0.74132  Biso   1.000  H
  H1318    1.0000 0.88519  0.90561  0.69892  Biso   1.000  H
  C764     1.0000 0.79882  0.87575  0.88810  Biso   1.000  C
  H1319    1.0000 0.79769  0.94688  0.81741  Biso   1.000  H
  H1320    1.0000 0.79769  0.94693  0.81741  Biso   1.000  H
  H1321    1.0000 0.81741  0.79769  0.94688  Biso   1.000  H
  H1322    1.0000 0.81741  0.79769  0.94693  Biso   1.000  H
  H1323    1.0000 0.97191  0.74132  0.88190  Biso   1.000  H
  H1324    1.0000 0.90561  0.69892  0.88519  Biso   1.000  H
  N111     1.0000 0.93109  0.73896  0.97245  Biso   1.000  N
  N112     1.0000 0.93114  0.73896  0.97245  Biso   1.000  N
  C765     1.0000 0.01358  0.90989  0.69090  Biso   1.000  C
  C766     1.0000 0.01363  0.90989  0.69090  Biso   1.000  C
  C767     1.0000 0.00290  0.96272  0.79651  Biso   1.000  C
  C768     1.0000 0.73984  0.90059  0.92700  Biso   1.000  C
  C769     1.0000 0.96272  0.79651  0.00290  Biso   1.000  C
  C770     1.0000 0.90989  0.69090  0.01358  Biso   1.000  C
  C771     1.0000 0.90989  0.69090  0.01363  Biso   1.000  C
  C772     1.0000 0.98869  0.87418  0.63000  Biso   1.000  C
  C773     1.0000 0.98869  0.87423  0.63000  Biso   1.000  C
  O73      1.0000 0.07329  0.91854  0.69651  Biso   1.000  O
  H1325    1.0000 0.98190  0.94530  0.83689  Biso   1.000  H
  C774     1.0000 0.99710  0.03728  0.79651  Biso   1.000  C
  H1326    1.0000 0.05002  0.95061  0.79788  Biso   1.000  H
  H1327    1.0000 0.74132  0.88190  0.97191  Biso   1.000  H
  H1328    1.0000 0.69892  0.88519  0.90561  Biso   1.000  H
  N113     1.0000 0.73896  0.97245  0.93109  Biso   1.000  N
  N114     1.0000 0.73896  0.97245  0.93114  Biso   1.000  N
  H1329    1.0000 0.94530  0.83689  0.98190  Biso   1.000  H
  H1330    1.0000 0.95061  0.79788  0.05002  Biso   1.000  H
  C775     1.0000 0.03728  0.79651  0.99710  Biso   1.000  C
  C776     1.0000 0.87418  0.63000  0.98869  Biso   1.000  C
  C777     1.0000 0.87423  0.63000  0.98869  Biso   1.000  C
  O74      1.0000 0.91854  0.69651  0.07329  Biso   1.000  O
  C778     1.0000 0.94850  0.80679  0.63891  Biso   1.000  C
  Br145    1.0000 0.92774  0.92961  0.58032  Biso   1.000  Br
  Br146    1.0000 0.94245  0.79867  0.64643  Biso   1.000  Br
  C779     1.0000 0.95170  0.92691  0.58721  Biso   1.000  C
  C780     1.0000 0.04761  0.85470  0.58731  Biso   1.000  C
  H1331    1.0000 0.94998  0.04939  0.79788  Biso   1.000  H
  H1332    1.0000 0.95002  0.04939  0.79788  Biso   1.000  H
  N115     1.0000 0.02755  0.06891  0.73896  Biso   1.000  N
  H1333    1.0000 0.01810  0.05470  0.83689  Biso   1.000  H
  C781     1.0000 0.79651  0.00290  0.96272  Biso   1.000  C
  C782     1.0000 0.69090  0.01358  0.90989  Biso   1.000  C
  C783     1.0000 0.69090  0.01363  0.90989  Biso   1.000  C
  H1334    1.0000 0.04939  0.79788  0.94998  Biso   1.000  H
  H1335    1.0000 0.04939  0.79788  0.95002  Biso   1.000  H
  N116     1.0000 0.06891  0.73896  0.02755  Biso   1.000  N
  H1336    1.0000 0.05470  0.83689  0.01810  Biso   1.000  H
  Br147    1.0000 0.92961  0.58032  0.92774  Biso   1.000  Br
  C784     1.0000 0.80679  0.63891  0.94850  Biso   1.000  C
  Br148    1.0000 0.79867  0.64643  0.94245  Biso   1.000  Br
  C785     1.0000 0.92691  0.58721  0.95170  Biso   1.000  C
  C786     1.0000 0.85470  0.58731  0.04761  Biso   1.000  C
  H1337    1.0000 0.93532  0.79011  0.59572  Biso   1.000  H
  H1338    1.0000 0.90930  0.81490  0.66581  Biso   1.000  H
  H1339    1.0000 0.97649  0.77418  0.66080  Biso   1.000  H
  H1340    1.0000 0.97649  0.77423  0.66080  Biso   1.000  H
  H1341    1.0000 0.93473  0.90610  0.54722  Biso   1.000  H
  H1342    1.0000 0.91510  0.94540  0.61249  Biso   1.000  H
  H1343    1.0000 0.98229  0.96222  0.57511  Biso   1.000  H
  H1344    1.0000 0.07378  0.89390  0.57727  Biso   1.000  H
  H1345    1.0000 0.07491  0.82282  0.61112  Biso   1.000  H
  H1346    1.0000 0.03192  0.83502  0.54629  Biso   1.000  H
  H1347    1.0000 0.07378  0.89390  0.57732  Biso   1.000  H
  C787     1.0000 0.98642  0.09011  0.69090  Biso   1.000  C
  C788     1.0000 0.09941  0.07300  0.73984  Biso   1.000  C
  H1348    1.0000 0.83689  0.98190  0.94530  Biso   1.000  H
  C789     1.0000 0.79651  0.99710  0.03728  Biso   1.000  C
  H1349    1.0000 0.79788  0.05002  0.95061  Biso   1.000  H
  C790     1.0000 0.63000  0.98869  0.87418  Biso   1.000  C
  C791     1.0000 0.63000  0.98869  0.87423  Biso   1.000  C
  O75      1.0000 0.69651  0.07329  0.91854  Biso   1.000  O
  C792     1.0000 0.09011  0.69090  0.98642  Biso   1.000  C
  C793     1.0000 0.07300  0.73984  0.09941  Biso   1.000  C
  H1350    1.0000 0.79011  0.59572  0.93532  Biso   1.000  H
  H1351    1.0000 0.81490  0.66581  0.90930  Biso   1.000  H
  H1352    1.0000 0.77418  0.66080  0.97649  Biso   1.000  H
  H1353    1.0000 0.77423  0.66080  0.97649  Biso   1.000  H
  H1354    1.0000 0.90610  0.54722  0.93473  Biso   1.000  H
  H1355    1.0000 0.94540  0.61249  0.91510  Biso   1.000  H
  H1356    1.0000 0.96222  0.57511  0.98229  Biso   1.000  H
  H1357    1.0000 0.89390  0.57727  0.07378  Biso   1.000  H
  H1358    1.0000 0.82282  0.61112  0.07491  Biso   1.000  H
  H1359    1.0000 0.83502  0.54629  0.03192  Biso   1.000  H
  H1360    1.0000 0.89390  0.57732  0.07378  Biso   1.000  H
  O76      1.0000 0.92671  0.08146  0.69651  Biso   1.000  O
  C794     1.0000 0.01131  0.12582  0.63000  Biso   1.000  C
  C795     1.0000 0.12425  0.11190  0.79882  Biso   1.000  C
  H1361    1.0000 0.11810  0.02809  0.74132  Biso   1.000  H
  H1362    1.0000 0.11481  0.09439  0.69892  Biso   1.000  H
  H1363    1.0000 0.79788  0.94998  0.04939  Biso   1.000  H
  H1364    1.0000 0.79788  0.95002  0.04939  Biso   1.000  H
  N117     1.0000 0.73896  0.02755  0.06891  Biso   1.000  N
  H1365    1.0000 0.83689  0.01810  0.05470  Biso   1.000  H
  Br149    1.0000 0.58032  0.92774  0.92961  Biso   1.000  Br
  C796     1.0000 0.63891  0.94850  0.80679  Biso   1.000  C
  Br150    1.0000 0.64643  0.94245  0.79867  Biso   1.000  Br
  C797     1.0000 0.58721  0.95170  0.92691  Biso   1.000  C
  C798     1.0000 0.58731  0.04761  0.85470  Biso   1.000  C
  O77      1.0000 0.08146  0.69651  0.92671  Biso   1.000  O
  C799     1.0000 0.12582  0.63000  0.01131  Biso   1.000  C
  C800     1.0000 0.11190  0.79882  0.12425  Biso   1.000  C
  H1366    1.0000 0.02809  0.74132  0.11810  Biso   1.000  H
  H1367    1.0000 0.09439  0.69892  0.11481  Biso   1.000  H
  C801     1.0000 0.95239  0.14530  0.58731  Biso   1.000  C
  Br151    1.0000 0.07226  0.07039  0.58032  Biso   1.000  Br
  C802     1.0000 0.05150  0.19321  0.63891  Biso   1.000  C
  Br152    1.0000 0.05755  0.20133  0.64643  Biso   1.000  Br
  C803     1.0000 0.04830  0.07309  0.58721  Biso   1.000  C
  C804     1.0000 0.17914  0.09085  0.83242  Biso   1.000  C
  C805     1.0000 0.09085  0.16758  0.82086  Biso   1.000  C
  C806     1.0000 0.69090  0.98642  0.09011  Biso   1.000  C
  C807     1.0000 0.73984  0.09941  0.07300  Biso   1.000  C
  H1368    1.0000 0.59572  0.93532  0.79011  Biso   1.000  H
  H1369    1.0000 0.66581  0.90930  0.81490  Biso   1.000  H
  H1370    1.0000 0.66080  0.97649  0.77418  Biso   1.000  H
  H1371    1.0000 0.66080  0.97649  0.77423  Biso   1.000  H
  H1372    1.0000 0.54722  0.93473  0.90610  Biso   1.000  H
  H1373    1.0000 0.61249  0.91510  0.94540  Biso   1.000  H
  H1374    1.0000 0.57511  0.98229  0.96222  Biso   1.000  H
  H1375    1.0000 0.57727  0.07378  0.89390  Biso   1.000  H
  H1376    1.0000 0.61112  0.07491  0.82282  Biso   1.000  H
  H1377    1.0000 0.54629  0.03192  0.83502  Biso   1.000  H
  H1378    1.0000 0.57732  0.07378  0.89390  Biso   1.000  H
  C808     1.0000 0.14530  0.58731  0.95239  Biso   1.000  C
  Br153    1.0000 0.07039  0.58032  0.07226  Biso   1.000  Br
  C809     1.0000 0.19321  0.63891  0.05150  Biso   1.000  C
  Br154    1.0000 0.20133  0.64643  0.05755  Biso   1.000  Br
  C810     1.0000 0.07309  0.58721  0.04830  Biso   1.000  C
  C811     1.0000 0.09085  0.83242  0.17914  Biso   1.000  C
  C812     1.0000 0.16758  0.82086  0.09085  Biso   1.000  C
  H1379    1.0000 0.92622  0.10610  0.57727  Biso   1.000  H
  H1380    1.0000 0.92509  0.17718  0.61112  Biso   1.000  H
  H1381    1.0000 0.96808  0.16498  0.54629  Biso   1.000  H
  H1382    1.0000 0.92622  0.10610  0.57732  Biso   1.000  H
  H1383    1.0000 0.92509  0.17723  0.61112  Biso   1.000  H
  H1384    1.0000 0.96808  0.16503  0.54629  Biso   1.000  H
  H1385    1.0000 0.96813  0.16498  0.54629  Biso   1.000  H
  H1386    1.0000 0.96813  0.16503  0.54629  Biso   1.000  H
  H1387    1.0000 0.06468  0.20989  0.59572  Biso   1.000  H
  H1388    1.0000 0.02351  0.22582  0.66080  Biso   1.000  H
  H1389    1.0000 0.09070  0.18510  0.66581  Biso   1.000  H
  H1390    1.0000 0.06532  0.09390  0.54722  Biso   1.000  H
  H1391    1.0000 0.08490  0.05460  0.61249  Biso   1.000  H
  H1392    1.0000 0.01771  0.03778  0.57511  Biso   1.000  H
  H1393    1.0000 0.20231  0.05312  0.81741  Biso   1.000  H
  C813     1.0000 0.20118  0.12425  0.88810  Biso   1.000  C
  C814     1.0000 0.20123  0.12425  0.88810  Biso   1.000  C
  H1394    1.0000 0.05312  0.18259  0.79769  Biso   1.000  H
  C815     1.0000 0.11190  0.20118  0.87575  Biso   1.000  C
  C816     1.0000 0.11190  0.20123  0.87575  Biso   1.000  C
  O78      1.0000 0.69651  0.92671  0.08146  Biso   1.000  O
  C817     1.0000 0.63000  0.01131  0.12582  Biso   1.000  C
  C818     1.0000 0.79882  0.12425  0.11190  Biso   1.000  C
  H1395    1.0000 0.74132  0.11810  0.02809  Biso   1.000  H
  H1396    1.0000 0.69892  0.11481  0.09439  Biso   1.000  H
  H1397    1.0000 0.10610  0.57727  0.92622  Biso   1.000  H
  H1398    1.0000 0.17718  0.61112  0.92509  Biso   1.000  H
  H1399    1.0000 0.16498  0.54629  0.96808  Biso   1.000  H
  H1400    1.0000 0.16498  0.54629  0.96813  Biso   1.000  H
  H1401    1.0000 0.10610  0.57732  0.92622  Biso   1.000  H
  H1402    1.0000 0.17723  0.61112  0.92509  Biso   1.000  H
  H1403    1.0000 0.16503  0.54629  0.96808  Biso   1.000  H
  H1404    1.0000 0.16503  0.54629  0.96813  Biso   1.000  H
  H1405    1.0000 0.20989  0.59572  0.06468  Biso   1.000  H
  H1406    1.0000 0.22582  0.66080  0.02351  Biso   1.000  H
  H1407    1.0000 0.18510  0.66581  0.09070  Biso   1.000  H
  H1408    1.0000 0.09390  0.54722  0.06532  Biso   1.000  H
  H1409    1.0000 0.05460  0.61249  0.08490  Biso   1.000  H
  H1410    1.0000 0.03778  0.57511  0.01771  Biso   1.000  H
  H1411    1.0000 0.05312  0.81741  0.20231  Biso   1.000  H
  C819     1.0000 0.12425  0.88810  0.20118  Biso   1.000  C
  C820     1.0000 0.12425  0.88810  0.20123  Biso   1.000  C
  C821     1.0000 0.20118  0.87575  0.11190  Biso   1.000  C
  H1412    1.0000 0.18259  0.79769  0.05312  Biso   1.000  H
  C822     1.0000 0.20123  0.87575  0.11190  Biso   1.000  C
  C823     1.0000 0.26016  0.09941  0.92700  Biso   1.000  C
  C824     1.0000 0.16758  0.17914  0.90915  Biso   1.000  C
  C825     1.0000 0.07300  0.26016  0.90059  Biso   1.000  C
  C826     1.0000 0.58731  0.95239  0.14530  Biso   1.000  C
  Br155    1.0000 0.58032  0.07226  0.07039  Biso   1.000  Br
  C827     1.0000 0.63891  0.05150  0.19321  Biso   1.000  C
  Br156    1.0000 0.64643  0.05755  0.20133  Biso   1.000  Br
  C828     1.0000 0.58721  0.04830  0.07309  Biso   1.000  C
  C829     1.0000 0.82086  0.09085  0.16758  Biso   1.000  C
  C830     1.0000 0.83242  0.17914  0.09085  Biso   1.000  C
  C831     1.0000 0.09941  0.92700  0.26016  Biso   1.000  C
  C832     1.0000 0.17914  0.90915  0.16758  Biso   1.000  C
  C833     1.0000 0.26016  0.90059  0.07300  Biso   1.000  C
  N118     1.0000 0.26104  0.02755  0.93109  Biso   1.000  N
  H1413    1.0000 0.25868  0.11810  0.97191  Biso   1.000  H
  H1414    1.0000 0.30108  0.11481  0.90561  Biso   1.000  H
  N119     1.0000 0.26104  0.02755  0.93114  Biso   1.000  N
  H1415    1.0000 0.18259  0.20231  0.94688  Biso   1.000  H
  H1416    1.0000 0.18259  0.20231  0.94693  Biso   1.000  H
  N120     1.0000 0.06891  0.26104  0.97245  Biso   1.000  N
  H1417    1.0000 0.02809  0.25868  0.88190  Biso   1.000  H
  H1418    1.0000 0.09439  0.30108  0.88519  Biso   1.000  H
  H1419    1.0000 0.57727  0.92622  0.10610  Biso   1.000  H
  H1420    1.0000 0.61112  0.92509  0.17718  Biso   1.000  H
  H1421    1.0000 0.54629  0.96808  0.16498  Biso   1.000  H
  H1422    1.0000 0.61112  0.92509  0.17723  Biso   1.000  H
  H1423    1.0000 0.54629  0.96808  0.16503  Biso   1.000  H
  H1424    1.0000 0.54629  0.96813  0.16498  Biso   1.000  H
  H1425    1.0000 0.54629  0.96813  0.16503  Biso   1.000  H
  H1426    1.0000 0.57732  0.92622  0.10610  Biso   1.000  H
  H1427    1.0000 0.59572  0.06468  0.20989  Biso   1.000  H
  H1428    1.0000 0.66080  0.02351  0.22582  Biso   1.000  H
  H1429    1.0000 0.66581  0.09070  0.18510  Biso   1.000  H
  H1430    1.0000 0.54722  0.06532  0.09390  Biso   1.000  H
  H1431    1.0000 0.61249  0.08490  0.05460  Biso   1.000  H
  H1432    1.0000 0.57511  0.01771  0.03778  Biso   1.000  H
  H1433    1.0000 0.79769  0.05312  0.18259  Biso   1.000  H
  C834     1.0000 0.87575  0.11190  0.20118  Biso   1.000  C
  C835     1.0000 0.87575  0.11190  0.20123  Biso   1.000  C
  H1434    1.0000 0.81741  0.20231  0.05312  Biso   1.000  H
  C836     1.0000 0.88810  0.20118  0.12425  Biso   1.000  C
  C837     1.0000 0.88810  0.20123  0.12425  Biso   1.000  C
  N121     1.0000 0.02755  0.93109  0.26104  Biso   1.000  N
  H1435    1.0000 0.11810  0.97191  0.25868  Biso   1.000  H
  H1436    1.0000 0.11481  0.90561  0.30108  Biso   1.000  H
  N122     1.0000 0.02755  0.93114  0.26104  Biso   1.000  N
  H1437    1.0000 0.20231  0.94688  0.18259  Biso   1.000  H
  H1438    1.0000 0.20231  0.94693  0.18259  Biso   1.000  H
  N123     1.0000 0.26104  0.97245  0.06891  Biso   1.000  N
  H1439    1.0000 0.25868  0.88190  0.02809  Biso   1.000  H
  H1440    1.0000 0.30108  0.88519  0.09439  Biso   1.000  H
  C838     1.0000 0.20349  0.99710  0.96272  Biso   1.000  C
  C839     1.0000 0.30910  0.98642  0.90989  Biso   1.000  C
  C840     1.0000 0.03728  0.20349  0.00290  Biso   1.000  C
  C841     1.0000 0.09011  0.30910  0.01358  Biso   1.000  C
  C842     1.0000 0.09011  0.30910  0.01363  Biso   1.000  C
  C843     1.0000 0.90915  0.16758  0.17914  Biso   1.000  C
  C844     1.0000 0.90059  0.07300  0.26016  Biso   1.000  C
  C845     1.0000 0.92700  0.26016  0.09941  Biso   1.000  C
  C846     1.0000 0.99710  0.96272  0.20349  Biso   1.000  C
  C847     1.0000 0.98642  0.90989  0.30910  Biso   1.000  C
  C848     1.0000 0.20349  0.00290  0.03728  Biso   1.000  C
  C849     1.0000 0.30910  0.01358  0.09011  Biso   1.000  C
  C850     1.0000 0.30910  0.01363  0.09011  Biso   1.000  C
  H1441    1.0000 0.20212  0.94998  0.95061  Biso   1.000  H
  H1442    1.0000 0.20212  0.95002  0.95061  Biso   1.000  H
  H1443    1.0000 0.16311  0.01810  0.94530  Biso   1.000  H
  O79      1.0000 0.30349  0.92671  0.91854  Biso   1.000  O
  C851     1.0000 0.37000  0.01131  0.87418  Biso   1.000  C
  C852     1.0000 0.37000  0.01131  0.87423  Biso   1.000  C
  C853     1.0000 0.96272  0.20349  0.99710  Biso   1.000  C
  H1444    1.0000 0.05470  0.16311  0.98190  Biso   1.000  H
  H1445    1.0000 0.04939  0.20212  0.05002  Biso   1.000  H
  C854     1.0000 0.12582  0.37000  0.98869  Biso   1.000  C
  O80      1.0000 0.08146  0.30349  0.07329  Biso   1.000  O
  H1446    1.0000 0.94688  0.18259  0.20231  Biso   1.000  H
  H1447    1.0000 0.94693  0.18259  0.20231  Biso   1.000  H
  N124     1.0000 0.97245  0.06891  0.26104  Biso   1.000  N
  H1448    1.0000 0.88190  0.02809  0.25868  Biso   1.000  H
  H1449    1.0000 0.88519  0.09439  0.30108  Biso   1.000  H
  N125     1.0000 0.93109  0.26104  0.02755  Biso   1.000  N
  N126     1.0000 0.93114  0.26104  0.02755  Biso   1.000  N
  H1450    1.0000 0.97191  0.25868  0.11810  Biso   1.000  H
  H1451    1.0000 0.90561  0.30108  0.11481  Biso   1.000  H
  C855     1.0000 0.00290  0.03728  0.20349  Biso   1.000  C
  H1452    1.0000 0.94998  0.95061  0.20212  Biso   1.000  H
  H1453    1.0000 0.95002  0.95061  0.20212  Biso   1.000  H
  H1454    1.0000 0.01810  0.94530  0.16311  Biso   1.000  H
  O81      1.0000 0.92671  0.91854  0.30349  Biso   1.000  O
  C856     1.0000 0.01131  0.87418  0.37000  Biso   1.000  C
  C857     1.0000 0.01131  0.87423  0.37000  Biso   1.000  C
  H1455    1.0000 0.16311  0.98190  0.05470  Biso   1.000  H
  H1456    1.0000 0.20212  0.05002  0.04939  Biso   1.000  H
  C858     1.0000 0.37000  0.98869  0.12582  Biso   1.000  C
  O82      1.0000 0.30349  0.07329  0.08146  Biso   1.000  O
  C859     1.0000 0.41269  0.95239  0.85470  Biso   1.000  C
  Br157    1.0000 0.41968  0.07226  0.92961  Biso   1.000  Br
  C860     1.0000 0.36109  0.05150  0.80679  Biso   1.000  C
  Br158    1.0000 0.35357  0.05755  0.79867  Biso   1.000  Br
  C861     1.0000 0.41279  0.04830  0.92691  Biso   1.000  C
  H1457    1.0000 0.95061  0.20212  0.94998  Biso   1.000  H
  H1458    1.0000 0.95061  0.20212  0.95002  Biso   1.000  H
  H1459    1.0000 0.94530  0.16311  0.01810  Biso   1.000  H
  Br159    1.0000 0.07039  0.41968  0.92774  Biso   1.000  Br
  C862     1.0000 0.19321  0.36109  0.94850  Biso   1.000  C
  Br160    1.0000 0.20133  0.35357  0.94245  Biso   1.000  Br
  C863     1.0000 0.07309  0.41279  0.95170  Biso   1.000  C
  C864     1.0000 0.14530  0.41269  0.04761  Biso   1.000  C
  C865     1.0000 0.01358  0.09011  0.30910  Biso   1.000  C
  C866     1.0000 0.01363  0.09011  0.30910  Biso   1.000  C
  C867     1.0000 0.90989  0.30910  0.98642  Biso   1.000  C
  H1460    1.0000 0.98190  0.05470  0.16311  Biso   1.000  H
  H1461    1.0000 0.05002  0.04939  0.20212  Biso   1.000  H
  C868     1.0000 0.95239  0.85470  0.41269  Biso   1.000  C
  Br161    1.0000 0.07226  0.92961  0.41968  Biso   1.000  Br
  C869     1.0000 0.05150  0.80679  0.36109  Biso   1.000  C
  Br162    1.0000 0.05755  0.79867  0.35357  Biso   1.000  Br
  C870     1.0000 0.04830  0.92691  0.41279  Biso   1.000  C
  Br163    1.0000 0.41968  0.92774  0.07039  Biso   1.000  Br
  C871     1.0000 0.36109  0.94850  0.19321  Biso   1.000  C
  Br164    1.0000 0.35357  0.94245  0.20133  Biso   1.000  Br
  C872     1.0000 0.41279  0.95170  0.07309  Biso   1.000  C
  C873     1.0000 0.41269  0.04761  0.14530  Biso   1.000  C
  H1462    1.0000 0.42273  0.92622  0.89390  Biso   1.000  H
  H1463    1.0000 0.38888  0.92509  0.82282  Biso   1.000  H
  H1464    1.0000 0.45371  0.96808  0.83502  Biso   1.000  H
  H1465    1.0000 0.45371  0.96813  0.83502  Biso   1.000  H
  H1466    1.0000 0.40428  0.06468  0.79011  Biso   1.000  H
  H1467    1.0000 0.33920  0.02351  0.77418  Biso   1.000  H
  H1468    1.0000 0.33419  0.09070  0.81490  Biso   1.000  H
  H1469    1.0000 0.33920  0.02351  0.77423  Biso   1.000  H
  H1470    1.0000 0.40433  0.06468  0.79011  Biso   1.000  H
  H1471    1.0000 0.45278  0.06532  0.90610  Biso   1.000  H
  H1472    1.0000 0.38751  0.08490  0.94540  Biso   1.000  H
  H1473    1.0000 0.42489  0.01771  0.96222  Biso   1.000  H
  H1474    1.0000 0.20989  0.40428  0.93532  Biso   1.000  H
  H1475    1.0000 0.22582  0.33920  0.97649  Biso   1.000  H
  H1476    1.0000 0.18510  0.33419  0.90930  Biso   1.000  H
  H1477    1.0000 0.20989  0.40433  0.93532  Biso   1.000  H
  H1478    1.0000 0.09390  0.45278  0.93473  Biso   1.000  H
  H1479    1.0000 0.05460  0.38751  0.91510  Biso   1.000  H
  H1480    1.0000 0.03778  0.42489  0.98229  Biso   1.000  H
  H1481    1.0000 0.10610  0.42273  0.07378  Biso   1.000  H
  H1482    1.0000 0.17718  0.38888  0.07491  Biso   1.000  H
  H1483    1.0000 0.16498  0.45371  0.03192  Biso   1.000  H
  H1484    1.0000 0.17723  0.38888  0.07491  Biso   1.000  H
  H1485    1.0000 0.16503  0.45371  0.03192  Biso   1.000  H
  C874     1.0000 0.98869  0.12582  0.37000  Biso   1.000  C
  O83      1.0000 0.07329  0.08146  0.30349  Biso   1.000  O
  O84      1.0000 0.91854  0.30349  0.92671  Biso   1.000  O
  C875     1.0000 0.87418  0.37000  0.01131  Biso   1.000  C
  C876     1.0000 0.87423  0.37000  0.01131  Biso   1.000  C
  H1486    1.0000 0.92622  0.89390  0.42273  Biso   1.000  H
  H1487    1.0000 0.92509  0.82282  0.38888  Biso   1.000  H
  H1488    1.0000 0.96808  0.83502  0.45371  Biso   1.000  H
  H1489    1.0000 0.96813  0.83502  0.45371  Biso   1.000  H
  H1490    1.0000 0.06468  0.79011  0.40428  Biso   1.000  H
  H1491    1.0000 0.02351  0.77418  0.33920  Biso   1.000  H
  H1492    1.0000 0.09070  0.81490  0.33419  Biso   1.000  H
  H1493    1.0000 0.06468  0.79011  0.40433  Biso   1.000  H
  H1494    1.0000 0.02351  0.77423  0.33920  Biso   1.000  H
  H1495    1.0000 0.06532  0.90610  0.45278  Biso   1.000  H
  H1496    1.0000 0.08490  0.94540  0.38751  Biso   1.000  H
  H1497    1.0000 0.01771  0.96222  0.42489  Biso   1.000  H
  H1498    1.0000 0.40428  0.93532  0.20989  Biso   1.000  H
  H1499    1.0000 0.33920  0.97649  0.22582  Biso   1.000  H
  H1500    1.0000 0.33419  0.90930  0.18510  Biso   1.000  H
  H1501    1.0000 0.40433  0.93532  0.20989  Biso   1.000  H
  H1502    1.0000 0.45278  0.93473  0.09390  Biso   1.000  H
  H1503    1.0000 0.38751  0.91510  0.05460  Biso   1.000  H
  H1504    1.0000 0.42489  0.98229  0.03778  Biso   1.000  H
  H1505    1.0000 0.42273  0.07378  0.10610  Biso   1.000  H
  H1506    1.0000 0.38888  0.07491  0.17718  Biso   1.000  H
  H1507    1.0000 0.45371  0.03192  0.16498  Biso   1.000  H
  H1508    1.0000 0.38888  0.07491  0.17723  Biso   1.000  H
  H1509    1.0000 0.45371  0.03192  0.16503  Biso   1.000  H
  Br165    1.0000 0.92774  0.07039  0.41968  Biso   1.000  Br
  C877     1.0000 0.94850  0.19321  0.36109  Biso   1.000  C
  Br166    1.0000 0.94245  0.20133  0.35357  Biso   1.000  Br
  C878     1.0000 0.95170  0.07309  0.41279  Biso   1.000  C
  C879     1.0000 0.04761  0.14530  0.41269  Biso   1.000  C
  C880     1.0000 0.85470  0.41269  0.95239  Biso   1.000  C
  Br167    1.0000 0.92961  0.41968  0.07226  Biso   1.000  Br
  C881     1.0000 0.80679  0.36109  0.05150  Biso   1.000  C
  Br168    1.0000 0.79867  0.35357  0.05755  Biso   1.000  Br
  C882     1.0000 0.92691  0.41279  0.04830  Biso   1.000  C
  H1510    1.0000 0.93532  0.20989  0.40428  Biso   1.000  H
  H1511    1.0000 0.97649  0.22582  0.33920  Biso   1.000  H
  H1512    1.0000 0.90930  0.18510  0.33419  Biso   1.000  H
  H1513    1.0000 0.93532  0.20989  0.40433  Biso   1.000  H
  H1514    1.0000 0.93473  0.09390  0.45278  Biso   1.000  H
  H1515    1.0000 0.91510  0.05460  0.38751  Biso   1.000  H
  H1516    1.0000 0.98229  0.03778  0.42489  Biso   1.000  H
  H1517    1.0000 0.07378  0.10610  0.42273  Biso   1.000  H
  H1518    1.0000 0.07491  0.17718  0.38888  Biso   1.000  H
  H1519    1.0000 0.03192  0.16498  0.45371  Biso   1.000  H
  H1520    1.0000 0.07491  0.17723  0.38888  Biso   1.000  H
  H1521    1.0000 0.03192  0.16503  0.45371  Biso   1.000  H
  H1522    1.0000 0.89390  0.42273  0.92622  Biso   1.000  H
  H1523    1.0000 0.82282  0.38888  0.92509  Biso   1.000  H
  H1524    1.0000 0.83502  0.45371  0.96808  Biso   1.000  H
  H1525    1.0000 0.83502  0.45371  0.96813  Biso   1.000  H
  H1526    1.0000 0.79011  0.40428  0.06468  Biso   1.000  H
  H1527    1.0000 0.77418  0.33920  0.02351  Biso   1.000  H
  H1528    1.0000 0.81490  0.33419  0.09070  Biso   1.000  H
  H1529    1.0000 0.79011  0.40433  0.06468  Biso   1.000  H
  H1530    1.0000 0.77423  0.33920  0.02351  Biso   1.000  H
  H1531    1.0000 0.90610  0.45278  0.06532  Biso   1.000  H
  H1532    1.0000 0.94540  0.38751  0.08490  Biso   1.000  H
  H1533    1.0000 0.96222  0.42489  0.01771  Biso   1.000  H
  C883     1.0000 0.90915  0.83242  0.82086  Biso   1.000  C
  C884     1.0000 0.87575  0.88810  0.79882  Biso   1.000  C
  C885     1.0000 0.88810  0.79882  0.87575  Biso   1.000  C
  H1534    1.0000 0.94688  0.81741  0.79769  Biso   1.000  H
  H1535    1.0000 0.94693  0.81741  0.79769  Biso   1.000  H
  C886     1.0000 0.90059  0.92700  0.73984  Biso   1.000  C
  C887     1.0000 0.82086  0.90915  0.83242  Biso   1.000  C
  C888     1.0000 0.83242  0.82086  0.90915  Biso   1.000  C
  C889     1.0000 0.92700  0.73984  0.90059  Biso   1.000  C
  N127     1.0000 0.97245  0.93109  0.73896  Biso   1.000  N
  N128     1.0000 0.97245  0.93114  0.73896  Biso   1.000  N
  H1536    1.0000 0.88190  0.97191  0.74132  Biso   1.000  H
  H1537    1.0000 0.88519  0.90561  0.69892  Biso   1.000  H
  C890     1.0000 0.79882  0.87575  0.88810  Biso   1.000  C
  H1538    1.0000 0.79769  0.94688  0.81741  Biso   1.000  H
  H1539    1.0000 0.79769  0.94693  0.81741  Biso   1.000  H
  H1540    1.0000 0.81741  0.79769  0.94688  Biso   1.000  H
  H1541    1.0000 0.81741  0.79769  0.94693  Biso   1.000  H
  H1542    1.0000 0.97191  0.74132  0.88190  Biso   1.000  H
  H1543    1.0000 0.90561  0.69892  0.88519  Biso   1.000  H
  N129     1.0000 0.93109  0.73896  0.97245  Biso   1.000  N
  N130     1.0000 0.93114  0.73896  0.97245  Biso   1.000  N
  C891     1.0000 0.01358  0.90989  0.69090  Biso   1.000  C
  C892     1.0000 0.01363  0.90989  0.69090  Biso   1.000  C
  C893     1.0000 0.00290  0.96272  0.79651  Biso   1.000  C
  C894     1.0000 0.73984  0.90059  0.92700  Biso   1.000  C
  C895     1.0000 0.96272  0.79651  0.00290  Biso   1.000  C
  C896     1.0000 0.90989  0.69090  0.01358  Biso   1.000  C
  C897     1.0000 0.90989  0.69090  0.01363  Biso   1.000  C
  C898     1.0000 0.98869  0.87418  0.63000  Biso   1.000  C
  C899     1.0000 0.98869  0.87423  0.63000  Biso   1.000  C
  O85      1.0000 0.07329  0.91854  0.69651  Biso   1.000  O
  H1544    1.0000 0.98190  0.94530  0.83689  Biso   1.000  H
  C900     1.0000 0.99710  0.03728  0.79651  Biso   1.000  C
  H1545    1.0000 0.05002  0.95061  0.79788  Biso   1.000  H
  H1546    1.0000 0.74132  0.88190  0.97191  Biso   1.000  H
  H1547    1.0000 0.69892  0.88519  0.90561  Biso   1.000  H
  N131     1.0000 0.73896  0.97245  0.93109  Biso   1.000  N
  N132     1.0000 0.73896  0.97245  0.93114  Biso   1.000  N
  H1548    1.0000 0.94530  0.83689  0.98190  Biso   1.000  H
  H1549    1.0000 0.95061  0.79788  0.05002  Biso   1.000  H
  C901     1.0000 0.03728  0.79651  0.99710  Biso   1.000  C
  C902     1.0000 0.87418  0.63000  0.98869  Biso   1.000  C
  C903     1.0000 0.87423  0.63000  0.98869  Biso   1.000  C
  O86      1.0000 0.91854  0.69651  0.07329  Biso   1.000  O
  C904     1.0000 0.94850  0.80679  0.63891  Biso   1.000  C
  Br169    1.0000 0.92774  0.92961  0.58032  Biso   1.000  Br
  Br170    1.0000 0.94245  0.79867  0.64643  Biso   1.000  Br
  C905     1.0000 0.95170  0.92691  0.58721  Biso   1.000  C
  C906     1.0000 0.04761  0.85470  0.58731  Biso   1.000  C
  H1550    1.0000 0.94998  0.04939  0.79788  Biso   1.000  H
  H1551    1.0000 0.95002  0.04939  0.79788  Biso   1.000  H
  N133     1.0000 0.02755  0.06891  0.73896  Biso   1.000  N
  H1552    1.0000 0.01810  0.05470  0.83689  Biso   1.000  H
  C907     1.0000 0.79651  0.00290  0.96272  Biso   1.000  C
  C908     1.0000 0.69090  0.01358  0.90989  Biso   1.000  C
  C909     1.0000 0.69090  0.01363  0.90989  Biso   1.000  C
  H1553    1.0000 0.04939  0.79788  0.94998  Biso   1.000  H
  H1554    1.0000 0.04939  0.79788  0.95002  Biso   1.000  H
  N134     1.0000 0.06891  0.73896  0.02755  Biso   1.000  N
  H1555    1.0000 0.05470  0.83689  0.01810  Biso   1.000  H
  Br171    1.0000 0.92961  0.58032  0.92774  Biso   1.000  Br
  C910     1.0000 0.80679  0.63891  0.94850  Biso   1.000  C
  Br172    1.0000 0.79867  0.64643  0.94245  Biso   1.000  Br
  C911     1.0000 0.92691  0.58721  0.95170  Biso   1.000  C
  C912     1.0000 0.85470  0.58731  0.04761  Biso   1.000  C
  H1556    1.0000 0.93532  0.79011  0.59572  Biso   1.000  H
  H1557    1.0000 0.90930  0.81490  0.66581  Biso   1.000  H
  H1558    1.0000 0.97649  0.77418  0.66080  Biso   1.000  H
  H1559    1.0000 0.97649  0.77423  0.66080  Biso   1.000  H
  H1560    1.0000 0.93473  0.90610  0.54722  Biso   1.000  H
  H1561    1.0000 0.91510  0.94540  0.61249  Biso   1.000  H
  H1562    1.0000 0.98229  0.96222  0.57511  Biso   1.000  H
  H1563    1.0000 0.07378  0.89390  0.57727  Biso   1.000  H
  H1564    1.0000 0.07491  0.82282  0.61112  Biso   1.000  H
  H1565    1.0000 0.03192  0.83502  0.54629  Biso   1.000  H
  H1566    1.0000 0.07378  0.89390  0.57732  Biso   1.000  H
  C913     1.0000 0.98642  0.09011  0.69090  Biso   1.000  C
  C914     1.0000 0.09941  0.07300  0.73984  Biso   1.000  C
  H1567    1.0000 0.83689  0.98190  0.94530  Biso   1.000  H
  C915     1.0000 0.79651  0.99710  0.03728  Biso   1.000  C
  H1568    1.0000 0.79788  0.05002  0.95061  Biso   1.000  H
  C916     1.0000 0.63000  0.98869  0.87418  Biso   1.000  C
  C917     1.0000 0.63000  0.98869  0.87423  Biso   1.000  C
  O87      1.0000 0.69651  0.07329  0.91854  Biso   1.000  O
  C918     1.0000 0.09011  0.69090  0.98642  Biso   1.000  C
  C919     1.0000 0.07300  0.73984  0.09941  Biso   1.000  C
  H1569    1.0000 0.79011  0.59572  0.93532  Biso   1.000  H
  H1570    1.0000 0.81490  0.66581  0.90930  Biso   1.000  H
  H1571    1.0000 0.77418  0.66080  0.97649  Biso   1.000  H
  H1572    1.0000 0.77423  0.66080  0.97649  Biso   1.000  H
  H1573    1.0000 0.90610  0.54722  0.93473  Biso   1.000  H
  H1574    1.0000 0.94540  0.61249  0.91510  Biso   1.000  H
  H1575    1.0000 0.96222  0.57511  0.98229  Biso   1.000  H
  H1576    1.0000 0.89390  0.57727  0.07378  Biso   1.000  H
  H1577    1.0000 0.82282  0.61112  0.07491  Biso   1.000  H
  H1578    1.0000 0.83502  0.54629  0.03192  Biso   1.000  H
  H1579    1.0000 0.89390  0.57732  0.07378  Biso   1.000  H
  O88      1.0000 0.92671  0.08146  0.69651  Biso   1.000  O
  C920     1.0000 0.01131  0.12582  0.63000  Biso   1.000  C
  C921     1.0000 0.12425  0.11190  0.79882  Biso   1.000  C
  H1580    1.0000 0.11810  0.02809  0.74132  Biso   1.000  H
  H1581    1.0000 0.11481  0.09439  0.69892  Biso   1.000  H
  H1582    1.0000 0.79788  0.94998  0.04939  Biso   1.000  H
  H1583    1.0000 0.79788  0.95002  0.04939  Biso   1.000  H
  N135     1.0000 0.73896  0.02755  0.06891  Biso   1.000  N
  H1584    1.0000 0.83689  0.01810  0.05470  Biso   1.000  H
  Br173    1.0000 0.58032  0.92774  0.92961  Biso   1.000  Br
  C922     1.0000 0.63891  0.94850  0.80679  Biso   1.000  C
  Br174    1.0000 0.64643  0.94245  0.79867  Biso   1.000  Br
  C923     1.0000 0.58721  0.95170  0.92691  Biso   1.000  C
  C924     1.0000 0.58731  0.04761  0.85470  Biso   1.000  C
  O89      1.0000 0.08146  0.69651  0.92671  Biso   1.000  O
  C925     1.0000 0.12582  0.63000  0.01131  Biso   1.000  C
  C926     1.0000 0.11190  0.79882  0.12425  Biso   1.000  C
  H1585    1.0000 0.02809  0.74132  0.11810  Biso   1.000  H
  H1586    1.0000 0.09439  0.69892  0.11481  Biso   1.000  H
  C927     1.0000 0.95239  0.14530  0.58731  Biso   1.000  C
  Br175    1.0000 0.07226  0.07039  0.58032  Biso   1.000  Br
  C928     1.0000 0.05150  0.19321  0.63891  Biso   1.000  C
  Br176    1.0000 0.05755  0.20133  0.64643  Biso   1.000  Br
  C929     1.0000 0.04830  0.07309  0.58721  Biso   1.000  C
  C930     1.0000 0.17914  0.09085  0.83242  Biso   1.000  C
  C931     1.0000 0.09085  0.16758  0.82086  Biso   1.000  C
  C932     1.0000 0.69090  0.98642  0.09011  Biso   1.000  C
  C933     1.0000 0.73984  0.09941  0.07300  Biso   1.000  C
  H1587    1.0000 0.59572  0.93532  0.79011  Biso   1.000  H
  H1588    1.0000 0.66581  0.90930  0.81490  Biso   1.000  H
  H1589    1.0000 0.66080  0.97649  0.77418  Biso   1.000  H
  H1590    1.0000 0.66080  0.97649  0.77423  Biso   1.000  H
  H1591    1.0000 0.54722  0.93473  0.90610  Biso   1.000  H
  H1592    1.0000 0.61249  0.91510  0.94540  Biso   1.000  H
  H1593    1.0000 0.57511  0.98229  0.96222  Biso   1.000  H
  H1594    1.0000 0.57727  0.07378  0.89390  Biso   1.000  H
  H1595    1.0000 0.61112  0.07491  0.82282  Biso   1.000  H
  H1596    1.0000 0.54629  0.03192  0.83502  Biso   1.000  H
  H1597    1.0000 0.57732  0.07378  0.89390  Biso   1.000  H
  C934     1.0000 0.14530  0.58731  0.95239  Biso   1.000  C
  Br177    1.0000 0.07039  0.58032  0.07226  Biso   1.000  Br
  C935     1.0000 0.19321  0.63891  0.05150  Biso   1.000  C
  Br178    1.0000 0.20133  0.64643  0.05755  Biso   1.000  Br
  C936     1.0000 0.07309  0.58721  0.04830  Biso   1.000  C
  C937     1.0000 0.09085  0.83242  0.17914  Biso   1.000  C
  C938     1.0000 0.16758  0.82086  0.09085  Biso   1.000  C
  H1598    1.0000 0.92622  0.10610  0.57727  Biso   1.000  H
  H1599    1.0000 0.92509  0.17718  0.61112  Biso   1.000  H
  H1600    1.0000 0.96808  0.16498  0.54629  Biso   1.000  H
  H1601    1.0000 0.92622  0.10610  0.57732  Biso   1.000  H
  H1602    1.0000 0.92509  0.17723  0.61112  Biso   1.000  H
  H1603    1.0000 0.96808  0.16503  0.54629  Biso   1.000  H
  H1604    1.0000 0.96813  0.16498  0.54629  Biso   1.000  H
  H1605    1.0000 0.96813  0.16503  0.54629  Biso   1.000  H
  H1606    1.0000 0.06468  0.20989  0.59572  Biso   1.000  H
  H1607    1.0000 0.02351  0.22582  0.66080  Biso   1.000  H
  H1608    1.0000 0.09070  0.18510  0.66581  Biso   1.000  H
  H1609    1.0000 0.06532  0.09390  0.54722  Biso   1.000  H
  H1610    1.0000 0.08490  0.05460  0.61249  Biso   1.000  H
  H1611    1.0000 0.01771  0.03778  0.57511  Biso   1.000  H
  H1612    1.0000 0.20231  0.05312  0.81741  Biso   1.000  H
  C939     1.0000 0.20118  0.12425  0.88810  Biso   1.000  C
  C940     1.0000 0.20123  0.12425  0.88810  Biso   1.000  C
  H1613    1.0000 0.05312  0.18259  0.79769  Biso   1.000  H
  C941     1.0000 0.11190  0.20118  0.87575  Biso   1.000  C
  C942     1.0000 0.11190  0.20123  0.87575  Biso   1.000  C
  O90      1.0000 0.69651  0.92671  0.08146  Biso   1.000  O
  C943     1.0000 0.63000  0.01131  0.12582  Biso   1.000  C
  C944     1.0000 0.79882  0.12425  0.11190  Biso   1.000  C
  H1614    1.0000 0.74132  0.11810  0.02809  Biso   1.000  H
  H1615    1.0000 0.69892  0.11481  0.09439  Biso   1.000  H
  H1616    1.0000 0.10610  0.57727  0.92622  Biso   1.000  H
  H1617    1.0000 0.17718  0.61112  0.92509  Biso   1.000  H
  H1618    1.0000 0.16498  0.54629  0.96808  Biso   1.000  H
  H1619    1.0000 0.16498  0.54629  0.96813  Biso   1.000  H
  H1620    1.0000 0.10610  0.57732  0.92622  Biso   1.000  H
  H1621    1.0000 0.17723  0.61112  0.92509  Biso   1.000  H
  H1622    1.0000 0.16503  0.54629  0.96808  Biso   1.000  H
  H1623    1.0000 0.16503  0.54629  0.96813  Biso   1.000  H
  H1624    1.0000 0.20989  0.59572  0.06468  Biso   1.000  H
  H1625    1.0000 0.22582  0.66080  0.02351  Biso   1.000  H
  H1626    1.0000 0.18510  0.66581  0.09070  Biso   1.000  H
  H1627    1.0000 0.09390  0.54722  0.06532  Biso   1.000  H
  H1628    1.0000 0.05460  0.61249  0.08490  Biso   1.000  H
  H1629    1.0000 0.03778  0.57511  0.01771  Biso   1.000  H
  H1630    1.0000 0.05312  0.81741  0.20231  Biso   1.000  H
  C945     1.0000 0.12425  0.88810  0.20118  Biso   1.000  C
  C946     1.0000 0.12425  0.88810  0.20123  Biso   1.000  C
  C947     1.0000 0.20118  0.87575  0.11190  Biso   1.000  C
  H1631    1.0000 0.18259  0.79769  0.05312  Biso   1.000  H
  C948     1.0000 0.20123  0.87575  0.11190  Biso   1.000  C
  C949     1.0000 0.26016  0.09941  0.92700  Biso   1.000  C
  C950     1.0000 0.16758  0.17914  0.90915  Biso   1.000  C
  C951     1.0000 0.07300  0.26016  0.90059  Biso   1.000  C
  C952     1.0000 0.58731  0.95239  0.14530  Biso   1.000  C
  Br179    1.0000 0.58032  0.07226  0.07039  Biso   1.000  Br
  C953     1.0000 0.63891  0.05150  0.19321  Biso   1.000  C
  Br180    1.0000 0.64643  0.05755  0.20133  Biso   1.000  Br
  C954     1.0000 0.58721  0.04830  0.07309  Biso   1.000  C
  C955     1.0000 0.82086  0.09085  0.16758  Biso   1.000  C
  C956     1.0000 0.83242  0.17914  0.09085  Biso   1.000  C
  C957     1.0000 0.09941  0.92700  0.26016  Biso   1.000  C
  C958     1.0000 0.17914  0.90915  0.16758  Biso   1.000  C
  C959     1.0000 0.26016  0.90059  0.07300  Biso   1.000  C
  N136     1.0000 0.26104  0.02755  0.93109  Biso   1.000  N
  H1632    1.0000 0.25868  0.11810  0.97191  Biso   1.000  H
  H1633    1.0000 0.30108  0.11481  0.90561  Biso   1.000  H
  N137     1.0000 0.26104  0.02755  0.93114  Biso   1.000  N
  H1634    1.0000 0.18259  0.20231  0.94688  Biso   1.000  H
  H1635    1.0000 0.18259  0.20231  0.94693  Biso   1.000  H
  N138     1.0000 0.06891  0.26104  0.97245  Biso   1.000  N
  H1636    1.0000 0.02809  0.25868  0.88190  Biso   1.000  H
  H1637    1.0000 0.09439  0.30108  0.88519  Biso   1.000  H
  H1638    1.0000 0.57727  0.92622  0.10610  Biso   1.000  H
  H1639    1.0000 0.61112  0.92509  0.17718  Biso   1.000  H
  H1640    1.0000 0.54629  0.96808  0.16498  Biso   1.000  H
  H1641    1.0000 0.61112  0.92509  0.17723  Biso   1.000  H
  H1642    1.0000 0.54629  0.96808  0.16503  Biso   1.000  H
  H1643    1.0000 0.54629  0.96813  0.16498  Biso   1.000  H
  H1644    1.0000 0.54629  0.96813  0.16503  Biso   1.000  H
  H1645    1.0000 0.57732  0.92622  0.10610  Biso   1.000  H
  H1646    1.0000 0.59572  0.06468  0.20989  Biso   1.000  H
  H1647    1.0000 0.66080  0.02351  0.22582  Biso   1.000  H
  H1648    1.0000 0.66581  0.09070  0.18510  Biso   1.000  H
  H1649    1.0000 0.54722  0.06532  0.09390  Biso   1.000  H
  H1650    1.0000 0.61249  0.08490  0.05460  Biso   1.000  H
  H1651    1.0000 0.57511  0.01771  0.03778  Biso   1.000  H
  H1652    1.0000 0.79769  0.05312  0.18259  Biso   1.000  H
  C960     1.0000 0.87575  0.11190  0.20118  Biso   1.000  C
  C961     1.0000 0.87575  0.11190  0.20123  Biso   1.000  C
  H1653    1.0000 0.81741  0.20231  0.05312  Biso   1.000  H
  C962     1.0000 0.88810  0.20118  0.12425  Biso   1.000  C
  C963     1.0000 0.88810  0.20123  0.12425  Biso   1.000  C
  N139     1.0000 0.02755  0.93109  0.26104  Biso   1.000  N
  H1654    1.0000 0.11810  0.97191  0.25868  Biso   1.000  H
  H1655    1.0000 0.11481  0.90561  0.30108  Biso   1.000  H
  N140     1.0000 0.02755  0.93114  0.26104  Biso   1.000  N
  H1656    1.0000 0.20231  0.94688  0.18259  Biso   1.000  H
  H1657    1.0000 0.20231  0.94693  0.18259  Biso   1.000  H
  N141     1.0000 0.26104  0.97245  0.06891  Biso   1.000  N
  H1658    1.0000 0.25868  0.88190  0.02809  Biso   1.000  H
  H1659    1.0000 0.30108  0.88519  0.09439  Biso   1.000  H
  C964     1.0000 0.20349  0.99710  0.96272  Biso   1.000  C
  C965     1.0000 0.30910  0.98642  0.90989  Biso   1.000  C
  C966     1.0000 0.03728  0.20349  0.00290  Biso   1.000  C
  C967     1.0000 0.09011  0.30910  0.01358  Biso   1.000  C
  C968     1.0000 0.09011  0.30910  0.01363  Biso   1.000  C
  C969     1.0000 0.90915  0.16758  0.17914  Biso   1.000  C
  C970     1.0000 0.90059  0.07300  0.26016  Biso   1.000  C
  C971     1.0000 0.92700  0.26016  0.09941  Biso   1.000  C
  C972     1.0000 0.99710  0.96272  0.20349  Biso   1.000  C
  C973     1.0000 0.98642  0.90989  0.30910  Biso   1.000  C
  C974     1.0000 0.20349  0.00290  0.03728  Biso   1.000  C
  C975     1.0000 0.30910  0.01358  0.09011  Biso   1.000  C
  C976     1.0000 0.30910  0.01363  0.09011  Biso   1.000  C
  H1660    1.0000 0.20212  0.94998  0.95061  Biso   1.000  H
  H1661    1.0000 0.20212  0.95002  0.95061  Biso   1.000  H
  H1662    1.0000 0.16311  0.01810  0.94530  Biso   1.000  H
  O91      1.0000 0.30349  0.92671  0.91854  Biso   1.000  O
  C977     1.0000 0.37000  0.01131  0.87418  Biso   1.000  C
  C978     1.0000 0.37000  0.01131  0.87423  Biso   1.000  C
  C979     1.0000 0.96272  0.20349  0.99710  Biso   1.000  C
  H1663    1.0000 0.05470  0.16311  0.98190  Biso   1.000  H
  H1664    1.0000 0.04939  0.20212  0.05002  Biso   1.000  H
  C980     1.0000 0.12582  0.37000  0.98869  Biso   1.000  C
  O92      1.0000 0.08146  0.30349  0.07329  Biso   1.000  O
  H1665    1.0000 0.94688  0.18259  0.20231  Biso   1.000  H
  H1666    1.0000 0.94693  0.18259  0.20231  Biso   1.000  H
  N142     1.0000 0.97245  0.06891  0.26104  Biso   1.000  N
  H1667    1.0000 0.88190  0.02809  0.25868  Biso   1.000  H
  H1668    1.0000 0.88519  0.09439  0.30108  Biso   1.000  H
  N143     1.0000 0.93109  0.26104  0.02755  Biso   1.000  N
  N144     1.0000 0.93114  0.26104  0.02755  Biso   1.000  N
  H1669    1.0000 0.97191  0.25868  0.11810  Biso   1.000  H
  H1670    1.0000 0.90561  0.30108  0.11481  Biso   1.000  H
  C981     1.0000 0.00290  0.03728  0.20349  Biso   1.000  C
  H1671    1.0000 0.94998  0.95061  0.20212  Biso   1.000  H
  H1672    1.0000 0.95002  0.95061  0.20212  Biso   1.000  H
  H1673    1.0000 0.01810  0.94530  0.16311  Biso   1.000  H
  O93      1.0000 0.92671  0.91854  0.30349  Biso   1.000  O
  C982     1.0000 0.01131  0.87418  0.37000  Biso   1.000  C
  C983     1.0000 0.01131  0.87423  0.37000  Biso   1.000  C
  H1674    1.0000 0.16311  0.98190  0.05470  Biso   1.000  H
  H1675    1.0000 0.20212  0.05002  0.04939  Biso   1.000  H
  C984     1.0000 0.37000  0.98869  0.12582  Biso   1.000  C
  O94      1.0000 0.30349  0.07329  0.08146  Biso   1.000  O
  C985     1.0000 0.41269  0.95239  0.85470  Biso   1.000  C
  Br181    1.0000 0.41968  0.07226  0.92961  Biso   1.000  Br
  C986     1.0000 0.36109  0.05150  0.80679  Biso   1.000  C
  Br182    1.0000 0.35357  0.05755  0.79867  Biso   1.000  Br
  C987     1.0000 0.41279  0.04830  0.92691  Biso   1.000  C
  H1676    1.0000 0.95061  0.20212  0.94998  Biso   1.000  H
  H1677    1.0000 0.95061  0.20212  0.95002  Biso   1.000  H
  H1678    1.0000 0.94530  0.16311  0.01810  Biso   1.000  H
  Br183    1.0000 0.07039  0.41968  0.92774  Biso   1.000  Br
  C988     1.0000 0.19321  0.36109  0.94850  Biso   1.000  C
  Br184    1.0000 0.20133  0.35357  0.94245  Biso   1.000  Br
  C989     1.0000 0.07309  0.41279  0.95170  Biso   1.000  C
  C990     1.0000 0.14530  0.41269  0.04761  Biso   1.000  C
  C991     1.0000 0.01358  0.09011  0.30910  Biso   1.000  C
  C992     1.0000 0.01363  0.09011  0.30910  Biso   1.000  C
  C993     1.0000 0.90989  0.30910  0.98642  Biso   1.000  C
  H1679    1.0000 0.98190  0.05470  0.16311  Biso   1.000  H
  H1680    1.0000 0.05002  0.04939  0.20212  Biso   1.000  H
  C994     1.0000 0.95239  0.85470  0.41269  Biso   1.000  C
  Br185    1.0000 0.07226  0.92961  0.41968  Biso   1.000  Br
  C995     1.0000 0.05150  0.80679  0.36109  Biso   1.000  C
  Br186    1.0000 0.05755  0.79867  0.35357  Biso   1.000  Br
  C996     1.0000 0.04830  0.92691  0.41279  Biso   1.000  C
  Br187    1.0000 0.41968  0.92774  0.07039  Biso   1.000  Br
  C997     1.0000 0.36109  0.94850  0.19321  Biso   1.000  C
  Br188    1.0000 0.35357  0.94245  0.20133  Biso   1.000  Br
  C998     1.0000 0.41279  0.95170  0.07309  Biso   1.000  C
  C999     1.0000 0.41269  0.04761  0.14530  Biso   1.000  C
  H1681    1.0000 0.42273  0.92622  0.89390  Biso   1.000  H
  H1682    1.0000 0.38888  0.92509  0.82282  Biso   1.000  H
  H1683    1.0000 0.45371  0.96808  0.83502  Biso   1.000  H
  H1684    1.0000 0.45371  0.96813  0.83502  Biso   1.000  H
  H1685    1.0000 0.40428  0.06468  0.79011  Biso   1.000  H
  H1686    1.0000 0.33920  0.02351  0.77418  Biso   1.000  H
  H1687    1.0000 0.33419  0.09070  0.81490  Biso   1.000  H
  H1688    1.0000 0.33920  0.02351  0.77423  Biso   1.000  H
  H1689    1.0000 0.40433  0.06468  0.79011  Biso   1.000  H
  H1690    1.0000 0.45278  0.06532  0.90610  Biso   1.000  H
  H1691    1.0000 0.38751  0.08490  0.94540  Biso   1.000  H
  H1692    1.0000 0.42489  0.01771  0.96222  Biso   1.000  H
  H1693    1.0000 0.20989  0.40428  0.93532  Biso   1.000  H
  H1694    1.0000 0.22582  0.33920  0.97649  Biso   1.000  H
  H1695    1.0000 0.18510  0.33419  0.90930  Biso   1.000  H
  H1696    1.0000 0.20989  0.40433  0.93532  Biso   1.000  H
  H1697    1.0000 0.09390  0.45278  0.93473  Biso   1.000  H
  H1698    1.0000 0.05460  0.38751  0.91510  Biso   1.000  H
  H1699    1.0000 0.03778  0.42489  0.98229  Biso   1.000  H
  H1700    1.0000 0.10610  0.42273  0.07378  Biso   1.000  H
  H1701    1.0000 0.17718  0.38888  0.07491  Biso   1.000  H
  H1702    1.0000 0.16498  0.45371  0.03192  Biso   1.000  H
  H1703    1.0000 0.17723  0.38888  0.07491  Biso   1.000  H
  H1704    1.0000 0.16503  0.45371  0.03192  Biso   1.000  H
  C1000    1.0000 0.98869  0.12582  0.37000  Biso   1.000  C
  O95      1.0000 0.07329  0.08146  0.30349  Biso   1.000  O
  O96      1.0000 0.91854  0.30349  0.92671  Biso   1.000  O
  C1001    1.0000 0.87418  0.37000  0.01131  Biso   1.000  C
  C1002    1.0000 0.87423  0.37000  0.01131  Biso   1.000  C
  H1705    1.0000 0.92622  0.89390  0.42273  Biso   1.000  H
  H1706    1.0000 0.92509  0.82282  0.38888  Biso   1.000  H
  H1707    1.0000 0.96808  0.83502  0.45371  Biso   1.000  H
  H1708    1.0000 0.96813  0.83502  0.45371  Biso   1.000  H
  H1709    1.0000 0.06468  0.79011  0.40428  Biso   1.000  H
  H1710    1.0000 0.02351  0.77418  0.33920  Biso   1.000  H
  H1711    1.0000 0.09070  0.81490  0.33419  Biso   1.000  H
  H1712    1.0000 0.06468  0.79011  0.40433  Biso   1.000  H
  H1713    1.0000 0.02351  0.77423  0.33920  Biso   1.000  H
  H1714    1.0000 0.06532  0.90610  0.45278  Biso   1.000  H
  H1715    1.0000 0.08490  0.94540  0.38751  Biso   1.000  H
  H1716    1.0000 0.01771  0.96222  0.42489  Biso   1.000  H
  H1717    1.0000 0.40428  0.93532  0.20989  Biso   1.000  H
  H1718    1.0000 0.33920  0.97649  0.22582  Biso   1.000  H
  H1719    1.0000 0.33419  0.90930  0.18510  Biso   1.000  H
  H1720    1.0000 0.40433  0.93532  0.20989  Biso   1.000  H
  H1721    1.0000 0.45278  0.93473  0.09390  Biso   1.000  H
  H1722    1.0000 0.38751  0.91510  0.05460  Biso   1.000  H
  H1723    1.0000 0.42489  0.98229  0.03778  Biso   1.000  H
  H1724    1.0000 0.42273  0.07378  0.10610  Biso   1.000  H
  H1725    1.0000 0.38888  0.07491  0.17718  Biso   1.000  H
  H1726    1.0000 0.45371  0.03192  0.16498  Biso   1.000  H
  H1727    1.0000 0.38888  0.07491  0.17723  Biso   1.000  H
  H1728    1.0000 0.45371  0.03192  0.16503  Biso   1.000  H
  Br189    1.0000 0.92774  0.07039  0.41968  Biso   1.000  Br
  C1003    1.0000 0.94850  0.19321  0.36109  Biso   1.000  C
  Br190    1.0000 0.94245  0.20133  0.35357  Biso   1.000  Br
  C1004    1.0000 0.95170  0.07309  0.41279  Biso   1.000  C
  C1005    1.0000 0.04761  0.14530  0.41269  Biso   1.000  C
  C1006    1.0000 0.85470  0.41269  0.95239  Biso   1.000  C
  Br191    1.0000 0.92961  0.41968  0.07226  Biso   1.000  Br
  C1007    1.0000 0.80679  0.36109  0.05150  Biso   1.000  C
  Br192    1.0000 0.79867  0.35357  0.05755  Biso   1.000  Br
  C1008    1.0000 0.92691  0.41279  0.04830  Biso   1.000  C
  H1729    1.0000 0.93532  0.20989  0.40428  Biso   1.000  H
  H1730    1.0000 0.97649  0.22582  0.33920  Biso   1.000  H
  H1731    1.0000 0.90930  0.18510  0.33419  Biso   1.000  H
  H1732    1.0000 0.93532  0.20989  0.40433  Biso   1.000  H
  H1733    1.0000 0.93473  0.09390  0.45278  Biso   1.000  H
  H1734    1.0000 0.91510  0.05460  0.38751  Biso   1.000  H
  H1735    1.0000 0.98229  0.03778  0.42489  Biso   1.000  H
  H1736    1.0000 0.07378  0.10610  0.42273  Biso   1.000  H
  H1737    1.0000 0.07491  0.17718  0.38888  Biso   1.000  H
  H1738    1.0000 0.03192  0.16498  0.45371  Biso   1.000  H
  H1739    1.0000 0.07491  0.17723  0.38888  Biso   1.000  H
  H1740    1.0000 0.03192  0.16503  0.45371  Biso   1.000  H
  H1741    1.0000 0.89390  0.42273  0.92622  Biso   1.000  H
  H1742    1.0000 0.82282  0.38888  0.92509  Biso   1.000  H
  H1743    1.0000 0.83502  0.45371  0.96808  Biso   1.000  H
  H1744    1.0000 0.83502  0.45371  0.96813  Biso   1.000  H
  H1745    1.0000 0.79011  0.40428  0.06468  Biso   1.000  H
  H1746    1.0000 0.77418  0.33920  0.02351  Biso   1.000  H
  H1747    1.0000 0.81490  0.33419  0.09070  Biso   1.000  H
  H1748    1.0000 0.79011  0.40433  0.06468  Biso   1.000  H
  H1749    1.0000 0.77423  0.33920  0.02351  Biso   1.000  H
  H1750    1.0000 0.90610  0.45278  0.06532  Biso   1.000  H
  H1751    1.0000 0.94540  0.38751  0.08490  Biso   1.000  H
  H1752    1.0000 0.96222  0.42489  0.01771  Biso   1.000  H
  C1009    1.0000 0.91269  0.64530  0.54761  Biso   1.000  C
  C1010    1.0000 0.87000  0.62582  0.48869  Biso   1.000  C
  H1753    1.0000 0.92273  0.60610  0.57378  Biso   1.000  H
  H1754    1.0000 0.88888  0.67723  0.57491  Biso   1.000  H
  H1755    1.0000 0.95371  0.66503  0.53192  Biso   1.000  H
  C1011    1.0000 0.80910  0.59011  0.51363  Biso   1.000  C
  Br193    1.0000 0.91968  0.57039  0.42774  Biso   1.000  Br
  C1012    1.0000 0.86109  0.69321  0.44850  Biso   1.000  C
  Br194    1.0000 0.85357  0.70133  0.44245  Biso   1.000  Br
  C1013    1.0000 0.91279  0.57309  0.45170  Biso   1.000  C
  N145     1.0000 0.76104  0.56891  0.47245  Biso   1.000  N
  O97      1.0000 0.80349  0.58146  0.57329  Biso   1.000  O
  H1756    1.0000 0.90433  0.70989  0.43532  Biso   1.000  H
  H1757    1.0000 0.83920  0.72582  0.47649  Biso   1.000  H
  H1758    1.0000 0.83419  0.68510  0.40930  Biso   1.000  H
  H1759    1.0000 0.95283  0.59390  0.43468  Biso   1.000  H
  H1760    1.0000 0.88751  0.55460  0.41510  Biso   1.000  H
  H1761    1.0000 0.92489  0.53783  0.48229  Biso   1.000  H
  C1014    1.0000 0.76016  0.57300  0.40059  Biso   1.000  C
  C1015    1.0000 0.70349  0.53728  0.50290  Biso   1.000  C
  C1016    1.0000 0.70118  0.61190  0.37575  Biso   1.000  C
  H1762    1.0000 0.75868  0.52809  0.38190  Biso   1.000  H
  H1763    1.0000 0.80108  0.59439  0.38519  Biso   1.000  H
  C1017    1.0000 0.70349  0.46272  0.49710  Biso   1.000  C
  H1764    1.0000 0.66311  0.55470  0.48190  Biso   1.000  H
  H1765    1.0000 0.70212  0.54939  0.55002  Biso   1.000  H
  C1018    1.0000 0.66758  0.59085  0.32086  Biso   1.000  C
  C1019    1.0000 0.67914  0.66758  0.40915  Biso   1.000  C
  N146     1.0000 0.76104  0.43114  0.52755  Biso   1.000  N
  H1766    1.0000 0.66311  0.44530  0.51810  Biso   1.000  H
  H1767    1.0000 0.70212  0.45061  0.45002  Biso   1.000  H
  C1020    1.0000 0.61190  0.62425  0.29882  Biso   1.000  C
  H1768    1.0000 0.68259  0.55312  0.29769  Biso   1.000  H
  C1021    1.0000 0.62425  0.70118  0.38810  Biso   1.000  C
  H1769    1.0000 0.70231  0.68259  0.44693  Biso   1.000  H
  C1022    1.0000 0.76016  0.42700  0.59941  Biso   1.000  C
  C1023    1.0000 0.80910  0.40989  0.48642  Biso   1.000  C
  C1024    1.0000 0.57300  0.59941  0.23984  Biso   1.000  C
  C1025    1.0000 0.59085  0.67914  0.33242  Biso   1.000  C
  C1026    1.0000 0.59941  0.76016  0.42700  Biso   1.000  C
  C1027    1.0000 0.70118  0.38810  0.62425  Biso   1.000  C
  H1770    1.0000 0.75868  0.47191  0.61810  Biso   1.000  H
  H1771    1.0000 0.80108  0.40561  0.61481  Biso   1.000  H
  O98      1.0000 0.80349  0.41854  0.42671  Biso   1.000  O
  C1028    1.0000 0.87000  0.37423  0.51131  Biso   1.000  C
  N147     1.0000 0.56891  0.52755  0.23896  Biso   1.000  N
  H1772    1.0000 0.52809  0.61810  0.24132  Biso   1.000  H
  H1773    1.0000 0.59439  0.61481  0.19892  Biso   1.000  H
  H1774    1.0000 0.55312  0.70231  0.31741  Biso   1.000  H
  N148     1.0000 0.52755  0.76104  0.43114  Biso   1.000  N
  H1775    1.0000 0.61810  0.75868  0.47191  Biso   1.000  H
  H1776    1.0000 0.61481  0.80108  0.40561  Biso   1.000  H
  C1029    1.0000 0.67914  0.33242  0.59085  Biso   1.000  C
  C1030    1.0000 0.66758  0.40915  0.67914  Biso   1.000  C
  Br195    1.0000 0.91968  0.42961  0.57226  Biso   1.000  Br
  C1031    1.0000 0.91269  0.35470  0.45239  Biso   1.000  C
  C1032    1.0000 0.86109  0.30679  0.55150  Biso   1.000  C
  Br196    1.0000 0.85357  0.29867  0.55755  Biso   1.000  Br
  C1033    1.0000 0.91279  0.42691  0.54830  Biso   1.000  C
  C1034    1.0000 0.53728  0.49710  0.29651  Biso   1.000  C
  C1035    1.0000 0.59011  0.48642  0.19090  Biso   1.000  C
  C1036    1.0000 0.49710  0.70349  0.46272  Biso   1.000  C
  C1037    1.0000 0.48642  0.80910  0.40989  Biso   1.000  C
  C1038    1.0000 0.62425  0.29882  0.61190  Biso   1.000  C
  H1777    1.0000 0.70231  0.31741  0.55312  Biso   1.000  H
  C1039    1.0000 0.61190  0.37575  0.70118  Biso   1.000  C
  H1778    1.0000 0.68259  0.44693  0.70231  Biso   1.000  H
  H1779    1.0000 0.92273  0.39390  0.42622  Biso   1.000  H
  H1780    1.0000 0.88888  0.32282  0.42509  Biso   1.000  H
  H1781    1.0000 0.95371  0.33502  0.46813  Biso   1.000  H
  H1782    1.0000 0.90433  0.29011  0.56468  Biso   1.000  H
  H1783    1.0000 0.83920  0.27423  0.52351  Biso   1.000  H
  H1784    1.0000 0.83419  0.31490  0.59070  Biso   1.000  H
  H1785    1.0000 0.95283  0.40610  0.56532  Biso   1.000  H
  H1786    1.0000 0.88751  0.44540  0.58490  Biso   1.000  H
  H1787    1.0000 0.92489  0.46222  0.51771  Biso   1.000  H
  C1040    1.0000 0.46272  0.50290  0.29651  Biso   1.000  C
  H1788    1.0000 0.55470  0.51810  0.33689  Biso   1.000  H
  H1789    1.0000 0.54939  0.45002  0.29788  Biso   1.000  H
  O99      1.0000 0.58146  0.42671  0.19651  Biso   1.000  O
  C1041    1.0000 0.62582  0.51131  0.13000  Biso   1.000  C
  C1042    1.0000 0.50290  0.70349  0.53728  Biso   1.000  C
  H1790    1.0000 0.51810  0.66311  0.44530  Biso   1.000  H
  H1791    1.0000 0.45002  0.70212  0.45061  Biso   1.000  H
  O100     1.0000 0.42671  0.80349  0.41854  Biso   1.000  O
  C1043    1.0000 0.51131  0.87000  0.37423  Biso   1.000  C
  C1044    1.0000 0.59941  0.23984  0.57300  Biso   1.000  C
  C1045    1.0000 0.59085  0.32086  0.66758  Biso   1.000  C
  C1046    1.0000 0.57300  0.40059  0.76016  Biso   1.000  C
  N149     1.0000 0.43114  0.47245  0.23896  Biso   1.000  N
  H1792    1.0000 0.44530  0.48190  0.33689  Biso   1.000  H
  H1793    1.0000 0.45061  0.55002  0.29788  Biso   1.000  H
  Br197    1.0000 0.57039  0.57226  0.08032  Biso   1.000  Br
  C1047    1.0000 0.64530  0.45239  0.08731  Biso   1.000  C
  C1048    1.0000 0.69321  0.55150  0.13891  Biso   1.000  C
  Br198    1.0000 0.70133  0.55755  0.14643  Biso   1.000  Br
  C1049    1.0000 0.57309  0.54830  0.08721  Biso   1.000  C
  N150     1.0000 0.47245  0.76104  0.56891  Biso   1.000  N
  H1794    1.0000 0.48190  0.66311  0.55470  Biso   1.000  H
  H1795    1.0000 0.55002  0.70212  0.54939  Biso   1.000  H
  Br199    1.0000 0.57226  0.91968  0.42961  Biso   1.000  Br
  C1050    1.0000 0.45239  0.91269  0.35470  Biso   1.000  C
  C1051    1.0000 0.55150  0.86109  0.30679  Biso   1.000  C
  Br200    1.0000 0.55755  0.85357  0.29867  Biso   1.000  Br
  C1052    1.0000 0.54830  0.91279  0.42691  Biso   1.000  C
  N151     1.0000 0.52755  0.23896  0.56891  Biso   1.000  N
  H1796    1.0000 0.61810  0.24132  0.52809  Biso   1.000  H
  H1797    1.0000 0.61481  0.19892  0.59439  Biso   1.000  H
  H1798    1.0000 0.55312  0.29769  0.68259  Biso   1.000  H
  N152     1.0000 0.56891  0.47245  0.76104  Biso   1.000  N
  H1799    1.0000 0.52809  0.38190  0.75868  Biso   1.000  H
  H1800    1.0000 0.59439  0.38519  0.80108  Biso   1.000  H
  C1053    1.0000 0.42700  0.40059  0.23984  Biso   1.000  C
  C1054    1.0000 0.40989  0.51363  0.19090  Biso   1.000  C
  H1801    1.0000 0.60610  0.42622  0.07732  Biso   1.000  H
  H1802    1.0000 0.67723  0.42509  0.11112  Biso   1.000  H
  H1803    1.0000 0.66503  0.46813  0.04629  Biso   1.000  H
  H1804    1.0000 0.70989  0.56468  0.09572  Biso   1.000  H
  H1805    1.0000 0.72582  0.52351  0.16080  Biso   1.000  H
  H1806    1.0000 0.68510  0.59070  0.16581  Biso   1.000  H
  H1807    1.0000 0.59390  0.56532  0.04722  Biso   1.000  H
  H1808    1.0000 0.55460  0.58490  0.11249  Biso   1.000  H
  H1809    1.0000 0.53783  0.51771  0.07511  Biso   1.000  H
  C1055    1.0000 0.40059  0.76016  0.57300  Biso   1.000  C
  C1056    1.0000 0.51363  0.80910  0.59011  Biso   1.000  C
  H1810    1.0000 0.42622  0.92273  0.39390  Biso   1.000  H
  H1811    1.0000 0.42509  0.88888  0.32282  Biso   1.000  H
  H1812    1.0000 0.46813  0.95371  0.33502  Biso   1.000  H
  H1813    1.0000 0.56468  0.90433  0.29011  Biso   1.000  H
  H1814    1.0000 0.52351  0.83920  0.27423  Biso   1.000  H
  H1815    1.0000 0.59070  0.83419  0.31490  Biso   1.000  H
  H1816    1.0000 0.56532  0.95283  0.40610  Biso   1.000  H
  H1817    1.0000 0.58490  0.88751  0.44540  Biso   1.000  H
  H1818    1.0000 0.51771  0.92489  0.46222  Biso   1.000  H
  C1057    1.0000 0.49710  0.29651  0.53728  Biso   1.000  C
  C1058    1.0000 0.48642  0.19090  0.59011  Biso   1.000  C
  C1059    1.0000 0.53728  0.50290  0.70349  Biso   1.000  C
  C1060    1.0000 0.59011  0.51363  0.80910  Biso   1.000  C
  C1061    1.0000 0.38810  0.37575  0.29882  Biso   1.000  C
  H1819    1.0000 0.47191  0.38190  0.24132  Biso   1.000  H
  H1820    1.0000 0.40561  0.38519  0.19892  Biso   1.000  H
  O101     1.0000 0.41854  0.57329  0.19651  Biso   1.000  O
  C1062    1.0000 0.37423  0.48869  0.13000  Biso   1.000  C
  C1063    1.0000 0.37575  0.70118  0.61190  Biso   1.000  C
  H1821    1.0000 0.38190  0.75868  0.52809  Biso   1.000  H
  H1822    1.0000 0.38519  0.80108  0.59439  Biso   1.000  H
  O102     1.0000 0.57329  0.80349  0.58146  Biso   1.000  O
  C1064    1.0000 0.48869  0.87000  0.62582  Biso   1.000  C
  C1065    1.0000 0.50290  0.29651  0.46272  Biso   1.000  C
  H1823    1.0000 0.51810  0.33689  0.55470  Biso   1.000  H
  H1824    1.0000 0.45002  0.29788  0.54939  Biso   1.000  H
  O103     1.0000 0.42671  0.19651  0.58146  Biso   1.000  O
  C1066    1.0000 0.51131  0.13000  0.62582  Biso   1.000  C
  H1825    1.0000 0.55470  0.48190  0.66311  Biso   1.000  H
  H1826    1.0000 0.54939  0.55002  0.70212  Biso   1.000  H
  C1067    1.0000 0.46272  0.49710  0.70349  Biso   1.000  C
  O104     1.0000 0.58146  0.57329  0.80349  Biso   1.000  O
  C1068    1.0000 0.62582  0.48869  0.87000  Biso   1.000  C
  C1069    1.0000 0.40915  0.32086  0.33242  Biso   1.000  C
  C1070    1.0000 0.33242  0.40915  0.32086  Biso   1.000  C
  Br201    1.0000 0.42961  0.42774  0.08032  Biso   1.000  Br
  C1071    1.0000 0.35470  0.54761  0.08731  Biso   1.000  C
  C1072    1.0000 0.30679  0.44850  0.13891  Biso   1.000  C
  Br202    1.0000 0.29867  0.44245  0.14643  Biso   1.000  Br
  C1073    1.0000 0.42691  0.45170  0.08721  Biso   1.000  C
  C1074    1.0000 0.32086  0.66758  0.59085  Biso   1.000  C
  C1075    1.0000 0.40915  0.67914  0.66758  Biso   1.000  C
  Br203    1.0000 0.42774  0.91968  0.57039  Biso   1.000  Br
  C1076    1.0000 0.54761  0.91269  0.64530  Biso   1.000  C
  C1077    1.0000 0.44850  0.86109  0.69321  Biso   1.000  C
  Br204    1.0000 0.44245  0.85357  0.70133  Biso   1.000  Br
  C1078    1.0000 0.45170  0.91279  0.57309  Biso   1.000  C
  N153     1.0000 0.47245  0.23896  0.43114  Biso   1.000  N
  H1827    1.0000 0.48190  0.33689  0.44530  Biso   1.000  H
  H1828    1.0000 0.55002  0.29788  0.45061  Biso   1.000  H
  Br205    1.0000 0.57226  0.08032  0.57039  Biso   1.000  Br
  C1079    1.0000 0.45239  0.08731  0.64530  Biso   1.000  C
  C1080    1.0000 0.55150  0.13891  0.69321  Biso   1.000  C
  Br206    1.0000 0.55755  0.14643  0.70133  Biso   1.000  Br
  C1081    1.0000 0.54830  0.08721  0.57309  Biso   1.000  C
  N154     1.0000 0.43114  0.52755  0.76104  Biso   1.000  N
  H1829    1.0000 0.44530  0.51810  0.66311  Biso   1.000  H
  H1830    1.0000 0.45061  0.45002  0.70212  Biso   1.000  H
  Br207    1.0000 0.57039  0.42774  0.91968  Biso   1.000  Br
  C1082    1.0000 0.64530  0.54761  0.91269  Biso   1.000  C
  C1083    1.0000 0.69321  0.44850  0.86109  Biso   1.000  C
  Br208    1.0000 0.70133  0.44245  0.85357  Biso   1.000  Br
  C1084    1.0000 0.57309  0.45170  0.91279  Biso   1.000  C
  H1831    1.0000 0.44693  0.29769  0.31741  Biso   1.000  H
  C1085    1.0000 0.37575  0.29882  0.38810  Biso   1.000  C
  C1086    1.0000 0.29882  0.38810  0.37575  Biso   1.000  C
  H1832    1.0000 0.31741  0.44693  0.29769  Biso   1.000  H
  H1833    1.0000 0.39390  0.57378  0.07732  Biso   1.000  H
  H1834    1.0000 0.32282  0.57491  0.11112  Biso   1.000  H
  H1835    1.0000 0.33502  0.53192  0.04629  Biso   1.000  H
  H1836    1.0000 0.29011  0.43532  0.09572  Biso   1.000  H
  H1837    1.0000 0.27423  0.47649  0.16080  Biso   1.000  H
  H1838    1.0000 0.31490  0.40930  0.16581  Biso   1.000  H
  H1839    1.0000 0.40610  0.43468  0.04722  Biso   1.000  H
  H1840    1.0000 0.44540  0.41510  0.11249  Biso   1.000  H
  H1841    1.0000 0.46222  0.48229  0.07511  Biso   1.000  H
  C1087    1.0000 0.29882  0.61190  0.62425  Biso   1.000  C
  H1842    1.0000 0.29769  0.68259  0.55312  Biso   1.000  H
  C1088    1.0000 0.38810  0.62425  0.70118  Biso   1.000  C
  H1843    1.0000 0.44693  0.70231  0.68259  Biso   1.000  H
  H1844    1.0000 0.57378  0.92273  0.60610  Biso   1.000  H
  H1845    1.0000 0.57491  0.88888  0.67723  Biso   1.000  H
  H1846    1.0000 0.53192  0.95371  0.66503  Biso   1.000  H
  H1847    1.0000 0.43532  0.90433  0.70989  Biso   1.000  H
  H1848    1.0000 0.47649  0.83920  0.72582  Biso   1.000  H
  H1849    1.0000 0.40930  0.83419  0.68510  Biso   1.000  H
  H1850    1.0000 0.43468  0.95283  0.59390  Biso   1.000  H
  H1851    1.0000 0.41510  0.88751  0.55460  Biso   1.000  H
  H1852    1.0000 0.48229  0.92489  0.53783  Biso   1.000  H
  C1089    1.0000 0.40059  0.23984  0.42700  Biso   1.000  C
  C1090    1.0000 0.51363  0.19090  0.40989  Biso   1.000  C
  H1853    1.0000 0.42622  0.07732  0.60610  Biso   1.000  H
  H1854    1.0000 0.42509  0.11112  0.67723  Biso   1.000  H
  H1855    1.0000 0.46813  0.04629  0.66503  Biso   1.000  H
  H1856    1.0000 0.56468  0.09572  0.70989  Biso   1.000  H
  H1857    1.0000 0.52351  0.16080  0.72582  Biso   1.000  H
  H1858    1.0000 0.59070  0.16581  0.68510  Biso   1.000  H
  H1859    1.0000 0.56532  0.04722  0.59390  Biso   1.000  H
  H1860    1.0000 0.58490  0.11249  0.55460  Biso   1.000  H
  H1861    1.0000 0.51771  0.07511  0.53783  Biso   1.000  H
  C1091    1.0000 0.42700  0.59941  0.76016  Biso   1.000  C
  C1092    1.0000 0.40989  0.48642  0.80910  Biso   1.000  C
  H1862    1.0000 0.60610  0.57378  0.92273  Biso   1.000  H
  H1863    1.0000 0.67723  0.57491  0.88888  Biso   1.000  H
  H1864    1.0000 0.66503  0.53192  0.95371  Biso   1.000  H
  H1865    1.0000 0.70989  0.43532  0.90433  Biso   1.000  H
  H1866    1.0000 0.72582  0.47649  0.83920  Biso   1.000  H
  H1867    1.0000 0.68510  0.40930  0.83419  Biso   1.000  H
  H1868    1.0000 0.59390  0.43468  0.95283  Biso   1.000  H
  H1869    1.0000 0.55460  0.41510  0.88751  Biso   1.000  H
  H1870    1.0000 0.53783  0.48229  0.92489  Biso   1.000  H
  C1093    1.0000 0.32086  0.33242  0.40915  Biso   1.000  C
  C1094    1.0000 0.23984  0.42700  0.40059  Biso   1.000  C
  C1095    1.0000 0.23984  0.57300  0.59941  Biso   1.000  C
  C1096    1.0000 0.33242  0.59085  0.67914  Biso   1.000  C
  H1871    1.0000 0.38190  0.24132  0.47191  Biso   1.000  H
  H1872    1.0000 0.38519  0.19892  0.40561  Biso   1.000  H
  O105     1.0000 0.57329  0.19651  0.41854  Biso   1.000  O
  C1097    1.0000 0.48869  0.13000  0.37423  Biso   1.000  C
  H1873    1.0000 0.47191  0.61810  0.75868  Biso   1.000  H
  H1874    1.0000 0.40561  0.61481  0.80108  Biso   1.000  H
  O106     1.0000 0.41854  0.42671  0.80349  Biso   1.000  O
  C1098    1.0000 0.37423  0.51131  0.87000  Biso   1.000  C
  H1875    1.0000 0.29769  0.31741  0.44693  Biso   1.000  H
  N155     1.0000 0.23896  0.43114  0.47245  Biso   1.000  N
  H1876    1.0000 0.24132  0.47191  0.38190  Biso   1.000  H
  H1877    1.0000 0.19892  0.40561  0.38519  Biso   1.000  H
  N156     1.0000 0.23896  0.56891  0.52755  Biso   1.000  N
  H1878    1.0000 0.24132  0.52809  0.61810  Biso   1.000  H
  H1879    1.0000 0.19892  0.59439  0.61481  Biso   1.000  H
  H1880    1.0000 0.31741  0.55312  0.70231  Biso   1.000  H
  Br209    1.0000 0.42774  0.08032  0.42961  Biso   1.000  Br
  C1099    1.0000 0.54761  0.08731  0.35470  Biso   1.000  C
  C1100    1.0000 0.44850  0.13891  0.30679  Biso   1.000  C
  Br210    1.0000 0.44245  0.14643  0.29867  Biso   1.000  Br
  C1101    1.0000 0.45170  0.08721  0.42691  Biso   1.000  C
  Br211    1.0000 0.42961  0.57226  0.91968  Biso   1.000  Br
  C1102    1.0000 0.35470  0.45239  0.91269  Biso   1.000  C
  C1103    1.0000 0.30679  0.55150  0.86109  Biso   1.000  C
  Br212    1.0000 0.29867  0.55755  0.85357  Biso   1.000  Br
  C1104    1.0000 0.42691  0.54830  0.91279  Biso   1.000  C
  C1105    1.0000 0.29651  0.46272  0.50290  Biso   1.000  C
  C1106    1.0000 0.19090  0.40989  0.51363  Biso   1.000  C
  C1107    1.0000 0.29651  0.53728  0.49710  Biso   1.000  C
  C1108    1.0000 0.19090  0.59011  0.48642  Biso   1.000  C
  H1881    1.0000 0.57378  0.07732  0.39390  Biso   1.000  H
  H1882    1.0000 0.57491  0.11112  0.32282  Biso   1.000  H
  H1883    1.0000 0.53192  0.04629  0.33502  Biso   1.000  H
  H1884    1.0000 0.43532  0.09572  0.29011  Biso   1.000  H
  H1885    1.0000 0.47649  0.16080  0.27423  Biso   1.000  H
  H1886    1.0000 0.40930  0.16581  0.31490  Biso   1.000  H
  H1887    1.0000 0.43468  0.04722  0.40610  Biso   1.000  H
  H1888    1.0000 0.41510  0.11249  0.44540  Biso   1.000  H
  H1889    1.0000 0.48229  0.07511  0.46222  Biso   1.000  H
  H1890    1.0000 0.39390  0.42622  0.92273  Biso   1.000  H
  H1891    1.0000 0.32282  0.42509  0.88888  Biso   1.000  H
  H1892    1.0000 0.33502  0.46813  0.95371  Biso   1.000  H
  H1893    1.0000 0.29011  0.56468  0.90433  Biso   1.000  H
  H1894    1.0000 0.27423  0.52351  0.83920  Biso   1.000  H
  H1895    1.0000 0.31490  0.59070  0.83419  Biso   1.000  H
  H1896    1.0000 0.40610  0.56532  0.95283  Biso   1.000  H
  H1897    1.0000 0.44540  0.58490  0.88751  Biso   1.000  H
  H1898    1.0000 0.46222  0.51771  0.92489  Biso   1.000  H
  H1899    1.0000 0.33689  0.44530  0.48190  Biso   1.000  H
  H1900    1.0000 0.29788  0.45061  0.55002  Biso   1.000  H
  O107     1.0000 0.19651  0.41854  0.57329  Biso   1.000  O
  C1109    1.0000 0.13000  0.37423  0.48869  Biso   1.000  C
  H1901    1.0000 0.33689  0.55470  0.51810  Biso   1.000  H
  H1902    1.0000 0.29788  0.54939  0.45002  Biso   1.000  H
  O108     1.0000 0.19651  0.58146  0.42671  Biso   1.000  O
  C1110    1.0000 0.13000  0.62582  0.51131  Biso   1.000  C
  Br213    1.0000 0.08032  0.42961  0.42774  Biso   1.000  Br
  C1111    1.0000 0.08731  0.35470  0.54761  Biso   1.000  C
  C1112    1.0000 0.13891  0.30679  0.44850  Biso   1.000  C
  Br214    1.0000 0.14643  0.29867  0.44245  Biso   1.000  Br
  C1113    1.0000 0.08721  0.42691  0.45170  Biso   1.000  C
  Br215    1.0000 0.08032  0.57039  0.57226  Biso   1.000  Br
  C1114    1.0000 0.08731  0.64530  0.45239  Biso   1.000  C
  C1115    1.0000 0.13891  0.69321  0.55150  Biso   1.000  C
  Br216    1.0000 0.14643  0.70133  0.55755  Biso   1.000  Br
  C1116    1.0000 0.08721  0.57309  0.54830  Biso   1.000  C
  H1903    1.0000 0.07732  0.39390  0.57378  Biso   1.000  H
  H1904    1.0000 0.11112  0.32282  0.57491  Biso   1.000  H
  H1905    1.0000 0.04629  0.33502  0.53192  Biso   1.000  H
  H1906    1.0000 0.09572  0.29011  0.43532  Biso   1.000  H
  H1907    1.0000 0.16080  0.27423  0.47649  Biso   1.000  H
  H1908    1.0000 0.16581  0.31490  0.40930  Biso   1.000  H
  H1909    1.0000 0.04722  0.40610  0.43468  Biso   1.000  H
  H1910    1.0000 0.11249  0.44540  0.41510  Biso   1.000  H
  H1911    1.0000 0.07511  0.46222  0.48229  Biso   1.000  H
  H1912    1.0000 0.07732  0.60610  0.42622  Biso   1.000  H
  H1913    1.0000 0.11112  0.67723  0.42509  Biso   1.000  H
  H1914    1.0000 0.04629  0.66503  0.46813  Biso   1.000  H
  H1915    1.0000 0.09572  0.70989  0.56468  Biso   1.000  H
  H1916    1.0000 0.16080  0.72582  0.52351  Biso   1.000  H
  H1917    1.0000 0.16581  0.68510  0.59070  Biso   1.000  H
  H1918    1.0000 0.04722  0.59390  0.56532  Biso   1.000  H
  H1919    1.0000 0.11249  0.55460  0.58490  Biso   1.000  H
  H1920    1.0000 0.07511  0.53783  0.51771  Biso   1.000  H
