data_image0
_cell_length_a       19.727
_cell_length_b       19.727
_cell_length_c       19.727
_cell_angle_alpha    90
_cell_angle_beta     90
_cell_angle_gamma    90

_symmetry_space_group_name_H-M    "P 1"
_symmetry_int_tables_number       1

loop_
  _symmetry_equiv_pos_as_xyz
  'x, y, z'

loop_
  _atom_site_label
  _atom_site_occupancy
  _atom_site_fract_x
  _atom_site_fract_y
  _atom_site_fract_z
  _atom_site_thermal_displace_type
  _atom_site_B_iso_or_equiv
  _atom_site_type_symbol
  C1       1.0000 0.21990  0.00350  0.03832  Biso   1.000  C
  N1       1.0000 0.27556  0.96720  0.07142  Biso   1.000  N
  H1       1.0000 0.22299  0.05221  0.05008  Biso   1.000  H
  C2       1.0000 0.21990  0.99650  0.96168  Biso   1.000  C
  H2       1.0000 0.17631  0.98621  0.05622  Biso   1.000  H
  C3       1.0000 0.33350  0.00091  0.08597  Biso   1.000  C
  C4       1.0000 0.26882  0.89329  0.07462  Biso   1.000  C
  C5       1.0000 0.21990  0.00350  0.03827  Biso   1.000  C
  H3       1.0000 0.22299  0.94779  0.94992  Biso   1.000  H
  H4       1.0000 0.17631  0.01379  0.94378  Biso   1.000  H
  N2       1.0000 0.27556  0.03280  0.92852  Biso   1.000  N
  O1       1.0000 0.34182  0.06129  0.07320  Biso   1.000  O
  C6       1.0000 0.38952  0.96198  0.11913  Biso   1.000  C
  C7       1.0000 0.20733  0.87063  0.11487  Biso   1.000  C
  H5       1.0000 0.31008  0.87398  0.09561  Biso   1.000  H
  H6       1.0000 0.26537  0.87520  0.02798  Biso   1.000  H
  C8       1.0000 0.33350  0.99909  0.91403  Biso   1.000  C
  C9       1.0000 0.26882  0.10671  0.92538  Biso   1.000  C
  C10      1.0000 0.44822  0.93522  0.08471  Biso   1.000  C
  C11      1.0000 0.39590  0.97790  0.18837  Biso   1.000  C
  C12      1.0000 0.44817  0.93522  0.08471  Biso   1.000  C
  C13      1.0000 0.43078  0.92690  0.08050  Biso   1.000  C
  C14      1.0000 0.38982  0.94358  0.18771  Biso   1.000  C
  C15      1.0000 0.18574  0.90617  0.17185  Biso   1.000  C
  C16      1.0000 0.17185  0.81426  0.09383  Biso   1.000  C
  O2       1.0000 0.34182  0.93871  0.92680  Biso   1.000  O
  C17      1.0000 0.38952  0.03802  0.88087  Biso   1.000  C
  H7       1.0000 0.31008  0.12602  0.90439  Biso   1.000  H
  C18      1.0000 0.20733  0.12937  0.88508  Biso   1.000  C
  H8       1.0000 0.31008  0.12597  0.90439  Biso   1.000  H
  H9       1.0000 0.26537  0.12480  0.97202  Biso   1.000  H
  H10      1.0000 0.36392  0.00370  0.21362  Biso   1.000  H
  C19      1.0000 0.46018  0.94850  0.21752  Biso   1.000  C
  C20      1.0000 0.43549  0.90688  0.22010  Biso   1.000  C
  H11      1.0000 0.35271  0.95929  0.21402  Biso   1.000  H
  C21      1.0000 0.49409  0.89938  0.11380  Biso   1.000  C
  H12      1.0000 0.45319  0.94459  0.03771  Biso   1.000  H
  H13      1.0000 0.42140  0.91930  0.03391  Biso   1.000  H
  H14      1.0000 0.20992  0.94520  0.18639  Biso   1.000  H
  C22      1.0000 0.12937  0.88508  0.20733  Biso   1.000  C
  C23      1.0000 0.11487  0.79267  0.12937  Biso   1.000  C
  H15      1.0000 0.18639  0.79008  0.05480  Biso   1.000  H
  C24      1.0000 0.39590  0.02210  0.81158  Biso   1.000  C
  C25      1.0000 0.44822  0.06478  0.91529  Biso   1.000  C
  C26      1.0000 0.44817  0.06478  0.91529  Biso   1.000  C
  C27      1.0000 0.43078  0.07310  0.91950  Biso   1.000  C
  C28      1.0000 0.38982  0.05642  0.81229  Biso   1.000  C
  C29      1.0000 0.17185  0.18574  0.90617  Biso   1.000  C
  C30      1.0000 0.18574  0.09383  0.82810  Biso   1.000  C
  C31      1.0000 0.50281  0.91281  0.17960  Biso   1.000  C
  H16      1.0000 0.47037  0.95559  0.26411  Biso   1.000  H
  C32      1.0000 0.49029  0.88402  0.18031  Biso   1.000  C
  H17      1.0000 0.43169  0.89679  0.26699  Biso   1.000  H
  H18      1.0000 0.52618  0.87347  0.08891  Biso   1.000  H
  C33      1.0000 0.10671  0.92538  0.26882  Biso   1.000  C
  C34      1.0000 0.09383  0.82810  0.18574  Biso   1.000  C
  C35      1.0000 0.07462  0.73118  0.10671  Biso   1.000  C
  H19      1.0000 0.36392  0.99630  0.78638  Biso   1.000  H
  C36      1.0000 0.46018  0.05150  0.78248  Biso   1.000  C
  C37      1.0000 0.43549  0.09312  0.77990  Biso   1.000  C
  H20      1.0000 0.35271  0.04071  0.78598  Biso   1.000  H
  C38      1.0000 0.49409  0.10062  0.88620  Biso   1.000  C
  H21      1.0000 0.45319  0.05541  0.96229  Biso   1.000  H
  C39      1.0000 0.49409  0.10057  0.88620  Biso   1.000  C
  H22      1.0000 0.42140  0.08070  0.96609  Biso   1.000  H
  H23      1.0000 0.20992  0.05480  0.81361  Biso   1.000  H
  C40      1.0000 0.12937  0.11487  0.79267  Biso   1.000  C
  H24      1.0000 0.18639  0.20992  0.94520  Biso   1.000  H
  C41      1.0000 0.11487  0.20733  0.87063  Biso   1.000  C
  Br1      1.0000 0.57794  0.86724  0.22036  Biso   1.000  Br
  Br2      1.0000 0.56369  0.83844  0.22619  Biso   1.000  Br
  H25      1.0000 0.05480  0.81361  0.20992  Biso   1.000  H
  H26      1.0000 0.12602  0.90439  0.31008  Biso   1.000  H
  H27      1.0000 0.12480  0.97202  0.26537  Biso   1.000  H
  N3       1.0000 0.03280  0.92852  0.27556  Biso   1.000  N
  H28      1.0000 0.12597  0.90439  0.31008  Biso   1.000  H
  N4       1.0000 0.07142  0.72444  0.03280  Biso   1.000  N
  H29      1.0000 0.09561  0.68992  0.12602  Biso   1.000  H
  H30      1.0000 0.02798  0.73458  0.12480  Biso   1.000  H
  H31      1.0000 0.09561  0.68992  0.12597  Biso   1.000  H
  C42      1.0000 0.50281  0.08719  0.82040  Biso   1.000  C
  H32      1.0000 0.47037  0.04441  0.73589  Biso   1.000  H
  C43      1.0000 0.49029  0.11598  0.81969  Biso   1.000  C
  H33      1.0000 0.43169  0.10321  0.73301  Biso   1.000  H
  H34      1.0000 0.52618  0.12648  0.91109  Biso   1.000  H
  C44      1.0000 0.10671  0.07462  0.73118  Biso   1.000  C
  C45      1.0000 0.09383  0.17185  0.81426  Biso   1.000  C
  C46      1.0000 0.07462  0.26882  0.89329  Biso   1.000  C
  C47      1.0000 0.99650  0.96168  0.21990  Biso   1.000  C
  C48      1.0000 0.99909  0.91403  0.33350  Biso   1.000  C
  C49      1.0000 0.03832  0.78010  0.99650  Biso   1.000  C
  C50      1.0000 0.08597  0.66650  0.99909  Biso   1.000  C
  C51      1.0000 0.03827  0.78010  0.99650  Biso   1.000  C
  Br3      1.0000 0.57794  0.13276  0.77964  Biso   1.000  Br
  Br4      1.0000 0.56369  0.16156  0.77381  Biso   1.000  Br
  N5       1.0000 0.03280  0.07142  0.72444  Biso   1.000  N
  H35      1.0000 0.12602  0.09561  0.68992  Biso   1.000  H
  H36      1.0000 0.12480  0.02798  0.73458  Biso   1.000  H
  H37      1.0000 0.12597  0.09561  0.68992  Biso   1.000  H
  H38      1.0000 0.05480  0.18639  0.79008  Biso   1.000  H
  N6       1.0000 0.07142  0.27556  0.96720  Biso   1.000  N
  H39      1.0000 0.09561  0.31008  0.87398  Biso   1.000  H
  H40      1.0000 0.02798  0.26537  0.87520  Biso   1.000  H
  H41      1.0000 0.94779  0.94992  0.22299  Biso   1.000  H
  H42      1.0000 0.01379  0.94378  0.17631  Biso   1.000  H
  C52      1.0000 0.00350  0.03832  0.21990  Biso   1.000  C
  C53      1.0000 0.00350  0.03827  0.21990  Biso   1.000  C
  O3       1.0000 0.93871  0.92680  0.34182  Biso   1.000  O
  C54      1.0000 0.03802  0.88087  0.38952  Biso   1.000  C
  C55      1.0000 0.96168  0.78010  0.00350  Biso   1.000  C
  H43      1.0000 0.05008  0.77701  0.94779  Biso   1.000  H
  H44      1.0000 0.05622  0.82369  0.01379  Biso   1.000  H
  O4       1.0000 0.07320  0.65818  0.93871  Biso   1.000  O
  C56      1.0000 0.11913  0.61048  0.03802  Biso   1.000  C
  C57      1.0000 0.99650  0.03832  0.78010  Biso   1.000  C
  C58      1.0000 0.99909  0.08597  0.66650  Biso   1.000  C
  C59      1.0000 0.99650  0.03827  0.78010  Biso   1.000  C
  C60      1.0000 0.08597  0.33350  0.00091  Biso   1.000  C
  C61      1.0000 0.03832  0.21990  0.00350  Biso   1.000  C
  C62      1.0000 0.03827  0.21990  0.00350  Biso   1.000  C
  H45      1.0000 0.05221  0.05008  0.22299  Biso   1.000  H
  N7       1.0000 0.96720  0.07142  0.27556  Biso   1.000  N
  H46      1.0000 0.98621  0.05622  0.17631  Biso   1.000  H
  C63      1.0000 0.02210  0.81158  0.39590  Biso   1.000  C
  C64      1.0000 0.06478  0.91529  0.44822  Biso   1.000  C
  C65      1.0000 0.06478  0.91529  0.44817  Biso   1.000  C
  C66      1.0000 0.07310  0.91950  0.43078  Biso   1.000  C
  C67      1.0000 0.05642  0.81229  0.38982  Biso   1.000  C
  H47      1.0000 0.94378  0.82369  0.98621  Biso   1.000  H
  N8       1.0000 0.92852  0.72444  0.96720  Biso   1.000  N
  H48      1.0000 0.94992  0.77701  0.05221  Biso   1.000  H
  C68      1.0000 0.08471  0.55178  0.06478  Biso   1.000  C
  C69      1.0000 0.18837  0.60410  0.02210  Biso   1.000  C
  C70      1.0000 0.08050  0.56922  0.07310  Biso   1.000  C
  C71      1.0000 0.18771  0.61018  0.05642  Biso   1.000  C
  H49      1.0000 0.94779  0.05008  0.77701  Biso   1.000  H
  C72      1.0000 0.00350  0.96168  0.78010  Biso   1.000  C
  H50      1.0000 0.01379  0.05622  0.82369  Biso   1.000  H
  O5       1.0000 0.93871  0.07320  0.65818  Biso   1.000  O
  C73      1.0000 0.03802  0.11913  0.61048  Biso   1.000  C
  O6       1.0000 0.07320  0.34182  0.06129  Biso   1.000  O
  C74      1.0000 0.11913  0.38952  0.96198  Biso   1.000  C
  H51      1.0000 0.05008  0.22299  0.05221  Biso   1.000  H
  C75      1.0000 0.96168  0.21990  0.99650  Biso   1.000  C
  H52      1.0000 0.05622  0.17631  0.98621  Biso   1.000  H
  C76      1.0000 0.00091  0.08597  0.33350  Biso   1.000  C
  C77      1.0000 0.89329  0.07462  0.26882  Biso   1.000  C
  H53      1.0000 0.99630  0.78638  0.36392  Biso   1.000  H
  C78      1.0000 0.05150  0.78248  0.46018  Biso   1.000  C
  C79      1.0000 0.09312  0.77990  0.43549  Biso   1.000  C
  H54      1.0000 0.04071  0.78598  0.35271  Biso   1.000  H
  C80      1.0000 0.10062  0.88620  0.49409  Biso   1.000  C
  H55      1.0000 0.05541  0.96229  0.45319  Biso   1.000  H
  C81      1.0000 0.10057  0.88620  0.49409  Biso   1.000  C
  H56      1.0000 0.08070  0.96609  0.42140  Biso   1.000  H
  C82      1.0000 0.92538  0.73118  0.89329  Biso   1.000  C
  C83      1.0000 0.91403  0.66650  0.00091  Biso   1.000  C
  H57      1.0000 0.21362  0.63608  0.99630  Biso   1.000  H
  C84      1.0000 0.21752  0.53982  0.05150  Biso   1.000  C
  C85      1.0000 0.22010  0.56451  0.09312  Biso   1.000  C
  H58      1.0000 0.21402  0.64729  0.04071  Biso   1.000  H
  C86      1.0000 0.11380  0.50591  0.10062  Biso   1.000  C
  H59      1.0000 0.03771  0.54681  0.05541  Biso   1.000  H
  C87      1.0000 0.11380  0.50591  0.10057  Biso   1.000  C
  H60      1.0000 0.03391  0.57860  0.08070  Biso   1.000  H
  H61      1.0000 0.98621  0.94378  0.82369  Biso   1.000  H
  N9       1.0000 0.96720  0.92852  0.72444  Biso   1.000  N
  H62      1.0000 0.05221  0.94992  0.77701  Biso   1.000  H
  C88      1.0000 0.06478  0.08471  0.55178  Biso   1.000  C
  C89      1.0000 0.02210  0.18837  0.60410  Biso   1.000  C
  C90      1.0000 0.07310  0.08050  0.56922  Biso   1.000  C
  C91      1.0000 0.05642  0.18771  0.61018  Biso   1.000  C
  C92      1.0000 0.08471  0.44822  0.93522  Biso   1.000  C
  C93      1.0000 0.08471  0.44817  0.93522  Biso   1.000  C
  C94      1.0000 0.18837  0.39590  0.97790  Biso   1.000  C
  C95      1.0000 0.08050  0.43078  0.92690  Biso   1.000  C
  C96      1.0000 0.18771  0.38982  0.94358  Biso   1.000  C
  H63      1.0000 0.94992  0.22299  0.94779  Biso   1.000  H
  H64      1.0000 0.94378  0.17631  0.01379  Biso   1.000  H
  N10      1.0000 0.92852  0.27556  0.03280  Biso   1.000  N
  O7       1.0000 0.06129  0.07320  0.34182  Biso   1.000  O
  C97      1.0000 0.96198  0.11913  0.38952  Biso   1.000  C
  C98      1.0000 0.87063  0.11487  0.20733  Biso   1.000  C
  H65      1.0000 0.87398  0.09561  0.31008  Biso   1.000  H
  H66      1.0000 0.87520  0.02798  0.26537  Biso   1.000  H
  C99      1.0000 0.08719  0.82040  0.50281  Biso   1.000  C
  H67      1.0000 0.04441  0.73589  0.47037  Biso   1.000  H
  C100     1.0000 0.11598  0.81969  0.49029  Biso   1.000  C
  H68      1.0000 0.10321  0.73301  0.43169  Biso   1.000  H
  H69      1.0000 0.12648  0.91109  0.52618  Biso   1.000  H
  H70      1.0000 0.90439  0.68992  0.87398  Biso   1.000  H
  H71      1.0000 0.97202  0.73458  0.87520  Biso   1.000  H
  C101     1.0000 0.88508  0.79267  0.87063  Biso   1.000  C
  C102     1.0000 0.88087  0.61048  0.96198  Biso   1.000  C
  O8       1.0000 0.92680  0.65818  0.06129  Biso   1.000  O
  C103     1.0000 0.17960  0.49719  0.08719  Biso   1.000  C
  H72      1.0000 0.26411  0.52958  0.04441  Biso   1.000  H
  C104     1.0000 0.18031  0.50971  0.11598  Biso   1.000  C
  H73      1.0000 0.26699  0.56831  0.10321  Biso   1.000  H
  H74      1.0000 0.08891  0.47382  0.12648  Biso   1.000  H
  C105     1.0000 0.89329  0.92538  0.73118  Biso   1.000  C
  C106     1.0000 0.00091  0.91403  0.66650  Biso   1.000  C
  H75      1.0000 0.99630  0.21362  0.63608  Biso   1.000  H
  C107     1.0000 0.05150  0.21752  0.53982  Biso   1.000  C
  C108     1.0000 0.09312  0.22010  0.56451  Biso   1.000  C
  H76      1.0000 0.04071  0.21402  0.64729  Biso   1.000  H
  C109     1.0000 0.10062  0.11380  0.50591  Biso   1.000  C
  H77      1.0000 0.05541  0.03771  0.54681  Biso   1.000  H
  C110     1.0000 0.10057  0.11380  0.50591  Biso   1.000  C
  H78      1.0000 0.08070  0.03391  0.57860  Biso   1.000  H
  H79      1.0000 0.21362  0.36392  0.00370  Biso   1.000  H
  C111     1.0000 0.21752  0.46018  0.94850  Biso   1.000  C
  C112     1.0000 0.22010  0.43549  0.90688  Biso   1.000  C
  H80      1.0000 0.21402  0.35271  0.95929  Biso   1.000  H
  C113     1.0000 0.11380  0.49409  0.89938  Biso   1.000  C
  H81      1.0000 0.03771  0.45319  0.94459  Biso   1.000  H
  H82      1.0000 0.03391  0.42140  0.91930  Biso   1.000  H
  C114     1.0000 0.91403  0.33350  0.99909  Biso   1.000  C
  C115     1.0000 0.92538  0.26882  0.10671  Biso   1.000  C
  C116     1.0000 0.93522  0.08471  0.44822  Biso   1.000  C
  C117     1.0000 0.93522  0.08471  0.44817  Biso   1.000  C
  C118     1.0000 0.97790  0.18837  0.39590  Biso   1.000  C
  C119     1.0000 0.92690  0.08050  0.43078  Biso   1.000  C
  C120     1.0000 0.94358  0.18771  0.38982  Biso   1.000  C
  C121     1.0000 0.90617  0.17185  0.18574  Biso   1.000  C
  C122     1.0000 0.81426  0.09383  0.17185  Biso   1.000  C
  Br5      1.0000 0.13276  0.77964  0.57794  Biso   1.000  Br
  Br6      1.0000 0.16156  0.77381  0.56369  Biso   1.000  Br
  C123     1.0000 0.90617  0.82810  0.81426  Biso   1.000  C
  C124     1.0000 0.82810  0.81426  0.90617  Biso   1.000  C
  C125     1.0000 0.81158  0.60410  0.97790  Biso   1.000  C
  C126     1.0000 0.91529  0.55178  0.93522  Biso   1.000  C
  C127     1.0000 0.91950  0.56922  0.92690  Biso   1.000  C
  C128     1.0000 0.81229  0.61018  0.94358  Biso   1.000  C
  Br7      1.0000 0.22036  0.42206  0.13276  Biso   1.000  Br
  Br8      1.0000 0.22619  0.43631  0.16156  Biso   1.000  Br
  C129     1.0000 0.87063  0.88508  0.79267  Biso   1.000  C
  H83      1.0000 0.87398  0.90439  0.68992  Biso   1.000  H
  H84      1.0000 0.87520  0.97202  0.73458  Biso   1.000  H
  C130     1.0000 0.96198  0.88087  0.61048  Biso   1.000  C
  O9       1.0000 0.06129  0.92680  0.65818  Biso   1.000  O
  C131     1.0000 0.08719  0.17960  0.49719  Biso   1.000  C
  H85      1.0000 0.04441  0.26411  0.52958  Biso   1.000  H
  C132     1.0000 0.11598  0.18031  0.50971  Biso   1.000  C
  H86      1.0000 0.10321  0.26699  0.56831  Biso   1.000  H
  H87      1.0000 0.12648  0.08891  0.47382  Biso   1.000  H
  C133     1.0000 0.17960  0.50281  0.91281  Biso   1.000  C
  H88      1.0000 0.26411  0.47037  0.95559  Biso   1.000  H
  C134     1.0000 0.18031  0.49029  0.88402  Biso   1.000  C
  H89      1.0000 0.26699  0.43169  0.89679  Biso   1.000  H
  H90      1.0000 0.08891  0.52618  0.87347  Biso   1.000  H
  O10      1.0000 0.92680  0.34182  0.93871  Biso   1.000  O
  C135     1.0000 0.88087  0.38952  0.03802  Biso   1.000  C
  C136     1.0000 0.88508  0.20733  0.12937  Biso   1.000  C
  H91      1.0000 0.90439  0.31008  0.12602  Biso   1.000  H
  H92      1.0000 0.90439  0.31008  0.12597  Biso   1.000  H
  H93      1.0000 0.97202  0.26537  0.12480  Biso   1.000  H
  H94      1.0000 0.00370  0.21362  0.36392  Biso   1.000  H
  C137     1.0000 0.94850  0.21752  0.46018  Biso   1.000  C
  C138     1.0000 0.90688  0.22010  0.43549  Biso   1.000  C
  H95      1.0000 0.95929  0.21402  0.35271  Biso   1.000  H
  C139     1.0000 0.89938  0.11380  0.49409  Biso   1.000  C
  H96      1.0000 0.94459  0.03771  0.45319  Biso   1.000  H
  H97      1.0000 0.91930  0.03391  0.42140  Biso   1.000  H
  H98      1.0000 0.94520  0.18639  0.20992  Biso   1.000  H
  C140     1.0000 0.79267  0.12937  0.11487  Biso   1.000  C
  H99      1.0000 0.79008  0.05480  0.18639  Biso   1.000  H
  H100     1.0000 0.94520  0.81361  0.79008  Biso   1.000  H
  H101     1.0000 0.81361  0.79008  0.94520  Biso   1.000  H
  C141     1.0000 0.79267  0.87063  0.88508  Biso   1.000  C
  C142     1.0000 0.78248  0.53982  0.94850  Biso   1.000  C
  C143     1.0000 0.77990  0.56451  0.90688  Biso   1.000  C
  H102     1.0000 0.78598  0.64729  0.95929  Biso   1.000  H
  H103     1.0000 0.78638  0.63608  0.00370  Biso   1.000  H
  C144     1.0000 0.88620  0.50591  0.89938  Biso   1.000  C
  H104     1.0000 0.96229  0.54681  0.94459  Biso   1.000  H
  H105     1.0000 0.96609  0.57860  0.91930  Biso   1.000  H
  C145     1.0000 0.81426  0.90617  0.82810  Biso   1.000  C
  C146     1.0000 0.97790  0.81158  0.60410  Biso   1.000  C
  C147     1.0000 0.93522  0.91529  0.55178  Biso   1.000  C
  C148     1.0000 0.92690  0.91950  0.56922  Biso   1.000  C
  C149     1.0000 0.94358  0.81229  0.61018  Biso   1.000  C
  Br9      1.0000 0.13276  0.22036  0.42206  Biso   1.000  Br
  Br10     1.0000 0.16156  0.22619  0.43631  Biso   1.000  Br
  Br11     1.0000 0.22036  0.57794  0.86724  Biso   1.000  Br
  Br12     1.0000 0.22619  0.56369  0.83844  Biso   1.000  Br
  C150     1.0000 0.81158  0.39590  0.02210  Biso   1.000  C
  C151     1.0000 0.91529  0.44822  0.06478  Biso   1.000  C
  C152     1.0000 0.91529  0.44817  0.06478  Biso   1.000  C
  C153     1.0000 0.91950  0.43078  0.07310  Biso   1.000  C
  C154     1.0000 0.81229  0.38982  0.05642  Biso   1.000  C
  C155     1.0000 0.82810  0.18574  0.09383  Biso   1.000  C
  C156     1.0000 0.91281  0.17960  0.50281  Biso   1.000  C
  H106     1.0000 0.95559  0.26411  0.47037  Biso   1.000  H
  C157     1.0000 0.88402  0.18031  0.49029  Biso   1.000  C
  H107     1.0000 0.89679  0.26699  0.43169  Biso   1.000  H
  H108     1.0000 0.87347  0.08891  0.52618  Biso   1.000  H
  C158     1.0000 0.73118  0.10671  0.07462  Biso   1.000  C
  C159     1.0000 0.73118  0.89329  0.92538  Biso   1.000  C
  C160     1.0000 0.82040  0.49719  0.91281  Biso   1.000  C
  H109     1.0000 0.73589  0.52958  0.95559  Biso   1.000  H
  C161     1.0000 0.81969  0.50971  0.88402  Biso   1.000  C
  H110     1.0000 0.73301  0.56831  0.89679  Biso   1.000  H
  H111     1.0000 0.91109  0.47382  0.87347  Biso   1.000  H
  H112     1.0000 0.79008  0.94520  0.81361  Biso   1.000  H
  C162     1.0000 0.94850  0.78248  0.53982  Biso   1.000  C
  C163     1.0000 0.90688  0.77990  0.56451  Biso   1.000  C
  H113     1.0000 0.95929  0.78598  0.64729  Biso   1.000  H
  H114     1.0000 0.00370  0.78638  0.63608  Biso   1.000  H
  C164     1.0000 0.89938  0.88620  0.50591  Biso   1.000  C
  H115     1.0000 0.94459  0.96229  0.54681  Biso   1.000  H
  H116     1.0000 0.91930  0.96609  0.57860  Biso   1.000  H
  H117     1.0000 0.78638  0.36392  0.99630  Biso   1.000  H
  C165     1.0000 0.78248  0.46018  0.05150  Biso   1.000  C
  C166     1.0000 0.77990  0.43549  0.09312  Biso   1.000  C
  H118     1.0000 0.78598  0.35271  0.04071  Biso   1.000  H
  C167     1.0000 0.88620  0.49409  0.10062  Biso   1.000  C
  H119     1.0000 0.96229  0.45319  0.05541  Biso   1.000  H
  C168     1.0000 0.88620  0.49409  0.10057  Biso   1.000  C
  H120     1.0000 0.96609  0.42140  0.08070  Biso   1.000  H
  H121     1.0000 0.81361  0.20992  0.05480  Biso   1.000  H
  Br13     1.0000 0.86724  0.22036  0.57794  Biso   1.000  Br
  Br14     1.0000 0.83844  0.22619  0.56369  Biso   1.000  Br
  N11      1.0000 0.72444  0.03280  0.07142  Biso   1.000  N
  H122     1.0000 0.68992  0.12602  0.09561  Biso   1.000  H
  H123     1.0000 0.73458  0.12480  0.02798  Biso   1.000  H
  H124     1.0000 0.68992  0.12597  0.09561  Biso   1.000  H
  H125     1.0000 0.68992  0.87398  0.90439  Biso   1.000  H
  H126     1.0000 0.73458  0.87520  0.97202  Biso   1.000  H
  N12      1.0000 0.72444  0.96720  0.92852  Biso   1.000  N
  Br15     1.0000 0.77964  0.42206  0.86724  Biso   1.000  Br
  Br16     1.0000 0.77381  0.43631  0.83844  Biso   1.000  Br
  C169     1.0000 0.91281  0.82040  0.49719  Biso   1.000  C
  H127     1.0000 0.95559  0.73589  0.52958  Biso   1.000  H
  C170     1.0000 0.88402  0.81969  0.50971  Biso   1.000  C
  H128     1.0000 0.89679  0.73301  0.56831  Biso   1.000  H
  H129     1.0000 0.87347  0.91109  0.47382  Biso   1.000  H
  C171     1.0000 0.82040  0.50281  0.08719  Biso   1.000  C
  H130     1.0000 0.73589  0.47037  0.04441  Biso   1.000  H
  C172     1.0000 0.81969  0.49029  0.11598  Biso   1.000  C
  H131     1.0000 0.73301  0.43169  0.10321  Biso   1.000  H
  H132     1.0000 0.91109  0.52618  0.12648  Biso   1.000  H
  C173     1.0000 0.78010  0.99650  0.03832  Biso   1.000  C
  C174     1.0000 0.66650  0.99909  0.08597  Biso   1.000  C
  C175     1.0000 0.78010  0.99650  0.03827  Biso   1.000  C
  C176     1.0000 0.78010  0.00350  0.96168  Biso   1.000  C
  C177     1.0000 0.66650  0.00091  0.91403  Biso   1.000  C
  Br17     1.0000 0.86724  0.77964  0.42206  Biso   1.000  Br
  Br18     1.0000 0.83844  0.77381  0.43631  Biso   1.000  Br
  Br19     1.0000 0.77964  0.57794  0.13276  Biso   1.000  Br
  Br20     1.0000 0.77381  0.56369  0.16156  Biso   1.000  Br
  H133     1.0000 0.77701  0.94779  0.05008  Biso   1.000  H
  H134     1.0000 0.82369  0.01379  0.05622  Biso   1.000  H
  O11      1.0000 0.65818  0.93871  0.07320  Biso   1.000  O
  C178     1.0000 0.61048  0.03802  0.11913  Biso   1.000  C
  H135     1.0000 0.82369  0.98621  0.94378  Biso   1.000  H
  H136     1.0000 0.77701  0.05221  0.94992  Biso   1.000  H
  C179     1.0000 0.61048  0.96198  0.88087  Biso   1.000  C
  O12      1.0000 0.65818  0.06129  0.92680  Biso   1.000  O
  C180     1.0000 0.55178  0.06478  0.08471  Biso   1.000  C
  C181     1.0000 0.60410  0.02210  0.18837  Biso   1.000  C
  C182     1.0000 0.56922  0.07310  0.08050  Biso   1.000  C
  C183     1.0000 0.61018  0.05642  0.18771  Biso   1.000  C
  C184     1.0000 0.60410  0.97790  0.81158  Biso   1.000  C
  C185     1.0000 0.55178  0.93522  0.91529  Biso   1.000  C
  C186     1.0000 0.56922  0.92690  0.91950  Biso   1.000  C
  C187     1.0000 0.61018  0.94358  0.81229  Biso   1.000  C
  H137     1.0000 0.63608  0.99630  0.21362  Biso   1.000  H
  C188     1.0000 0.53982  0.05150  0.21752  Biso   1.000  C
  C189     1.0000 0.56451  0.09312  0.22010  Biso   1.000  C
  H138     1.0000 0.64729  0.04071  0.21402  Biso   1.000  H
  C190     1.0000 0.50591  0.10062  0.11380  Biso   1.000  C
  H139     1.0000 0.54681  0.05541  0.03771  Biso   1.000  H
  C191     1.0000 0.50591  0.10057  0.11380  Biso   1.000  C
  H140     1.0000 0.57860  0.08070  0.03391  Biso   1.000  H
  C192     1.0000 0.53982  0.94850  0.78248  Biso   1.000  C
  C193     1.0000 0.56451  0.90688  0.77990  Biso   1.000  C
  H141     1.0000 0.64729  0.95929  0.78598  Biso   1.000  H
  H142     1.0000 0.63608  0.00370  0.78638  Biso   1.000  H
  C194     1.0000 0.50591  0.89938  0.88620  Biso   1.000  C
  H143     1.0000 0.54681  0.94459  0.96229  Biso   1.000  H
  H144     1.0000 0.57860  0.91930  0.96609  Biso   1.000  H
  C195     1.0000 0.49719  0.08719  0.17960  Biso   1.000  C
  H145     1.0000 0.52958  0.04441  0.26411  Biso   1.000  H
  C196     1.0000 0.50971  0.11598  0.18031  Biso   1.000  C
  H146     1.0000 0.56831  0.10321  0.26699  Biso   1.000  H
  H147     1.0000 0.47382  0.12648  0.08891  Biso   1.000  H
  C197     1.0000 0.49719  0.91281  0.82040  Biso   1.000  C
  H148     1.0000 0.52958  0.95559  0.73589  Biso   1.000  H
  C198     1.0000 0.50971  0.88402  0.81969  Biso   1.000  C
  H149     1.0000 0.56831  0.89679  0.73301  Biso   1.000  H
  H150     1.0000 0.47382  0.87347  0.91109  Biso   1.000  H
  Br21     1.0000 0.42206  0.13276  0.22036  Biso   1.000  Br
  Br22     1.0000 0.43631  0.16156  0.22619  Biso   1.000  Br
  Br23     1.0000 0.42206  0.86724  0.77964  Biso   1.000  Br
  Br24     1.0000 0.43631  0.83844  0.77381  Biso   1.000  Br
  C199     1.0000 0.40690  0.27992  0.06448  Biso   1.000  C
  C200     1.0000 0.47787  0.31160  0.10412  Biso   1.000  C
  C201     1.0000 0.44361  0.31231  0.11020  Biso   1.000  C
  C202     1.0000 0.38399  0.31971  0.00968  Biso   1.000  C
  C203     1.0000 0.41278  0.32037  0.99721  Biso   1.000  C
  H151     1.0000 0.39682  0.23298  0.06828  Biso   1.000  H
  C204     1.0000 0.46201  0.38090  0.11046  Biso   1.000  C
  C205     1.0000 0.44852  0.28251  0.03979  Biso   1.000  C
  H152     1.0000 0.50368  0.28641  0.13611  Biso   1.000  H
  H153     1.0000 0.45932  0.28600  0.14731  Biso   1.000  H
  C206     1.0000 0.39940  0.38622  0.00588  Biso   1.000  C
  Br25     1.0000 0.36726  0.27967  0.92204  Biso   1.000  Br
  Br26     1.0000 0.33842  0.27384  0.93628  Biso   1.000  Br
  C207     1.0000 0.50089  0.41405  0.16652  Biso   1.000  C
  C208     1.0000 0.43519  0.41532  0.05181  Biso   1.000  C
  C209     1.0000 0.42688  0.41948  0.06919  Biso   1.000  C
  H154     1.0000 0.45562  0.23592  0.02960  Biso   1.000  H
  H155     1.0000 0.37350  0.41111  0.97379  Biso   1.000  H
  N13      1.0000 0.46718  0.42855  0.22446  Biso   1.000  N
  O13      1.0000 0.56126  0.42683  0.15816  Biso   1.000  O
  H156     1.0000 0.44462  0.46231  0.04679  Biso   1.000  H
  H157     1.0000 0.41927  0.46611  0.07862  Biso   1.000  H
  C210     1.0000 0.39327  0.42541  0.23121  Biso   1.000  C
  C211     1.0000 0.50347  0.46170  0.28012  Biso   1.000  C
  C212     1.0000 0.37061  0.38511  0.29264  Biso   1.000  C
  H158     1.0000 0.37401  0.40442  0.18989  Biso   1.000  H
  H159     1.0000 0.37522  0.47199  0.23460  Biso   1.000  H
  H160     1.0000 0.55219  0.44989  0.27698  Biso   1.000  H
  H161     1.0000 0.48619  0.44381  0.32372  Biso   1.000  H
  C213     1.0000 0.49648  0.53830  0.28012  Biso   1.000  C
  C214     1.0000 0.40614  0.32813  0.31429  Biso   1.000  C
  C215     1.0000 0.31429  0.40614  0.32813  Biso   1.000  C
  N14      1.0000 0.53282  0.57145  0.22446  Biso   1.000  N
  H162     1.0000 0.44781  0.55011  0.27698  Biso   1.000  H
  H163     1.0000 0.51381  0.55619  0.32372  Biso   1.000  H
  H164     1.0000 0.44518  0.31358  0.29011  Biso   1.000  H
  C216     1.0000 0.38511  0.29264  0.37061  Biso   1.000  C
  C217     1.0000 0.29264  0.37061  0.38511  Biso   1.000  C
  H165     1.0000 0.29011  0.44518  0.31358  Biso   1.000  H
  C218     1.0000 0.60673  0.57459  0.23121  Biso   1.000  C
  C219     1.0000 0.49911  0.58595  0.16652  Biso   1.000  C
  C220     1.0000 0.42541  0.23121  0.39327  Biso   1.000  C
  C221     1.0000 0.32813  0.31429  0.40614  Biso   1.000  C
  C222     1.0000 0.23121  0.39327  0.42541  Biso   1.000  C
  C223     1.0000 0.62939  0.61489  0.29264  Biso   1.000  C
  H166     1.0000 0.62599  0.59558  0.18989  Biso   1.000  H
  H167     1.0000 0.62478  0.52801  0.23460  Biso   1.000  H
  O14      1.0000 0.43874  0.57317  0.15816  Biso   1.000  O
  C224     1.0000 0.53799  0.61910  0.11046  Biso   1.000  C
  N15      1.0000 0.42855  0.22446  0.46718  Biso   1.000  N
  H168     1.0000 0.40442  0.18989  0.37401  Biso   1.000  H
  H169     1.0000 0.47199  0.23460  0.37522  Biso   1.000  H
  H170     1.0000 0.31358  0.29011  0.44518  Biso   1.000  H
  N16      1.0000 0.22446  0.46718  0.42855  Biso   1.000  N
  H171     1.0000 0.18989  0.37401  0.40442  Biso   1.000  H
  H172     1.0000 0.23460  0.37522  0.47199  Biso   1.000  H
  C225     1.0000 0.68571  0.59381  0.32813  Biso   1.000  C
  C226     1.0000 0.59381  0.67187  0.31429  Biso   1.000  C
  C227     1.0000 0.52208  0.68840  0.10412  Biso   1.000  C
  C228     1.0000 0.56481  0.58468  0.05181  Biso   1.000  C
  C229     1.0000 0.57307  0.58047  0.06919  Biso   1.000  C
  C230     1.0000 0.55639  0.68769  0.11020  Biso   1.000  C
  C231     1.0000 0.46170  0.28012  0.50347  Biso   1.000  C
  C232     1.0000 0.41405  0.16652  0.50089  Biso   1.000  C
  C233     1.0000 0.28012  0.50347  0.46170  Biso   1.000  C
  C234     1.0000 0.16652  0.50089  0.41405  Biso   1.000  C
  H173     1.0000 0.70989  0.55477  0.31358  Biso   1.000  H
  C235     1.0000 0.70736  0.62939  0.38511  Biso   1.000  C
  H174     1.0000 0.55477  0.68642  0.29011  Biso   1.000  H
  C236     1.0000 0.61489  0.70736  0.37061  Biso   1.000  C
  C237     1.0000 0.55148  0.71749  0.03979  Biso   1.000  C
  H175     1.0000 0.49627  0.71359  0.13611  Biso   1.000  H
  C238     1.0000 0.59310  0.72008  0.06448  Biso   1.000  C
  H176     1.0000 0.54068  0.71400  0.14731  Biso   1.000  H
  C239     1.0000 0.60060  0.61378  0.00588  Biso   1.000  C
  H177     1.0000 0.55538  0.53769  0.04679  Biso   1.000  H
  H178     1.0000 0.58068  0.53389  0.07862  Biso   1.000  H
  H179     1.0000 0.44989  0.27698  0.55219  Biso   1.000  H
  H180     1.0000 0.44381  0.32372  0.48619  Biso   1.000  H
  C240     1.0000 0.53830  0.28012  0.49648  Biso   1.000  C
  O15      1.0000 0.42683  0.15816  0.56126  Biso   1.000  O
  C241     1.0000 0.38090  0.11046  0.46201  Biso   1.000  C
  H181     1.0000 0.27698  0.55219  0.44989  Biso   1.000  H
  H182     1.0000 0.32372  0.48619  0.44381  Biso   1.000  H
  C242     1.0000 0.28012  0.49648  0.53830  Biso   1.000  C
  O16      1.0000 0.15816  0.56126  0.42683  Biso   1.000  O
  C243     1.0000 0.11046  0.46201  0.38090  Biso   1.000  C
  C244     1.0000 0.67187  0.68571  0.40614  Biso   1.000  C
  C245     1.0000 0.76879  0.60673  0.42541  Biso   1.000  C
  C246     1.0000 0.57459  0.76879  0.39327  Biso   1.000  C
  H183     1.0000 0.54438  0.76408  0.02960  Biso   1.000  H
  C247     1.0000 0.61601  0.68029  0.00968  Biso   1.000  C
  C248     1.0000 0.58722  0.67958  0.99721  Biso   1.000  C
  H184     1.0000 0.60318  0.76702  0.06828  Biso   1.000  H
  H185     1.0000 0.62650  0.58889  0.97379  Biso   1.000  H
  N17      1.0000 0.57145  0.22446  0.53282  Biso   1.000  N
  H186     1.0000 0.55011  0.27698  0.44781  Biso   1.000  H
  H187     1.0000 0.55619  0.32372  0.51381  Biso   1.000  H
  C249     1.0000 0.31160  0.10412  0.47787  Biso   1.000  C
  C250     1.0000 0.41532  0.05181  0.43519  Biso   1.000  C
  C251     1.0000 0.41948  0.06919  0.42688  Biso   1.000  C
  C252     1.0000 0.31231  0.11020  0.44361  Biso   1.000  C
  N18      1.0000 0.22446  0.53282  0.57145  Biso   1.000  N
  H188     1.0000 0.27698  0.44781  0.55011  Biso   1.000  H
  H189     1.0000 0.32372  0.51381  0.55619  Biso   1.000  H
  C253     1.0000 0.10412  0.47787  0.31160  Biso   1.000  C
  C254     1.0000 0.05181  0.43519  0.41532  Biso   1.000  C
  C255     1.0000 0.06919  0.42688  0.41948  Biso   1.000  C
  C256     1.0000 0.11020  0.44361  0.31231  Biso   1.000  C
  H190     1.0000 0.68642  0.70989  0.44518  Biso   1.000  H
  N19      1.0000 0.77554  0.53282  0.42855  Biso   1.000  N
  H191     1.0000 0.81011  0.62599  0.40442  Biso   1.000  H
  H192     1.0000 0.76540  0.62478  0.47199  Biso   1.000  H
  N20      1.0000 0.57145  0.77554  0.46718  Biso   1.000  N
  H193     1.0000 0.59558  0.81011  0.37401  Biso   1.000  H
  H194     1.0000 0.52801  0.76540  0.37522  Biso   1.000  H
  Br27     1.0000 0.63274  0.72033  0.92204  Biso   1.000  Br
  Br28     1.0000 0.66158  0.72616  0.93628  Biso   1.000  Br
  C257     1.0000 0.57459  0.23121  0.60673  Biso   1.000  C
  C258     1.0000 0.58595  0.16652  0.49911  Biso   1.000  C
  C259     1.0000 0.28251  0.03979  0.44852  Biso   1.000  C
  H195     1.0000 0.28641  0.13611  0.50368  Biso   1.000  H
  C260     1.0000 0.27992  0.06448  0.40690  Biso   1.000  C
  H196     1.0000 0.28600  0.14731  0.45932  Biso   1.000  H
  C261     1.0000 0.38622  0.00588  0.39940  Biso   1.000  C
  H197     1.0000 0.46231  0.04679  0.44462  Biso   1.000  H
  H198     1.0000 0.46611  0.07862  0.41927  Biso   1.000  H
  C262     1.0000 0.23121  0.60673  0.57459  Biso   1.000  C
  C263     1.0000 0.16652  0.49911  0.58595  Biso   1.000  C
  C264     1.0000 0.03979  0.44852  0.28251  Biso   1.000  C
  H199     1.0000 0.13611  0.50368  0.28641  Biso   1.000  H
  C265     1.0000 0.06448  0.40690  0.27992  Biso   1.000  C
  H200     1.0000 0.14731  0.45932  0.28600  Biso   1.000  H
  C266     1.0000 0.00588  0.39940  0.38622  Biso   1.000  C
  H201     1.0000 0.04679  0.44462  0.46231  Biso   1.000  H
  H202     1.0000 0.07862  0.41927  0.46611  Biso   1.000  H
  C267     1.0000 0.71988  0.49648  0.46170  Biso   1.000  C
  C268     1.0000 0.83348  0.49911  0.41405  Biso   1.000  C
  C269     1.0000 0.53830  0.71988  0.50347  Biso   1.000  C
  C270     1.0000 0.58595  0.83348  0.50089  Biso   1.000  C
  C271     1.0000 0.61489  0.29264  0.62939  Biso   1.000  C
  H203     1.0000 0.59558  0.18989  0.62599  Biso   1.000  H
  H204     1.0000 0.52801  0.23460  0.62478  Biso   1.000  H
  O17      1.0000 0.57317  0.15816  0.43874  Biso   1.000  O
  C272     1.0000 0.61910  0.11046  0.53799  Biso   1.000  C
  H205     1.0000 0.23592  0.02960  0.45562  Biso   1.000  H
  C273     1.0000 0.31971  0.00968  0.38399  Biso   1.000  C
  C274     1.0000 0.32037  0.99721  0.41278  Biso   1.000  C
  H206     1.0000 0.23298  0.06828  0.39682  Biso   1.000  H
  H207     1.0000 0.41111  0.97379  0.37350  Biso   1.000  H
  C275     1.0000 0.29264  0.62939  0.61489  Biso   1.000  C
  H208     1.0000 0.18989  0.62599  0.59558  Biso   1.000  H
  H209     1.0000 0.23460  0.62478  0.52801  Biso   1.000  H
  O18      1.0000 0.15816  0.43874  0.57317  Biso   1.000  O
  C276     1.0000 0.11046  0.53799  0.61910  Biso   1.000  C
  H210     1.0000 0.02960  0.45562  0.23592  Biso   1.000  H
  C277     1.0000 0.00968  0.38399  0.31971  Biso   1.000  C
  C278     1.0000 0.99721  0.41278  0.32037  Biso   1.000  C
  H211     1.0000 0.06828  0.39682  0.23298  Biso   1.000  H
  H212     1.0000 0.97379  0.37350  0.41111  Biso   1.000  H
  C279     1.0000 0.71988  0.50347  0.53830  Biso   1.000  C
  H213     1.0000 0.72302  0.44781  0.44989  Biso   1.000  H
  H214     1.0000 0.67628  0.51381  0.44381  Biso   1.000  H
  O19      1.0000 0.84179  0.43874  0.42683  Biso   1.000  O
  C280     1.0000 0.88954  0.53799  0.38090  Biso   1.000  C
  C281     1.0000 0.46170  0.71988  0.49648  Biso   1.000  C
  H215     1.0000 0.55011  0.72302  0.55219  Biso   1.000  H
  H216     1.0000 0.55619  0.67628  0.48619  Biso   1.000  H
  O20      1.0000 0.57317  0.84179  0.56126  Biso   1.000  O
  C282     1.0000 0.61910  0.88954  0.46201  Biso   1.000  C
  C283     1.0000 0.59381  0.32813  0.68571  Biso   1.000  C
  C284     1.0000 0.67187  0.31429  0.59381  Biso   1.000  C
  C285     1.0000 0.68840  0.10412  0.52208  Biso   1.000  C
  C286     1.0000 0.58468  0.05181  0.56481  Biso   1.000  C
  C287     1.0000 0.58047  0.06919  0.57307  Biso   1.000  C
  C288     1.0000 0.68769  0.11020  0.55639  Biso   1.000  C
  Br29     1.0000 0.27967  0.92204  0.36726  Biso   1.000  Br
  Br30     1.0000 0.27384  0.93628  0.33842  Biso   1.000  Br
  C289     1.0000 0.32813  0.68571  0.59381  Biso   1.000  C
  C290     1.0000 0.31429  0.59381  0.67187  Biso   1.000  C
  C291     1.0000 0.10412  0.52208  0.68840  Biso   1.000  C
  C292     1.0000 0.05181  0.56481  0.58468  Biso   1.000  C
  C293     1.0000 0.06919  0.57307  0.58047  Biso   1.000  C
  C294     1.0000 0.11020  0.55639  0.68769  Biso   1.000  C
  Br31     1.0000 0.92204  0.36726  0.27967  Biso   1.000  Br
  Br32     1.0000 0.93628  0.33842  0.27384  Biso   1.000  Br
  N21      1.0000 0.77554  0.46718  0.57145  Biso   1.000  N
  H217     1.0000 0.72302  0.55219  0.55011  Biso   1.000  H
  H218     1.0000 0.67628  0.48619  0.55619  Biso   1.000  H
  C295     1.0000 0.89588  0.52208  0.31160  Biso   1.000  C
  C296     1.0000 0.94819  0.56481  0.41532  Biso   1.000  C
  C297     1.0000 0.93081  0.57307  0.41948  Biso   1.000  C
  C298     1.0000 0.88980  0.55639  0.31231  Biso   1.000  C
  N22      1.0000 0.42855  0.77554  0.53282  Biso   1.000  N
  H219     1.0000 0.44989  0.72302  0.44781  Biso   1.000  H
  H220     1.0000 0.44381  0.67628  0.51381  Biso   1.000  H
  C299     1.0000 0.68840  0.89588  0.47787  Biso   1.000  C
  C300     1.0000 0.58468  0.94819  0.43519  Biso   1.000  C
  C301     1.0000 0.58047  0.93081  0.42688  Biso   1.000  C
  C302     1.0000 0.68769  0.88980  0.44361  Biso   1.000  C
  H221     1.0000 0.55477  0.31358  0.70989  Biso   1.000  H
  C303     1.0000 0.62939  0.38511  0.70736  Biso   1.000  C
  H222     1.0000 0.68642  0.29011  0.55477  Biso   1.000  H
  C304     1.0000 0.70736  0.37061  0.61489  Biso   1.000  C
  C305     1.0000 0.71749  0.03979  0.55148  Biso   1.000  C
  H223     1.0000 0.71359  0.13611  0.49627  Biso   1.000  H
  C306     1.0000 0.72008  0.06448  0.59310  Biso   1.000  C
  H224     1.0000 0.71400  0.14731  0.54068  Biso   1.000  H
  C307     1.0000 0.61378  0.00588  0.60060  Biso   1.000  C
  H225     1.0000 0.53769  0.04679  0.55538  Biso   1.000  H
  H226     1.0000 0.53389  0.07862  0.58068  Biso   1.000  H
  H227     1.0000 0.31358  0.70989  0.55477  Biso   1.000  H
  C308     1.0000 0.38511  0.70736  0.62939  Biso   1.000  C
  H228     1.0000 0.29011  0.55477  0.68642  Biso   1.000  H
  C309     1.0000 0.37061  0.61489  0.70736  Biso   1.000  C
  C310     1.0000 0.03979  0.55148  0.71749  Biso   1.000  C
  H229     1.0000 0.13611  0.49627  0.71359  Biso   1.000  H
  C311     1.0000 0.06448  0.59310  0.72008  Biso   1.000  C
  H230     1.0000 0.14731  0.54068  0.71400  Biso   1.000  H
  C312     1.0000 0.00588  0.60060  0.61378  Biso   1.000  C
  H231     1.0000 0.04679  0.55538  0.53769  Biso   1.000  H
  H232     1.0000 0.07862  0.58068  0.53389  Biso   1.000  H
  C313     1.0000 0.76879  0.39327  0.57459  Biso   1.000  C
  C314     1.0000 0.83348  0.50089  0.58595  Biso   1.000  C
  C315     1.0000 0.96021  0.55148  0.28251  Biso   1.000  C
  H233     1.0000 0.86389  0.49627  0.28641  Biso   1.000  H
  C316     1.0000 0.93552  0.59310  0.27992  Biso   1.000  C
  H234     1.0000 0.85269  0.54068  0.28600  Biso   1.000  H
  C317     1.0000 0.99412  0.60060  0.38622  Biso   1.000  C
  H235     1.0000 0.95321  0.55538  0.46231  Biso   1.000  H
  H236     1.0000 0.92138  0.58068  0.46611  Biso   1.000  H
  C318     1.0000 0.42541  0.76879  0.60673  Biso   1.000  C
  C319     1.0000 0.41405  0.83348  0.49911  Biso   1.000  C
  C320     1.0000 0.71749  0.96021  0.44852  Biso   1.000  C
  H237     1.0000 0.71359  0.86389  0.50368  Biso   1.000  H
  C321     1.0000 0.72008  0.93552  0.40690  Biso   1.000  C
  H238     1.0000 0.71400  0.85269  0.45932  Biso   1.000  H
  C322     1.0000 0.61378  0.99412  0.39940  Biso   1.000  C
  H239     1.0000 0.53769  0.95321  0.44462  Biso   1.000  H
  H240     1.0000 0.53389  0.92138  0.41927  Biso   1.000  H
  C323     1.0000 0.68571  0.40614  0.67187  Biso   1.000  C
  C324     1.0000 0.60673  0.42541  0.76879  Biso   1.000  C
  H241     1.0000 0.76408  0.02960  0.54438  Biso   1.000  H
  C325     1.0000 0.68029  0.00968  0.61601  Biso   1.000  C
  C326     1.0000 0.67958  0.99721  0.58722  Biso   1.000  C
  H242     1.0000 0.76702  0.06828  0.60318  Biso   1.000  H
  H243     1.0000 0.58889  0.97379  0.62650  Biso   1.000  H
  C327     1.0000 0.40614  0.67187  0.68571  Biso   1.000  C
  C328     1.0000 0.39327  0.57459  0.76879  Biso   1.000  C
  H244     1.0000 0.02960  0.54438  0.76408  Biso   1.000  H
  C329     1.0000 0.00968  0.61601  0.68029  Biso   1.000  C
  C330     1.0000 0.99721  0.58722  0.67958  Biso   1.000  C
  H245     1.0000 0.06828  0.60318  0.76702  Biso   1.000  H
  H246     1.0000 0.97379  0.62650  0.58889  Biso   1.000  H
  H247     1.0000 0.81011  0.37401  0.59558  Biso   1.000  H
  H248     1.0000 0.76540  0.37522  0.52801  Biso   1.000  H
  O21      1.0000 0.84179  0.56126  0.57317  Biso   1.000  O
  C331     1.0000 0.88954  0.46201  0.61910  Biso   1.000  C
  H249     1.0000 0.97040  0.54438  0.23592  Biso   1.000  H
  C332     1.0000 0.99032  0.61601  0.31971  Biso   1.000  C
  C333     1.0000 0.00279  0.58722  0.32037  Biso   1.000  C
  H250     1.0000 0.93172  0.60318  0.23298  Biso   1.000  H
  H251     1.0000 0.02621  0.62650  0.41111  Biso   1.000  H
  H252     1.0000 0.40442  0.81011  0.62599  Biso   1.000  H
  H253     1.0000 0.47199  0.76540  0.62478  Biso   1.000  H
  O22      1.0000 0.42683  0.84179  0.43874  Biso   1.000  O
  C334     1.0000 0.38090  0.88954  0.53799  Biso   1.000  C
  H254     1.0000 0.76408  0.97040  0.45562  Biso   1.000  H
  C335     1.0000 0.68029  0.99032  0.38399  Biso   1.000  C
  C336     1.0000 0.67958  0.00279  0.41278  Biso   1.000  C
  H255     1.0000 0.76702  0.93172  0.39682  Biso   1.000  H
  H256     1.0000 0.58889  0.02621  0.37350  Biso   1.000  H
  H257     1.0000 0.70989  0.44518  0.68642  Biso   1.000  H
  N23      1.0000 0.53282  0.42855  0.77554  Biso   1.000  N
  H258     1.0000 0.62599  0.40442  0.81011  Biso   1.000  H
  H259     1.0000 0.62478  0.47199  0.76540  Biso   1.000  H
  Br33     1.0000 0.72033  0.92204  0.63274  Biso   1.000  Br
  Br34     1.0000 0.72616  0.93628  0.66158  Biso   1.000  Br
  H260     1.0000 0.44518  0.68642  0.70989  Biso   1.000  H
  N24      1.0000 0.46718  0.57145  0.77554  Biso   1.000  N
  H261     1.0000 0.37401  0.59558  0.81011  Biso   1.000  H
  H262     1.0000 0.37522  0.52801  0.76540  Biso   1.000  H
  Br35     1.0000 0.92204  0.63274  0.72033  Biso   1.000  Br
  Br36     1.0000 0.93628  0.66158  0.72616  Biso   1.000  Br
  C337     1.0000 0.89588  0.47787  0.68840  Biso   1.000  C
  C338     1.0000 0.94819  0.43519  0.58468  Biso   1.000  C
  C339     1.0000 0.93081  0.42688  0.58047  Biso   1.000  C
  C340     1.0000 0.88980  0.44361  0.68769  Biso   1.000  C
  Br37     1.0000 0.07796  0.63274  0.27967  Biso   1.000  Br
  Br38     1.0000 0.06372  0.66158  0.27384  Biso   1.000  Br
  C341     1.0000 0.31160  0.89588  0.52208  Biso   1.000  C
  C342     1.0000 0.41532  0.94819  0.56481  Biso   1.000  C
  C343     1.0000 0.41948  0.93081  0.57307  Biso   1.000  C
  C344     1.0000 0.31231  0.88980  0.55639  Biso   1.000  C
  Br39     1.0000 0.72033  0.07796  0.36726  Biso   1.000  Br
  Br40     1.0000 0.72616  0.06372  0.33842  Biso   1.000  Br
  C345     1.0000 0.49648  0.46170  0.71988  Biso   1.000  C
  C346     1.0000 0.49911  0.41405  0.83348  Biso   1.000  C
  C347     1.0000 0.50347  0.53830  0.71988  Biso   1.000  C
  C348     1.0000 0.50089  0.58595  0.83348  Biso   1.000  C
  C349     1.0000 0.96021  0.44852  0.71749  Biso   1.000  C
  H263     1.0000 0.86389  0.50368  0.71359  Biso   1.000  H
  C350     1.0000 0.93552  0.40690  0.72008  Biso   1.000  C
  H264     1.0000 0.85269  0.45932  0.71400  Biso   1.000  H
  C351     1.0000 0.99412  0.39940  0.61378  Biso   1.000  C
  H265     1.0000 0.95321  0.44462  0.53769  Biso   1.000  H
  H266     1.0000 0.92138  0.41927  0.53389  Biso   1.000  H
  C352     1.0000 0.28251  0.96021  0.55148  Biso   1.000  C
  H267     1.0000 0.28641  0.86389  0.49627  Biso   1.000  H
  C353     1.0000 0.27992  0.93552  0.59310  Biso   1.000  C
  H268     1.0000 0.28600  0.85269  0.54068  Biso   1.000  H
  C354     1.0000 0.38622  0.99412  0.60060  Biso   1.000  C
  H269     1.0000 0.46231  0.95321  0.55538  Biso   1.000  H
  H270     1.0000 0.46611  0.92138  0.58068  Biso   1.000  H
  H271     1.0000 0.44781  0.44989  0.72302  Biso   1.000  H
  H272     1.0000 0.51381  0.44381  0.67628  Biso   1.000  H
  O23      1.0000 0.43874  0.42683  0.84179  Biso   1.000  O
  C355     1.0000 0.53799  0.38090  0.88954  Biso   1.000  C
  H273     1.0000 0.55219  0.55011  0.72302  Biso   1.000  H
  H274     1.0000 0.48619  0.55619  0.67628  Biso   1.000  H
  O24      1.0000 0.56126  0.57317  0.84179  Biso   1.000  O
  C356     1.0000 0.46201  0.61910  0.88954  Biso   1.000  C
  H275     1.0000 0.97040  0.45562  0.76408  Biso   1.000  H
  C357     1.0000 0.99032  0.38399  0.68029  Biso   1.000  C
  C358     1.0000 0.00279  0.41278  0.67958  Biso   1.000  C
  H276     1.0000 0.93172  0.39682  0.76702  Biso   1.000  H
  H277     1.0000 0.02621  0.37350  0.58889  Biso   1.000  H
  H278     1.0000 0.23592  0.97040  0.54438  Biso   1.000  H
  C359     1.0000 0.31971  0.99032  0.61601  Biso   1.000  C
  C360     1.0000 0.32037  0.00279  0.58722  Biso   1.000  C
  H279     1.0000 0.23298  0.93172  0.60318  Biso   1.000  H
  H280     1.0000 0.41111  0.02621  0.62650  Biso   1.000  H
  C361     1.0000 0.52208  0.31160  0.89588  Biso   1.000  C
  C362     1.0000 0.56481  0.41532  0.94819  Biso   1.000  C
  C363     1.0000 0.57307  0.41948  0.93081  Biso   1.000  C
  C364     1.0000 0.55639  0.31231  0.88980  Biso   1.000  C
  C365     1.0000 0.47787  0.68840  0.89588  Biso   1.000  C
  C366     1.0000 0.43519  0.58468  0.94819  Biso   1.000  C
  C367     1.0000 0.42688  0.58047  0.93081  Biso   1.000  C
  C368     1.0000 0.44361  0.68769  0.88980  Biso   1.000  C
  Br41     1.0000 0.07796  0.36726  0.72033  Biso   1.000  Br
  Br42     1.0000 0.06372  0.33842  0.72616  Biso   1.000  Br
  Br43     1.0000 0.27967  0.07796  0.63274  Biso   1.000  Br
  Br44     1.0000 0.27384  0.06372  0.66158  Biso   1.000  Br
  C369     1.0000 0.55148  0.28251  0.96021  Biso   1.000  C
  H281     1.0000 0.49627  0.28641  0.86389  Biso   1.000  H
  C370     1.0000 0.59310  0.27992  0.93552  Biso   1.000  C
  H282     1.0000 0.54068  0.28600  0.85269  Biso   1.000  H
  C371     1.0000 0.60060  0.38622  0.99412  Biso   1.000  C
  H283     1.0000 0.55538  0.46231  0.95321  Biso   1.000  H
  H284     1.0000 0.58068  0.46611  0.92138  Biso   1.000  H
  C372     1.0000 0.44852  0.71749  0.96021  Biso   1.000  C
  H285     1.0000 0.50368  0.71359  0.86389  Biso   1.000  H
  C373     1.0000 0.40690  0.72008  0.93552  Biso   1.000  C
  H286     1.0000 0.45932  0.71400  0.85269  Biso   1.000  H
  C374     1.0000 0.39940  0.61378  0.99412  Biso   1.000  C
  H287     1.0000 0.44462  0.53769  0.95321  Biso   1.000  H
  H288     1.0000 0.41927  0.53389  0.92138  Biso   1.000  H
  H289     1.0000 0.54438  0.23592  0.97040  Biso   1.000  H
  C375     1.0000 0.61601  0.31971  0.99032  Biso   1.000  C
  C376     1.0000 0.58722  0.32037  0.00279  Biso   1.000  C
  H290     1.0000 0.60318  0.23298  0.93172  Biso   1.000  H
  H291     1.0000 0.62650  0.41111  0.02621  Biso   1.000  H
  H292     1.0000 0.45562  0.76408  0.97040  Biso   1.000  H
  C377     1.0000 0.38399  0.68029  0.99032  Biso   1.000  C
  C378     1.0000 0.41278  0.67958  0.00279  Biso   1.000  C
  H293     1.0000 0.39682  0.76702  0.93172  Biso   1.000  H
  H294     1.0000 0.37350  0.58889  0.02621  Biso   1.000  H
  Br45     1.0000 0.63274  0.27967  0.07796  Biso   1.000  Br
  Br46     1.0000 0.66158  0.27384  0.06372  Biso   1.000  Br
  Br47     1.0000 0.36726  0.72033  0.07796  Biso   1.000  Br
  Br48     1.0000 0.33842  0.72616  0.06372  Biso   1.000  Br
  Ne1      1.0000 0.50000  0.50000  0.50000  Biso   1.000  Ne
  He1      1.0000 0.40787  0.40785  0.59213  Biso   1.000  He
  He2      1.0000 0.59176  0.59176  0.59176  Biso   1.000  He
  He3      1.0000 0.59076  0.40924  0.40922  Biso   1.000  He
  He4      1.0000 0.40734  0.59263  0.40737  Biso   1.000  He
  Ar1      1.0000 0.50000  0.50000  0.50000  Biso   1.000  Ar
  Ne2      1.0000 0.00299  0.00299  0.00299  Biso   1.000  Ne
  He5      1.0000 0.90784  0.90784  0.09216  Biso   1.000  He
  He6      1.0000 0.09178  0.09178  0.09179  Biso   1.000  He
  He7      1.0000 0.09079  0.90921  0.90921  Biso   1.000  He
  He8      1.0000 0.90735  0.09265  0.90735  Biso   1.000  He
  Ar2      1.0000 0.00000  0.00000  0.00000  Biso   1.000  Ar
