data_image0
_cell_length_a       20.329
_cell_length_b       20.329
_cell_length_c       20.329
_cell_angle_alpha    90
_cell_angle_beta     90
_cell_angle_gamma    90

_symmetry_space_group_name_H-M    "P 1"
_symmetry_int_tables_number       1

loop_
  _symmetry_equiv_pos_as_xyz
  'x, y, z'

loop_
  _atom_site_label
  _atom_site_occupancy
  _atom_site_fract_x
  _atom_site_fract_y
  _atom_site_fract_z
  _atom_site_thermal_displace_type
  _atom_site_B_iso_or_equiv
  _atom_site_type_symbol
  C1       1.0000 0.63850  0.54922  0.62728  Biso   1.000  C
  C2       1.0000 0.66039  0.58321  0.57199  Biso   1.000  C
  C3       1.0000 0.58321  0.57199  0.66039  Biso   1.000  C
  C4       1.0000 0.67470  0.48802  0.64838  Biso   1.000  C
  C5       1.0000 0.62728  0.63850  0.54922  Biso   1.000  C
  H1       1.0000 0.69851  0.56840  0.54951  Biso   1.000  H
  C6       1.0000 0.54922  0.62728  0.63850  Biso   1.000  C
  H2       1.0000 0.56840  0.54951  0.69851  Biso   1.000  H
  N1       1.0000 0.67923  0.48177  0.72040  Biso   1.000  N
  H3       1.0000 0.65178  0.44901  0.63048  Biso   1.000  H
  H4       1.0000 0.71971  0.48891  0.62969  Biso   1.000  H
  C7       1.0000 0.64838  0.67470  0.48802  Biso   1.000  C
  C8       1.0000 0.57199  0.66039  0.58321  Biso   1.000  C
  C9       1.0000 0.48802  0.64838  0.67470  Biso   1.000  C
  C10      1.0000 0.71410  0.53559  0.75469  Biso   1.000  C
  C11      1.0000 0.66417  0.42722  0.75331  Biso   1.000  C
  N2       1.0000 0.72040  0.67923  0.48177  Biso   1.000  N
  H5       1.0000 0.63048  0.65178  0.44901  Biso   1.000  H
  H6       1.0000 0.62969  0.71971  0.48891  Biso   1.000  H
  H7       1.0000 0.54951  0.69851  0.56840  Biso   1.000  H
  N3       1.0000 0.48177  0.72040  0.67923  Biso   1.000  N
  H8       1.0000 0.44901  0.63048  0.65178  Biso   1.000  H
  H9       1.0000 0.48891  0.62969  0.71971  Biso   1.000  H
  C12      1.0000 0.78587  0.53559  0.74529  Biso   1.000  C
  H10      1.0000 0.69639  0.57809  0.73899  Biso   1.000  H
  H11      1.0000 0.70471  0.53239  0.80240  Biso   1.000  H
  O1       1.0000 0.67819  0.42058  0.81071  Biso   1.000  O
  C13      1.0000 0.63732  0.36839  0.71710  Biso   1.000  C
  C14      1.0000 0.61302  0.38757  0.71942  Biso   1.000  C
  C15      1.0000 0.75331  0.66417  0.42722  Biso   1.000  C
  C16      1.0000 0.75469  0.71410  0.53559  Biso   1.000  C
  C17      1.0000 0.53559  0.75469  0.71410  Biso   1.000  C
  C18      1.0000 0.42722  0.75331  0.66417  Biso   1.000  C
  N4       1.0000 0.82075  0.48177  0.77958  Biso   1.000  N
  H12      1.0000 0.80358  0.57809  0.76098  Biso   1.000  H
  H13      1.0000 0.79532  0.53239  0.69757  Biso   1.000  H
  C19      1.0000 0.57322  0.36278  0.70702  Biso   1.000  C
  C20      1.0000 0.67869  0.31718  0.69679  Biso   1.000  C
  C21      1.0000 0.63230  0.33120  0.69600  Biso   1.000  C
  C22      1.0000 0.54621  0.40332  0.71651  Biso   1.000  C
  C23      1.0000 0.71710  0.63732  0.36839  Biso   1.000  C
  C24      1.0000 0.71942  0.61302  0.38757  Biso   1.000  C
  O2       1.0000 0.81071  0.67819  0.42058  Biso   1.000  O
  H14      1.0000 0.73899  0.69639  0.57809  Biso   1.000  H
  H15      1.0000 0.80240  0.70471  0.53239  Biso   1.000  H
  C25      1.0000 0.74529  0.78587  0.53559  Biso   1.000  C
  C26      1.0000 0.53559  0.74529  0.78587  Biso   1.000  C
  H16      1.0000 0.57809  0.73899  0.69639  Biso   1.000  H
  H17      1.0000 0.53239  0.80240  0.70471  Biso   1.000  H
  O3       1.0000 0.42058  0.81071  0.67819  Biso   1.000  O
  C27      1.0000 0.36839  0.71710  0.63732  Biso   1.000  C
  C28      1.0000 0.38757  0.71942  0.61302  Biso   1.000  C
  C29      1.0000 0.82527  0.48802  0.85159  Biso   1.000  C
  C30      1.0000 0.83580  0.42722  0.74672  Biso   1.000  C
  H18      1.0000 0.54479  0.39712  0.72099  Biso   1.000  H
  C31      1.0000 0.54528  0.30459  0.67480  Biso   1.000  C
  C32      1.0000 0.50140  0.36101  0.68838  Biso   1.000  C
  C33      1.0000 0.65399  0.26160  0.66619  Biso   1.000  C
  H19      1.0000 0.72468  0.32067  0.70431  Biso   1.000  H
  H20      1.0000 0.67810  0.32151  0.69561  Biso   1.000  H
  C34      1.0000 0.58601  0.28191  0.66988  Biso   1.000  C
  H21      1.0000 0.53131  0.44390  0.73417  Biso   1.000  H
  C35      1.0000 0.70702  0.57322  0.36278  Biso   1.000  C
  C36      1.0000 0.69679  0.67869  0.31718  Biso   1.000  C
  C37      1.0000 0.71651  0.54621  0.40332  Biso   1.000  C
  C38      1.0000 0.69600  0.63230  0.33120  Biso   1.000  C
  N5       1.0000 0.77958  0.82075  0.48177  Biso   1.000  N
  H22      1.0000 0.76098  0.80358  0.57809  Biso   1.000  H
  H23      1.0000 0.69757  0.79532  0.53239  Biso   1.000  H
  N6       1.0000 0.48177  0.77958  0.82075  Biso   1.000  N
  H24      1.0000 0.57809  0.76098  0.80358  Biso   1.000  H
  H25      1.0000 0.53239  0.69757  0.79532  Biso   1.000  H
  C39      1.0000 0.36278  0.70702  0.57322  Biso   1.000  C
  C40      1.0000 0.31718  0.69679  0.67869  Biso   1.000  C
  C41      1.0000 0.33120  0.69600  0.63230  Biso   1.000  C
  C42      1.0000 0.40332  0.71651  0.54621  Biso   1.000  C
  C43      1.0000 0.86148  0.54922  0.87269  Biso   1.000  C
  H26      1.0000 0.84820  0.44901  0.86950  Biso   1.000  H
  H27      1.0000 0.78031  0.48891  0.87028  Biso   1.000  H
  O4       1.0000 0.82178  0.42058  0.68931  Biso   1.000  O
  C44      1.0000 0.86271  0.36839  0.78287  Biso   1.000  C
  C45      1.0000 0.88701  0.38757  0.78061  Biso   1.000  C
  C46      1.0000 0.47730  0.29731  0.66378  Biso   1.000  C
  C47      1.0000 0.58660  0.25569  0.65507  Biso   1.000  C
  H28      1.0000 0.44759  0.32978  0.67937  Biso   1.000  H
  C48      1.0000 0.52231  0.30090  0.66299  Biso   1.000  C
  H29      1.0000 0.45629  0.37292  0.68621  Biso   1.000  H
  H30      1.0000 0.68301  0.22751  0.65271  Biso   1.000  H
  C49      1.0000 0.60628  0.22328  0.63899  Biso   1.000  C
  H31      1.0000 0.65119  0.21619  0.62841  Biso   1.000  H
  C50      1.0000 0.67480  0.54528  0.30459  Biso   1.000  C
  C51      1.0000 0.68838  0.50140  0.36101  Biso   1.000  C
  H32      1.0000 0.72099  0.54479  0.39712  Biso   1.000  H
  C52      1.0000 0.66619  0.65399  0.26160  Biso   1.000  C
  H33      1.0000 0.70431  0.72468  0.32067  Biso   1.000  H
  H34      1.0000 0.73417  0.53131  0.44390  Biso   1.000  H
  C53      1.0000 0.66988  0.58601  0.28191  Biso   1.000  C
  H35      1.0000 0.69561  0.67810  0.32151  Biso   1.000  H
  C54      1.0000 0.85159  0.82527  0.48802  Biso   1.000  C
  C55      1.0000 0.74672  0.83580  0.42722  Biso   1.000  C
  C56      1.0000 0.48802  0.85159  0.82527  Biso   1.000  C
  C57      1.0000 0.42722  0.74672  0.83580  Biso   1.000  C
  H36      1.0000 0.39712  0.72099  0.54479  Biso   1.000  H
  C58      1.0000 0.30459  0.67480  0.54528  Biso   1.000  C
  C59      1.0000 0.36101  0.68838  0.50140  Biso   1.000  C
  C60      1.0000 0.26160  0.66619  0.65399  Biso   1.000  C
  H37      1.0000 0.32067  0.70431  0.72468  Biso   1.000  H
  H38      1.0000 0.32151  0.69561  0.67810  Biso   1.000  H
  C61      1.0000 0.28191  0.66988  0.58601  Biso   1.000  C
  H39      1.0000 0.44390  0.73417  0.53131  Biso   1.000  H
  C62      1.0000 0.83959  0.58321  0.92798  Biso   1.000  C
  C63      1.0000 0.91682  0.57199  0.83959  Biso   1.000  C
  C64      1.0000 0.92680  0.36278  0.79301  Biso   1.000  C
  C65      1.0000 0.82129  0.31718  0.80319  Biso   1.000  C
  C66      1.0000 0.86768  0.33120  0.80397  Biso   1.000  C
  C67      1.0000 0.95381  0.40332  0.78351  Biso   1.000  C
  C68      1.0000 0.45492  0.24610  0.63230  Biso   1.000  C
  C69      1.0000 0.47809  0.25191  0.63899  Biso   1.000  C
  H40      1.0000 0.43258  0.26199  0.63668  Biso   1.000  H
  C70      1.0000 0.55871  0.20149  0.61951  Biso   1.000  C
  C71      1.0000 0.56201  0.17891  0.62531  Biso   1.000  C
  C72      1.0000 0.66378  0.47730  0.29731  Biso   1.000  C
  C73      1.0000 0.65507  0.58660  0.25569  Biso   1.000  C
  H41      1.0000 0.67937  0.44759  0.32978  Biso   1.000  H
  C74      1.0000 0.66299  0.52231  0.30090  Biso   1.000  C
  H42      1.0000 0.68621  0.45629  0.37292  Biso   1.000  H
  C75      1.0000 0.63899  0.60628  0.22328  Biso   1.000  C
  H43      1.0000 0.62841  0.65119  0.21619  Biso   1.000  H
  H44      1.0000 0.65271  0.68301  0.22751  Biso   1.000  H
  C76      1.0000 0.87269  0.86148  0.54922  Biso   1.000  C
  H45      1.0000 0.86950  0.84820  0.44901  Biso   1.000  H
  H46      1.0000 0.87028  0.78031  0.48891  Biso   1.000  H
  O5       1.0000 0.68931  0.82178  0.42058  Biso   1.000  O
  C77      1.0000 0.78287  0.86271  0.36839  Biso   1.000  C
  C78      1.0000 0.78061  0.88701  0.38757  Biso   1.000  C
  C79      1.0000 0.54922  0.87269  0.86148  Biso   1.000  C
  H47      1.0000 0.44901  0.86950  0.84820  Biso   1.000  H
  H48      1.0000 0.48891  0.87028  0.78031  Biso   1.000  H
  O6       1.0000 0.42058  0.68931  0.82178  Biso   1.000  O
  C80      1.0000 0.36839  0.78287  0.86271  Biso   1.000  C
  C81      1.0000 0.38757  0.78061  0.88701  Biso   1.000  C
  C82      1.0000 0.29731  0.66378  0.47730  Biso   1.000  C
  C83      1.0000 0.25569  0.65507  0.58660  Biso   1.000  C
  H49      1.0000 0.32978  0.67937  0.44759  Biso   1.000  H
  C84      1.0000 0.30090  0.66299  0.52231  Biso   1.000  C
  H50      1.0000 0.37292  0.68621  0.45629  Biso   1.000  H
  H51      1.0000 0.22751  0.65271  0.68301  Biso   1.000  H
  C85      1.0000 0.22328  0.63899  0.60628  Biso   1.000  C
  H52      1.0000 0.21619  0.62841  0.65119  Biso   1.000  H
  H53      1.0000 0.80152  0.56840  0.95051  Biso   1.000  H
  C86      1.0000 0.87269  0.63850  0.95076  Biso   1.000  C
  C87      1.0000 0.95076  0.62728  0.86148  Biso   1.000  C
  H54      1.0000 0.93158  0.54951  0.80152  Biso   1.000  H
  H55      1.0000 0.95519  0.39712  0.77899  Biso   1.000  H
  C88      1.0000 0.95470  0.30459  0.82518  Biso   1.000  C
  C89      1.0000 0.99857  0.36101  0.81160  Biso   1.000  C
  C90      1.0000 0.84598  0.26160  0.83378  Biso   1.000  C
  H56      1.0000 0.77530  0.32067  0.79571  Biso   1.000  H
  H57      1.0000 0.82188  0.32151  0.80442  Biso   1.000  H
  C91      1.0000 0.91401  0.28191  0.83009  Biso   1.000  C
  H58      1.0000 0.96871  0.44390  0.76580  Biso   1.000  H
  H59      1.0000 0.40878  0.24202  0.62640  Biso   1.000  H
  C92      1.0000 0.49329  0.19981  0.60839  Biso   1.000  C
  C93      1.0000 0.49899  0.19179  0.62098  Biso   1.000  C
  H60      1.0000 0.58621  0.16710  0.60392  Biso   1.000  H
  H61      1.0000 0.57622  0.13498  0.61808  Biso   1.000  H
  C94      1.0000 0.63230  0.45492  0.24610  Biso   1.000  C
  H62      1.0000 0.63668  0.43258  0.26199  Biso   1.000  H
  C95      1.0000 0.63899  0.47809  0.25191  Biso   1.000  C
  C96      1.0000 0.61951  0.55871  0.20149  Biso   1.000  C
  C97      1.0000 0.62531  0.56201  0.17891  Biso   1.000  C
  C98      1.0000 0.92798  0.83959  0.58321  Biso   1.000  C
  C99      1.0000 0.83959  0.91682  0.57199  Biso   1.000  C
  C100     1.0000 0.79301  0.92680  0.36278  Biso   1.000  C
  C101     1.0000 0.80319  0.82129  0.31718  Biso   1.000  C
  C102     1.0000 0.80397  0.86768  0.33120  Biso   1.000  C
  C103     1.0000 0.78351  0.95381  0.40332  Biso   1.000  C
  C104     1.0000 0.57199  0.83959  0.91682  Biso   1.000  C
  C105     1.0000 0.58321  0.92798  0.83959  Biso   1.000  C
  C106     1.0000 0.36278  0.79301  0.92680  Biso   1.000  C
  C107     1.0000 0.31718  0.80319  0.82129  Biso   1.000  C
  C108     1.0000 0.33120  0.80397  0.86768  Biso   1.000  C
  C109     1.0000 0.40332  0.78351  0.95381  Biso   1.000  C
  C110     1.0000 0.24610  0.63230  0.45492  Biso   1.000  C
  C111     1.0000 0.25191  0.63899  0.47809  Biso   1.000  C
  H63      1.0000 0.26199  0.63668  0.43258  Biso   1.000  H
  C112     1.0000 0.20149  0.61951  0.55871  Biso   1.000  C
  C113     1.0000 0.17891  0.62531  0.56201  Biso   1.000  C
  C114     1.0000 0.92798  0.66039  0.91682  Biso   1.000  C
  C115     1.0000 0.85159  0.67470  0.01200  Biso   1.000  C
  C116     1.0000 0.01200  0.64838  0.82527  Biso   1.000  C
  C117     1.0000 0.91337  0.25569  0.84490  Biso   1.000  C
  C118     1.0000 0.02268  0.29731  0.83619  Biso   1.000  C
  C119     1.0000 0.97772  0.30090  0.83698  Biso   1.000  C
  H64      1.0000 0.05239  0.32978  0.82060  Biso   1.000  H
  H65      1.0000 0.04368  0.37292  0.81381  Biso   1.000  H
  H66      1.0000 0.81701  0.22751  0.84731  Biso   1.000  H
  C120     1.0000 0.89370  0.22328  0.86099  Biso   1.000  C
  H67      1.0000 0.84879  0.21619  0.87161  Biso   1.000  H
  H68      1.0000 0.47489  0.16499  0.58311  Biso   1.000  H
  H69      1.0000 0.46849  0.15982  0.60500  Biso   1.000  H
  H70      1.0000 0.62640  0.40878  0.24202  Biso   1.000  H
  C121     1.0000 0.60839  0.49329  0.19981  Biso   1.000  C
  C122     1.0000 0.62098  0.49899  0.19179  Biso   1.000  C
  H71      1.0000 0.60392  0.58621  0.16710  Biso   1.000  H
  H72      1.0000 0.61808  0.57622  0.13498  Biso   1.000  H
  H73      1.0000 0.95051  0.80152  0.56840  Biso   1.000  H
  C123     1.0000 0.95076  0.87269  0.63850  Biso   1.000  C
  C124     1.0000 0.86148  0.95076  0.62728  Biso   1.000  C
  H74      1.0000 0.80152  0.93158  0.54951  Biso   1.000  H
  H75      1.0000 0.77899  0.95519  0.39712  Biso   1.000  H
  C125     1.0000 0.82518  0.95470  0.30459  Biso   1.000  C
  C126     1.0000 0.81160  0.99857  0.36101  Biso   1.000  C
  C127     1.0000 0.83378  0.84598  0.26160  Biso   1.000  C
  H76      1.0000 0.79571  0.77530  0.32067  Biso   1.000  H
  H77      1.0000 0.80442  0.82188  0.32151  Biso   1.000  H
  C128     1.0000 0.83009  0.91401  0.28191  Biso   1.000  C
  H78      1.0000 0.76580  0.96871  0.44390  Biso   1.000  H
  C129     1.0000 0.62728  0.86148  0.95076  Biso   1.000  C
  H79      1.0000 0.54951  0.80152  0.93158  Biso   1.000  H
  H80      1.0000 0.56840  0.95051  0.80152  Biso   1.000  H
  C130     1.0000 0.63850  0.95076  0.87269  Biso   1.000  C
  H81      1.0000 0.39712  0.77899  0.95519  Biso   1.000  H
  C131     1.0000 0.30459  0.82518  0.95470  Biso   1.000  C
  C132     1.0000 0.36101  0.81160  0.99857  Biso   1.000  C
  C133     1.0000 0.26160  0.83378  0.84598  Biso   1.000  C
  H82      1.0000 0.32067  0.79571  0.77530  Biso   1.000  H
  H83      1.0000 0.32151  0.80442  0.82188  Biso   1.000  H
  C134     1.0000 0.28191  0.83009  0.91401  Biso   1.000  C
  H84      1.0000 0.44390  0.76580  0.96871  Biso   1.000  H
  H85      1.0000 0.24202  0.62640  0.40878  Biso   1.000  H
  C135     1.0000 0.19981  0.60839  0.49329  Biso   1.000  C
  C136     1.0000 0.19179  0.62098  0.49899  Biso   1.000  C
  H86      1.0000 0.16710  0.60392  0.58621  Biso   1.000  H
  H87      1.0000 0.13498  0.61808  0.57622  Biso   1.000  H
  H88      1.0000 0.95051  0.69851  0.93158  Biso   1.000  H
  N7       1.0000 0.77958  0.67923  0.01825  Biso   1.000  N
  H89      1.0000 0.86950  0.65178  0.05101  Biso   1.000  H
  H90      1.0000 0.87028  0.71971  0.01112  Biso   1.000  H
  N8       1.0000 0.01825  0.72040  0.82075  Biso   1.000  N
  H91      1.0000 0.05101  0.63048  0.84820  Biso   1.000  H
  H92      1.0000 0.01112  0.62969  0.78031  Biso   1.000  H
  C137     1.0000 0.94132  0.20149  0.88052  Biso   1.000  C
  C138     1.0000 0.93802  0.17891  0.87471  Biso   1.000  C
  C139     1.0000 0.04511  0.24610  0.86768  Biso   1.000  C
  C140     1.0000 0.02189  0.25191  0.86099  Biso   1.000  C
  H93      1.0000 0.06739  0.26199  0.86330  Biso   1.000  H
  H94      1.0000 0.58311  0.47489  0.16499  Biso   1.000  H
  H95      1.0000 0.60500  0.46849  0.15982  Biso   1.000  H
  C141     1.0000 0.91682  0.92798  0.66039  Biso   1.000  C
  C142     1.0000 0.01200  0.85159  0.67470  Biso   1.000  C
  C143     1.0000 0.82527  0.01200  0.64838  Biso   1.000  C
  C144     1.0000 0.84490  0.91337  0.25569  Biso   1.000  C
  C145     1.0000 0.83619  0.02268  0.29731  Biso   1.000  C
  C146     1.0000 0.83698  0.97772  0.30090  Biso   1.000  C
  H96      1.0000 0.82060  0.05239  0.32978  Biso   1.000  H
  H97      1.0000 0.81381  0.04368  0.37292  Biso   1.000  H
  H98      1.0000 0.84731  0.81701  0.22751  Biso   1.000  H
  C147     1.0000 0.86099  0.89370  0.22328  Biso   1.000  C
  H99      1.0000 0.87161  0.84879  0.21619  Biso   1.000  H
  C148     1.0000 0.66039  0.91682  0.92798  Biso   1.000  C
  C149     1.0000 0.64838  0.82527  0.01200  Biso   1.000  C
  C150     1.0000 0.67470  0.01200  0.85159  Biso   1.000  C
  C151     1.0000 0.25569  0.84490  0.91337  Biso   1.000  C
  C152     1.0000 0.29731  0.83619  0.02268  Biso   1.000  C
  C153     1.0000 0.30090  0.83698  0.97772  Biso   1.000  C
  H100     1.0000 0.32978  0.82060  0.05239  Biso   1.000  H
  H101     1.0000 0.37292  0.81381  0.04368  Biso   1.000  H
  H102     1.0000 0.22751  0.84731  0.81701  Biso   1.000  H
  C154     1.0000 0.22328  0.86099  0.89370  Biso   1.000  C
  H103     1.0000 0.21619  0.87161  0.84879  Biso   1.000  H
  H104     1.0000 0.16499  0.58311  0.47489  Biso   1.000  H
  H105     1.0000 0.15982  0.60500  0.46849  Biso   1.000  H
  C155     1.0000 0.74529  0.71410  0.96439  Biso   1.000  C
  C156     1.0000 0.74672  0.66417  0.07280  Biso   1.000  C
  C157     1.0000 0.96439  0.75469  0.78587  Biso   1.000  C
  C158     1.0000 0.07280  0.75331  0.83580  Biso   1.000  C
  H106     1.0000 0.91382  0.16710  0.89611  Biso   1.000  H
  C159     1.0000 0.00669  0.19981  0.89158  Biso   1.000  C
  C160     1.0000 0.00098  0.19179  0.87899  Biso   1.000  C
  H107     1.0000 0.92380  0.13498  0.88189  Biso   1.000  H
  H108     1.0000 0.09120  0.24202  0.87358  Biso   1.000  H
  H109     1.0000 0.93158  0.95051  0.69851  Biso   1.000  H
  N9       1.0000 0.01825  0.77958  0.67923  Biso   1.000  N
  H110     1.0000 0.05101  0.86950  0.65178  Biso   1.000  H
  H111     1.0000 0.01112  0.87028  0.71971  Biso   1.000  H
  N10      1.0000 0.82075  0.01825  0.72040  Biso   1.000  N
  H112     1.0000 0.84820  0.05101  0.63048  Biso   1.000  H
  H113     1.0000 0.78031  0.01112  0.62969  Biso   1.000  H
  C161     1.0000 0.88052  0.94132  0.20149  Biso   1.000  C
  C162     1.0000 0.87471  0.93802  0.17891  Biso   1.000  C
  C163     1.0000 0.86768  0.04511  0.24610  Biso   1.000  C
  C164     1.0000 0.86099  0.02189  0.25191  Biso   1.000  C
  H114     1.0000 0.86330  0.06739  0.26199  Biso   1.000  H
  H115     1.0000 0.69851  0.93158  0.95051  Biso   1.000  H
  N11      1.0000 0.72040  0.82075  0.01825  Biso   1.000  N
  H116     1.0000 0.63048  0.84820  0.05101  Biso   1.000  H
  H117     1.0000 0.62969  0.78031  0.01112  Biso   1.000  H
  N12      1.0000 0.67923  0.01825  0.77958  Biso   1.000  N
  H118     1.0000 0.65178  0.05101  0.86950  Biso   1.000  H
  H119     1.0000 0.71971  0.01112  0.87028  Biso   1.000  H
  C165     1.0000 0.20149  0.88052  0.94132  Biso   1.000  C
  C166     1.0000 0.17891  0.87471  0.93802  Biso   1.000  C
  C167     1.0000 0.24610  0.86768  0.04511  Biso   1.000  C
  C168     1.0000 0.25191  0.86099  0.02189  Biso   1.000  C
  H120     1.0000 0.26199  0.86330  0.06739  Biso   1.000  H
  C169     1.0000 0.75469  0.78587  0.96439  Biso   1.000  C
  H121     1.0000 0.76098  0.69639  0.92188  Biso   1.000  H
  H122     1.0000 0.69757  0.70471  0.96758  Biso   1.000  H
  O7       1.0000 0.68931  0.67819  0.07939  Biso   1.000  O
  C170     1.0000 0.78287  0.63732  0.13159  Biso   1.000  C
  C171     1.0000 0.78061  0.61302  0.11240  Biso   1.000  C
  C172     1.0000 0.96439  0.74529  0.71410  Biso   1.000  C
  H123     1.0000 0.92188  0.73899  0.80358  Biso   1.000  H
  H124     1.0000 0.96758  0.80240  0.79532  Biso   1.000  H
  O8       1.0000 0.07939  0.81071  0.82178  Biso   1.000  O
  C173     1.0000 0.13159  0.71710  0.86271  Biso   1.000  C
  C174     1.0000 0.11240  0.71942  0.88701  Biso   1.000  C
  H125     1.0000 0.02509  0.16499  0.91692  Biso   1.000  H
  H126     1.0000 0.03148  0.15982  0.89498  Biso   1.000  H
  C175     1.0000 0.07280  0.74672  0.66417  Biso   1.000  C
  C176     1.0000 0.78587  0.96439  0.75469  Biso   1.000  C
  C177     1.0000 0.83580  0.07280  0.75331  Biso   1.000  C
  H127     1.0000 0.89611  0.91382  0.16710  Biso   1.000  H
  C178     1.0000 0.89158  0.00669  0.19981  Biso   1.000  C
  C179     1.0000 0.87899  0.00098  0.19179  Biso   1.000  C
  H128     1.0000 0.88189  0.92380  0.13498  Biso   1.000  H
  H129     1.0000 0.87358  0.09120  0.24202  Biso   1.000  H
  C180     1.0000 0.75331  0.83580  0.07280  Biso   1.000  C
  C181     1.0000 0.71410  0.96439  0.74529  Biso   1.000  C
  C182     1.0000 0.66417  0.07280  0.74672  Biso   1.000  C
  H130     1.0000 0.16710  0.89611  0.91382  Biso   1.000  H
  C183     1.0000 0.19981  0.89158  0.00669  Biso   1.000  C
  C184     1.0000 0.19179  0.87899  0.00098  Biso   1.000  C
  H131     1.0000 0.13498  0.88189  0.92380  Biso   1.000  H
  H132     1.0000 0.24202  0.87358  0.09120  Biso   1.000  H
  H133     1.0000 0.73899  0.80358  0.92188  Biso   1.000  H
  H134     1.0000 0.80240  0.79532  0.96758  Biso   1.000  H
  C185     1.0000 0.79301  0.57322  0.13719  Biso   1.000  C
  C186     1.0000 0.80319  0.67869  0.18279  Biso   1.000  C
  C187     1.0000 0.80397  0.63230  0.16882  Biso   1.000  C
  C188     1.0000 0.78351  0.54621  0.09671  Biso   1.000  C
  H135     1.0000 0.92188  0.76098  0.69639  Biso   1.000  H
  H136     1.0000 0.96758  0.69757  0.70471  Biso   1.000  H
  C189     1.0000 0.13719  0.70702  0.92680  Biso   1.000  C
  C190     1.0000 0.18279  0.69679  0.82129  Biso   1.000  C
  C191     1.0000 0.16882  0.69600  0.86768  Biso   1.000  C
  C192     1.0000 0.09671  0.71651  0.95381  Biso   1.000  C
  O9       1.0000 0.07939  0.68931  0.67819  Biso   1.000  O
  C193     1.0000 0.13159  0.78287  0.63732  Biso   1.000  C
  C194     1.0000 0.11240  0.78061  0.61302  Biso   1.000  C
  H137     1.0000 0.80358  0.92188  0.73899  Biso   1.000  H
  H138     1.0000 0.79532  0.96758  0.80240  Biso   1.000  H
  O10      1.0000 0.82178  0.07939  0.81071  Biso   1.000  O
  C195     1.0000 0.86271  0.13159  0.71710  Biso   1.000  C
  C196     1.0000 0.88701  0.11240  0.71942  Biso   1.000  C
  H139     1.0000 0.91692  0.02509  0.16499  Biso   1.000  H
  H140     1.0000 0.89498  0.03148  0.15982  Biso   1.000  H
  O11      1.0000 0.81071  0.82178  0.07939  Biso   1.000  O
  C197     1.0000 0.71710  0.86271  0.13159  Biso   1.000  C
  C198     1.0000 0.71942  0.88701  0.11240  Biso   1.000  C
  H141     1.0000 0.69639  0.92188  0.76098  Biso   1.000  H
  H142     1.0000 0.70471  0.96758  0.69757  Biso   1.000  H
  O12      1.0000 0.67819  0.07939  0.68931  Biso   1.000  O
  C199     1.0000 0.63732  0.13159  0.78287  Biso   1.000  C
  C200     1.0000 0.61302  0.11240  0.78061  Biso   1.000  C
  H143     1.0000 0.16499  0.91692  0.02509  Biso   1.000  H
  H144     1.0000 0.15982  0.89498  0.03148  Biso   1.000  H
  H145     1.0000 0.77899  0.54479  0.10291  Biso   1.000  H
  C201     1.0000 0.82518  0.54528  0.19539  Biso   1.000  C
  C202     1.0000 0.81160  0.50140  0.13901  Biso   1.000  C
  C203     1.0000 0.83378  0.65399  0.23838  Biso   1.000  C
  H146     1.0000 0.79571  0.72468  0.17930  Biso   1.000  H
  H147     1.0000 0.80442  0.67810  0.17851  Biso   1.000  H
  C204     1.0000 0.83009  0.58601  0.21811  Biso   1.000  C
  H148     1.0000 0.76580  0.53131  0.05608  Biso   1.000  H
  H149     1.0000 0.10291  0.72099  0.95519  Biso   1.000  H
  C205     1.0000 0.19539  0.67480  0.95470  Biso   1.000  C
  C206     1.0000 0.13901  0.68838  0.99857  Biso   1.000  C
  C207     1.0000 0.23838  0.66619  0.84598  Biso   1.000  C
  H150     1.0000 0.17930  0.70431  0.77530  Biso   1.000  H
  H151     1.0000 0.17851  0.69561  0.82188  Biso   1.000  H
  C208     1.0000 0.21811  0.66988  0.91401  Biso   1.000  C
  H152     1.0000 0.05608  0.73417  0.96871  Biso   1.000  H
  C209     1.0000 0.13719  0.79301  0.57322  Biso   1.000  C
  C210     1.0000 0.18279  0.80319  0.67869  Biso   1.000  C
  C211     1.0000 0.16882  0.80397  0.63230  Biso   1.000  C
  C212     1.0000 0.09671  0.78351  0.54621  Biso   1.000  C
  C213     1.0000 0.92680  0.13719  0.70702  Biso   1.000  C
  C214     1.0000 0.82129  0.18279  0.69679  Biso   1.000  C
  C215     1.0000 0.86768  0.16882  0.69600  Biso   1.000  C
  C216     1.0000 0.95381  0.09671  0.71651  Biso   1.000  C
  C217     1.0000 0.70702  0.92680  0.13719  Biso   1.000  C
  C218     1.0000 0.69679  0.82129  0.18279  Biso   1.000  C
  C219     1.0000 0.69600  0.86768  0.16882  Biso   1.000  C
  C220     1.0000 0.71651  0.95381  0.09671  Biso   1.000  C
  C221     1.0000 0.57322  0.13719  0.79301  Biso   1.000  C
  C222     1.0000 0.67869  0.18279  0.80319  Biso   1.000  C
  C223     1.0000 0.63230  0.16882  0.80397  Biso   1.000  C
  C224     1.0000 0.54621  0.09671  0.78351  Biso   1.000  C
  C225     1.0000 0.83619  0.47730  0.20272  Biso   1.000  C
  C226     1.0000 0.84490  0.58660  0.24428  Biso   1.000  C
  H153     1.0000 0.82060  0.44759  0.17020  Biso   1.000  H
  C227     1.0000 0.83698  0.52231  0.19908  Biso   1.000  C
  H154     1.0000 0.81381  0.45629  0.12711  Biso   1.000  H
  H155     1.0000 0.84731  0.68301  0.27252  Biso   1.000  H
  C228     1.0000 0.86099  0.60628  0.27670  Biso   1.000  C
  H156     1.0000 0.87161  0.65119  0.28378  Biso   1.000  H
  C229     1.0000 0.24428  0.65507  0.91337  Biso   1.000  C
  C230     1.0000 0.20272  0.66378  0.02268  Biso   1.000  C
  C231     1.0000 0.19908  0.66299  0.97772  Biso   1.000  C
  H157     1.0000 0.17020  0.67937  0.05239  Biso   1.000  H
  H158     1.0000 0.12711  0.68621  0.04368  Biso   1.000  H
  H159     1.0000 0.27252  0.65271  0.81701  Biso   1.000  H
  C232     1.0000 0.27670  0.63899  0.89370  Biso   1.000  C
  H160     1.0000 0.28378  0.62841  0.84879  Biso   1.000  H
  H161     1.0000 0.10291  0.77899  0.54479  Biso   1.000  H
  C233     1.0000 0.19539  0.82518  0.54528  Biso   1.000  C
  C234     1.0000 0.13901  0.81160  0.50140  Biso   1.000  C
  C235     1.0000 0.23838  0.83378  0.65399  Biso   1.000  C
  H162     1.0000 0.17930  0.79571  0.72468  Biso   1.000  H
  H163     1.0000 0.17851  0.80442  0.67810  Biso   1.000  H
  C236     1.0000 0.21811  0.83009  0.58601  Biso   1.000  C
  H164     1.0000 0.05608  0.76580  0.53131  Biso   1.000  H
  H165     1.0000 0.95519  0.10291  0.72099  Biso   1.000  H
  C237     1.0000 0.95470  0.19539  0.67480  Biso   1.000  C
  C238     1.0000 0.99857  0.13901  0.68838  Biso   1.000  C
  C239     1.0000 0.84598  0.23838  0.66619  Biso   1.000  C
  H166     1.0000 0.77530  0.17930  0.70431  Biso   1.000  H
  H167     1.0000 0.82188  0.17851  0.69561  Biso   1.000  H
  C240     1.0000 0.91401  0.21811  0.66988  Biso   1.000  C
  H168     1.0000 0.96871  0.05608  0.73417  Biso   1.000  H
  H169     1.0000 0.72099  0.95519  0.10291  Biso   1.000  H
  C241     1.0000 0.67480  0.95470  0.19539  Biso   1.000  C
  C242     1.0000 0.68838  0.99857  0.13901  Biso   1.000  C
  C243     1.0000 0.66619  0.84598  0.23838  Biso   1.000  C
  H170     1.0000 0.70431  0.77530  0.17930  Biso   1.000  H
  H171     1.0000 0.69561  0.82188  0.17851  Biso   1.000  H
  C244     1.0000 0.66988  0.91401  0.21811  Biso   1.000  C
  H172     1.0000 0.73417  0.96871  0.05608  Biso   1.000  H
  H173     1.0000 0.54479  0.10291  0.77899  Biso   1.000  H
  C245     1.0000 0.54528  0.19539  0.82518  Biso   1.000  C
  C246     1.0000 0.50140  0.13901  0.81160  Biso   1.000  C
  C247     1.0000 0.65399  0.23838  0.83378  Biso   1.000  C
  H174     1.0000 0.72468  0.17930  0.79571  Biso   1.000  H
  H175     1.0000 0.67810  0.17851  0.80442  Biso   1.000  H
  C248     1.0000 0.58601  0.21811  0.83009  Biso   1.000  C
  H176     1.0000 0.53131  0.05608  0.76580  Biso   1.000  H
  C249     1.0000 0.86768  0.45492  0.25387  Biso   1.000  C
  C250     1.0000 0.86099  0.47809  0.24812  Biso   1.000  C
  H177     1.0000 0.86330  0.43258  0.23799  Biso   1.000  H
  C251     1.0000 0.88052  0.55871  0.29849  Biso   1.000  C
  C252     1.0000 0.87471  0.56201  0.32112  Biso   1.000  C
  C253     1.0000 0.29849  0.61951  0.94132  Biso   1.000  C
  C254     1.0000 0.32112  0.62531  0.93802  Biso   1.000  C
  C255     1.0000 0.25387  0.63230  0.04511  Biso   1.000  C
  C256     1.0000 0.24812  0.63899  0.02189  Biso   1.000  C
  H178     1.0000 0.23799  0.63668  0.06739  Biso   1.000  H
  C257     1.0000 0.20272  0.83619  0.47730  Biso   1.000  C
  C258     1.0000 0.24428  0.84490  0.58660  Biso   1.000  C
  H179     1.0000 0.17020  0.82060  0.44759  Biso   1.000  H
  C259     1.0000 0.19908  0.83698  0.52231  Biso   1.000  C
  H180     1.0000 0.12711  0.81381  0.45629  Biso   1.000  H
  H181     1.0000 0.27252  0.84731  0.68301  Biso   1.000  H
  C260     1.0000 0.27670  0.86099  0.60628  Biso   1.000  C
  H182     1.0000 0.28378  0.87161  0.65119  Biso   1.000  H
  C261     1.0000 0.91337  0.24428  0.65507  Biso   1.000  C
  C262     1.0000 0.02268  0.20272  0.66378  Biso   1.000  C
  C263     1.0000 0.97772  0.19908  0.66299  Biso   1.000  C
  H183     1.0000 0.05239  0.17020  0.67937  Biso   1.000  H
  H184     1.0000 0.04368  0.12711  0.68621  Biso   1.000  H
  H185     1.0000 0.81701  0.27252  0.65271  Biso   1.000  H
  C264     1.0000 0.89370  0.27670  0.63899  Biso   1.000  C
  H186     1.0000 0.84879  0.28378  0.62841  Biso   1.000  H
  C265     1.0000 0.65507  0.91337  0.24428  Biso   1.000  C
  C266     1.0000 0.66378  0.02268  0.20272  Biso   1.000  C
  C267     1.0000 0.66299  0.97772  0.19908  Biso   1.000  C
  H187     1.0000 0.67937  0.05239  0.17020  Biso   1.000  H
  H188     1.0000 0.68621  0.04368  0.12711  Biso   1.000  H
  H189     1.0000 0.65271  0.81701  0.27252  Biso   1.000  H
  C268     1.0000 0.63899  0.89370  0.27670  Biso   1.000  C
  H190     1.0000 0.62841  0.84879  0.28378  Biso   1.000  H
  C269     1.0000 0.47730  0.20272  0.83619  Biso   1.000  C
  C270     1.0000 0.58660  0.24428  0.84490  Biso   1.000  C
  H191     1.0000 0.44759  0.17020  0.82060  Biso   1.000  H
  C271     1.0000 0.52231  0.19908  0.83698  Biso   1.000  C
  H192     1.0000 0.45629  0.12711  0.81381  Biso   1.000  H
  H193     1.0000 0.68301  0.27252  0.84731  Biso   1.000  H
  C272     1.0000 0.60628  0.27670  0.86099  Biso   1.000  C
  H194     1.0000 0.65119  0.28378  0.87161  Biso   1.000  H
  H195     1.0000 0.87358  0.40878  0.25801  Biso   1.000  H
  C273     1.0000 0.89158  0.49329  0.30021  Biso   1.000  C
  C274     1.0000 0.87899  0.49899  0.30818  Biso   1.000  C
  H196     1.0000 0.89611  0.58621  0.33287  Biso   1.000  H
  H197     1.0000 0.88189  0.57622  0.36500  Biso   1.000  H
  H198     1.0000 0.33287  0.60392  0.91382  Biso   1.000  H
  C275     1.0000 0.30021  0.60839  0.00669  Biso   1.000  C
  C276     1.0000 0.30818  0.62098  0.00098  Biso   1.000  C
  H199     1.0000 0.36500  0.61808  0.92380  Biso   1.000  H
  H200     1.0000 0.25801  0.62640  0.09120  Biso   1.000  H
  C277     1.0000 0.25387  0.86768  0.45492  Biso   1.000  C
  C278     1.0000 0.24812  0.86099  0.47809  Biso   1.000  C
  H201     1.0000 0.23799  0.86330  0.43258  Biso   1.000  H
  C279     1.0000 0.29849  0.88052  0.55871  Biso   1.000  C
  C280     1.0000 0.32112  0.87471  0.56201  Biso   1.000  C
  C281     1.0000 0.94132  0.29849  0.61951  Biso   1.000  C
  C282     1.0000 0.93802  0.32112  0.62531  Biso   1.000  C
  C283     1.0000 0.04511  0.25387  0.63230  Biso   1.000  C
  C284     1.0000 0.02189  0.24812  0.63899  Biso   1.000  C
  H202     1.0000 0.06739  0.23799  0.63668  Biso   1.000  H
  C285     1.0000 0.61951  0.94132  0.29849  Biso   1.000  C
  C286     1.0000 0.62531  0.93802  0.32112  Biso   1.000  C
  C287     1.0000 0.63230  0.04511  0.25387  Biso   1.000  C
  C288     1.0000 0.63899  0.02189  0.24812  Biso   1.000  C
  H203     1.0000 0.63668  0.06739  0.23799  Biso   1.000  H
  C289     1.0000 0.45492  0.25387  0.86768  Biso   1.000  C
  C290     1.0000 0.47809  0.24812  0.86099  Biso   1.000  C
  H204     1.0000 0.43258  0.23799  0.86330  Biso   1.000  H
  C291     1.0000 0.55871  0.29849  0.88052  Biso   1.000  C
  C292     1.0000 0.56201  0.32112  0.87471  Biso   1.000  C
  H205     1.0000 0.91692  0.47489  0.33499  Biso   1.000  H
  H206     1.0000 0.89498  0.46849  0.34020  Biso   1.000  H
  H207     1.0000 0.33499  0.58311  0.02509  Biso   1.000  H
  H208     1.0000 0.34020  0.60500  0.03148  Biso   1.000  H
  H209     1.0000 0.25801  0.87358  0.40878  Biso   1.000  H
  C293     1.0000 0.30021  0.89158  0.49329  Biso   1.000  C
  C294     1.0000 0.30818  0.87899  0.49899  Biso   1.000  C
  H210     1.0000 0.33287  0.89611  0.58621  Biso   1.000  H
  H211     1.0000 0.36500  0.88189  0.57622  Biso   1.000  H
  H212     1.0000 0.91382  0.33287  0.60392  Biso   1.000  H
  C295     1.0000 0.00669  0.30021  0.60839  Biso   1.000  C
  C296     1.0000 0.00098  0.30818  0.62098  Biso   1.000  C
  H213     1.0000 0.92380  0.36500  0.61808  Biso   1.000  H
  H214     1.0000 0.09120  0.25801  0.62640  Biso   1.000  H
  H215     1.0000 0.60392  0.91382  0.33287  Biso   1.000  H
  C297     1.0000 0.60839  0.00669  0.30021  Biso   1.000  C
  C298     1.0000 0.62098  0.00098  0.30818  Biso   1.000  C
  H216     1.0000 0.61808  0.92380  0.36500  Biso   1.000  H
  H217     1.0000 0.62640  0.09120  0.25801  Biso   1.000  H
  H218     1.0000 0.40878  0.25801  0.87358  Biso   1.000  H
  C299     1.0000 0.49329  0.30021  0.89158  Biso   1.000  C
  C300     1.0000 0.49899  0.30818  0.87899  Biso   1.000  C
  H219     1.0000 0.58621  0.33287  0.89611  Biso   1.000  H
  H220     1.0000 0.57622  0.36500  0.88189  Biso   1.000  H
  H221     1.0000 0.33499  0.91692  0.47489  Biso   1.000  H
  H222     1.0000 0.34020  0.89498  0.46849  Biso   1.000  H
  H223     1.0000 0.02509  0.33499  0.58311  Biso   1.000  H
  H224     1.0000 0.03148  0.34020  0.60500  Biso   1.000  H
  H225     1.0000 0.58311  0.02509  0.33499  Biso   1.000  H
  H226     1.0000 0.60500  0.03148  0.34020  Biso   1.000  H
  H227     1.0000 0.47489  0.33499  0.91692  Biso   1.000  H
  H228     1.0000 0.46849  0.34020  0.89498  Biso   1.000  H
  C301     1.0000 0.45078  0.37272  0.36150  Biso   1.000  C
  C302     1.0000 0.51198  0.35162  0.32530  Biso   1.000  C
  C303     1.0000 0.41679  0.42801  0.33961  Biso   1.000  C
  C304     1.0000 0.42801  0.33961  0.41679  Biso   1.000  C
  N13      1.0000 0.51823  0.27960  0.32077  Biso   1.000  N
  H229     1.0000 0.55099  0.36952  0.34822  Biso   1.000  H
  H230     1.0000 0.51109  0.37031  0.28029  Biso   1.000  H
  H231     1.0000 0.43160  0.45049  0.30149  Biso   1.000  H
  C305     1.0000 0.36150  0.45078  0.37272  Biso   1.000  C
  C306     1.0000 0.37272  0.36150  0.45078  Biso   1.000  C
  H232     1.0000 0.45049  0.30149  0.43160  Biso   1.000  H
  C307     1.0000 0.46441  0.24531  0.28590  Biso   1.000  C
  C308     1.0000 0.57278  0.24669  0.33578  Biso   1.000  C
  C309     1.0000 0.32530  0.51198  0.35162  Biso   1.000  C
  C310     1.0000 0.33961  0.41679  0.42801  Biso   1.000  C
  C311     1.0000 0.35162  0.32530  0.51198  Biso   1.000  C
  C312     1.0000 0.46441  0.25471  0.21408  Biso   1.000  C
  H233     1.0000 0.42191  0.26101  0.30361  Biso   1.000  H
  H234     1.0000 0.46761  0.19760  0.29529  Biso   1.000  H
  O13      1.0000 0.57942  0.18929  0.32181  Biso   1.000  O
  C313     1.0000 0.63161  0.28290  0.36268  Biso   1.000  C
  C314     1.0000 0.61238  0.28058  0.38698  Biso   1.000  C
  N14      1.0000 0.32077  0.51823  0.27960  Biso   1.000  N
  H235     1.0000 0.34822  0.55099  0.36952  Biso   1.000  H
  H236     1.0000 0.28029  0.51109  0.37031  Biso   1.000  H
  H237     1.0000 0.30149  0.43160  0.45049  Biso   1.000  H
  N15      1.0000 0.27960  0.32077  0.51823  Biso   1.000  N
  H238     1.0000 0.36952  0.34822  0.55099  Biso   1.000  H
  H239     1.0000 0.37031  0.28029  0.51109  Biso   1.000  H
  N16      1.0000 0.51823  0.22042  0.17925  Biso   1.000  N
  H240     1.0000 0.42191  0.23902  0.19642  Biso   1.000  H
  H241     1.0000 0.46761  0.30238  0.20468  Biso   1.000  H
  C315     1.0000 0.63722  0.29298  0.42678  Biso   1.000  C
  C316     1.0000 0.68282  0.30321  0.32131  Biso   1.000  C
  C317     1.0000 0.66880  0.30400  0.36770  Biso   1.000  C
  C318     1.0000 0.59668  0.28349  0.45379  Biso   1.000  C
  C319     1.0000 0.28590  0.46441  0.24531  Biso   1.000  C
  C320     1.0000 0.33578  0.57278  0.24669  Biso   1.000  C
  C321     1.0000 0.24531  0.28590  0.46441  Biso   1.000  C
  C322     1.0000 0.24669  0.33578  0.57278  Biso   1.000  C
  C323     1.0000 0.51198  0.14841  0.17468  Biso   1.000  C
  C324     1.0000 0.57278  0.25328  0.16420  Biso   1.000  C
  H242     1.0000 0.60288  0.27901  0.45521  Biso   1.000  H
  C325     1.0000 0.69541  0.32520  0.45472  Biso   1.000  C
  C326     1.0000 0.63899  0.31157  0.49860  Biso   1.000  C
  C327     1.0000 0.73840  0.33381  0.34601  Biso   1.000  C
  H243     1.0000 0.67928  0.29569  0.27532  Biso   1.000  H
  H244     1.0000 0.67849  0.30439  0.32190  Biso   1.000  H
  C328     1.0000 0.71809  0.33012  0.41399  Biso   1.000  C
  H245     1.0000 0.55610  0.26578  0.46869  Biso   1.000  H
  C329     1.0000 0.21408  0.46441  0.25471  Biso   1.000  C
  H246     1.0000 0.30361  0.42191  0.26101  Biso   1.000  H
  H247     1.0000 0.29529  0.46761  0.19760  Biso   1.000  H
  O14      1.0000 0.32181  0.57942  0.18929  Biso   1.000  O
  C330     1.0000 0.36268  0.63161  0.28290  Biso   1.000  C
  C331     1.0000 0.38698  0.61238  0.28058  Biso   1.000  C
  H248     1.0000 0.26101  0.30361  0.42191  Biso   1.000  H
  H249     1.0000 0.19760  0.29529  0.46761  Biso   1.000  H
  C332     1.0000 0.25471  0.21408  0.46441  Biso   1.000  C
  O15      1.0000 0.18929  0.32181  0.57942  Biso   1.000  O
  C333     1.0000 0.28290  0.36268  0.63161  Biso   1.000  C
  C334     1.0000 0.28058  0.38698  0.61238  Biso   1.000  C
  C335     1.0000 0.45078  0.12731  0.13852  Biso   1.000  C
  H250     1.0000 0.55099  0.13050  0.15180  Biso   1.000  H
  H251     1.0000 0.51109  0.12972  0.21969  Biso   1.000  H
  O16      1.0000 0.57942  0.31069  0.17822  Biso   1.000  O
  C336     1.0000 0.63161  0.21708  0.13729  Biso   1.000  C
  C337     1.0000 0.61238  0.21939  0.11299  Biso   1.000  C
  C338     1.0000 0.70269  0.33622  0.52270  Biso   1.000  C
  C339     1.0000 0.74431  0.34488  0.41340  Biso   1.000  C
  H252     1.0000 0.67018  0.32058  0.55241  Biso   1.000  H
  C340     1.0000 0.69910  0.33701  0.47769  Biso   1.000  C
  H253     1.0000 0.62708  0.31379  0.54371  Biso   1.000  H
  H254     1.0000 0.77249  0.34729  0.31699  Biso   1.000  H
  C341     1.0000 0.77667  0.36101  0.39367  Biso   1.000  C
  H255     1.0000 0.78381  0.37159  0.34881  Biso   1.000  H
  N17      1.0000 0.17925  0.51823  0.22042  Biso   1.000  N
  H256     1.0000 0.19642  0.42191  0.23902  Biso   1.000  H
  H257     1.0000 0.20468  0.46761  0.30238  Biso   1.000  H
  C342     1.0000 0.42678  0.63722  0.29298  Biso   1.000  C
  C343     1.0000 0.32131  0.68282  0.30321  Biso   1.000  C
  C344     1.0000 0.36770  0.66880  0.30400  Biso   1.000  C
  C345     1.0000 0.45379  0.59668  0.28349  Biso   1.000  C
  N18      1.0000 0.22042  0.17925  0.51823  Biso   1.000  N
  H258     1.0000 0.23902  0.19642  0.42191  Biso   1.000  H
  H259     1.0000 0.30238  0.20468  0.46761  Biso   1.000  H
  C346     1.0000 0.29298  0.42678  0.63722  Biso   1.000  C
  C347     1.0000 0.30321  0.32131  0.68282  Biso   1.000  C
  C348     1.0000 0.30400  0.36770  0.66880  Biso   1.000  C
  C349     1.0000 0.28349  0.45379  0.59668  Biso   1.000  C
  C350     1.0000 0.42801  0.16041  0.08318  Biso   1.000  C
  C351     1.0000 0.41679  0.07202  0.16041  Biso   1.000  C
  C352     1.0000 0.63722  0.20699  0.07320  Biso   1.000  C
  C353     1.0000 0.68282  0.19681  0.17871  Biso   1.000  C
  C354     1.0000 0.66880  0.19598  0.13232  Biso   1.000  C
  C355     1.0000 0.59668  0.21649  0.04619  Biso   1.000  C
  C356     1.0000 0.75390  0.36770  0.54508  Biso   1.000  C
  C357     1.0000 0.74809  0.36101  0.52191  Biso   1.000  C
  H260     1.0000 0.73801  0.36327  0.56742  Biso   1.000  H
  C358     1.0000 0.79851  0.38049  0.44129  Biso   1.000  C
  C359     1.0000 0.82109  0.37469  0.43799  Biso   1.000  C
  C360     1.0000 0.17468  0.51198  0.14841  Biso   1.000  C
  C361     1.0000 0.16420  0.57278  0.25328  Biso   1.000  C
  H261     1.0000 0.45521  0.60288  0.27901  Biso   1.000  H
  C362     1.0000 0.45472  0.69541  0.32520  Biso   1.000  C
  C363     1.0000 0.49860  0.63899  0.31157  Biso   1.000  C
  C364     1.0000 0.34601  0.73840  0.33381  Biso   1.000  C
  H262     1.0000 0.27532  0.67928  0.29569  Biso   1.000  H
  H263     1.0000 0.32190  0.67849  0.30439  Biso   1.000  H
  C365     1.0000 0.41399  0.71809  0.33012  Biso   1.000  C
  H264     1.0000 0.46869  0.55610  0.26578  Biso   1.000  H
  C366     1.0000 0.14841  0.17468  0.51198  Biso   1.000  C
  C367     1.0000 0.25328  0.16420  0.57278  Biso   1.000  C
  H265     1.0000 0.27901  0.45521  0.60288  Biso   1.000  H
  C368     1.0000 0.32520  0.45472  0.69541  Biso   1.000  C
  C369     1.0000 0.31157  0.49860  0.63899  Biso   1.000  C
  C370     1.0000 0.33381  0.34601  0.73840  Biso   1.000  C
  H266     1.0000 0.29569  0.27532  0.67928  Biso   1.000  H
  H267     1.0000 0.30439  0.32190  0.67849  Biso   1.000  H
  C371     1.0000 0.33012  0.41399  0.71809  Biso   1.000  C
  H268     1.0000 0.26578  0.46869  0.55610  Biso   1.000  H
  C372     1.0000 0.37272  0.13852  0.04924  Biso   1.000  C
  H269     1.0000 0.45049  0.19848  0.06838  Biso   1.000  H
  H270     1.0000 0.43160  0.04949  0.19848  Biso   1.000  H
  C373     1.0000 0.36150  0.04924  0.12731  Biso   1.000  C
  H271     1.0000 0.60288  0.22101  0.04481  Biso   1.000  H
  C374     1.0000 0.69541  0.17477  0.04530  Biso   1.000  C
  C375     1.0000 0.63899  0.18840  0.00138  Biso   1.000  C
  C376     1.0000 0.73840  0.16622  0.15402  Biso   1.000  C
  H272     1.0000 0.67928  0.20429  0.22470  Biso   1.000  H
  H273     1.0000 0.67849  0.19558  0.17812  Biso   1.000  H
  C377     1.0000 0.71809  0.16991  0.08599  Biso   1.000  C
  H274     1.0000 0.55610  0.23420  0.03129  Biso   1.000  H
  H275     1.0000 0.75798  0.37360  0.59118  Biso   1.000  H
  C378     1.0000 0.80019  0.39161  0.50671  Biso   1.000  C
  C379     1.0000 0.80821  0.37902  0.50101  Biso   1.000  C
  H276     1.0000 0.83290  0.39608  0.41379  Biso   1.000  H
  H277     1.0000 0.86497  0.38192  0.42378  Biso   1.000  H
  C380     1.0000 0.13852  0.45078  0.12731  Biso   1.000  C
  H278     1.0000 0.15180  0.55099  0.13050  Biso   1.000  H
  H279     1.0000 0.21969  0.51109  0.12972  Biso   1.000  H
  O17      1.0000 0.17822  0.57942  0.31069  Biso   1.000  O
  C381     1.0000 0.13729  0.63161  0.21708  Biso   1.000  C
  C382     1.0000 0.11299  0.61238  0.21939  Biso   1.000  C
  C383     1.0000 0.52270  0.70269  0.33622  Biso   1.000  C
  C384     1.0000 0.41340  0.74431  0.34488  Biso   1.000  C
  H280     1.0000 0.55241  0.67018  0.32058  Biso   1.000  H
  C385     1.0000 0.47769  0.69910  0.33701  Biso   1.000  C
  H281     1.0000 0.54371  0.62708  0.31379  Biso   1.000  H
  H282     1.0000 0.31699  0.77249  0.34729  Biso   1.000  H
  C386     1.0000 0.39367  0.77667  0.36101  Biso   1.000  C
  H283     1.0000 0.34881  0.78381  0.37159  Biso   1.000  H
  C387     1.0000 0.12731  0.13852  0.45078  Biso   1.000  C
  H284     1.0000 0.13050  0.15180  0.55099  Biso   1.000  H
  H285     1.0000 0.12972  0.21969  0.51109  Biso   1.000  H
  O18      1.0000 0.31069  0.17822  0.57942  Biso   1.000  O
  C388     1.0000 0.21708  0.13729  0.63161  Biso   1.000  C
  C389     1.0000 0.21939  0.11299  0.61238  Biso   1.000  C
  C390     1.0000 0.33622  0.52270  0.70269  Biso   1.000  C
  C391     1.0000 0.34488  0.41340  0.74431  Biso   1.000  C
  H286     1.0000 0.32058  0.55241  0.67018  Biso   1.000  H
  C392     1.0000 0.33701  0.47769  0.69910  Biso   1.000  C
  H287     1.0000 0.31379  0.54371  0.62708  Biso   1.000  H
  H288     1.0000 0.34729  0.31699  0.77249  Biso   1.000  H
  C393     1.0000 0.36101  0.39367  0.77667  Biso   1.000  C
  H289     1.0000 0.37159  0.34881  0.78381  Biso   1.000  H
  C394     1.0000 0.33961  0.08318  0.07202  Biso   1.000  C
  C395     1.0000 0.35162  0.17468  0.98800  Biso   1.000  C
  C396     1.0000 0.32530  0.98800  0.14841  Biso   1.000  C
  C397     1.0000 0.74431  0.15510  0.08658  Biso   1.000  C
  C398     1.0000 0.70269  0.16381  0.97732  Biso   1.000  C
  C399     1.0000 0.69910  0.16302  0.02228  Biso   1.000  C
  H290     1.0000 0.67018  0.17940  0.94761  Biso   1.000  H
  H291     1.0000 0.62708  0.18619  0.95632  Biso   1.000  H
  H292     1.0000 0.77249  0.15269  0.18299  Biso   1.000  H
  C400     1.0000 0.77667  0.13901  0.10630  Biso   1.000  C
  H293     1.0000 0.78381  0.12839  0.15121  Biso   1.000  H
  H294     1.0000 0.83501  0.41689  0.52511  Biso   1.000  H
  H295     1.0000 0.84018  0.39500  0.53151  Biso   1.000  H
  C401     1.0000 0.16041  0.41679  0.07202  Biso   1.000  C
  C402     1.0000 0.08318  0.42801  0.16041  Biso   1.000  C
  C403     1.0000 0.07320  0.63722  0.20699  Biso   1.000  C
  C404     1.0000 0.17871  0.68282  0.19681  Biso   1.000  C
  C405     1.0000 0.13232  0.66880  0.19598  Biso   1.000  C
  C406     1.0000 0.04619  0.59668  0.21649  Biso   1.000  C
  C407     1.0000 0.54508  0.75390  0.36770  Biso   1.000  C
  C408     1.0000 0.52191  0.74809  0.36101  Biso   1.000  C
  H296     1.0000 0.56742  0.73801  0.36327  Biso   1.000  H
  C409     1.0000 0.44129  0.79851  0.38049  Biso   1.000  C
  C410     1.0000 0.43799  0.82109  0.37469  Biso   1.000  C
  C411     1.0000 0.07202  0.16041  0.41679  Biso   1.000  C
  C412     1.0000 0.16041  0.08318  0.42801  Biso   1.000  C
  C413     1.0000 0.20699  0.07320  0.63722  Biso   1.000  C
  C414     1.0000 0.19681  0.17871  0.68282  Biso   1.000  C
  C415     1.0000 0.19598  0.13232  0.66880  Biso   1.000  C
  C416     1.0000 0.21649  0.04619  0.59668  Biso   1.000  C
  C417     1.0000 0.36770  0.54508  0.75390  Biso   1.000  C
  C418     1.0000 0.36101  0.52191  0.74809  Biso   1.000  C
  H297     1.0000 0.36327  0.56742  0.73801  Biso   1.000  H
  C419     1.0000 0.38049  0.44129  0.79851  Biso   1.000  C
  C420     1.0000 0.37469  0.43799  0.82109  Biso   1.000  C
  H298     1.0000 0.30149  0.06838  0.04949  Biso   1.000  H
  N19      1.0000 0.27960  0.17925  0.98175  Biso   1.000  N
  H299     1.0000 0.36952  0.15180  0.94899  Biso   1.000  H
  H300     1.0000 0.37031  0.21969  0.98888  Biso   1.000  H
  N20      1.0000 0.32077  0.98175  0.22042  Biso   1.000  N
  H301     1.0000 0.34822  0.94899  0.13050  Biso   1.000  H
  H302     1.0000 0.28029  0.98888  0.12972  Biso   1.000  H
  C421     1.0000 0.79851  0.11948  0.05868  Biso   1.000  C
  C422     1.0000 0.82109  0.12529  0.06198  Biso   1.000  C
  C423     1.0000 0.75390  0.13232  0.95489  Biso   1.000  C
  C424     1.0000 0.74809  0.13901  0.97811  Biso   1.000  C
  H303     1.0000 0.73801  0.13670  0.93261  Biso   1.000  H
  C425     1.0000 0.12731  0.36150  0.04924  Biso   1.000  C
  H304     1.0000 0.19848  0.43160  0.04949  Biso   1.000  H
  C426     1.0000 0.04924  0.37272  0.13852  Biso   1.000  C
  H305     1.0000 0.06838  0.45049  0.19848  Biso   1.000  H
  H306     1.0000 0.04481  0.60288  0.22101  Biso   1.000  H
  C427     1.0000 0.04530  0.69541  0.17477  Biso   1.000  C
  C428     1.0000 0.00138  0.63899  0.18840  Biso   1.000  C
  C429     1.0000 0.15402  0.73840  0.16622  Biso   1.000  C
  H307     1.0000 0.22470  0.67928  0.20429  Biso   1.000  H
  H308     1.0000 0.17812  0.67849  0.19558  Biso   1.000  H
  C430     1.0000 0.08599  0.71809  0.16991  Biso   1.000  C
  H309     1.0000 0.03129  0.55610  0.23420  Biso   1.000  H
  H310     1.0000 0.59118  0.75798  0.37360  Biso   1.000  H
  C431     1.0000 0.50671  0.80019  0.39161  Biso   1.000  C
  C432     1.0000 0.50101  0.80821  0.37902  Biso   1.000  C
  H311     1.0000 0.41379  0.83290  0.39608  Biso   1.000  H
  H312     1.0000 0.42378  0.86497  0.38192  Biso   1.000  H
  H313     1.0000 0.04949  0.19848  0.43160  Biso   1.000  H
  C433     1.0000 0.04924  0.12731  0.36150  Biso   1.000  C
  C434     1.0000 0.13852  0.04924  0.37272  Biso   1.000  C
  H314     1.0000 0.19848  0.06838  0.45049  Biso   1.000  H
  H315     1.0000 0.22101  0.04481  0.60288  Biso   1.000  H
  C435     1.0000 0.17477  0.04530  0.69541  Biso   1.000  C
  C436     1.0000 0.18840  0.00138  0.63899  Biso   1.000  C
  C437     1.0000 0.16622  0.15402  0.73840  Biso   1.000  C
  H316     1.0000 0.20429  0.22470  0.67928  Biso   1.000  H
  H317     1.0000 0.19558  0.17812  0.67849  Biso   1.000  H
  C438     1.0000 0.16991  0.08599  0.71809  Biso   1.000  C
  H318     1.0000 0.23420  0.03129  0.55610  Biso   1.000  H
  H319     1.0000 0.37360  0.59118  0.75798  Biso   1.000  H
  C439     1.0000 0.39161  0.50671  0.80019  Biso   1.000  C
  C440     1.0000 0.37902  0.50101  0.80821  Biso   1.000  C
  H320     1.0000 0.39608  0.41379  0.83290  Biso   1.000  H
  H321     1.0000 0.38192  0.42378  0.86497  Biso   1.000  H
  C441     1.0000 0.24531  0.21408  0.03561  Biso   1.000  C
  C442     1.0000 0.24669  0.16420  0.92720  Biso   1.000  C
  C443     1.0000 0.28590  0.03561  0.25471  Biso   1.000  C
  C444     1.0000 0.33578  0.92720  0.25328  Biso   1.000  C
  H322     1.0000 0.83290  0.10389  0.08618  Biso   1.000  H
  C445     1.0000 0.80019  0.10842  0.99331  Biso   1.000  C
  C446     1.0000 0.80821  0.12101  0.99902  Biso   1.000  C
  H323     1.0000 0.86497  0.11811  0.07620  Biso   1.000  H
  H324     1.0000 0.75798  0.12642  0.90880  Biso   1.000  H
  C447     1.0000 0.14841  0.32530  0.98800  Biso   1.000  C
  C448     1.0000 0.07202  0.33961  0.08318  Biso   1.000  C
  C449     1.0000 0.98800  0.35162  0.17468  Biso   1.000  C
  C450     1.0000 0.08658  0.74431  0.15510  Biso   1.000  C
  C451     1.0000 0.97732  0.70269  0.16381  Biso   1.000  C
  C452     1.0000 0.02228  0.69910  0.16302  Biso   1.000  C
  H325     1.0000 0.94761  0.67018  0.17940  Biso   1.000  H
  H326     1.0000 0.95632  0.62708  0.18619  Biso   1.000  H
  H327     1.0000 0.18299  0.77249  0.15269  Biso   1.000  H
  C453     1.0000 0.10630  0.77667  0.13901  Biso   1.000  C
  H328     1.0000 0.15121  0.78381  0.12839  Biso   1.000  H
  H329     1.0000 0.52511  0.83501  0.41689  Biso   1.000  H
  H330     1.0000 0.53151  0.84018  0.39500  Biso   1.000  H
  C454     1.0000 0.08318  0.07202  0.33961  Biso   1.000  C
  C455     1.0000 0.98800  0.14841  0.32530  Biso   1.000  C
  C456     1.0000 0.17468  0.98800  0.35162  Biso   1.000  C
  C457     1.0000 0.15510  0.08658  0.74431  Biso   1.000  C
  C458     1.0000 0.16381  0.97732  0.70269  Biso   1.000  C
  C459     1.0000 0.16302  0.02228  0.69910  Biso   1.000  C
  H331     1.0000 0.17940  0.94761  0.67018  Biso   1.000  H
  H332     1.0000 0.18619  0.95632  0.62708  Biso   1.000  H
  H333     1.0000 0.15269  0.18299  0.77249  Biso   1.000  H
  C460     1.0000 0.13901  0.10630  0.77667  Biso   1.000  C
  H334     1.0000 0.12839  0.15121  0.78381  Biso   1.000  H
  H335     1.0000 0.41689  0.52511  0.83501  Biso   1.000  H
  H336     1.0000 0.39500  0.53151  0.84018  Biso   1.000  H
  C461     1.0000 0.25471  0.28590  0.03561  Biso   1.000  C
  H337     1.0000 0.26101  0.19642  0.07812  Biso   1.000  H
  H338     1.0000 0.19760  0.20468  0.03242  Biso   1.000  H
  O19      1.0000 0.18929  0.17822  0.92061  Biso   1.000  O
  C462     1.0000 0.28290  0.13729  0.86841  Biso   1.000  C
  C463     1.0000 0.28058  0.11299  0.88760  Biso   1.000  C
  H339     1.0000 0.30361  0.07812  0.23902  Biso   1.000  H
  H340     1.0000 0.29529  0.03242  0.30238  Biso   1.000  H
  C464     1.0000 0.21408  0.03561  0.24531  Biso   1.000  C
  O20      1.0000 0.32181  0.92061  0.31069  Biso   1.000  O
  C465     1.0000 0.36268  0.86841  0.21708  Biso   1.000  C
  C466     1.0000 0.38698  0.88760  0.21939  Biso   1.000  C
  H341     1.0000 0.83501  0.08308  0.97491  Biso   1.000  H
  H342     1.0000 0.84018  0.10502  0.96852  Biso   1.000  H
  N21      1.0000 0.22042  0.32077  0.98175  Biso   1.000  N
  H343     1.0000 0.13050  0.34822  0.94899  Biso   1.000  H
  H344     1.0000 0.12972  0.28029  0.98888  Biso   1.000  H
  H345     1.0000 0.04949  0.30149  0.06838  Biso   1.000  H
  N22      1.0000 0.98175  0.27960  0.17925  Biso   1.000  N
  H346     1.0000 0.94899  0.36952  0.15180  Biso   1.000  H
  H347     1.0000 0.98888  0.37031  0.21969  Biso   1.000  H
  C467     1.0000 0.05868  0.79851  0.11948  Biso   1.000  C
  C468     1.0000 0.06198  0.82109  0.12529  Biso   1.000  C
  C469     1.0000 0.95489  0.75390  0.13232  Biso   1.000  C
  C470     1.0000 0.97811  0.74809  0.13901  Biso   1.000  C
  H348     1.0000 0.93261  0.73801  0.13670  Biso   1.000  H
  H349     1.0000 0.06838  0.04949  0.30149  Biso   1.000  H
  N23      1.0000 0.98175  0.22042  0.32077  Biso   1.000  N
  H350     1.0000 0.94899  0.13050  0.34822  Biso   1.000  H
  H351     1.0000 0.98888  0.12972  0.28029  Biso   1.000  H
  N24      1.0000 0.17925  0.98175  0.27960  Biso   1.000  N
  H352     1.0000 0.15180  0.94899  0.36952  Biso   1.000  H
  H353     1.0000 0.21969  0.98888  0.37031  Biso   1.000  H
  C471     1.0000 0.11948  0.05868  0.79851  Biso   1.000  C
  C472     1.0000 0.12529  0.06198  0.82109  Biso   1.000  C
  C473     1.0000 0.13232  0.95489  0.75390  Biso   1.000  C
  C474     1.0000 0.13901  0.97811  0.74809  Biso   1.000  C
  H354     1.0000 0.13670  0.93261  0.73801  Biso   1.000  H
  H355     1.0000 0.23902  0.30361  0.07812  Biso   1.000  H
  H356     1.0000 0.30238  0.29529  0.03242  Biso   1.000  H
  C475     1.0000 0.29298  0.07320  0.86281  Biso   1.000  C
  C476     1.0000 0.30321  0.17871  0.81721  Biso   1.000  C
  C477     1.0000 0.30400  0.13232  0.83118  Biso   1.000  C
  C478     1.0000 0.28349  0.04619  0.90329  Biso   1.000  C
  H357     1.0000 0.19642  0.07812  0.26101  Biso   1.000  H
  H358     1.0000 0.20468  0.03242  0.19760  Biso   1.000  H
  C479     1.0000 0.42678  0.86281  0.20699  Biso   1.000  C
  C480     1.0000 0.32131  0.81721  0.19681  Biso   1.000  C
  C481     1.0000 0.36770  0.83118  0.19598  Biso   1.000  C
  C482     1.0000 0.45379  0.90329  0.21649  Biso   1.000  C
  C483     1.0000 0.25328  0.33578  0.92720  Biso   1.000  C
  C484     1.0000 0.03561  0.24531  0.21408  Biso   1.000  C
  C485     1.0000 0.92720  0.24669  0.16420  Biso   1.000  C
  H359     1.0000 0.08618  0.83290  0.10389  Biso   1.000  H
  C486     1.0000 0.99331  0.80019  0.10842  Biso   1.000  C
  C487     1.0000 0.99902  0.80821  0.12101  Biso   1.000  C
  H360     1.0000 0.07620  0.86497  0.11811  Biso   1.000  H
  H361     1.0000 0.90880  0.75798  0.12642  Biso   1.000  H
  C488     1.0000 0.03561  0.25471  0.28590  Biso   1.000  C
  C489     1.0000 0.92720  0.25328  0.33578  Biso   1.000  C
  C490     1.0000 0.16420  0.92720  0.24669  Biso   1.000  C
  H362     1.0000 0.10389  0.08618  0.83290  Biso   1.000  H
  C491     1.0000 0.10842  0.99331  0.80019  Biso   1.000  C
  C492     1.0000 0.12101  0.99902  0.80821  Biso   1.000  C
  H363     1.0000 0.11811  0.07620  0.86497  Biso   1.000  H
  H364     1.0000 0.12642  0.90880  0.75798  Biso   1.000  H
  H365     1.0000 0.27901  0.04481  0.89709  Biso   1.000  H
  C493     1.0000 0.32520  0.04530  0.80461  Biso   1.000  C
  C494     1.0000 0.31157  0.00138  0.86099  Biso   1.000  C
  C495     1.0000 0.33381  0.15402  0.76162  Biso   1.000  C
  H366     1.0000 0.29569  0.22470  0.82070  Biso   1.000  H
  H367     1.0000 0.30439  0.17812  0.82149  Biso   1.000  H
  C496     1.0000 0.33012  0.08599  0.78189  Biso   1.000  C
  H368     1.0000 0.26578  0.03129  0.94387  Biso   1.000  H
  H369     1.0000 0.45521  0.89709  0.22101  Biso   1.000  H
  C497     1.0000 0.45472  0.80461  0.17477  Biso   1.000  C
  C498     1.0000 0.49860  0.86099  0.18840  Biso   1.000  C
  C499     1.0000 0.34601  0.76162  0.16622  Biso   1.000  C
  H370     1.0000 0.27532  0.82070  0.20429  Biso   1.000  H
  H371     1.0000 0.32190  0.82149  0.19558  Biso   1.000  H
  C500     1.0000 0.41399  0.78189  0.16991  Biso   1.000  C
  H372     1.0000 0.46869  0.94387  0.23420  Biso   1.000  H
  O21      1.0000 0.31069  0.32181  0.92061  Biso   1.000  O
  C501     1.0000 0.21708  0.36268  0.86841  Biso   1.000  C
  C502     1.0000 0.21939  0.38698  0.88760  Biso   1.000  C
  H373     1.0000 0.07812  0.26101  0.19642  Biso   1.000  H
  H374     1.0000 0.03242  0.19760  0.20468  Biso   1.000  H
  O22      1.0000 0.92061  0.18929  0.17822  Biso   1.000  O
  C503     1.0000 0.86841  0.28290  0.13729  Biso   1.000  C
  C504     1.0000 0.88760  0.28058  0.11299  Biso   1.000  C
  H375     1.0000 0.97491  0.83501  0.08308  Biso   1.000  H
  H376     1.0000 0.96852  0.84018  0.10502  Biso   1.000  H
  H377     1.0000 0.07812  0.23902  0.30361  Biso   1.000  H
  H378     1.0000 0.03242  0.30238  0.29529  Biso   1.000  H
  O23      1.0000 0.92061  0.31069  0.32181  Biso   1.000  O
  C505     1.0000 0.86841  0.21708  0.36268  Biso   1.000  C
  C506     1.0000 0.88760  0.21939  0.38698  Biso   1.000  C
  O24      1.0000 0.17822  0.92061  0.18929  Biso   1.000  O
  C507     1.0000 0.13729  0.86841  0.28290  Biso   1.000  C
  C508     1.0000 0.11299  0.88760  0.28058  Biso   1.000  C
  H379     1.0000 0.08308  0.97491  0.83501  Biso   1.000  H
  H380     1.0000 0.10502  0.96852  0.84018  Biso   1.000  H
  C509     1.0000 0.33622  0.97732  0.79728  Biso   1.000  C
  C510     1.0000 0.34488  0.08658  0.75572  Biso   1.000  C
  H381     1.0000 0.32058  0.94761  0.82980  Biso   1.000  H
  H382     1.0000 0.31379  0.95632  0.87289  Biso   1.000  H
  C511     1.0000 0.33701  0.02228  0.80088  Biso   1.000  C
  H383     1.0000 0.34729  0.18299  0.72748  Biso   1.000  H
  C512     1.0000 0.36101  0.10630  0.72330  Biso   1.000  C
  H384     1.0000 0.37159  0.15121  0.71622  Biso   1.000  H
  C513     1.0000 0.52270  0.79728  0.16381  Biso   1.000  C
  C514     1.0000 0.41340  0.75572  0.15510  Biso   1.000  C
  H385     1.0000 0.55241  0.82980  0.17940  Biso   1.000  H
  C515     1.0000 0.47769  0.80088  0.16302  Biso   1.000  C
  H386     1.0000 0.54371  0.87289  0.18619  Biso   1.000  H
  H387     1.0000 0.31699  0.72748  0.15269  Biso   1.000  H
  C516     1.0000 0.39367  0.72330  0.13901  Biso   1.000  C
  H388     1.0000 0.34881  0.71622  0.12839  Biso   1.000  H
  C517     1.0000 0.20699  0.42678  0.86281  Biso   1.000  C
  C518     1.0000 0.19681  0.32131  0.81721  Biso   1.000  C
  C519     1.0000 0.19598  0.36770  0.83118  Biso   1.000  C
  C520     1.0000 0.21649  0.45379  0.90329  Biso   1.000  C
  C521     1.0000 0.86281  0.29298  0.07320  Biso   1.000  C
  C522     1.0000 0.81721  0.30321  0.17871  Biso   1.000  C
  C523     1.0000 0.83118  0.30400  0.13232  Biso   1.000  C
  C524     1.0000 0.90329  0.28349  0.04619  Biso   1.000  C
  C525     1.0000 0.86281  0.20699  0.42678  Biso   1.000  C
  C526     1.0000 0.81721  0.19681  0.32131  Biso   1.000  C
  C527     1.0000 0.83118  0.19598  0.36770  Biso   1.000  C
  C528     1.0000 0.90329  0.21649  0.45379  Biso   1.000  C
  C529     1.0000 0.07320  0.86281  0.29298  Biso   1.000  C
  C530     1.0000 0.17871  0.81721  0.30321  Biso   1.000  C
  C531     1.0000 0.13232  0.83118  0.30400  Biso   1.000  C
  C532     1.0000 0.04619  0.90329  0.28349  Biso   1.000  C
  C533     1.0000 0.36770  0.95489  0.74608  Biso   1.000  C
  C534     1.0000 0.36101  0.97811  0.75188  Biso   1.000  C
  H389     1.0000 0.36327  0.93261  0.76201  Biso   1.000  H
  C535     1.0000 0.38049  0.05868  0.70151  Biso   1.000  C
  C536     1.0000 0.37469  0.06198  0.67888  Biso   1.000  C
  C537     1.0000 0.54508  0.74608  0.13232  Biso   1.000  C
  C538     1.0000 0.52191  0.75188  0.13901  Biso   1.000  C
  H390     1.0000 0.56742  0.76201  0.13670  Biso   1.000  H
  C539     1.0000 0.44129  0.70151  0.11948  Biso   1.000  C
  C540     1.0000 0.43799  0.67888  0.12529  Biso   1.000  C
  H391     1.0000 0.22101  0.45521  0.89709  Biso   1.000  H
  C541     1.0000 0.17477  0.45472  0.80461  Biso   1.000  C
  C542     1.0000 0.18840  0.49860  0.86099  Biso   1.000  C
  C543     1.0000 0.16622  0.34601  0.76162  Biso   1.000  C
  H392     1.0000 0.20429  0.27532  0.82070  Biso   1.000  H
  H393     1.0000 0.19558  0.32190  0.82149  Biso   1.000  H
  C544     1.0000 0.16991  0.41399  0.78189  Biso   1.000  C
  H394     1.0000 0.23420  0.46869  0.94387  Biso   1.000  H
  H395     1.0000 0.89709  0.27901  0.04481  Biso   1.000  H
  C545     1.0000 0.80461  0.32520  0.04530  Biso   1.000  C
  C546     1.0000 0.86099  0.31157  0.00138  Biso   1.000  C
  C547     1.0000 0.76162  0.33381  0.15402  Biso   1.000  C
  H396     1.0000 0.82070  0.29569  0.22470  Biso   1.000  H
  H397     1.0000 0.82149  0.30439  0.17812  Biso   1.000  H
  C548     1.0000 0.78189  0.33012  0.08599  Biso   1.000  C
  H398     1.0000 0.94387  0.26578  0.03129  Biso   1.000  H
  H399     1.0000 0.89709  0.22101  0.45521  Biso   1.000  H
  C549     1.0000 0.80461  0.17477  0.45472  Biso   1.000  C
  C550     1.0000 0.86099  0.18840  0.49860  Biso   1.000  C
  C551     1.0000 0.76162  0.16622  0.34601  Biso   1.000  C
  H400     1.0000 0.82070  0.20429  0.27532  Biso   1.000  H
  H401     1.0000 0.82149  0.19558  0.32190  Biso   1.000  H
  C552     1.0000 0.78189  0.16991  0.41399  Biso   1.000  C
  H402     1.0000 0.94387  0.23420  0.46869  Biso   1.000  H
  H403     1.0000 0.04481  0.89709  0.27901  Biso   1.000  H
  C553     1.0000 0.04530  0.80461  0.32520  Biso   1.000  C
  C554     1.0000 0.00138  0.86099  0.31157  Biso   1.000  C
  C555     1.0000 0.15402  0.76162  0.33381  Biso   1.000  C
  H404     1.0000 0.22470  0.82070  0.29569  Biso   1.000  H
  H405     1.0000 0.17812  0.82149  0.30439  Biso   1.000  H
  C556     1.0000 0.08599  0.78189  0.33012  Biso   1.000  C
  H406     1.0000 0.03129  0.94387  0.26578  Biso   1.000  H
  H407     1.0000 0.37360  0.90880  0.74199  Biso   1.000  H
  C557     1.0000 0.39161  0.99331  0.69979  Biso   1.000  C
  C558     1.0000 0.37902  0.99902  0.69182  Biso   1.000  C
  H408     1.0000 0.39608  0.08618  0.66713  Biso   1.000  H
  H409     1.0000 0.38192  0.07620  0.63500  Biso   1.000  H
  H410     1.0000 0.59118  0.74199  0.12642  Biso   1.000  H
  C559     1.0000 0.50671  0.69979  0.10842  Biso   1.000  C
  C560     1.0000 0.50101  0.69182  0.12101  Biso   1.000  C
  H411     1.0000 0.41379  0.66713  0.10389  Biso   1.000  H
  H412     1.0000 0.42378  0.63500  0.11811  Biso   1.000  H
  C561     1.0000 0.16381  0.52270  0.79728  Biso   1.000  C
  C562     1.0000 0.15510  0.41340  0.75572  Biso   1.000  C
  H413     1.0000 0.17940  0.55241  0.82980  Biso   1.000  H
  C563     1.0000 0.16302  0.47769  0.80088  Biso   1.000  C
  H414     1.0000 0.18619  0.54371  0.87289  Biso   1.000  H
  H415     1.0000 0.15269  0.31699  0.72748  Biso   1.000  H
  C564     1.0000 0.13901  0.39367  0.72330  Biso   1.000  C
  H416     1.0000 0.12839  0.34881  0.71622  Biso   1.000  H
  C565     1.0000 0.79728  0.33622  0.97732  Biso   1.000  C
  C566     1.0000 0.75572  0.34488  0.08658  Biso   1.000  C
  H417     1.0000 0.82980  0.32058  0.94761  Biso   1.000  H
  H418     1.0000 0.87289  0.31379  0.95632  Biso   1.000  H
  C567     1.0000 0.80088  0.33701  0.02228  Biso   1.000  C
  H419     1.0000 0.72748  0.34729  0.18299  Biso   1.000  H
  C568     1.0000 0.72330  0.36101  0.10630  Biso   1.000  C
  H420     1.0000 0.71622  0.37159  0.15121  Biso   1.000  H
  C569     1.0000 0.79728  0.16381  0.52270  Biso   1.000  C
  C570     1.0000 0.75572  0.15510  0.41340  Biso   1.000  C
  H421     1.0000 0.82980  0.17940  0.55241  Biso   1.000  H
  C571     1.0000 0.80088  0.16302  0.47769  Biso   1.000  C
  H422     1.0000 0.87289  0.18619  0.54371  Biso   1.000  H
  H423     1.0000 0.72748  0.15269  0.31699  Biso   1.000  H
  C572     1.0000 0.72330  0.13901  0.39367  Biso   1.000  C
  H424     1.0000 0.71622  0.12839  0.34881  Biso   1.000  H
  C573     1.0000 0.97732  0.79728  0.33622  Biso   1.000  C
  C574     1.0000 0.08658  0.75572  0.34488  Biso   1.000  C
  H425     1.0000 0.94761  0.82980  0.32058  Biso   1.000  H
  H426     1.0000 0.95632  0.87289  0.31379  Biso   1.000  H
  C575     1.0000 0.02228  0.80088  0.33701  Biso   1.000  C
  H427     1.0000 0.18299  0.72748  0.34729  Biso   1.000  H
  C576     1.0000 0.10630  0.72330  0.36101  Biso   1.000  C
  H428     1.0000 0.15121  0.71622  0.37159  Biso   1.000  H
  H429     1.0000 0.41689  0.97491  0.66501  Biso   1.000  H
  H430     1.0000 0.39500  0.96852  0.65980  Biso   1.000  H
  H431     1.0000 0.52511  0.66501  0.08308  Biso   1.000  H
  H432     1.0000 0.53151  0.65980  0.10502  Biso   1.000  H
  C577     1.0000 0.13232  0.54508  0.74608  Biso   1.000  C
  C578     1.0000 0.13901  0.52191  0.75188  Biso   1.000  C
  H433     1.0000 0.13670  0.56742  0.76201  Biso   1.000  H
  C579     1.0000 0.11948  0.44129  0.70151  Biso   1.000  C
  C580     1.0000 0.12529  0.43799  0.67888  Biso   1.000  C
  C581     1.0000 0.74608  0.36770  0.95489  Biso   1.000  C
  C582     1.0000 0.75188  0.36101  0.97811  Biso   1.000  C
  H434     1.0000 0.76201  0.36327  0.93261  Biso   1.000  H
  C583     1.0000 0.70151  0.38049  0.05868  Biso   1.000  C
  C584     1.0000 0.67888  0.37469  0.06198  Biso   1.000  C
  C585     1.0000 0.74608  0.13232  0.54508  Biso   1.000  C
  C586     1.0000 0.75188  0.13901  0.52191  Biso   1.000  C
  H435     1.0000 0.76201  0.13670  0.56742  Biso   1.000  H
  C587     1.0000 0.70151  0.11948  0.44129  Biso   1.000  C
  C588     1.0000 0.67888  0.12529  0.43799  Biso   1.000  C
  C589     1.0000 0.95489  0.74608  0.36770  Biso   1.000  C
  C590     1.0000 0.97811  0.75188  0.36101  Biso   1.000  C
  H436     1.0000 0.93261  0.76201  0.36327  Biso   1.000  H
  C591     1.0000 0.05868  0.70151  0.38049  Biso   1.000  C
  C592     1.0000 0.06198  0.67888  0.37469  Biso   1.000  C
  H437     1.0000 0.12642  0.59118  0.74199  Biso   1.000  H
  C593     1.0000 0.10842  0.50671  0.69979  Biso   1.000  C
  C594     1.0000 0.12101  0.50101  0.69182  Biso   1.000  C
  H438     1.0000 0.10389  0.41379  0.66713  Biso   1.000  H
  H439     1.0000 0.11811  0.42378  0.63500  Biso   1.000  H
  H440     1.0000 0.74199  0.37360  0.90880  Biso   1.000  H
  C595     1.0000 0.69979  0.39161  0.99331  Biso   1.000  C
  C596     1.0000 0.69182  0.37902  0.99902  Biso   1.000  C
  H441     1.0000 0.66713  0.39608  0.08618  Biso   1.000  H
  H442     1.0000 0.63500  0.38192  0.07620  Biso   1.000  H
  H443     1.0000 0.74199  0.12642  0.59118  Biso   1.000  H
  C597     1.0000 0.69979  0.10842  0.50671  Biso   1.000  C
  C598     1.0000 0.69182  0.12101  0.50101  Biso   1.000  C
  H444     1.0000 0.66713  0.10389  0.41379  Biso   1.000  H
  H445     1.0000 0.63500  0.11811  0.42378  Biso   1.000  H
  H446     1.0000 0.90880  0.74199  0.37360  Biso   1.000  H
  C599     1.0000 0.99331  0.69979  0.39161  Biso   1.000  C
  C600     1.0000 0.99902  0.69182  0.37902  Biso   1.000  C
  H447     1.0000 0.08618  0.66713  0.39608  Biso   1.000  H
  H448     1.0000 0.07620  0.63500  0.38192  Biso   1.000  H
  H449     1.0000 0.08308  0.52511  0.66501  Biso   1.000  H
  H450     1.0000 0.10502  0.53151  0.65980  Biso   1.000  H
  H451     1.0000 0.66501  0.41689  0.97491  Biso   1.000  H
  H452     1.0000 0.65980  0.39500  0.96852  Biso   1.000  H
  H453     1.0000 0.66501  0.08308  0.52511  Biso   1.000  H
  H454     1.0000 0.65980  0.10502  0.53151  Biso   1.000  H
  H455     1.0000 0.97491  0.66501  0.41689  Biso   1.000  H
  H456     1.0000 0.96852  0.65980  0.39500  Biso   1.000  H
  Ne1      1.0000 0.25000  0.25000  0.25000  Biso   1.000  Ne
  He1      1.0000 0.33958  0.16045  0.33956  Biso   1.000  He
  He2      1.0000 0.16398  0.33603  0.33605  Biso   1.000  He
  He3      1.0000 0.16351  0.16350  0.16350  Biso   1.000  He
  He4      1.0000 0.33696  0.33697  0.16305  Biso   1.000  He
  Ar1      1.0000 0.25000  0.25000  0.25000  Biso   1.000  Ar
  Ne2      1.0000 0.75000  0.75000  0.75000  Biso   1.000  Ne
  He5      1.0000 0.66042  0.66042  0.83955  Biso   1.000  He
  He6      1.0000 0.83919  0.83919  0.83919  Biso   1.000  He
  He7      1.0000 0.83739  0.66258  0.66258  Biso   1.000  He
  He8      1.0000 0.65890  0.84108  0.65890  Biso   1.000  He
  Ar2      1.0000 0.74999  0.74999  0.74999  Biso   1.000  Ar
