data_image0
_cell_length_a       25.016
_cell_length_b       25.016
_cell_length_c       25.016
_cell_angle_alpha    90
_cell_angle_beta     90
_cell_angle_gamma    90

_symmetry_space_group_name_H-M    "P 1"
_symmetry_int_tables_number       1

loop_
  _symmetry_equiv_pos_as_xyz
  'x, y, z'

loop_
  _atom_site_label
  _atom_site_occupancy
  _atom_site_fract_x
  _atom_site_fract_y
  _atom_site_fract_z
  _atom_site_thermal_displace_type
  _atom_site_B_iso_or_equiv
  _atom_site_type_symbol
  C1       1.0000 0.38148  0.21998  0.26091  Biso   1.000  C
  C2       1.0000 0.38148  0.27998  0.23909  Biso   1.000  C
  C3       1.0000 0.43040  0.21310  0.29321  Biso   1.000  C
  H1       1.0000 0.34938  0.21350  0.28310  Biso   1.000  H
  H2       1.0000 0.38128  0.19452  0.23069  Biso   1.000  H
  C4       1.0000 0.43040  0.28690  0.20679  Biso   1.000  C
  H3       1.0000 0.34938  0.28650  0.21690  Biso   1.000  H
  H4       1.0000 0.38128  0.30548  0.26931  Biso   1.000  H
  C5       1.0000 0.48189  0.22190  0.26099  Biso   1.000  C
  H5       1.0000 0.43080  0.17649  0.30840  Biso   1.000  H
  H6       1.0000 0.42961  0.23861  0.32351  Biso   1.000  H
  C6       1.0000 0.48189  0.27810  0.23901  Biso   1.000  C
  H7       1.0000 0.43080  0.32351  0.19160  Biso   1.000  H
  H8       1.0000 0.42961  0.26139  0.17649  Biso   1.000  H
  N1       1.0000 0.52598  0.21278  0.29561  Biso   1.000  N
  H9       1.0000 0.48329  0.19579  0.23081  Biso   1.000  H
  N2       1.0000 0.52598  0.28722  0.20439  Biso   1.000  N
  H10      1.0000 0.48329  0.30421  0.26919  Biso   1.000  H
  C7       1.0000 0.55848  0.17409  0.28682  Biso   1.000  C
  C8       1.0000 0.55848  0.32591  0.21318  Biso   1.000  C
  C9       1.0000 0.60297  0.16090  0.32071  Biso   1.000  C
  H11      1.0000 0.55289  0.15278  0.25580  Biso   1.000  H
  C10      1.0000 0.60297  0.33910  0.17929  Biso   1.000  C
  H12      1.0000 0.55289  0.34718  0.24420  Biso   1.000  H
  C11      1.0000 0.63487  0.11701  0.30668  Biso   1.000  C
  C12      1.0000 0.61701  0.19332  0.36509  Biso   1.000  C
  C13      1.0000 0.63487  0.38299  0.19332  Biso   1.000  C
  C14      1.0000 0.61701  0.30668  0.13491  Biso   1.000  C
  H13      1.0000 0.62680  0.09682  0.27558  Biso   1.000  H
  C15      1.0000 0.67929  0.10301  0.33910  Biso   1.000  C
  H14      1.0000 0.59678  0.22442  0.37320  Biso   1.000  H
  C16      1.0000 0.66090  0.17929  0.39699  Biso   1.000  C
  H15      1.0000 0.62680  0.40318  0.22442  Biso   1.000  H
  C17      1.0000 0.67929  0.39699  0.16090  Biso   1.000  C
  H16      1.0000 0.59678  0.27558  0.12680  Biso   1.000  H
  C18      1.0000 0.66090  0.32071  0.10301  Biso   1.000  C
  C19      1.0000 0.69328  0.13491  0.38299  Biso   1.000  C
  C20      1.0000 0.71318  0.05848  0.32591  Biso   1.000  C
  C21      1.0000 0.67409  0.21318  0.44148  Biso   1.000  C
  C22      1.0000 0.69328  0.36509  0.11701  Biso   1.000  C
  C23      1.0000 0.71318  0.44148  0.17409  Biso   1.000  C
  C24      1.0000 0.67409  0.28682  0.05848  Biso   1.000  C
  H17      1.0000 0.72438  0.12680  0.40318  Biso   1.000  H
  N3       1.0000 0.70439  0.02598  0.28722  Biso   1.000  N
  H18      1.0000 0.74420  0.05289  0.34718  Biso   1.000  H
  N4       1.0000 0.71278  0.20439  0.47398  Biso   1.000  N
  H19      1.0000 0.65278  0.24420  0.44711  Biso   1.000  H
  H20      1.0000 0.72438  0.37320  0.09682  Biso   1.000  H
  N5       1.0000 0.70439  0.47398  0.21278  Biso   1.000  N
  H21      1.0000 0.74420  0.44711  0.15278  Biso   1.000  H
  N6       1.0000 0.71278  0.29561  0.02598  Biso   1.000  N
  H22      1.0000 0.65278  0.25580  0.05289  Biso   1.000  H
  C25      1.0000 0.73901  0.98189  0.27810  Biso   1.000  C
  C26      1.0000 0.72190  0.23901  0.51811  Biso   1.000  C
  C27      1.0000 0.73901  0.51811  0.22190  Biso   1.000  C
  C28      1.0000 0.72190  0.26099  0.98189  Biso   1.000  C
  C29      1.0000 0.76099  0.98189  0.22190  Biso   1.000  C
  H23      1.0000 0.76919  0.98329  0.30421  Biso   1.000  H
  C30      1.0000 0.70679  0.93040  0.28690  Biso   1.000  C
  C31      1.0000 0.77810  0.26099  0.51811  Biso   1.000  C
  H24      1.0000 0.69579  0.26919  0.51671  Biso   1.000  H
  C32      1.0000 0.71310  0.20679  0.56960  Biso   1.000  C
  C33      1.0000 0.76099  0.51811  0.27810  Biso   1.000  C
  H25      1.0000 0.76919  0.51671  0.19579  Biso   1.000  H
  C34      1.0000 0.70679  0.56960  0.21310  Biso   1.000  C
  C35      1.0000 0.77810  0.23901  0.98189  Biso   1.000  C
  H26      1.0000 0.69579  0.23081  0.98329  Biso   1.000  H
  C36      1.0000 0.71310  0.29321  0.93040  Biso   1.000  C
  N7       1.0000 0.79557  0.02598  0.21278  Biso   1.000  N
  H27      1.0000 0.73077  0.98329  0.19579  Biso   1.000  H
  C37      1.0000 0.79317  0.93040  0.21310  Biso   1.000  C
  H28      1.0000 0.69160  0.93080  0.32351  Biso   1.000  H
  H29      1.0000 0.67649  0.92961  0.26139  Biso   1.000  H
  C38      1.0000 0.73909  0.88152  0.27998  Biso   1.000  C
  N8       1.0000 0.78718  0.29561  0.47398  Biso   1.000  N
  H30      1.0000 0.80421  0.23081  0.51671  Biso   1.000  H
  C39      1.0000 0.78690  0.29321  0.56960  Biso   1.000  C
  H31      1.0000 0.67649  0.19160  0.56920  Biso   1.000  H
  H32      1.0000 0.73861  0.17649  0.57039  Biso   1.000  H
  C40      1.0000 0.71998  0.23909  0.61848  Biso   1.000  C
  N9       1.0000 0.79557  0.47398  0.28722  Biso   1.000  N
  H33      1.0000 0.73077  0.51671  0.30421  Biso   1.000  H
  C41      1.0000 0.79317  0.56960  0.28690  Biso   1.000  C
  H34      1.0000 0.69160  0.56920  0.17649  Biso   1.000  H
  H35      1.0000 0.67649  0.57039  0.23861  Biso   1.000  H
  C42      1.0000 0.73909  0.61848  0.21998  Biso   1.000  C
  N10      1.0000 0.78718  0.20439  0.02598  Biso   1.000  N
  H36      1.0000 0.80421  0.26919  0.98329  Biso   1.000  H
  C43      1.0000 0.78690  0.20679  0.93040  Biso   1.000  C
  H37      1.0000 0.67649  0.30840  0.93080  Biso   1.000  H
  H38      1.0000 0.73861  0.32351  0.92961  Biso   1.000  H
  C44      1.0000 0.71998  0.26091  0.88152  Biso   1.000  C
  C45      1.0000 0.78678  0.05848  0.17409  Biso   1.000  C
  H39      1.0000 0.80840  0.93080  0.17649  Biso   1.000  H
  H40      1.0000 0.82347  0.92961  0.23861  Biso   1.000  H
  C46      1.0000 0.76087  0.88152  0.21998  Biso   1.000  C
  H41      1.0000 0.71690  0.84942  0.28650  Biso   1.000  H
  H42      1.0000 0.76931  0.88132  0.30548  Biso   1.000  H
  C47      1.0000 0.82587  0.28682  0.44148  Biso   1.000  C
  H43      1.0000 0.82347  0.30840  0.56920  Biso   1.000  H
  H44      1.0000 0.76139  0.32351  0.57039  Biso   1.000  H
  C48      1.0000 0.77998  0.26091  0.61848  Biso   1.000  C
  H45      1.0000 0.71350  0.21690  0.65058  Biso   1.000  H
  H46      1.0000 0.69448  0.26931  0.61868  Biso   1.000  H
  C49      1.0000 0.78678  0.44148  0.32591  Biso   1.000  C
  H47      1.0000 0.80840  0.56920  0.32351  Biso   1.000  H
  H48      1.0000 0.82347  0.57039  0.26139  Biso   1.000  H
  C50      1.0000 0.76087  0.61848  0.27998  Biso   1.000  C
  H49      1.0000 0.71690  0.65058  0.21350  Biso   1.000  H
  H50      1.0000 0.76931  0.61868  0.19452  Biso   1.000  H
  C51      1.0000 0.82587  0.21318  0.05848  Biso   1.000  C
  H51      1.0000 0.82347  0.19160  0.93080  Biso   1.000  H
  H52      1.0000 0.76139  0.17649  0.92961  Biso   1.000  H
  C52      1.0000 0.77998  0.23909  0.88152  Biso   1.000  C
  H53      1.0000 0.71350  0.28310  0.84942  Biso   1.000  H
  H54      1.0000 0.69448  0.23069  0.88132  Biso   1.000  H
  C53      1.0000 0.82067  0.10301  0.16090  Biso   1.000  C
  H55      1.0000 0.75580  0.05289  0.15278  Biso   1.000  H
  H56      1.0000 0.78310  0.84942  0.21350  Biso   1.000  H
  H57      1.0000 0.73069  0.88132  0.19452  Biso   1.000  H
  C54      1.0000 0.83910  0.32071  0.39699  Biso   1.000  C
  H58      1.0000 0.84718  0.25580  0.44711  Biso   1.000  H
  H59      1.0000 0.78650  0.28310  0.65058  Biso   1.000  H
  H60      1.0000 0.80548  0.23069  0.61868  Biso   1.000  H
  C55      1.0000 0.82067  0.39699  0.33910  Biso   1.000  C
  H61      1.0000 0.75580  0.44711  0.34718  Biso   1.000  H
  H62      1.0000 0.78310  0.65058  0.28650  Biso   1.000  H
  H63      1.0000 0.73069  0.61868  0.30548  Biso   1.000  H
  C56      1.0000 0.83910  0.17929  0.10301  Biso   1.000  C
  H64      1.0000 0.84718  0.24420  0.05289  Biso   1.000  H
  H65      1.0000 0.78650  0.21690  0.84942  Biso   1.000  H
  H66      1.0000 0.80548  0.26931  0.88132  Biso   1.000  H
  C57      1.0000 0.80668  0.13491  0.11701  Biso   1.000  C
  C58      1.0000 0.86509  0.11701  0.19332  Biso   1.000  C
  C59      1.0000 0.80668  0.36509  0.38299  Biso   1.000  C
  C60      1.0000 0.88299  0.30668  0.36509  Biso   1.000  C
  C61      1.0000 0.86509  0.38299  0.30668  Biso   1.000  C
  C62      1.0000 0.88299  0.19332  0.13491  Biso   1.000  C
  H67      1.0000 0.77558  0.12680  0.09682  Biso   1.000  H
  C63      1.0000 0.89699  0.16090  0.17929  Biso   1.000  C
  H68      1.0000 0.87320  0.09682  0.22442  Biso   1.000  H
  H69      1.0000 0.77558  0.37320  0.40318  Biso   1.000  H
  C64      1.0000 0.89699  0.33910  0.32071  Biso   1.000  C
  H70      1.0000 0.90318  0.27558  0.37320  Biso   1.000  H
  H71      1.0000 0.87320  0.40318  0.27558  Biso   1.000  H
  H72      1.0000 0.90318  0.22442  0.12680  Biso   1.000  H
  C65      1.0000 0.94148  0.17409  0.21318  Biso   1.000  C
  C66      1.0000 0.94148  0.32591  0.28682  Biso   1.000  C
  N11      1.0000 0.97398  0.21278  0.20439  Biso   1.000  N
  H73      1.0000 0.94707  0.15278  0.24420  Biso   1.000  H
  N12      1.0000 0.97398  0.28722  0.29561  Biso   1.000  N
  H74      1.0000 0.94707  0.34718  0.25580  Biso   1.000  H
  C67      1.0000 0.01807  0.22190  0.23901  Biso   1.000  C
  C68      1.0000 0.01807  0.27810  0.26099  Biso   1.000  C
  H75      1.0000 0.01667  0.19579  0.26919  Biso   1.000  H
  C69      1.0000 0.06960  0.21310  0.20679  Biso   1.000  C
  H76      1.0000 0.01667  0.30421  0.23081  Biso   1.000  H
  C70      1.0000 0.06960  0.28690  0.29321  Biso   1.000  C
  H77      1.0000 0.06920  0.17649  0.19160  Biso   1.000  H
  H78      1.0000 0.07039  0.23861  0.17649  Biso   1.000  H
  C71      1.0000 0.11848  0.21998  0.23909  Biso   1.000  C
  H79      1.0000 0.06920  0.32351  0.30840  Biso   1.000  H
  H80      1.0000 0.07039  0.26139  0.32351  Biso   1.000  H
  C72      1.0000 0.11848  0.27998  0.26091  Biso   1.000  C
  H81      1.0000 0.15058  0.21350  0.21690  Biso   1.000  H
  H82      1.0000 0.11868  0.19452  0.26931  Biso   1.000  H
  H83      1.0000 0.15058  0.28650  0.28310  Biso   1.000  H
  H84      1.0000 0.11868  0.30548  0.23069  Biso   1.000  H
  C73      1.0000 0.26091  0.38148  0.21998  Biso   1.000  C
  C74      1.0000 0.23909  0.38148  0.27998  Biso   1.000  C
  C75      1.0000 0.29321  0.43040  0.21310  Biso   1.000  C
  H85      1.0000 0.28310  0.34938  0.21350  Biso   1.000  H
  H86      1.0000 0.23069  0.38128  0.19452  Biso   1.000  H
  C76      1.0000 0.20679  0.43040  0.28690  Biso   1.000  C
  H87      1.0000 0.21690  0.34938  0.28650  Biso   1.000  H
  H88      1.0000 0.26931  0.38128  0.30548  Biso   1.000  H
  C77      1.0000 0.26099  0.48189  0.22190  Biso   1.000  C
  H89      1.0000 0.30840  0.43080  0.17649  Biso   1.000  H
  H90      1.0000 0.32351  0.42961  0.23861  Biso   1.000  H
  C78      1.0000 0.23901  0.48189  0.27810  Biso   1.000  C
  H91      1.0000 0.19160  0.43080  0.32351  Biso   1.000  H
  H92      1.0000 0.17649  0.42961  0.26139  Biso   1.000  H
  N13      1.0000 0.29561  0.52598  0.21278  Biso   1.000  N
  H93      1.0000 0.23081  0.48329  0.19579  Biso   1.000  H
  N14      1.0000 0.20439  0.52598  0.28722  Biso   1.000  N
  H94      1.0000 0.26919  0.48329  0.30421  Biso   1.000  H
  C79      1.0000 0.28682  0.55848  0.17409  Biso   1.000  C
  C80      1.0000 0.21318  0.55848  0.32591  Biso   1.000  C
  C81      1.0000 0.32071  0.60297  0.16090  Biso   1.000  C
  H95      1.0000 0.25580  0.55289  0.15278  Biso   1.000  H
  C82      1.0000 0.17929  0.60297  0.33910  Biso   1.000  C
  H96      1.0000 0.24420  0.55289  0.34718  Biso   1.000  H
  C83      1.0000 0.30668  0.63487  0.11701  Biso   1.000  C
  C84      1.0000 0.36509  0.61701  0.19332  Biso   1.000  C
  C85      1.0000 0.19332  0.63487  0.38299  Biso   1.000  C
  C86      1.0000 0.13491  0.61701  0.30668  Biso   1.000  C
  H97      1.0000 0.27558  0.62680  0.09682  Biso   1.000  H
  C87      1.0000 0.33910  0.67929  0.10301  Biso   1.000  C
  H98      1.0000 0.37320  0.59678  0.22442  Biso   1.000  H
  C88      1.0000 0.39699  0.66090  0.17929  Biso   1.000  C
  H99      1.0000 0.22442  0.62680  0.40318  Biso   1.000  H
  C89      1.0000 0.16090  0.67929  0.39699  Biso   1.000  C
  H100     1.0000 0.12680  0.59678  0.27558  Biso   1.000  H
  C90      1.0000 0.10301  0.66090  0.32071  Biso   1.000  C
  C91      1.0000 0.38299  0.69328  0.13491  Biso   1.000  C
  C92      1.0000 0.32591  0.71318  0.05848  Biso   1.000  C
  C93      1.0000 0.44148  0.67409  0.21318  Biso   1.000  C
  C94      1.0000 0.11701  0.69328  0.36509  Biso   1.000  C
  C95      1.0000 0.17409  0.71318  0.44148  Biso   1.000  C
  C96      1.0000 0.05848  0.67409  0.28682  Biso   1.000  C
  H101     1.0000 0.40318  0.72438  0.12680  Biso   1.000  H
  N15      1.0000 0.28722  0.70439  0.02598  Biso   1.000  N
  H102     1.0000 0.34718  0.74420  0.05289  Biso   1.000  H
  N16      1.0000 0.47398  0.71278  0.20439  Biso   1.000  N
  H103     1.0000 0.44711  0.65278  0.24420  Biso   1.000  H
  H104     1.0000 0.09682  0.72438  0.37320  Biso   1.000  H
  N17      1.0000 0.21278  0.70439  0.47398  Biso   1.000  N
  H105     1.0000 0.15278  0.74420  0.44711  Biso   1.000  H
  N18      1.0000 0.02598  0.71278  0.29561  Biso   1.000  N
  H106     1.0000 0.05289  0.65278  0.25580  Biso   1.000  H
  C97      1.0000 0.27810  0.73901  0.98189  Biso   1.000  C
  C98      1.0000 0.51811  0.72190  0.23901  Biso   1.000  C
  C99      1.0000 0.22190  0.73901  0.51811  Biso   1.000  C
  C100     1.0000 0.98189  0.72190  0.26099  Biso   1.000  C
  C101     1.0000 0.22190  0.76099  0.98189  Biso   1.000  C
  H107     1.0000 0.30421  0.76919  0.98329  Biso   1.000  H
  C102     1.0000 0.28690  0.70679  0.93040  Biso   1.000  C
  C103     1.0000 0.51811  0.77810  0.26099  Biso   1.000  C
  H108     1.0000 0.51671  0.69579  0.26919  Biso   1.000  H
  C104     1.0000 0.56960  0.71310  0.20679  Biso   1.000  C
  C105     1.0000 0.27810  0.76099  0.51811  Biso   1.000  C
  H109     1.0000 0.19579  0.76919  0.51671  Biso   1.000  H
  C106     1.0000 0.21310  0.70679  0.56960  Biso   1.000  C
  C107     1.0000 0.98189  0.77810  0.23901  Biso   1.000  C
  H110     1.0000 0.98329  0.69579  0.23081  Biso   1.000  H
  C108     1.0000 0.93040  0.71310  0.29321  Biso   1.000  C
  N19      1.0000 0.21278  0.79557  0.02598  Biso   1.000  N
  H111     1.0000 0.19579  0.73077  0.98329  Biso   1.000  H
  C109     1.0000 0.21310  0.79317  0.93040  Biso   1.000  C
  H112     1.0000 0.32351  0.69160  0.93080  Biso   1.000  H
  H113     1.0000 0.26139  0.67649  0.92961  Biso   1.000  H
  C110     1.0000 0.27998  0.73909  0.88152  Biso   1.000  C
  N20      1.0000 0.47398  0.78718  0.29561  Biso   1.000  N
  H114     1.0000 0.51671  0.80421  0.23081  Biso   1.000  H
  C111     1.0000 0.56960  0.78690  0.29321  Biso   1.000  C
  H115     1.0000 0.56920  0.67649  0.19160  Biso   1.000  H
  H116     1.0000 0.57039  0.73861  0.17649  Biso   1.000  H
  C112     1.0000 0.61848  0.71998  0.23909  Biso   1.000  C
  N21      1.0000 0.28722  0.79557  0.47398  Biso   1.000  N
  H117     1.0000 0.30421  0.73077  0.51671  Biso   1.000  H
  C113     1.0000 0.28690  0.79317  0.56960  Biso   1.000  C
  H118     1.0000 0.17649  0.69160  0.56920  Biso   1.000  H
  H119     1.0000 0.23861  0.67649  0.57039  Biso   1.000  H
  C114     1.0000 0.21998  0.73909  0.61848  Biso   1.000  C
  N22      1.0000 0.02598  0.78718  0.20439  Biso   1.000  N
  H120     1.0000 0.98329  0.80421  0.26919  Biso   1.000  H
  C115     1.0000 0.93040  0.78690  0.20679  Biso   1.000  C
  H121     1.0000 0.93080  0.67649  0.30840  Biso   1.000  H
  H122     1.0000 0.92961  0.73861  0.32351  Biso   1.000  H
  C116     1.0000 0.88152  0.71998  0.26091  Biso   1.000  C
  C117     1.0000 0.17409  0.78678  0.05848  Biso   1.000  C
  H123     1.0000 0.17649  0.80840  0.93080  Biso   1.000  H
  H124     1.0000 0.23861  0.82347  0.92961  Biso   1.000  H
  C118     1.0000 0.21998  0.76087  0.88152  Biso   1.000  C
  H125     1.0000 0.28650  0.71690  0.84942  Biso   1.000  H
  H126     1.0000 0.30548  0.76931  0.88132  Biso   1.000  H
  C119     1.0000 0.44148  0.82587  0.28682  Biso   1.000  C
  H127     1.0000 0.56920  0.82347  0.30840  Biso   1.000  H
  H128     1.0000 0.57039  0.76139  0.32351  Biso   1.000  H
  C120     1.0000 0.61848  0.77998  0.26091  Biso   1.000  C
  H129     1.0000 0.65058  0.71350  0.21690  Biso   1.000  H
  H130     1.0000 0.61868  0.69448  0.26931  Biso   1.000  H
  C121     1.0000 0.32591  0.78678  0.44148  Biso   1.000  C
  H131     1.0000 0.32351  0.80840  0.56920  Biso   1.000  H
  H132     1.0000 0.26139  0.82347  0.57039  Biso   1.000  H
  C122     1.0000 0.27998  0.76087  0.61848  Biso   1.000  C
  H133     1.0000 0.21350  0.71690  0.65058  Biso   1.000  H
  H134     1.0000 0.19452  0.76931  0.61868  Biso   1.000  H
  C123     1.0000 0.05848  0.82587  0.21318  Biso   1.000  C
  H135     1.0000 0.93080  0.82347  0.19160  Biso   1.000  H
  H136     1.0000 0.92961  0.76139  0.17649  Biso   1.000  H
  C124     1.0000 0.88152  0.77998  0.23909  Biso   1.000  C
  H137     1.0000 0.84942  0.71350  0.28310  Biso   1.000  H
  H138     1.0000 0.88132  0.69448  0.23069  Biso   1.000  H
  C125     1.0000 0.16090  0.82067  0.10301  Biso   1.000  C
  H139     1.0000 0.15278  0.75580  0.05289  Biso   1.000  H
  H140     1.0000 0.21350  0.78310  0.84942  Biso   1.000  H
  H141     1.0000 0.19452  0.73069  0.88132  Biso   1.000  H
  C126     1.0000 0.39699  0.83910  0.32071  Biso   1.000  C
  H142     1.0000 0.44711  0.84718  0.25580  Biso   1.000  H
  H143     1.0000 0.65058  0.78650  0.28310  Biso   1.000  H
  H144     1.0000 0.61868  0.80548  0.23069  Biso   1.000  H
  C127     1.0000 0.33910  0.82067  0.39699  Biso   1.000  C
  H145     1.0000 0.34718  0.75580  0.44711  Biso   1.000  H
  H146     1.0000 0.28650  0.78310  0.65058  Biso   1.000  H
  H147     1.0000 0.30548  0.73069  0.61868  Biso   1.000  H
  C128     1.0000 0.10301  0.83910  0.17929  Biso   1.000  C
  H148     1.0000 0.05289  0.84718  0.24420  Biso   1.000  H
  H149     1.0000 0.84942  0.78650  0.21690  Biso   1.000  H
  H150     1.0000 0.88132  0.80548  0.26931  Biso   1.000  H
  C129     1.0000 0.19332  0.86509  0.11701  Biso   1.000  C
  C130     1.0000 0.11701  0.80668  0.13491  Biso   1.000  C
  C131     1.0000 0.38299  0.80668  0.36509  Biso   1.000  C
  C132     1.0000 0.36509  0.88299  0.30668  Biso   1.000  C
  C133     1.0000 0.30668  0.86509  0.38299  Biso   1.000  C
  C134     1.0000 0.13491  0.88299  0.19332  Biso   1.000  C
  H151     1.0000 0.22442  0.87320  0.09682  Biso   1.000  H
  C135     1.0000 0.17929  0.89699  0.16090  Biso   1.000  C
  H152     1.0000 0.09682  0.77558  0.12680  Biso   1.000  H
  H153     1.0000 0.40318  0.77558  0.37320  Biso   1.000  H
  H154     1.0000 0.37320  0.90318  0.27558  Biso   1.000  H
  C136     1.0000 0.32071  0.89699  0.33910  Biso   1.000  C
  H155     1.0000 0.27558  0.87320  0.40318  Biso   1.000  H
  H156     1.0000 0.12680  0.90318  0.22442  Biso   1.000  H
  C137     1.0000 0.21318  0.94148  0.17409  Biso   1.000  C
  C138     1.0000 0.28682  0.94148  0.32591  Biso   1.000  C
  N23      1.0000 0.20439  0.97398  0.21278  Biso   1.000  N
  H157     1.0000 0.24420  0.94707  0.15278  Biso   1.000  H
  N24      1.0000 0.29561  0.97398  0.28722  Biso   1.000  N
  H158     1.0000 0.25580  0.94707  0.34718  Biso   1.000  H
  C139     1.0000 0.23901  0.01807  0.22190  Biso   1.000  C
  C140     1.0000 0.26099  0.01807  0.27810  Biso   1.000  C
  H159     1.0000 0.26919  0.01667  0.19579  Biso   1.000  H
  C141     1.0000 0.20679  0.06960  0.21310  Biso   1.000  C
  H160     1.0000 0.23081  0.01667  0.30421  Biso   1.000  H
  C142     1.0000 0.29321  0.06960  0.28690  Biso   1.000  C
  H161     1.0000 0.19160  0.06920  0.17649  Biso   1.000  H
  H162     1.0000 0.17649  0.07039  0.23861  Biso   1.000  H
  C143     1.0000 0.23909  0.11848  0.21998  Biso   1.000  C
  H163     1.0000 0.30840  0.06920  0.32351  Biso   1.000  H
  H164     1.0000 0.32351  0.07039  0.26139  Biso   1.000  H
  C144     1.0000 0.26091  0.11848  0.27998  Biso   1.000  C
  H165     1.0000 0.21690  0.15058  0.21350  Biso   1.000  H
  H166     1.0000 0.26931  0.11868  0.19452  Biso   1.000  H
  H167     1.0000 0.28310  0.15058  0.28650  Biso   1.000  H
  H168     1.0000 0.23069  0.11868  0.30548  Biso   1.000  H
  C145     1.0000 0.21998  0.26091  0.38148  Biso   1.000  C
  C146     1.0000 0.27998  0.23909  0.38148  Biso   1.000  C
  C147     1.0000 0.21310  0.29321  0.43040  Biso   1.000  C
  H169     1.0000 0.21350  0.28310  0.34938  Biso   1.000  H
  H170     1.0000 0.19452  0.23069  0.38128  Biso   1.000  H
  C148     1.0000 0.28690  0.20679  0.43040  Biso   1.000  C
  H171     1.0000 0.28650  0.21690  0.34938  Biso   1.000  H
  H172     1.0000 0.30548  0.26931  0.38128  Biso   1.000  H
  C149     1.0000 0.22190  0.26099  0.48189  Biso   1.000  C
  H173     1.0000 0.17649  0.30840  0.43080  Biso   1.000  H
  H174     1.0000 0.23861  0.32351  0.42961  Biso   1.000  H
  C150     1.0000 0.27810  0.23901  0.48189  Biso   1.000  C
  H175     1.0000 0.32351  0.19160  0.43080  Biso   1.000  H
  H176     1.0000 0.26139  0.17649  0.42961  Biso   1.000  H
  N25      1.0000 0.21278  0.29561  0.52598  Biso   1.000  N
  H177     1.0000 0.19579  0.23081  0.48329  Biso   1.000  H
  N26      1.0000 0.28722  0.20439  0.52598  Biso   1.000  N
  H178     1.0000 0.30421  0.26919  0.48329  Biso   1.000  H
  C151     1.0000 0.17409  0.28682  0.55848  Biso   1.000  C
  C152     1.0000 0.32591  0.21318  0.55848  Biso   1.000  C
  C153     1.0000 0.16090  0.32071  0.60297  Biso   1.000  C
  H179     1.0000 0.15278  0.25580  0.55289  Biso   1.000  H
  C154     1.0000 0.33910  0.17929  0.60297  Biso   1.000  C
  H180     1.0000 0.34718  0.24420  0.55289  Biso   1.000  H
  C155     1.0000 0.19332  0.36509  0.61701  Biso   1.000  C
  C156     1.0000 0.11701  0.30668  0.63487  Biso   1.000  C
  C157     1.0000 0.38299  0.19332  0.63487  Biso   1.000  C
  C158     1.0000 0.30668  0.13491  0.61701  Biso   1.000  C
  H181     1.0000 0.22442  0.37320  0.59678  Biso   1.000  H
  C159     1.0000 0.17929  0.39699  0.66090  Biso   1.000  C
  H182     1.0000 0.09682  0.27558  0.62680  Biso   1.000  H
  C160     1.0000 0.10301  0.33910  0.67929  Biso   1.000  C
  H183     1.0000 0.40318  0.22442  0.62680  Biso   1.000  H
  C161     1.0000 0.39699  0.16090  0.67929  Biso   1.000  C
  H184     1.0000 0.27558  0.12680  0.59678  Biso   1.000  H
  C162     1.0000 0.32071  0.10301  0.66090  Biso   1.000  C
  C163     1.0000 0.13491  0.38299  0.69328  Biso   1.000  C
  C164     1.0000 0.21318  0.44148  0.67409  Biso   1.000  C
  C165     1.0000 0.05848  0.32591  0.71318  Biso   1.000  C
  C166     1.0000 0.36509  0.11701  0.69328  Biso   1.000  C
  C167     1.0000 0.44148  0.17409  0.71318  Biso   1.000  C
  C168     1.0000 0.28682  0.05848  0.67409  Biso   1.000  C
  H185     1.0000 0.12680  0.40318  0.72438  Biso   1.000  H
  N27      1.0000 0.20439  0.47398  0.71278  Biso   1.000  N
  H186     1.0000 0.24420  0.44711  0.65278  Biso   1.000  H
  N28      1.0000 0.02598  0.28722  0.70439  Biso   1.000  N
  H187     1.0000 0.05289  0.34718  0.74420  Biso   1.000  H
  H188     1.0000 0.37320  0.09682  0.72438  Biso   1.000  H
  N29      1.0000 0.47398  0.21278  0.70439  Biso   1.000  N
  H189     1.0000 0.44711  0.15278  0.74420  Biso   1.000  H
  N30      1.0000 0.29561  0.02598  0.71278  Biso   1.000  N
  H190     1.0000 0.25580  0.05289  0.65278  Biso   1.000  H
  C169     1.0000 0.23901  0.51811  0.72190  Biso   1.000  C
  C170     1.0000 0.98189  0.27810  0.73901  Biso   1.000  C
  C171     1.0000 0.51811  0.22190  0.73901  Biso   1.000  C
  C172     1.0000 0.26099  0.98189  0.72190  Biso   1.000  C
  C173     1.0000 0.26099  0.51811  0.77810  Biso   1.000  C
  H191     1.0000 0.26919  0.51671  0.69579  Biso   1.000  H
  C174     1.0000 0.20679  0.56960  0.71310  Biso   1.000  C
  C175     1.0000 0.98189  0.22190  0.76099  Biso   1.000  C
  H192     1.0000 0.98329  0.30421  0.76919  Biso   1.000  H
  C176     1.0000 0.93040  0.28690  0.70679  Biso   1.000  C
  C177     1.0000 0.51811  0.27810  0.76099  Biso   1.000  C
  H193     1.0000 0.51671  0.19579  0.76919  Biso   1.000  H
  C178     1.0000 0.56960  0.21310  0.70679  Biso   1.000  C
  C179     1.0000 0.23901  0.98189  0.77810  Biso   1.000  C
  H194     1.0000 0.23081  0.98329  0.69579  Biso   1.000  H
  C180     1.0000 0.29321  0.93040  0.71310  Biso   1.000  C
  N31      1.0000 0.29561  0.47398  0.78718  Biso   1.000  N
  H195     1.0000 0.23081  0.51671  0.80421  Biso   1.000  H
  C181     1.0000 0.29321  0.56960  0.78690  Biso   1.000  C
  H196     1.0000 0.19160  0.56920  0.67649  Biso   1.000  H
  H197     1.0000 0.17649  0.57039  0.73861  Biso   1.000  H
  C182     1.0000 0.23909  0.61848  0.71998  Biso   1.000  C
  N32      1.0000 0.02598  0.21278  0.79557  Biso   1.000  N
  H198     1.0000 0.98329  0.19579  0.73077  Biso   1.000  H
  C183     1.0000 0.93040  0.21310  0.79317  Biso   1.000  C
  H199     1.0000 0.93080  0.32351  0.69160  Biso   1.000  H
  H200     1.0000 0.92961  0.26139  0.67649  Biso   1.000  H
  C184     1.0000 0.88152  0.27998  0.73909  Biso   1.000  C
  N33      1.0000 0.47398  0.28722  0.79557  Biso   1.000  N
  H201     1.0000 0.51671  0.30421  0.73077  Biso   1.000  H
  C185     1.0000 0.56960  0.28690  0.79317  Biso   1.000  C
  H202     1.0000 0.56920  0.17649  0.69160  Biso   1.000  H
  H203     1.0000 0.57039  0.23861  0.67649  Biso   1.000  H
  C186     1.0000 0.61848  0.21998  0.73909  Biso   1.000  C
  N34      1.0000 0.20439  0.02598  0.78718  Biso   1.000  N
  H204     1.0000 0.26919  0.98329  0.80421  Biso   1.000  H
  C187     1.0000 0.20679  0.93040  0.78690  Biso   1.000  C
  H205     1.0000 0.30840  0.93080  0.67649  Biso   1.000  H
  H206     1.0000 0.32351  0.92961  0.73861  Biso   1.000  H
  C188     1.0000 0.26091  0.88152  0.71998  Biso   1.000  C
  C189     1.0000 0.28682  0.44148  0.82587  Biso   1.000  C
  H207     1.0000 0.30840  0.56920  0.82347  Biso   1.000  H
  H208     1.0000 0.32351  0.57039  0.76139  Biso   1.000  H
  C190     1.0000 0.26091  0.61848  0.77998  Biso   1.000  C
  H209     1.0000 0.21690  0.65058  0.71350  Biso   1.000  H
  H210     1.0000 0.26931  0.61868  0.69448  Biso   1.000  H
  C191     1.0000 0.05848  0.17409  0.78678  Biso   1.000  C
  H211     1.0000 0.93080  0.17649  0.80840  Biso   1.000  H
  H212     1.0000 0.92961  0.23861  0.82347  Biso   1.000  H
  C192     1.0000 0.88152  0.21998  0.76087  Biso   1.000  C
  H213     1.0000 0.84942  0.28650  0.71690  Biso   1.000  H
  H214     1.0000 0.88132  0.30548  0.76931  Biso   1.000  H
  C193     1.0000 0.44148  0.32591  0.78678  Biso   1.000  C
  H215     1.0000 0.56920  0.32351  0.80840  Biso   1.000  H
  H216     1.0000 0.57039  0.26139  0.82347  Biso   1.000  H
  C194     1.0000 0.61848  0.27998  0.76087  Biso   1.000  C
  H217     1.0000 0.65058  0.21350  0.71690  Biso   1.000  H
  H218     1.0000 0.61868  0.19452  0.76931  Biso   1.000  H
  C195     1.0000 0.21318  0.05848  0.82587  Biso   1.000  C
  H219     1.0000 0.19160  0.93080  0.82347  Biso   1.000  H
  H220     1.0000 0.17649  0.92961  0.76139  Biso   1.000  H
  C196     1.0000 0.23909  0.88152  0.77998  Biso   1.000  C
  H221     1.0000 0.28310  0.84942  0.71350  Biso   1.000  H
  H222     1.0000 0.23069  0.88132  0.69448  Biso   1.000  H
  C197     1.0000 0.32071  0.39699  0.83910  Biso   1.000  C
  H223     1.0000 0.25580  0.44711  0.84718  Biso   1.000  H
  H224     1.0000 0.28310  0.65058  0.78650  Biso   1.000  H
  H225     1.0000 0.23069  0.61868  0.80548  Biso   1.000  H
  C198     1.0000 0.10301  0.16090  0.82067  Biso   1.000  C
  H226     1.0000 0.05289  0.15278  0.75580  Biso   1.000  H
  H227     1.0000 0.84942  0.21350  0.78310  Biso   1.000  H
  H228     1.0000 0.88132  0.19452  0.73069  Biso   1.000  H
  C199     1.0000 0.39699  0.33910  0.82067  Biso   1.000  C
  H229     1.0000 0.44711  0.34718  0.75580  Biso   1.000  H
  H230     1.0000 0.65058  0.28650  0.78310  Biso   1.000  H
  H231     1.0000 0.61868  0.30548  0.73069  Biso   1.000  H
  C200     1.0000 0.17929  0.10301  0.83910  Biso   1.000  C
  H232     1.0000 0.24420  0.05289  0.84718  Biso   1.000  H
  H233     1.0000 0.21690  0.84942  0.78650  Biso   1.000  H
  H234     1.0000 0.26931  0.88132  0.80548  Biso   1.000  H
  C201     1.0000 0.36509  0.38299  0.80668  Biso   1.000  C
  C202     1.0000 0.30668  0.36509  0.88299  Biso   1.000  C
  C203     1.0000 0.13491  0.11701  0.80668  Biso   1.000  C
  C204     1.0000 0.11701  0.19332  0.86509  Biso   1.000  C
  C205     1.0000 0.38299  0.30668  0.86509  Biso   1.000  C
  C206     1.0000 0.19332  0.13491  0.88299  Biso   1.000  C
  H235     1.0000 0.37320  0.40318  0.77558  Biso   1.000  H
  C207     1.0000 0.33910  0.32071  0.89699  Biso   1.000  C
  H236     1.0000 0.27558  0.37320  0.90318  Biso   1.000  H
  H237     1.0000 0.12680  0.09682  0.77558  Biso   1.000  H
  C208     1.0000 0.16090  0.17929  0.89699  Biso   1.000  C
  H238     1.0000 0.09682  0.22442  0.87320  Biso   1.000  H
  H239     1.0000 0.40318  0.27558  0.87320  Biso   1.000  H
  H240     1.0000 0.22442  0.12680  0.90318  Biso   1.000  H
  C209     1.0000 0.32591  0.28682  0.94148  Biso   1.000  C
  C210     1.0000 0.17409  0.21318  0.94148  Biso   1.000  C
  N35      1.0000 0.28722  0.29561  0.97398  Biso   1.000  N
  H241     1.0000 0.34718  0.25580  0.94707  Biso   1.000  H
  N36      1.0000 0.21278  0.20439  0.97398  Biso   1.000  N
  H242     1.0000 0.15278  0.24420  0.94707  Biso   1.000  H
  C211     1.0000 0.27810  0.26099  0.01807  Biso   1.000  C
  C212     1.0000 0.22190  0.23901  0.01807  Biso   1.000  C
  H243     1.0000 0.30421  0.23081  0.01667  Biso   1.000  H
  C213     1.0000 0.28690  0.29321  0.06960  Biso   1.000  C
  H244     1.0000 0.19579  0.26919  0.01667  Biso   1.000  H
  C214     1.0000 0.21310  0.20679  0.06960  Biso   1.000  C
  H245     1.0000 0.32351  0.30840  0.06920  Biso   1.000  H
  H246     1.0000 0.26139  0.32351  0.07039  Biso   1.000  H
  C215     1.0000 0.27998  0.26091  0.11848  Biso   1.000  C
  H247     1.0000 0.17649  0.19160  0.06920  Biso   1.000  H
  H248     1.0000 0.23861  0.17649  0.07039  Biso   1.000  H
  C216     1.0000 0.21998  0.23909  0.11848  Biso   1.000  C
  H249     1.0000 0.28650  0.28310  0.15058  Biso   1.000  H
  H250     1.0000 0.30548  0.23069  0.11868  Biso   1.000  H
  H251     1.0000 0.21350  0.21690  0.15058  Biso   1.000  H
  H252     1.0000 0.19452  0.26931  0.11868  Biso   1.000  H
  C217     1.0000 0.38491  0.05668  0.13299  Biso   1.000  C
  C218     1.0000 0.36701  0.11509  0.05668  Biso   1.000  C
  C219     1.0000 0.30848  0.03682  0.07591  Biso   1.000  C
  C220     1.0000 0.30848  0.03682  0.07587  Biso   1.000  C
  C221     1.0000 0.30848  0.03678  0.07591  Biso   1.000  C
  C222     1.0000 0.30848  0.03678  0.07587  Biso   1.000  C
  C223     1.0000 0.42929  0.08910  0.14699  Biso   1.000  C
  H253     1.0000 0.37680  0.02558  0.15318  Biso   1.000  H
  C224     1.0000 0.35301  0.07067  0.08910  Biso   1.000  C
  C225     1.0000 0.41090  0.14699  0.07067  Biso   1.000  C
  H254     1.0000 0.34678  0.12320  0.02558  Biso   1.000  H
  N37      1.0000 0.27598  0.04561  0.03722  Biso   1.000  N
  N38      1.0000 0.27598  0.04561  0.03718  Biso   1.000  N
  H255     1.0000 0.30289  0.00580  0.09718  Biso   1.000  H
  N39      1.0000 0.27598  0.04557  0.03722  Biso   1.000  N
  N40      1.0000 0.27598  0.04557  0.03718  Biso   1.000  N
  C226     1.0000 0.44328  0.13299  0.11509  Biso   1.000  C
  C227     1.0000 0.46318  0.07591  0.19152  Biso   1.000  C
  C228     1.0000 0.46318  0.07591  0.19148  Biso   1.000  C
  C229     1.0000 0.46318  0.07587  0.19152  Biso   1.000  C
  C230     1.0000 0.46318  0.07587  0.19148  Biso   1.000  C
  C231     1.0000 0.42409  0.19152  0.03682  Biso   1.000  C
  C232     1.0000 0.42409  0.19152  0.03678  Biso   1.000  C
  C233     1.0000 0.42409  0.19148  0.03682  Biso   1.000  C
  C234     1.0000 0.42409  0.19148  0.03678  Biso   1.000  C
  C235     1.0000 0.23189  0.01099  0.02810  Biso   1.000  C
  H256     1.0000 0.47438  0.15318  0.12320  Biso   1.000  H
  N41      1.0000 0.45439  0.03722  0.22402  Biso   1.000  N
  N42      1.0000 0.45439  0.03722  0.22398  Biso   1.000  N
  N43      1.0000 0.45439  0.03718  0.22402  Biso   1.000  N
  H257     1.0000 0.49420  0.09718  0.19711  Biso   1.000  H
  N44      1.0000 0.45439  0.03718  0.22398  Biso   1.000  N
  H258     1.0000 0.49420  0.09718  0.19707  Biso   1.000  H
  N45      1.0000 0.46278  0.22402  0.04561  Biso   1.000  N
  H259     1.0000 0.40278  0.19711  0.00580  Biso   1.000  H
  N46      1.0000 0.46278  0.22402  0.04557  Biso   1.000  N
  N47      1.0000 0.46278  0.22398  0.04561  Biso   1.000  N
  H260     1.0000 0.40278  0.19707  0.00580  Biso   1.000  H
  N48      1.0000 0.46278  0.22398  0.04557  Biso   1.000  N
  C236     1.0000 0.23189  0.98901  0.97190  Biso   1.000  C
  H261     1.0000 0.23329  0.98081  0.05421  Biso   1.000  H
  H262     1.0000 0.23329  0.98077  0.05421  Biso   1.000  H
  C237     1.0000 0.18040  0.04317  0.03690  Biso   1.000  C
  C238     1.0000 0.48901  0.02810  0.26807  Biso   1.000  C
  C239     1.0000 0.47190  0.26807  0.01099  Biso   1.000  C
  N49      1.0000 0.27598  0.95439  0.96278  Biso   1.000  N
  C240     1.0000 0.18040  0.95679  0.96310  Biso   1.000  C
  H263     1.0000 0.23329  0.01919  0.94579  Biso   1.000  H
  C241     1.0000 0.13152  0.01091  0.02998  Biso   1.000  C
  H264     1.0000 0.18080  0.05840  0.07347  Biso   1.000  H
  H265     1.0000 0.17961  0.07347  0.01139  Biso   1.000  H
  C242     1.0000 0.13152  0.01087  0.02998  Biso   1.000  C
  C243     1.0000 0.45679  0.03690  0.31960  Biso   1.000  C
  C244     1.0000 0.51099  0.97190  0.26807  Biso   1.000  C
  H266     1.0000 0.51919  0.05421  0.26667  Biso   1.000  H
  C245     1.0000 0.52810  0.26807  0.98901  Biso   1.000  C
  H267     1.0000 0.44579  0.26667  0.98081  Biso   1.000  H
  H268     1.0000 0.44579  0.26667  0.98077  Biso   1.000  H
  C246     1.0000 0.46310  0.31960  0.04317  Biso   1.000  C
  C247     1.0000 0.30848  0.96318  0.92409  Biso   1.000  C
  H269     1.0000 0.18080  0.94160  0.92649  Biso   1.000  H
  H270     1.0000 0.17961  0.92649  0.98861  Biso   1.000  H
  C248     1.0000 0.13152  0.98909  0.97002  Biso   1.000  C
  C249     1.0000 0.13152  0.98909  0.96998  Biso   1.000  C
  H271     1.0000 0.09942  0.03310  0.03650  Biso   1.000  H
  H272     1.0000 0.13132  0.98069  0.05548  Biso   1.000  H
  H273     1.0000 0.42649  0.01139  0.32039  Biso   1.000  H
  C250     1.0000 0.48909  0.02998  0.36848  Biso   1.000  C
  H274     1.0000 0.44160  0.07347  0.31920  Biso   1.000  H
  N50      1.0000 0.54561  0.96278  0.22402  Biso   1.000  N
  C251     1.0000 0.54321  0.96310  0.31960  Biso   1.000  C
  N51      1.0000 0.54561  0.96278  0.22398  Biso   1.000  N
  H275     1.0000 0.48081  0.94579  0.26667  Biso   1.000  H
  N52      1.0000 0.53718  0.22402  0.95439  Biso   1.000  N
  C252     1.0000 0.53690  0.31960  0.95679  Biso   1.000  C
  N53      1.0000 0.53718  0.22398  0.95439  Biso   1.000  N
  H276     1.0000 0.55421  0.26667  0.01919  Biso   1.000  H
  H277     1.0000 0.42649  0.31920  0.05840  Biso   1.000  H
  C253     1.0000 0.46998  0.36848  0.01091  Biso   1.000  C
  H278     1.0000 0.48861  0.32039  0.07347  Biso   1.000  H
  C254     1.0000 0.46998  0.36848  0.01087  Biso   1.000  C
  C255     1.0000 0.35301  0.92929  0.91090  Biso   1.000  C
  H279     1.0000 0.30289  0.99420  0.90278  Biso   1.000  H
  H280     1.0000 0.09942  0.96690  0.96350  Biso   1.000  H
  H281     1.0000 0.13132  0.01931  0.94452  Biso   1.000  H
  H282     1.0000 0.13132  0.01931  0.94448  Biso   1.000  H
  H283     1.0000 0.46690  0.03650  0.40058  Biso   1.000  H
  H284     1.0000 0.51931  0.05548  0.36868  Biso   1.000  H
  C256     1.0000 0.51091  0.97002  0.36848  Biso   1.000  C
  C257     1.0000 0.51091  0.96998  0.36848  Biso   1.000  C
  C258     1.0000 0.53678  0.92409  0.19152  Biso   1.000  C
  C259     1.0000 0.53678  0.92409  0.19148  Biso   1.000  C
  H285     1.0000 0.55840  0.92649  0.31920  Biso   1.000  H
  H286     1.0000 0.57351  0.98861  0.32039  Biso   1.000  H
  C260     1.0000 0.57591  0.19152  0.96318  Biso   1.000  C
  C261     1.0000 0.57591  0.19148  0.96318  Biso   1.000  C
  H287     1.0000 0.57351  0.31920  0.94160  Biso   1.000  H
  H288     1.0000 0.51139  0.32039  0.92649  Biso   1.000  H
  C262     1.0000 0.52998  0.36848  0.98909  Biso   1.000  C
  H289     1.0000 0.46350  0.40058  0.03310  Biso   1.000  H
  H290     1.0000 0.44448  0.36868  0.98069  Biso   1.000  H
  C263     1.0000 0.38491  0.94332  0.86701  Biso   1.000  C
  C264     1.0000 0.38491  0.94328  0.86701  Biso   1.000  C
  C265     1.0000 0.36701  0.88487  0.94332  Biso   1.000  C
  C266     1.0000 0.36701  0.88487  0.94328  Biso   1.000  C
  H291     1.0000 0.53310  0.96350  0.40058  Biso   1.000  H
  H292     1.0000 0.48069  0.94452  0.36868  Biso   1.000  H
  H293     1.0000 0.48069  0.94448  0.36868  Biso   1.000  H
  C267     1.0000 0.57067  0.91090  0.14699  Biso   1.000  C
  H294     1.0000 0.50580  0.90278  0.19711  Biso   1.000  H
  H295     1.0000 0.50580  0.90278  0.19707  Biso   1.000  H
  C268     1.0000 0.58910  0.14699  0.92929  Biso   1.000  C
  H296     1.0000 0.59718  0.19711  0.99420  Biso   1.000  H
  H297     1.0000 0.59718  0.19707  0.99420  Biso   1.000  H
  H298     1.0000 0.55548  0.36868  0.01931  Biso   1.000  H
  H299     1.0000 0.53650  0.40058  0.96690  Biso   1.000  H
  H300     1.0000 0.37680  0.97442  0.84682  Biso   1.000  H
  H301     1.0000 0.37680  0.97442  0.84678  Biso   1.000  H
  C269     1.0000 0.42929  0.91090  0.85297  Biso   1.000  C
  H302     1.0000 0.37680  0.97438  0.84682  Biso   1.000  H
  H303     1.0000 0.37680  0.97438  0.84678  Biso   1.000  H
  H304     1.0000 0.34678  0.87680  0.97442  Biso   1.000  H
  H305     1.0000 0.34678  0.87680  0.97438  Biso   1.000  H
  C270     1.0000 0.41090  0.85297  0.92929  Biso   1.000  C
  C271     1.0000 0.55668  0.86701  0.11509  Biso   1.000  C
  C272     1.0000 0.61509  0.94332  0.13299  Biso   1.000  C
  C273     1.0000 0.61509  0.94328  0.13299  Biso   1.000  C
  C274     1.0000 0.63299  0.11509  0.94332  Biso   1.000  C
  C275     1.0000 0.63299  0.11509  0.94328  Biso   1.000  C
  C276     1.0000 0.55668  0.13299  0.88487  Biso   1.000  C
  C277     1.0000 0.46318  0.92409  0.80848  Biso   1.000  C
  C278     1.0000 0.44328  0.86701  0.88487  Biso   1.000  C
  C279     1.0000 0.42409  0.80848  0.96318  Biso   1.000  C
  H306     1.0000 0.52558  0.84682  0.12320  Biso   1.000  H
  H307     1.0000 0.52558  0.84678  0.12320  Biso   1.000  H
  C280     1.0000 0.58910  0.85297  0.07067  Biso   1.000  C
  H308     1.0000 0.62320  0.97442  0.15318  Biso   1.000  H
  C281     1.0000 0.64699  0.92929  0.08910  Biso   1.000  C
  H309     1.0000 0.62320  0.97438  0.15318  Biso   1.000  H
  H310     1.0000 0.65318  0.12320  0.97442  Biso   1.000  H
  H311     1.0000 0.65318  0.12320  0.97438  Biso   1.000  H
  C282     1.0000 0.64699  0.07067  0.91090  Biso   1.000  C
  H312     1.0000 0.52558  0.15318  0.87680  Biso   1.000  H
  C283     1.0000 0.57067  0.08910  0.85297  Biso   1.000  C
  H313     1.0000 0.47438  0.84682  0.87680  Biso   1.000  H
  H314     1.0000 0.47438  0.84678  0.87680  Biso   1.000  H
  N54      1.0000 0.45439  0.96278  0.77598  Biso   1.000  N
  H315     1.0000 0.49420  0.90278  0.80289  Biso   1.000  H
  N55      1.0000 0.46278  0.77598  0.95439  Biso   1.000  N
  H316     1.0000 0.40278  0.80289  0.99420  Biso   1.000  H
  C284     1.0000 0.57591  0.80848  0.03682  Biso   1.000  C
  C285     1.0000 0.57591  0.80848  0.03678  Biso   1.000  C
  C286     1.0000 0.63299  0.88487  0.05668  Biso   1.000  C
  C287     1.0000 0.69148  0.96318  0.07591  Biso   1.000  C
  C288     1.0000 0.69148  0.96318  0.07587  Biso   1.000  C
  C289     1.0000 0.61509  0.05668  0.86701  Biso   1.000  C
  C290     1.0000 0.69148  0.03682  0.92409  Biso   1.000  C
  C291     1.0000 0.69148  0.03678  0.92409  Biso   1.000  C
  C292     1.0000 0.53678  0.07591  0.80848  Biso   1.000  C
  C293     1.0000 0.53678  0.07587  0.80848  Biso   1.000  C
  C294     1.0000 0.48901  0.97190  0.73189  Biso   1.000  C
  C295     1.0000 0.47190  0.73189  0.98901  Biso   1.000  C
  H317     1.0000 0.65318  0.87680  0.02558  Biso   1.000  H
  N56      1.0000 0.53718  0.77598  0.04561  Biso   1.000  N
  H318     1.0000 0.59718  0.80289  0.00580  Biso   1.000  H
  N57      1.0000 0.53718  0.77598  0.04557  Biso   1.000  N
  N58      1.0000 0.72398  0.95439  0.03722  Biso   1.000  N
  N59      1.0000 0.72398  0.95439  0.03718  Biso   1.000  N
  H319     1.0000 0.69707  0.99420  0.09718  Biso   1.000  H
  H320     1.0000 0.62320  0.02558  0.84682  Biso   1.000  H
  H321     1.0000 0.62320  0.02558  0.84678  Biso   1.000  H
  N60      1.0000 0.72398  0.04561  0.96278  Biso   1.000  N
  H322     1.0000 0.69707  0.00580  0.90278  Biso   1.000  H
  N61      1.0000 0.72398  0.04557  0.96278  Biso   1.000  N
  N62      1.0000 0.54561  0.03722  0.77598  Biso   1.000  N
  N63      1.0000 0.54561  0.03718  0.77598  Biso   1.000  N
  H323     1.0000 0.50580  0.09718  0.80289  Biso   1.000  H
  C296     1.0000 0.51099  0.02810  0.73189  Biso   1.000  C
  H324     1.0000 0.51919  0.94579  0.73329  Biso   1.000  H
  C297     1.0000 0.45679  0.96310  0.68040  Biso   1.000  C
  C298     1.0000 0.52810  0.73189  0.01099  Biso   1.000  C
  C299     1.0000 0.46310  0.68040  0.95679  Biso   1.000  C
  H325     1.0000 0.44579  0.73329  0.01919  Biso   1.000  H
  C300     1.0000 0.76811  0.98901  0.02810  Biso   1.000  C
  C301     1.0000 0.76811  0.01099  0.97190  Biso   1.000  C
  H326     1.0000 0.48081  0.05421  0.73329  Biso   1.000  H
  C302     1.0000 0.54321  0.03690  0.68040  Biso   1.000  C
  H327     1.0000 0.44160  0.92649  0.68080  Biso   1.000  H
  H328     1.0000 0.42649  0.98861  0.67961  Biso   1.000  H
  C303     1.0000 0.48909  0.97002  0.63148  Biso   1.000  C
  C304     1.0000 0.48909  0.96998  0.63148  Biso   1.000  C
  H329     1.0000 0.55421  0.73329  0.98081  Biso   1.000  H
  H330     1.0000 0.55421  0.73329  0.98077  Biso   1.000  H
  C305     1.0000 0.53690  0.68040  0.04317  Biso   1.000  C
  H331     1.0000 0.42649  0.68080  0.94160  Biso   1.000  H
  H332     1.0000 0.48861  0.67961  0.92649  Biso   1.000  H
  C306     1.0000 0.46998  0.63148  0.98909  Biso   1.000  C
  H333     1.0000 0.76671  0.01919  0.05421  Biso   1.000  H
  C307     1.0000 0.81960  0.95679  0.03690  Biso   1.000  C
  H334     1.0000 0.76671  0.98081  0.94579  Biso   1.000  H
  H335     1.0000 0.76671  0.98077  0.94579  Biso   1.000  H
  C308     1.0000 0.81960  0.04317  0.96310  Biso   1.000  C
  H336     1.0000 0.57351  0.01139  0.67961  Biso   1.000  H
  C309     1.0000 0.51091  0.02998  0.63148  Biso   1.000  C
  H337     1.0000 0.55840  0.07347  0.68080  Biso   1.000  H
  H338     1.0000 0.46690  0.96350  0.59938  Biso   1.000  H
  H339     1.0000 0.51931  0.94452  0.63128  Biso   1.000  H
  H340     1.0000 0.51931  0.94448  0.63128  Biso   1.000  H
  H341     1.0000 0.57351  0.68080  0.05840  Biso   1.000  H
  H342     1.0000 0.51139  0.67961  0.07347  Biso   1.000  H
  C310     1.0000 0.52998  0.63148  0.01091  Biso   1.000  C
  C311     1.0000 0.52998  0.63148  0.01087  Biso   1.000  C
  H343     1.0000 0.46350  0.59938  0.96690  Biso   1.000  H
  H344     1.0000 0.44448  0.63128  0.01931  Biso   1.000  H
  H345     1.0000 0.82039  0.92649  0.01139  Biso   1.000  H
  C312     1.0000 0.86848  0.98909  0.02998  Biso   1.000  C
  H346     1.0000 0.81920  0.94160  0.07347  Biso   1.000  H
  C313     1.0000 0.86848  0.01091  0.97002  Biso   1.000  C
  C314     1.0000 0.86848  0.01091  0.96998  Biso   1.000  C
  C315     1.0000 0.86848  0.01087  0.97002  Biso   1.000  C
  C316     1.0000 0.86848  0.01087  0.96998  Biso   1.000  C
  H347     1.0000 0.81920  0.05840  0.92649  Biso   1.000  H
  H348     1.0000 0.82039  0.07347  0.98861  Biso   1.000  H
  H349     1.0000 0.53310  0.03650  0.59938  Biso   1.000  H
  H350     1.0000 0.48069  0.05548  0.63128  Biso   1.000  H
  H351     1.0000 0.55548  0.63128  0.98069  Biso   1.000  H
  H352     1.0000 0.53650  0.59938  0.03310  Biso   1.000  H
  H353     1.0000 0.86868  0.01931  0.05548  Biso   1.000  H
  H354     1.0000 0.90058  0.96690  0.03650  Biso   1.000  H
  H355     1.0000 0.86868  0.98069  0.94452  Biso   1.000  H
  H356     1.0000 0.86868  0.98069  0.94448  Biso   1.000  H
  H357     1.0000 0.90058  0.03310  0.96350  Biso   1.000  H
  C317     1.0000 0.13299  0.38491  0.05668  Biso   1.000  C
  C318     1.0000 0.05668  0.36701  0.11509  Biso   1.000  C
  C319     1.0000 0.07591  0.30848  0.03682  Biso   1.000  C
  C320     1.0000 0.07591  0.30848  0.03678  Biso   1.000  C
  C321     1.0000 0.07587  0.30848  0.03682  Biso   1.000  C
  C322     1.0000 0.07587  0.30848  0.03678  Biso   1.000  C
  C323     1.0000 0.14699  0.42929  0.08910  Biso   1.000  C
  H358     1.0000 0.15318  0.37680  0.02558  Biso   1.000  H
  C324     1.0000 0.08910  0.35301  0.07067  Biso   1.000  C
  C325     1.0000 0.07067  0.41090  0.14699  Biso   1.000  C
  H359     1.0000 0.02558  0.34678  0.12320  Biso   1.000  H
  N64      1.0000 0.03722  0.27598  0.04561  Biso   1.000  N
  N65      1.0000 0.03722  0.27598  0.04557  Biso   1.000  N
  N66      1.0000 0.03718  0.27598  0.04561  Biso   1.000  N
  H360     1.0000 0.09718  0.30289  0.00580  Biso   1.000  H
  N67      1.0000 0.03718  0.27598  0.04557  Biso   1.000  N
  C326     1.0000 0.11509  0.44328  0.13299  Biso   1.000  C
  C327     1.0000 0.19152  0.46318  0.07591  Biso   1.000  C
  C328     1.0000 0.19152  0.46318  0.07587  Biso   1.000  C
  C329     1.0000 0.19148  0.46318  0.07591  Biso   1.000  C
  C330     1.0000 0.19148  0.46318  0.07587  Biso   1.000  C
  C331     1.0000 0.03682  0.42409  0.19152  Biso   1.000  C
  C332     1.0000 0.03682  0.42409  0.19148  Biso   1.000  C
  C333     1.0000 0.03678  0.42409  0.19152  Biso   1.000  C
  C334     1.0000 0.03678  0.42409  0.19148  Biso   1.000  C
  C335     1.0000 0.02810  0.23189  0.01099  Biso   1.000  C
  H361     1.0000 0.12320  0.47438  0.15318  Biso   1.000  H
  N68      1.0000 0.22402  0.45439  0.03722  Biso   1.000  N
  N69      1.0000 0.22402  0.45439  0.03718  Biso   1.000  N
  H362     1.0000 0.19711  0.49420  0.09718  Biso   1.000  H
  N70      1.0000 0.22398  0.45439  0.03722  Biso   1.000  N
  N71      1.0000 0.22398  0.45439  0.03718  Biso   1.000  N
  H363     1.0000 0.19707  0.49420  0.09718  Biso   1.000  H
  N72      1.0000 0.04561  0.46278  0.22402  Biso   1.000  N
  H364     1.0000 0.00580  0.40278  0.19711  Biso   1.000  H
  N73      1.0000 0.04561  0.46278  0.22398  Biso   1.000  N
  H365     1.0000 0.00580  0.40278  0.19707  Biso   1.000  H
  N74      1.0000 0.04557  0.46278  0.22402  Biso   1.000  N
  N75      1.0000 0.04557  0.46278  0.22398  Biso   1.000  N
  C336     1.0000 0.97190  0.23189  0.98901  Biso   1.000  C
  H366     1.0000 0.05421  0.23329  0.98081  Biso   1.000  H
  H367     1.0000 0.05421  0.23329  0.98077  Biso   1.000  H
  C337     1.0000 0.03690  0.18040  0.04317  Biso   1.000  C
  C338     1.0000 0.26807  0.48901  0.02810  Biso   1.000  C
  C339     1.0000 0.01099  0.47190  0.26807  Biso   1.000  C
  N76      1.0000 0.96278  0.27598  0.95439  Biso   1.000  N
  C340     1.0000 0.96310  0.18040  0.95679  Biso   1.000  C
  H368     1.0000 0.94579  0.23329  0.01919  Biso   1.000  H
  C341     1.0000 0.02998  0.13152  0.01091  Biso   1.000  C
  H369     1.0000 0.01139  0.17961  0.07347  Biso   1.000  H
  C342     1.0000 0.02998  0.13152  0.01087  Biso   1.000  C
  H370     1.0000 0.07347  0.18080  0.05840  Biso   1.000  H
  C343     1.0000 0.31960  0.45679  0.03690  Biso   1.000  C
  C344     1.0000 0.26807  0.51099  0.97190  Biso   1.000  C
  H371     1.0000 0.26667  0.51919  0.05421  Biso   1.000  H
  C345     1.0000 0.98901  0.52810  0.26807  Biso   1.000  C
  H372     1.0000 0.98081  0.44579  0.26667  Biso   1.000  H
  H373     1.0000 0.98077  0.44579  0.26667  Biso   1.000  H
  C346     1.0000 0.04317  0.46310  0.31960  Biso   1.000  C
  C347     1.0000 0.92409  0.30848  0.96318  Biso   1.000  C
  H374     1.0000 0.92649  0.18080  0.94160  Biso   1.000  H
  H375     1.0000 0.98861  0.17961  0.92649  Biso   1.000  H
  C348     1.0000 0.97002  0.13152  0.98909  Biso   1.000  C
  C349     1.0000 0.96998  0.13152  0.98909  Biso   1.000  C
  H376     1.0000 0.03650  0.09942  0.03310  Biso   1.000  H
  H377     1.0000 0.05548  0.13132  0.98069  Biso   1.000  H
  H378     1.0000 0.32039  0.42649  0.01139  Biso   1.000  H
  C350     1.0000 0.36848  0.48909  0.02998  Biso   1.000  C
  H379     1.0000 0.31920  0.44160  0.07347  Biso   1.000  H
  N77      1.0000 0.22402  0.54561  0.96278  Biso   1.000  N
  C351     1.0000 0.31960  0.54321  0.96310  Biso   1.000  C
  N78      1.0000 0.22398  0.54561  0.96278  Biso   1.000  N
  H380     1.0000 0.26667  0.48081  0.94579  Biso   1.000  H
  N79      1.0000 0.95439  0.53718  0.22402  Biso   1.000  N
  C352     1.0000 0.95679  0.53690  0.31960  Biso   1.000  C
  N80      1.0000 0.95439  0.53718  0.22398  Biso   1.000  N
  H381     1.0000 0.01919  0.55421  0.26667  Biso   1.000  H
  H382     1.0000 0.05840  0.42649  0.31920  Biso   1.000  H
  C353     1.0000 0.01091  0.46998  0.36848  Biso   1.000  C
  H383     1.0000 0.07347  0.48861  0.32039  Biso   1.000  H
  C354     1.0000 0.01087  0.46998  0.36848  Biso   1.000  C
  C355     1.0000 0.91090  0.35301  0.92929  Biso   1.000  C
  H384     1.0000 0.90278  0.30289  0.99420  Biso   1.000  H
  H385     1.0000 0.96350  0.09942  0.96690  Biso   1.000  H
  H386     1.0000 0.94452  0.13132  0.01931  Biso   1.000  H
  H387     1.0000 0.94448  0.13132  0.01931  Biso   1.000  H
  H388     1.0000 0.40058  0.46690  0.03650  Biso   1.000  H
  H389     1.0000 0.36868  0.51931  0.05548  Biso   1.000  H
  C356     1.0000 0.36848  0.51091  0.97002  Biso   1.000  C
  C357     1.0000 0.36848  0.51091  0.96998  Biso   1.000  C
  C358     1.0000 0.19152  0.53678  0.92409  Biso   1.000  C
  C359     1.0000 0.19148  0.53678  0.92409  Biso   1.000  C
  H390     1.0000 0.31920  0.55840  0.92649  Biso   1.000  H
  H391     1.0000 0.32039  0.57351  0.98861  Biso   1.000  H
  C360     1.0000 0.96318  0.57591  0.19152  Biso   1.000  C
  C361     1.0000 0.96318  0.57591  0.19148  Biso   1.000  C
  H392     1.0000 0.94160  0.57351  0.31920  Biso   1.000  H
  H393     1.0000 0.92649  0.51139  0.32039  Biso   1.000  H
  C362     1.0000 0.98909  0.52998  0.36848  Biso   1.000  C
  H394     1.0000 0.03310  0.46350  0.40058  Biso   1.000  H
  H395     1.0000 0.98069  0.44448  0.36868  Biso   1.000  H
  C363     1.0000 0.86701  0.38491  0.94332  Biso   1.000  C
  C364     1.0000 0.86701  0.38491  0.94328  Biso   1.000  C
  C365     1.0000 0.94332  0.36701  0.88487  Biso   1.000  C
  C366     1.0000 0.94328  0.36701  0.88487  Biso   1.000  C
  H396     1.0000 0.40058  0.53310  0.96350  Biso   1.000  H
  H397     1.0000 0.36868  0.48069  0.94452  Biso   1.000  H
  H398     1.0000 0.36868  0.48069  0.94448  Biso   1.000  H
  C367     1.0000 0.14699  0.57067  0.91090  Biso   1.000  C
  H399     1.0000 0.19711  0.50580  0.90278  Biso   1.000  H
  H400     1.0000 0.19707  0.50580  0.90278  Biso   1.000  H
  C368     1.0000 0.92929  0.58910  0.14699  Biso   1.000  C
  H401     1.0000 0.99420  0.59718  0.19711  Biso   1.000  H
  H402     1.0000 0.99420  0.59718  0.19707  Biso   1.000  H
  H403     1.0000 0.01931  0.55548  0.36868  Biso   1.000  H
  H404     1.0000 0.96690  0.53650  0.40058  Biso   1.000  H
  H405     1.0000 0.84682  0.37680  0.97442  Biso   1.000  H
  H406     1.0000 0.84682  0.37680  0.97438  Biso   1.000  H
  H407     1.0000 0.84678  0.37680  0.97442  Biso   1.000  H
  C369     1.0000 0.85297  0.42929  0.91090  Biso   1.000  C
  H408     1.0000 0.84678  0.37680  0.97438  Biso   1.000  H
  H409     1.0000 0.97442  0.34678  0.87680  Biso   1.000  H
  C370     1.0000 0.92929  0.41090  0.85297  Biso   1.000  C
  H410     1.0000 0.97438  0.34678  0.87680  Biso   1.000  H
  C371     1.0000 0.11509  0.55668  0.86701  Biso   1.000  C
  C372     1.0000 0.13299  0.61509  0.94332  Biso   1.000  C
  C373     1.0000 0.13299  0.61509  0.94328  Biso   1.000  C
  C374     1.0000 0.94332  0.63299  0.11509  Biso   1.000  C
  C375     1.0000 0.94328  0.63299  0.11509  Biso   1.000  C
  C376     1.0000 0.88487  0.55668  0.13299  Biso   1.000  C
  C377     1.0000 0.80848  0.46318  0.92409  Biso   1.000  C
  C378     1.0000 0.88487  0.44328  0.86701  Biso   1.000  C
  C379     1.0000 0.96318  0.42409  0.80848  Biso   1.000  C
  H411     1.0000 0.12320  0.52558  0.84682  Biso   1.000  H
  H412     1.0000 0.12320  0.52558  0.84678  Biso   1.000  H
  C380     1.0000 0.07067  0.58910  0.85297  Biso   1.000  C
  H413     1.0000 0.15318  0.62320  0.97442  Biso   1.000  H
  C381     1.0000 0.08910  0.64699  0.92929  Biso   1.000  C
  H414     1.0000 0.15318  0.62320  0.97438  Biso   1.000  H
  H415     1.0000 0.97442  0.65318  0.12320  Biso   1.000  H
  C382     1.0000 0.91090  0.64699  0.07067  Biso   1.000  C
  H416     1.0000 0.97438  0.65318  0.12320  Biso   1.000  H
  H417     1.0000 0.87680  0.52558  0.15318  Biso   1.000  H
  C383     1.0000 0.85297  0.57067  0.08910  Biso   1.000  C
  H418     1.0000 0.87680  0.47438  0.84682  Biso   1.000  H
  H419     1.0000 0.87680  0.47438  0.84678  Biso   1.000  H
  N81      1.0000 0.77598  0.45439  0.96278  Biso   1.000  N
  H420     1.0000 0.80289  0.49420  0.90278  Biso   1.000  H
  N82      1.0000 0.95439  0.46278  0.77598  Biso   1.000  N
  H421     1.0000 0.99420  0.40278  0.80289  Biso   1.000  H
  C384     1.0000 0.03682  0.57591  0.80848  Biso   1.000  C
  C385     1.0000 0.05668  0.63299  0.88487  Biso   1.000  C
  C386     1.0000 0.03678  0.57591  0.80848  Biso   1.000  C
  C387     1.0000 0.07591  0.69148  0.96318  Biso   1.000  C
  C388     1.0000 0.07587  0.69148  0.96318  Biso   1.000  C
  C389     1.0000 0.86701  0.61509  0.05668  Biso   1.000  C
  C390     1.0000 0.92409  0.69148  0.03682  Biso   1.000  C
  C391     1.0000 0.92409  0.69148  0.03678  Biso   1.000  C
  C392     1.0000 0.80848  0.53678  0.07591  Biso   1.000  C
  C393     1.0000 0.80848  0.53678  0.07587  Biso   1.000  C
  C394     1.0000 0.73189  0.48901  0.97190  Biso   1.000  C
  C395     1.0000 0.98901  0.47190  0.73189  Biso   1.000  C
  H422     1.0000 0.02558  0.65318  0.87680  Biso   1.000  H
  N83      1.0000 0.04561  0.53718  0.77598  Biso   1.000  N
  H423     1.0000 0.00580  0.59718  0.80289  Biso   1.000  H
  N84      1.0000 0.04557  0.53718  0.77598  Biso   1.000  N
  N85      1.0000 0.03722  0.72398  0.95439  Biso   1.000  N
  N86      1.0000 0.03718  0.72398  0.95439  Biso   1.000  N
  H424     1.0000 0.09718  0.69707  0.99420  Biso   1.000  H
  H425     1.0000 0.84682  0.62320  0.02558  Biso   1.000  H
  H426     1.0000 0.84678  0.62320  0.02558  Biso   1.000  H
  N87      1.0000 0.96278  0.72398  0.04561  Biso   1.000  N
  H427     1.0000 0.90278  0.69707  0.00580  Biso   1.000  H
  N88      1.0000 0.96278  0.72398  0.04557  Biso   1.000  N
  N89      1.0000 0.77598  0.54561  0.03722  Biso   1.000  N
  N90      1.0000 0.77598  0.54561  0.03718  Biso   1.000  N
  H428     1.0000 0.80289  0.50580  0.09718  Biso   1.000  H
  C396     1.0000 0.73189  0.51099  0.02810  Biso   1.000  C
  H429     1.0000 0.73329  0.51919  0.94579  Biso   1.000  H
  C397     1.0000 0.68040  0.45679  0.96310  Biso   1.000  C
  C398     1.0000 0.01099  0.52810  0.73189  Biso   1.000  C
  C399     1.0000 0.95679  0.46310  0.68040  Biso   1.000  C
  H430     1.0000 0.01919  0.44579  0.73329  Biso   1.000  H
  C400     1.0000 0.02810  0.76811  0.98901  Biso   1.000  C
  C401     1.0000 0.97190  0.76811  0.01099  Biso   1.000  C
  H431     1.0000 0.73329  0.48081  0.05421  Biso   1.000  H
  C402     1.0000 0.68040  0.54321  0.03690  Biso   1.000  C
  H432     1.0000 0.68080  0.44160  0.92649  Biso   1.000  H
  H433     1.0000 0.67961  0.42649  0.98861  Biso   1.000  H
  C403     1.0000 0.63148  0.48909  0.97002  Biso   1.000  C
  C404     1.0000 0.63148  0.48909  0.96998  Biso   1.000  C
  H434     1.0000 0.98081  0.55421  0.73329  Biso   1.000  H
  H435     1.0000 0.98077  0.55421  0.73329  Biso   1.000  H
  C405     1.0000 0.04317  0.53690  0.68040  Biso   1.000  C
  H436     1.0000 0.94160  0.42649  0.68080  Biso   1.000  H
  H437     1.0000 0.92649  0.48861  0.67961  Biso   1.000  H
  C406     1.0000 0.98909  0.46998  0.63148  Biso   1.000  C
  H438     1.0000 0.05421  0.76671  0.01919  Biso   1.000  H
  C407     1.0000 0.03690  0.81960  0.95679  Biso   1.000  C
  H439     1.0000 0.94579  0.76671  0.98081  Biso   1.000  H
  H440     1.0000 0.94579  0.76671  0.98077  Biso   1.000  H
  C408     1.0000 0.96310  0.81960  0.04317  Biso   1.000  C
  H441     1.0000 0.67961  0.57351  0.01139  Biso   1.000  H
  H442     1.0000 0.68080  0.55840  0.07347  Biso   1.000  H
  C409     1.0000 0.63148  0.51091  0.02998  Biso   1.000  C
  H443     1.0000 0.59938  0.46690  0.96350  Biso   1.000  H
  H444     1.0000 0.63128  0.51931  0.94452  Biso   1.000  H
  H445     1.0000 0.63128  0.51931  0.94448  Biso   1.000  H
  H446     1.0000 0.05840  0.57351  0.68080  Biso   1.000  H
  C410     1.0000 0.01091  0.52998  0.63148  Biso   1.000  C
  H447     1.0000 0.07347  0.51139  0.67961  Biso   1.000  H
  C411     1.0000 0.01087  0.52998  0.63148  Biso   1.000  C
  H448     1.0000 0.96690  0.46350  0.59938  Biso   1.000  H
  H449     1.0000 0.01931  0.44448  0.63128  Biso   1.000  H
  H450     1.0000 0.01139  0.82039  0.92649  Biso   1.000  H
  C412     1.0000 0.02998  0.86848  0.98909  Biso   1.000  C
  H451     1.0000 0.07347  0.81920  0.94160  Biso   1.000  H
  H452     1.0000 0.92649  0.81920  0.05840  Biso   1.000  H
  C413     1.0000 0.97002  0.86848  0.01091  Biso   1.000  C
  H453     1.0000 0.98861  0.82039  0.07347  Biso   1.000  H
  C414     1.0000 0.97002  0.86848  0.01087  Biso   1.000  C
  C415     1.0000 0.96998  0.86848  0.01091  Biso   1.000  C
  C416     1.0000 0.96998  0.86848  0.01087  Biso   1.000  C
  H454     1.0000 0.59938  0.53310  0.03650  Biso   1.000  H
  H455     1.0000 0.63128  0.48069  0.05548  Biso   1.000  H
  H456     1.0000 0.98069  0.55548  0.63128  Biso   1.000  H
  H457     1.0000 0.03310  0.53650  0.59938  Biso   1.000  H
  H458     1.0000 0.05548  0.86868  0.01931  Biso   1.000  H
  H459     1.0000 0.03650  0.90058  0.96690  Biso   1.000  H
  H460     1.0000 0.94452  0.86868  0.98069  Biso   1.000  H
  H461     1.0000 0.94448  0.86868  0.98069  Biso   1.000  H
  H462     1.0000 0.96350  0.90058  0.03310  Biso   1.000  H
  C417     1.0000 0.05668  0.13299  0.38491  Biso   1.000  C
  C418     1.0000 0.11509  0.05668  0.36701  Biso   1.000  C
  C419     1.0000 0.03682  0.07591  0.30848  Biso   1.000  C
  C420     1.0000 0.03682  0.07587  0.30848  Biso   1.000  C
  C421     1.0000 0.03678  0.07591  0.30848  Biso   1.000  C
  C422     1.0000 0.03678  0.07587  0.30848  Biso   1.000  C
  C423     1.0000 0.08910  0.14699  0.42929  Biso   1.000  C
  H463     1.0000 0.02558  0.15318  0.37680  Biso   1.000  H
  C424     1.0000 0.07067  0.08910  0.35301  Biso   1.000  C
  C425     1.0000 0.14699  0.07067  0.41090  Biso   1.000  C
  H464     1.0000 0.12320  0.02558  0.34678  Biso   1.000  H
  N91      1.0000 0.04561  0.03722  0.27598  Biso   1.000  N
  N92      1.0000 0.04561  0.03718  0.27598  Biso   1.000  N
  H465     1.0000 0.00580  0.09718  0.30289  Biso   1.000  H
  N93      1.0000 0.04557  0.03722  0.27598  Biso   1.000  N
  N94      1.0000 0.04557  0.03718  0.27598  Biso   1.000  N
  C426     1.0000 0.13299  0.11509  0.44328  Biso   1.000  C
  C427     1.0000 0.07591  0.19152  0.46318  Biso   1.000  C
  C428     1.0000 0.07591  0.19148  0.46318  Biso   1.000  C
  C429     1.0000 0.07587  0.19152  0.46318  Biso   1.000  C
  C430     1.0000 0.07587  0.19148  0.46318  Biso   1.000  C
  C431     1.0000 0.19152  0.03682  0.42409  Biso   1.000  C
  C432     1.0000 0.19152  0.03678  0.42409  Biso   1.000  C
  C433     1.0000 0.19148  0.03682  0.42409  Biso   1.000  C
  C434     1.0000 0.19148  0.03678  0.42409  Biso   1.000  C
  C435     1.0000 0.01099  0.02810  0.23189  Biso   1.000  C
  H466     1.0000 0.15318  0.12320  0.47438  Biso   1.000  H
  N95      1.0000 0.03722  0.22402  0.45439  Biso   1.000  N
  N96      1.0000 0.03722  0.22398  0.45439  Biso   1.000  N
  N97      1.0000 0.03718  0.22402  0.45439  Biso   1.000  N
  H467     1.0000 0.09718  0.19711  0.49420  Biso   1.000  H
  N98      1.0000 0.03718  0.22398  0.45439  Biso   1.000  N
  H468     1.0000 0.09718  0.19707  0.49420  Biso   1.000  H
  N99      1.0000 0.22402  0.04561  0.46278  Biso   1.000  N
  H469     1.0000 0.19711  0.00580  0.40278  Biso   1.000  H
  N100     1.0000 0.22402  0.04557  0.46278  Biso   1.000  N
  N101     1.0000 0.22398  0.04561  0.46278  Biso   1.000  N
  H470     1.0000 0.19707  0.00580  0.40278  Biso   1.000  H
  N102     1.0000 0.22398  0.04557  0.46278  Biso   1.000  N
  C436     1.0000 0.98901  0.97190  0.23189  Biso   1.000  C
  H471     1.0000 0.98081  0.05421  0.23329  Biso   1.000  H
  H472     1.0000 0.98077  0.05421  0.23329  Biso   1.000  H
  C437     1.0000 0.04317  0.03690  0.18040  Biso   1.000  C
  C438     1.0000 0.02810  0.26807  0.48901  Biso   1.000  C
  C439     1.0000 0.26807  0.01099  0.47190  Biso   1.000  C
  N103     1.0000 0.95439  0.96278  0.27598  Biso   1.000  N
  C440     1.0000 0.95679  0.96310  0.18040  Biso   1.000  C
  H473     1.0000 0.01919  0.94579  0.23329  Biso   1.000  H
  C441     1.0000 0.01091  0.02998  0.13152  Biso   1.000  C
  H474     1.0000 0.05840  0.07347  0.18080  Biso   1.000  H
  H475     1.0000 0.07347  0.01139  0.17961  Biso   1.000  H
  C442     1.0000 0.01087  0.02998  0.13152  Biso   1.000  C
  C443     1.0000 0.03690  0.31960  0.45679  Biso   1.000  C
  C444     1.0000 0.97190  0.26807  0.51099  Biso   1.000  C
  H476     1.0000 0.05421  0.26667  0.51919  Biso   1.000  H
  C445     1.0000 0.26807  0.98901  0.52810  Biso   1.000  C
  H477     1.0000 0.26667  0.98081  0.44579  Biso   1.000  H
  H478     1.0000 0.26667  0.98077  0.44579  Biso   1.000  H
  C446     1.0000 0.31960  0.04317  0.46310  Biso   1.000  C
  C447     1.0000 0.96318  0.92409  0.30848  Biso   1.000  C
  H479     1.0000 0.94160  0.92649  0.18080  Biso   1.000  H
  H480     1.0000 0.92649  0.98861  0.17961  Biso   1.000  H
  C448     1.0000 0.98909  0.97002  0.13152  Biso   1.000  C
  C449     1.0000 0.98909  0.96998  0.13152  Biso   1.000  C
  H481     1.0000 0.03310  0.03650  0.09942  Biso   1.000  H
  H482     1.0000 0.98069  0.05548  0.13132  Biso   1.000  H
  H483     1.0000 0.01139  0.32039  0.42649  Biso   1.000  H
  C450     1.0000 0.02998  0.36848  0.48909  Biso   1.000  C
  H484     1.0000 0.07347  0.31920  0.44160  Biso   1.000  H
  N104     1.0000 0.96278  0.22402  0.54561  Biso   1.000  N
  C451     1.0000 0.96310  0.31960  0.54321  Biso   1.000  C
  N105     1.0000 0.96278  0.22398  0.54561  Biso   1.000  N
  H485     1.0000 0.94579  0.26667  0.48081  Biso   1.000  H
  N106     1.0000 0.22402  0.95439  0.53718  Biso   1.000  N
  C452     1.0000 0.31960  0.95679  0.53690  Biso   1.000  C
  N107     1.0000 0.22398  0.95439  0.53718  Biso   1.000  N
  H486     1.0000 0.26667  0.01919  0.55421  Biso   1.000  H
  H487     1.0000 0.31920  0.05840  0.42649  Biso   1.000  H
  C453     1.0000 0.36848  0.01091  0.46998  Biso   1.000  C
  H488     1.0000 0.32039  0.07347  0.48861  Biso   1.000  H
  C454     1.0000 0.36848  0.01087  0.46998  Biso   1.000  C
  C455     1.0000 0.92929  0.91090  0.35301  Biso   1.000  C
  H489     1.0000 0.99420  0.90278  0.30289  Biso   1.000  H
  H490     1.0000 0.96690  0.96350  0.09942  Biso   1.000  H
  H491     1.0000 0.01931  0.94452  0.13132  Biso   1.000  H
  H492     1.0000 0.01931  0.94448  0.13132  Biso   1.000  H
  H493     1.0000 0.03650  0.40058  0.46690  Biso   1.000  H
  H494     1.0000 0.05548  0.36868  0.51931  Biso   1.000  H
  C456     1.0000 0.97002  0.36848  0.51091  Biso   1.000  C
  C457     1.0000 0.96998  0.36848  0.51091  Biso   1.000  C
  C458     1.0000 0.92409  0.19152  0.53678  Biso   1.000  C
  C459     1.0000 0.92409  0.19148  0.53678  Biso   1.000  C
  H495     1.0000 0.92649  0.31920  0.55840  Biso   1.000  H
  H496     1.0000 0.98861  0.32039  0.57351  Biso   1.000  H
  C460     1.0000 0.19152  0.96318  0.57591  Biso   1.000  C
  C461     1.0000 0.19148  0.96318  0.57591  Biso   1.000  C
  H497     1.0000 0.31920  0.94160  0.57351  Biso   1.000  H
  H498     1.0000 0.32039  0.92649  0.51139  Biso   1.000  H
  C462     1.0000 0.36848  0.98909  0.52998  Biso   1.000  C
  H499     1.0000 0.40058  0.03310  0.46350  Biso   1.000  H
  H500     1.0000 0.36868  0.98069  0.44448  Biso   1.000  H
  C463     1.0000 0.94332  0.86701  0.38491  Biso   1.000  C
  C464     1.0000 0.94328  0.86701  0.38491  Biso   1.000  C
  C465     1.0000 0.88487  0.94332  0.36701  Biso   1.000  C
  C466     1.0000 0.88487  0.94328  0.36701  Biso   1.000  C
  H501     1.0000 0.96350  0.40058  0.53310  Biso   1.000  H
  H502     1.0000 0.94452  0.36868  0.48069  Biso   1.000  H
  H503     1.0000 0.94448  0.36868  0.48069  Biso   1.000  H
  C467     1.0000 0.91090  0.14699  0.57067  Biso   1.000  C
  H504     1.0000 0.90278  0.19711  0.50580  Biso   1.000  H
  H505     1.0000 0.90278  0.19707  0.50580  Biso   1.000  H
  C468     1.0000 0.14699  0.92929  0.58910  Biso   1.000  C
  H506     1.0000 0.19711  0.99420  0.59718  Biso   1.000  H
  H507     1.0000 0.19707  0.99420  0.59718  Biso   1.000  H
  H508     1.0000 0.36868  0.01931  0.55548  Biso   1.000  H
  H509     1.0000 0.40058  0.96690  0.53650  Biso   1.000  H
  H510     1.0000 0.97442  0.84682  0.37680  Biso   1.000  H
  H511     1.0000 0.97442  0.84678  0.37680  Biso   1.000  H
  C469     1.0000 0.91090  0.85297  0.42929  Biso   1.000  C
  H512     1.0000 0.97438  0.84682  0.37680  Biso   1.000  H
  H513     1.0000 0.97438  0.84678  0.37680  Biso   1.000  H
  H514     1.0000 0.87680  0.97442  0.34678  Biso   1.000  H
  H515     1.0000 0.87680  0.97438  0.34678  Biso   1.000  H
  C470     1.0000 0.85297  0.92929  0.41090  Biso   1.000  C
  C471     1.0000 0.86701  0.11509  0.55668  Biso   1.000  C
  C472     1.0000 0.94332  0.13299  0.61509  Biso   1.000  C
  C473     1.0000 0.94328  0.13299  0.61509  Biso   1.000  C
  C474     1.0000 0.11509  0.94332  0.63299  Biso   1.000  C
  C475     1.0000 0.11509  0.94328  0.63299  Biso   1.000  C
  C476     1.0000 0.13299  0.88487  0.55668  Biso   1.000  C
  C477     1.0000 0.92409  0.80848  0.46318  Biso   1.000  C
  C478     1.0000 0.86701  0.88487  0.44328  Biso   1.000  C
  C479     1.0000 0.80848  0.96318  0.42409  Biso   1.000  C
  H516     1.0000 0.84682  0.12320  0.52558  Biso   1.000  H
  H517     1.0000 0.84678  0.12320  0.52558  Biso   1.000  H
  C480     1.0000 0.85297  0.07067  0.58910  Biso   1.000  C
  H518     1.0000 0.97442  0.15318  0.62320  Biso   1.000  H
  C481     1.0000 0.92929  0.08910  0.64699  Biso   1.000  C
  H519     1.0000 0.97438  0.15318  0.62320  Biso   1.000  H
  H520     1.0000 0.12320  0.97442  0.65318  Biso   1.000  H
  H521     1.0000 0.12320  0.97438  0.65318  Biso   1.000  H
  C482     1.0000 0.07067  0.91090  0.64699  Biso   1.000  C
  H522     1.0000 0.15318  0.87680  0.52558  Biso   1.000  H
  C483     1.0000 0.08910  0.85297  0.57067  Biso   1.000  C
  H523     1.0000 0.84682  0.87680  0.47438  Biso   1.000  H
  H524     1.0000 0.84678  0.87680  0.47438  Biso   1.000  H
  N108     1.0000 0.96278  0.77598  0.45439  Biso   1.000  N
  H525     1.0000 0.90278  0.80289  0.49420  Biso   1.000  H
  N109     1.0000 0.77598  0.95439  0.46278  Biso   1.000  N
  H526     1.0000 0.80289  0.99420  0.40278  Biso   1.000  H
  C484     1.0000 0.80848  0.03682  0.57591  Biso   1.000  C
  C485     1.0000 0.80848  0.03678  0.57591  Biso   1.000  C
  C486     1.0000 0.88487  0.05668  0.63299  Biso   1.000  C
  C487     1.0000 0.96318  0.07591  0.69148  Biso   1.000  C
  C488     1.0000 0.96318  0.07587  0.69148  Biso   1.000  C
  C489     1.0000 0.05668  0.86701  0.61509  Biso   1.000  C
  C490     1.0000 0.03682  0.92409  0.69148  Biso   1.000  C
  C491     1.0000 0.03678  0.92409  0.69148  Biso   1.000  C
  C492     1.0000 0.07591  0.80848  0.53678  Biso   1.000  C
  C493     1.0000 0.07587  0.80848  0.53678  Biso   1.000  C
  C494     1.0000 0.97190  0.73189  0.48901  Biso   1.000  C
  C495     1.0000 0.73189  0.98901  0.47190  Biso   1.000  C
  H527     1.0000 0.87680  0.02558  0.65318  Biso   1.000  H
  N110     1.0000 0.77598  0.04561  0.53718  Biso   1.000  N
  H528     1.0000 0.80289  0.00580  0.59718  Biso   1.000  H
  N111     1.0000 0.77598  0.04557  0.53718  Biso   1.000  N
  N112     1.0000 0.95439  0.03722  0.72398  Biso   1.000  N
  N113     1.0000 0.95439  0.03718  0.72398  Biso   1.000  N
  H529     1.0000 0.99420  0.09718  0.69707  Biso   1.000  H
  H530     1.0000 0.02558  0.84682  0.62320  Biso   1.000  H
  H531     1.0000 0.02558  0.84678  0.62320  Biso   1.000  H
  N114     1.0000 0.04561  0.96278  0.72398  Biso   1.000  N
  H532     1.0000 0.00580  0.90278  0.69707  Biso   1.000  H
  N115     1.0000 0.04557  0.96278  0.72398  Biso   1.000  N
  N116     1.0000 0.03722  0.77598  0.54561  Biso   1.000  N
  N117     1.0000 0.03718  0.77598  0.54561  Biso   1.000  N
  H533     1.0000 0.09718  0.80289  0.50580  Biso   1.000  H
  C496     1.0000 0.02810  0.73189  0.51099  Biso   1.000  C
  H534     1.0000 0.94579  0.73329  0.51919  Biso   1.000  H
  C497     1.0000 0.96310  0.68040  0.45679  Biso   1.000  C
  C498     1.0000 0.73189  0.01099  0.52810  Biso   1.000  C
  C499     1.0000 0.68040  0.95679  0.46310  Biso   1.000  C
  H535     1.0000 0.73329  0.01919  0.44579  Biso   1.000  H
  C500     1.0000 0.98901  0.02810  0.76811  Biso   1.000  C
  C501     1.0000 0.01099  0.97190  0.76811  Biso   1.000  C
  H536     1.0000 0.05421  0.73329  0.48081  Biso   1.000  H
  C502     1.0000 0.03690  0.68040  0.54321  Biso   1.000  C
  H537     1.0000 0.92649  0.68080  0.44160  Biso   1.000  H
  H538     1.0000 0.98861  0.67961  0.42649  Biso   1.000  H
  C503     1.0000 0.97002  0.63148  0.48909  Biso   1.000  C
  C504     1.0000 0.96998  0.63148  0.48909  Biso   1.000  C
  H539     1.0000 0.73329  0.98081  0.55421  Biso   1.000  H
  H540     1.0000 0.73329  0.98077  0.55421  Biso   1.000  H
  C505     1.0000 0.68040  0.04317  0.53690  Biso   1.000  C
  H541     1.0000 0.68080  0.94160  0.42649  Biso   1.000  H
  H542     1.0000 0.67961  0.92649  0.48861  Biso   1.000  H
  C506     1.0000 0.63148  0.98909  0.46998  Biso   1.000  C
  H543     1.0000 0.01919  0.05421  0.76671  Biso   1.000  H
  C507     1.0000 0.95679  0.03690  0.81960  Biso   1.000  C
  H544     1.0000 0.98081  0.94579  0.76671  Biso   1.000  H
  H545     1.0000 0.98077  0.94579  0.76671  Biso   1.000  H
  C508     1.0000 0.04317  0.96310  0.81960  Biso   1.000  C
  H546     1.0000 0.01139  0.67961  0.57351  Biso   1.000  H
  C509     1.0000 0.02998  0.63148  0.51091  Biso   1.000  C
  H547     1.0000 0.07347  0.68080  0.55840  Biso   1.000  H
  H548     1.0000 0.96350  0.59938  0.46690  Biso   1.000  H
  H549     1.0000 0.94452  0.63128  0.51931  Biso   1.000  H
  H550     1.0000 0.94448  0.63128  0.51931  Biso   1.000  H
  H551     1.0000 0.68080  0.05840  0.57351  Biso   1.000  H
  H552     1.0000 0.67961  0.07347  0.51139  Biso   1.000  H
  C510     1.0000 0.63148  0.01091  0.52998  Biso   1.000  C
  C511     1.0000 0.63148  0.01087  0.52998  Biso   1.000  C
  H553     1.0000 0.59938  0.96690  0.46350  Biso   1.000  H
  H554     1.0000 0.63128  0.01931  0.44448  Biso   1.000  H
  H555     1.0000 0.92649  0.01139  0.82039  Biso   1.000  H
  C512     1.0000 0.98909  0.02998  0.86848  Biso   1.000  C
  H556     1.0000 0.94160  0.07347  0.81920  Biso   1.000  H
  H557     1.0000 0.05840  0.92649  0.81920  Biso   1.000  H
  C513     1.0000 0.01091  0.97002  0.86848  Biso   1.000  C
  C514     1.0000 0.01091  0.96998  0.86848  Biso   1.000  C
  H558     1.0000 0.07347  0.98861  0.82039  Biso   1.000  H
  C515     1.0000 0.01087  0.97002  0.86848  Biso   1.000  C
  C516     1.0000 0.01087  0.96998  0.86848  Biso   1.000  C
  H559     1.0000 0.03650  0.59938  0.53310  Biso   1.000  H
  H560     1.0000 0.05548  0.63128  0.48069  Biso   1.000  H
  H561     1.0000 0.63128  0.98069  0.55548  Biso   1.000  H
  H562     1.0000 0.59938  0.03310  0.53650  Biso   1.000  H
  H563     1.0000 0.01931  0.05548  0.86868  Biso   1.000  H
  H564     1.0000 0.96690  0.03650  0.90058  Biso   1.000  H
  H565     1.0000 0.98069  0.94452  0.86868  Biso   1.000  H
  H566     1.0000 0.98069  0.94448  0.86868  Biso   1.000  H
  H567     1.0000 0.03310  0.96350  0.90058  Biso   1.000  H
  C517     1.0000 0.42929  0.41090  0.35301  Biso   1.000  C
  C518     1.0000 0.38491  0.44328  0.36701  Biso   1.000  C
  C519     1.0000 0.44328  0.36701  0.38491  Biso   1.000  C
  C520     1.0000 0.46318  0.42409  0.30848  Biso   1.000  C
  H568     1.0000 0.37680  0.47438  0.34678  Biso   1.000  H
  C521     1.0000 0.35301  0.42929  0.41090  Biso   1.000  C
  H569     1.0000 0.47438  0.34678  0.37680  Biso   1.000  H
  C522     1.0000 0.41090  0.35301  0.42929  Biso   1.000  C
  N118     1.0000 0.45439  0.46278  0.27598  Biso   1.000  N
  H570     1.0000 0.49420  0.40278  0.30289  Biso   1.000  H
  C523     1.0000 0.36701  0.38491  0.44328  Biso   1.000  C
  C524     1.0000 0.30848  0.46318  0.42409  Biso   1.000  C
  C525     1.0000 0.42409  0.30848  0.46318  Biso   1.000  C
  C526     1.0000 0.48901  0.47190  0.23189  Biso   1.000  C
  H571     1.0000 0.34678  0.37680  0.47438  Biso   1.000  H
  N119     1.0000 0.27598  0.45439  0.46278  Biso   1.000  N
  H572     1.0000 0.30289  0.49420  0.40278  Biso   1.000  H
  N120     1.0000 0.46278  0.27598  0.45439  Biso   1.000  N
  H573     1.0000 0.40278  0.30289  0.49420  Biso   1.000  H
  C527     1.0000 0.51099  0.52810  0.23189  Biso   1.000  C
  H574     1.0000 0.51919  0.44579  0.23329  Biso   1.000  H
  C528     1.0000 0.45679  0.46310  0.18040  Biso   1.000  C
  C529     1.0000 0.23189  0.48901  0.47190  Biso   1.000  C
  C530     1.0000 0.47190  0.23189  0.48901  Biso   1.000  C
  N121     1.0000 0.54561  0.53718  0.27598  Biso   1.000  N
  H575     1.0000 0.48081  0.55421  0.23329  Biso   1.000  H
  C531     1.0000 0.54321  0.53690  0.18040  Biso   1.000  C
  H576     1.0000 0.44160  0.42649  0.18080  Biso   1.000  H
  H577     1.0000 0.42649  0.48861  0.17961  Biso   1.000  H
  C532     1.0000 0.48909  0.46998  0.13152  Biso   1.000  C
  C533     1.0000 0.23189  0.51099  0.52810  Biso   1.000  C
  H578     1.0000 0.23329  0.51919  0.44579  Biso   1.000  H
  C534     1.0000 0.18040  0.45679  0.46310  Biso   1.000  C
  C535     1.0000 0.52810  0.23189  0.51099  Biso   1.000  C
  H579     1.0000 0.44579  0.23329  0.51919  Biso   1.000  H
  C536     1.0000 0.46310  0.18040  0.45679  Biso   1.000  C
  C537     1.0000 0.53678  0.57591  0.30848  Biso   1.000  C
  H580     1.0000 0.55840  0.57351  0.18080  Biso   1.000  H
  H581     1.0000 0.57351  0.51139  0.17961  Biso   1.000  H
  C538     1.0000 0.51091  0.52998  0.13152  Biso   1.000  C
  H582     1.0000 0.46690  0.46350  0.09942  Biso   1.000  H
  H583     1.0000 0.51931  0.44448  0.13132  Biso   1.000  H
  N122     1.0000 0.27598  0.54561  0.53718  Biso   1.000  N
  H584     1.0000 0.23329  0.48081  0.55421  Biso   1.000  H
  C539     1.0000 0.18040  0.54321  0.53690  Biso   1.000  C
  H585     1.0000 0.18080  0.44160  0.42649  Biso   1.000  H
  H586     1.0000 0.17961  0.42649  0.48861  Biso   1.000  H
  C540     1.0000 0.13152  0.48909  0.46998  Biso   1.000  C
  N123     1.0000 0.53718  0.27598  0.54561  Biso   1.000  N
  H587     1.0000 0.55421  0.23329  0.48081  Biso   1.000  H
  C541     1.0000 0.53690  0.18040  0.54321  Biso   1.000  C
  H588     1.0000 0.42649  0.18080  0.44160  Biso   1.000  H
  H589     1.0000 0.48861  0.17961  0.42649  Biso   1.000  H
  C542     1.0000 0.46998  0.13152  0.48909  Biso   1.000  C
  C543     1.0000 0.57067  0.58910  0.35301  Biso   1.000  C
  H590     1.0000 0.50580  0.59718  0.30289  Biso   1.000  H
  H591     1.0000 0.53310  0.53650  0.09942  Biso   1.000  H
  H592     1.0000 0.48069  0.55548  0.13132  Biso   1.000  H
  C544     1.0000 0.30848  0.53678  0.57591  Biso   1.000  C
  H593     1.0000 0.18080  0.55840  0.57351  Biso   1.000  H
  H594     1.0000 0.17961  0.57351  0.51139  Biso   1.000  H
  C545     1.0000 0.13152  0.51091  0.52998  Biso   1.000  C
  H595     1.0000 0.09942  0.46690  0.46350  Biso   1.000  H
  H596     1.0000 0.13132  0.51931  0.44448  Biso   1.000  H
  C546     1.0000 0.57591  0.30848  0.53678  Biso   1.000  C
  H597     1.0000 0.57351  0.18080  0.55840  Biso   1.000  H
  H598     1.0000 0.51139  0.17961  0.57351  Biso   1.000  H
  C547     1.0000 0.52998  0.13152  0.51091  Biso   1.000  C
  H599     1.0000 0.46350  0.09942  0.46690  Biso   1.000  H
  H600     1.0000 0.44448  0.13132  0.51931  Biso   1.000  H
  C548     1.0000 0.61509  0.55668  0.36701  Biso   1.000  C
  C549     1.0000 0.55668  0.63299  0.38491  Biso   1.000  C
  C550     1.0000 0.35301  0.57067  0.58910  Biso   1.000  C
  H601     1.0000 0.30289  0.50580  0.59718  Biso   1.000  H
  H602     1.0000 0.09942  0.53310  0.53650  Biso   1.000  H
  H603     1.0000 0.13132  0.48069  0.55548  Biso   1.000  H
  C551     1.0000 0.58910  0.35301  0.57067  Biso   1.000  C
  H604     1.0000 0.59718  0.30289  0.50580  Biso   1.000  H
  H605     1.0000 0.53650  0.09942  0.53310  Biso   1.000  H
  H606     1.0000 0.55548  0.13132  0.48069  Biso   1.000  H
  H607     1.0000 0.62320  0.52558  0.34678  Biso   1.000  H
  C552     1.0000 0.64699  0.57067  0.41090  Biso   1.000  C
  H608     1.0000 0.52558  0.65318  0.37680  Biso   1.000  H
  C553     1.0000 0.58910  0.64699  0.42929  Biso   1.000  C
  C554     1.0000 0.38491  0.55668  0.63299  Biso   1.000  C
  C555     1.0000 0.36701  0.61509  0.55668  Biso   1.000  C
  C556     1.0000 0.55668  0.36701  0.61509  Biso   1.000  C
  C557     1.0000 0.63299  0.38491  0.55668  Biso   1.000  C
  C558     1.0000 0.63299  0.61509  0.44328  Biso   1.000  C
  C559     1.0000 0.69148  0.53678  0.42409  Biso   1.000  C
  C560     1.0000 0.57591  0.69148  0.46318  Biso   1.000  C
  H609     1.0000 0.37680  0.52558  0.65318  Biso   1.000  H
  C561     1.0000 0.42929  0.58910  0.64699  Biso   1.000  C
  H610     1.0000 0.34678  0.62320  0.52558  Biso   1.000  H
  C562     1.0000 0.41090  0.64699  0.57067  Biso   1.000  C
  H611     1.0000 0.52558  0.34678  0.62320  Biso   1.000  H
  C563     1.0000 0.57067  0.41090  0.64699  Biso   1.000  C
  H612     1.0000 0.65318  0.37680  0.52558  Biso   1.000  H
  C564     1.0000 0.64699  0.42929  0.58910  Biso   1.000  C
  H613     1.0000 0.65318  0.62320  0.47438  Biso   1.000  H
  N124     1.0000 0.72398  0.54561  0.46278  Biso   1.000  N
  H614     1.0000 0.69707  0.50580  0.40278  Biso   1.000  H
  N125     1.0000 0.53718  0.72398  0.45439  Biso   1.000  N
  H615     1.0000 0.59718  0.69707  0.49420  Biso   1.000  H
  C565     1.0000 0.44328  0.63299  0.61509  Biso   1.000  C
  C566     1.0000 0.46318  0.57591  0.69148  Biso   1.000  C
  C567     1.0000 0.42409  0.69148  0.53678  Biso   1.000  C
  C568     1.0000 0.61509  0.44328  0.63299  Biso   1.000  C
  C569     1.0000 0.53678  0.42409  0.69148  Biso   1.000  C
  C570     1.0000 0.69148  0.46318  0.57591  Biso   1.000  C
  C571     1.0000 0.76811  0.51099  0.47190  Biso   1.000  C
  C572     1.0000 0.52810  0.76811  0.48901  Biso   1.000  C
  H616     1.0000 0.47438  0.65318  0.62320  Biso   1.000  H
  N126     1.0000 0.45439  0.53718  0.72398  Biso   1.000  N
  H617     1.0000 0.49420  0.59718  0.69707  Biso   1.000  H
  N127     1.0000 0.46278  0.72398  0.54561  Biso   1.000  N
  H618     1.0000 0.40278  0.69707  0.50580  Biso   1.000  H
  H619     1.0000 0.62320  0.47438  0.65318  Biso   1.000  H
  N128     1.0000 0.54561  0.46278  0.72398  Biso   1.000  N
  H620     1.0000 0.50580  0.40278  0.69707  Biso   1.000  H
  N129     1.0000 0.72398  0.45439  0.53718  Biso   1.000  N
  H621     1.0000 0.69707  0.49420  0.59718  Biso   1.000  H
  C573     1.0000 0.76811  0.48901  0.52810  Biso   1.000  C
  H622     1.0000 0.76671  0.48081  0.44579  Biso   1.000  H
  C574     1.0000 0.81960  0.54321  0.46310  Biso   1.000  C
  C575     1.0000 0.47190  0.76811  0.51099  Biso   1.000  C
  H623     1.0000 0.55421  0.76671  0.51919  Biso   1.000  H
  C576     1.0000 0.53690  0.81960  0.45679  Biso   1.000  C
  C577     1.0000 0.48901  0.52810  0.76811  Biso   1.000  C
  C578     1.0000 0.51099  0.47190  0.76811  Biso   1.000  C
  H624     1.0000 0.76671  0.51919  0.55421  Biso   1.000  H
  C579     1.0000 0.81960  0.45679  0.53690  Biso   1.000  C
  H625     1.0000 0.81920  0.55840  0.42649  Biso   1.000  H
  H626     1.0000 0.82039  0.57351  0.48861  Biso   1.000  H
  C580     1.0000 0.86848  0.51091  0.46998  Biso   1.000  C
  H627     1.0000 0.44579  0.76671  0.48081  Biso   1.000  H
  C581     1.0000 0.46310  0.81960  0.54321  Biso   1.000  C
  H628     1.0000 0.57351  0.81920  0.44160  Biso   1.000  H
  H629     1.0000 0.51139  0.82039  0.42649  Biso   1.000  H
  C582     1.0000 0.52998  0.86848  0.48909  Biso   1.000  C
  H630     1.0000 0.51919  0.55421  0.76671  Biso   1.000  H
  C583     1.0000 0.45679  0.53690  0.81960  Biso   1.000  C
  H631     1.0000 0.48081  0.44579  0.76671  Biso   1.000  H
  C584     1.0000 0.54321  0.46310  0.81960  Biso   1.000  C
  H632     1.0000 0.81920  0.44160  0.57351  Biso   1.000  H
  H633     1.0000 0.82039  0.42649  0.51139  Biso   1.000  H
  C585     1.0000 0.86848  0.48909  0.52998  Biso   1.000  C
  H634     1.0000 0.90058  0.53310  0.46350  Biso   1.000  H
  H635     1.0000 0.86868  0.48069  0.44448  Biso   1.000  H
  H636     1.0000 0.42649  0.81920  0.55840  Biso   1.000  H
  H637     1.0000 0.48861  0.82039  0.57351  Biso   1.000  H
  C586     1.0000 0.46998  0.86848  0.51091  Biso   1.000  C
  H638     1.0000 0.53650  0.90058  0.46690  Biso   1.000  H
  H639     1.0000 0.55548  0.86868  0.51931  Biso   1.000  H
  H640     1.0000 0.44160  0.57351  0.81920  Biso   1.000  H
  H641     1.0000 0.42649  0.51139  0.82039  Biso   1.000  H
  C587     1.0000 0.48909  0.52998  0.86848  Biso   1.000  C
  H642     1.0000 0.55840  0.42649  0.81920  Biso   1.000  H
  H643     1.0000 0.57351  0.48861  0.82039  Biso   1.000  H
  C588     1.0000 0.51091  0.46998  0.86848  Biso   1.000  C
  H644     1.0000 0.90058  0.46690  0.53650  Biso   1.000  H
  H645     1.0000 0.86868  0.51931  0.55548  Biso   1.000  H
  H646     1.0000 0.46350  0.90058  0.53310  Biso   1.000  H
  H647     1.0000 0.44448  0.86868  0.48069  Biso   1.000  H
  H648     1.0000 0.46690  0.53650  0.90058  Biso   1.000  H
  H649     1.0000 0.51931  0.55548  0.86868  Biso   1.000  H
  H650     1.0000 0.53310  0.46350  0.90058  Biso   1.000  H
  H651     1.0000 0.48069  0.44448  0.86868  Biso   1.000  H
  C589     1.0000 0.76087  0.38148  0.71998  Biso   1.000  C
  C590     1.0000 0.79317  0.43040  0.71310  Biso   1.000  C
  C591     1.0000 0.73909  0.38148  0.77998  Biso   1.000  C
  H652     1.0000 0.78310  0.34938  0.71350  Biso   1.000  H
  H653     1.0000 0.73069  0.38128  0.69448  Biso   1.000  H
  C592     1.0000 0.76099  0.48189  0.72190  Biso   1.000  C
  H654     1.0000 0.80840  0.43080  0.67649  Biso   1.000  H
  H655     1.0000 0.82347  0.42961  0.73861  Biso   1.000  H
  C593     1.0000 0.70679  0.43040  0.78690  Biso   1.000  C
  H656     1.0000 0.71690  0.34938  0.78650  Biso   1.000  H
  H657     1.0000 0.76931  0.38128  0.80548  Biso   1.000  H
  N130     1.0000 0.79557  0.52598  0.71278  Biso   1.000  N
  C594     1.0000 0.73901  0.48189  0.77810  Biso   1.000  C
  H658     1.0000 0.73077  0.48329  0.69579  Biso   1.000  H
  H659     1.0000 0.69160  0.43080  0.82347  Biso   1.000  H
  H660     1.0000 0.67649  0.42961  0.76139  Biso   1.000  H
  C595     1.0000 0.78678  0.55848  0.67409  Biso   1.000  C
  N131     1.0000 0.70439  0.52598  0.78718  Biso   1.000  N
  H661     1.0000 0.76919  0.48329  0.80421  Biso   1.000  H
  C596     1.0000 0.82067  0.60297  0.66090  Biso   1.000  C
  H662     1.0000 0.75580  0.55289  0.65278  Biso   1.000  H
  C597     1.0000 0.71318  0.55848  0.82587  Biso   1.000  C
  C598     1.0000 0.80668  0.63487  0.61701  Biso   1.000  C
  C599     1.0000 0.86509  0.61701  0.69328  Biso   1.000  C
  C600     1.0000 0.67929  0.60297  0.83910  Biso   1.000  C
  H663     1.0000 0.74420  0.55289  0.84718  Biso   1.000  H
  H664     1.0000 0.77558  0.62680  0.59678  Biso   1.000  H
  C601     1.0000 0.83910  0.67929  0.60297  Biso   1.000  C
  H665     1.0000 0.87320  0.59678  0.72438  Biso   1.000  H
  C602     1.0000 0.89699  0.66090  0.67929  Biso   1.000  C
  C603     1.0000 0.63487  0.61701  0.80668  Biso   1.000  C
  C604     1.0000 0.69328  0.63487  0.88299  Biso   1.000  C
  C605     1.0000 0.88299  0.69328  0.63487  Biso   1.000  C
  C606     1.0000 0.82587  0.71318  0.55848  Biso   1.000  C
  C607     1.0000 0.94148  0.67409  0.71318  Biso   1.000  C
  H666     1.0000 0.62680  0.59678  0.77558  Biso   1.000  H
  C608     1.0000 0.60297  0.66090  0.82067  Biso   1.000  C
  H667     1.0000 0.72438  0.62680  0.90318  Biso   1.000  H
  C609     1.0000 0.66090  0.67929  0.89699  Biso   1.000  C
  H668     1.0000 0.90318  0.72438  0.62680  Biso   1.000  H
  N132     1.0000 0.78718  0.70439  0.52598  Biso   1.000  N
  H669     1.0000 0.84718  0.74420  0.55289  Biso   1.000  H
  N133     1.0000 0.97398  0.71278  0.70439  Biso   1.000  N
  H670     1.0000 0.94707  0.65278  0.74420  Biso   1.000  H
  C610     1.0000 0.55848  0.67409  0.78678  Biso   1.000  C
  C611     1.0000 0.61701  0.69328  0.86509  Biso   1.000  C
  C612     1.0000 0.67409  0.71318  0.94148  Biso   1.000  C
  C613     1.0000 0.77810  0.73901  0.48189  Biso   1.000  C
  C614     1.0000 0.01807  0.72190  0.73901  Biso   1.000  C
  N134     1.0000 0.52598  0.71278  0.79557  Biso   1.000  N
  H671     1.0000 0.55289  0.65278  0.75580  Biso   1.000  H
  H672     1.0000 0.59678  0.72438  0.87320  Biso   1.000  H
  N135     1.0000 0.71278  0.70439  0.97398  Biso   1.000  N
  H673     1.0000 0.65278  0.74420  0.94707  Biso   1.000  H
  C615     1.0000 0.72190  0.76099  0.48189  Biso   1.000  C
  H674     1.0000 0.80421  0.76919  0.48329  Biso   1.000  H
  C616     1.0000 0.78690  0.70679  0.43040  Biso   1.000  C
  C617     1.0000 0.01807  0.77810  0.76099  Biso   1.000  C
  H675     1.0000 0.01667  0.69579  0.76919  Biso   1.000  H
  C618     1.0000 0.06960  0.71310  0.70679  Biso   1.000  C
  C619     1.0000 0.48189  0.72190  0.76099  Biso   1.000  C
  C620     1.0000 0.72190  0.73901  0.01807  Biso   1.000  C
  N136     1.0000 0.71278  0.79557  0.52598  Biso   1.000  N
  H676     1.0000 0.69579  0.73077  0.48329  Biso   1.000  H
  C621     1.0000 0.71310  0.79317  0.43040  Biso   1.000  C
  H677     1.0000 0.82347  0.69160  0.43080  Biso   1.000  H
  H678     1.0000 0.76139  0.67649  0.42961  Biso   1.000  H
  C622     1.0000 0.77998  0.73909  0.38148  Biso   1.000  C
  N137     1.0000 0.97398  0.78718  0.79557  Biso   1.000  N
  H679     1.0000 0.01667  0.80421  0.73077  Biso   1.000  H
  C623     1.0000 0.06960  0.78690  0.79317  Biso   1.000  C
  H680     1.0000 0.06920  0.67649  0.69160  Biso   1.000  H
  H681     1.0000 0.07039  0.73861  0.67649  Biso   1.000  H
  C624     1.0000 0.11848  0.71998  0.73909  Biso   1.000  C
  H682     1.0000 0.48329  0.69579  0.73077  Biso   1.000  H
  C625     1.0000 0.43040  0.71310  0.79317  Biso   1.000  C
  C626     1.0000 0.48189  0.77810  0.73901  Biso   1.000  C
  C627     1.0000 0.77810  0.76099  0.01807  Biso   1.000  C
  H683     1.0000 0.69579  0.76919  0.01667  Biso   1.000  H
  C628     1.0000 0.71310  0.70679  0.06960  Biso   1.000  C
  C629     1.0000 0.67409  0.78678  0.55848  Biso   1.000  C
  H684     1.0000 0.67649  0.80840  0.43080  Biso   1.000  H
  H685     1.0000 0.73861  0.82347  0.42961  Biso   1.000  H
  C630     1.0000 0.71998  0.76087  0.38148  Biso   1.000  C
  H686     1.0000 0.78650  0.71690  0.34938  Biso   1.000  H
  H687     1.0000 0.80548  0.76931  0.38128  Biso   1.000  H
  C631     1.0000 0.94148  0.82587  0.78678  Biso   1.000  C
  H688     1.0000 0.06920  0.82347  0.80840  Biso   1.000  H
  H689     1.0000 0.07039  0.76139  0.82347  Biso   1.000  H
  C632     1.0000 0.11848  0.77998  0.76087  Biso   1.000  C
  H690     1.0000 0.15058  0.71350  0.71690  Biso   1.000  H
  H691     1.0000 0.11868  0.69448  0.76931  Biso   1.000  H
  H692     1.0000 0.43080  0.67649  0.80840  Biso   1.000  H
  H693     1.0000 0.42961  0.73861  0.82347  Biso   1.000  H
  C633     1.0000 0.38148  0.71998  0.76087  Biso   1.000  C
  N138     1.0000 0.52598  0.78718  0.70439  Biso   1.000  N
  H694     1.0000 0.48329  0.80421  0.76919  Biso   1.000  H
  C634     1.0000 0.43040  0.78690  0.70679  Biso   1.000  C
  N139     1.0000 0.78718  0.79557  0.97398  Biso   1.000  N
  H695     1.0000 0.80421  0.73077  0.01667  Biso   1.000  H
  C635     1.0000 0.78690  0.79317  0.06960  Biso   1.000  C
  H696     1.0000 0.67649  0.69160  0.06920  Biso   1.000  H
  H697     1.0000 0.73861  0.67649  0.07039  Biso   1.000  H
  C636     1.0000 0.71998  0.73909  0.11848  Biso   1.000  C
  C637     1.0000 0.66090  0.82067  0.60297  Biso   1.000  C
  H698     1.0000 0.65278  0.75580  0.55289  Biso   1.000  H
  H699     1.0000 0.71350  0.78310  0.34938  Biso   1.000  H
  H700     1.0000 0.69448  0.73069  0.38128  Biso   1.000  H
  C638     1.0000 0.89699  0.83910  0.82067  Biso   1.000  C
  H701     1.0000 0.94707  0.84718  0.75580  Biso   1.000  H
  H702     1.0000 0.15058  0.78650  0.78310  Biso   1.000  H
  H703     1.0000 0.11868  0.80548  0.73069  Biso   1.000  H
  H704     1.0000 0.34938  0.71350  0.78310  Biso   1.000  H
  H705     1.0000 0.38128  0.69448  0.73069  Biso   1.000  H
  C639     1.0000 0.38148  0.77998  0.73909  Biso   1.000  C
  C640     1.0000 0.55848  0.82587  0.71318  Biso   1.000  C
  H706     1.0000 0.43080  0.82347  0.69160  Biso   1.000  H
  H707     1.0000 0.42961  0.76139  0.67649  Biso   1.000  H
  C641     1.0000 0.82587  0.78678  0.94148  Biso   1.000  C
  H708     1.0000 0.82347  0.80840  0.06920  Biso   1.000  H
  H709     1.0000 0.76139  0.82347  0.07039  Biso   1.000  H
  C642     1.0000 0.77998  0.76087  0.11848  Biso   1.000  C
  H710     1.0000 0.71350  0.71690  0.15058  Biso   1.000  H
  H711     1.0000 0.69448  0.76931  0.11868  Biso   1.000  H
  C643     1.0000 0.69328  0.86509  0.61701  Biso   1.000  C
  C644     1.0000 0.61701  0.80668  0.63487  Biso   1.000  C
  C645     1.0000 0.88299  0.80668  0.86509  Biso   1.000  C
  C646     1.0000 0.86509  0.88299  0.80668  Biso   1.000  C
  H712     1.0000 0.34938  0.78650  0.71690  Biso   1.000  H
  H713     1.0000 0.38128  0.80548  0.76931  Biso   1.000  H
  C647     1.0000 0.60297  0.83910  0.67929  Biso   1.000  C
  H714     1.0000 0.55289  0.84718  0.74420  Biso   1.000  H
  C648     1.0000 0.83910  0.82067  0.89699  Biso   1.000  C
  H715     1.0000 0.84718  0.75580  0.94707  Biso   1.000  H
  H716     1.0000 0.78650  0.78310  0.15058  Biso   1.000  H
  H717     1.0000 0.80548  0.73069  0.11868  Biso   1.000  H
  H718     1.0000 0.72438  0.87320  0.59678  Biso   1.000  H
  C649     1.0000 0.67929  0.89699  0.66090  Biso   1.000  C
  H719     1.0000 0.59678  0.77558  0.62680  Biso   1.000  H
  H720     1.0000 0.90318  0.77558  0.87320  Biso   1.000  H
  H721     1.0000 0.87320  0.90318  0.77558  Biso   1.000  H
  C650     1.0000 0.82067  0.89699  0.83910  Biso   1.000  C
  C651     1.0000 0.63487  0.88299  0.69328  Biso   1.000  C
  C652     1.0000 0.80668  0.86509  0.88299  Biso   1.000  C
  C653     1.0000 0.71318  0.94148  0.67409  Biso   1.000  C
  C654     1.0000 0.78678  0.94148  0.82587  Biso   1.000  C
  H722     1.0000 0.62680  0.90318  0.72438  Biso   1.000  H
  H723     1.0000 0.77558  0.87320  0.90318  Biso   1.000  H
  N140     1.0000 0.70439  0.97398  0.71278  Biso   1.000  N
  H724     1.0000 0.74420  0.94707  0.65278  Biso   1.000  H
  N141     1.0000 0.79557  0.97398  0.78718  Biso   1.000  N
  H725     1.0000 0.75580  0.94707  0.84718  Biso   1.000  H
  C655     1.0000 0.73901  0.01807  0.72190  Biso   1.000  C
  C656     1.0000 0.76099  0.01807  0.77810  Biso   1.000  C
  H726     1.0000 0.76919  0.01667  0.69579  Biso   1.000  H
  C657     1.0000 0.70679  0.06960  0.71310  Biso   1.000  C
  H727     1.0000 0.73077  0.01667  0.80421  Biso   1.000  H
  C658     1.0000 0.79317  0.06960  0.78690  Biso   1.000  C
  H728     1.0000 0.69160  0.06920  0.67649  Biso   1.000  H
  H729     1.0000 0.67649  0.07039  0.73861  Biso   1.000  H
  C659     1.0000 0.73909  0.11848  0.71998  Biso   1.000  C
  H730     1.0000 0.80840  0.06920  0.82347  Biso   1.000  H
  H731     1.0000 0.82347  0.07039  0.76139  Biso   1.000  H
  C660     1.0000 0.76087  0.11848  0.77998  Biso   1.000  C
  H732     1.0000 0.71690  0.15058  0.71350  Biso   1.000  H
  H733     1.0000 0.76931  0.11868  0.69448  Biso   1.000  H
  H734     1.0000 0.78310  0.15058  0.78650  Biso   1.000  H
  H735     1.0000 0.73069  0.11868  0.80548  Biso   1.000  H
