data_image0
_cell_length_a       32.385
_cell_length_b       32.385
_cell_length_c       36.135
_cell_angle_alpha    90
_cell_angle_beta     90
_cell_angle_gamma    120

_symmetry_space_group_name_H-M    "P 1"
_symmetry_int_tables_number       1

loop_
  _symmetry_equiv_pos_as_xyz
  'x, y, z'

loop_
  _atom_site_label
  _atom_site_occupancy
  _atom_site_fract_x
  _atom_site_fract_y
  _atom_site_fract_z
  _atom_site_thermal_displace_type
  _atom_site_B_iso_or_equiv
  _atom_site_type_symbol
  C1       1.0000 0.60294  0.55341  0.49262  Biso   1.000  C
  N1       1.0000 0.64024  0.54218  0.48446  Biso   1.000  N
  N2       1.0000 0.61944  0.60322  0.49597  Biso   1.000  N
  H1       1.0000 0.57868  0.54004  0.47273  Biso   1.000  H
  H2       1.0000 0.58716  0.53754  0.51604  Biso   1.000  H
  C2       1.0000 0.64012  0.51982  0.45183  Biso   1.000  C
  C3       1.0000 0.66715  0.53572  0.51308  Biso   1.000  C
  C4       1.0000 0.64567  0.63228  0.52785  Biso   1.000  C
  C5       1.0000 0.61234  0.62928  0.46982  Biso   1.000  C
  O1       1.0000 0.61686  0.51672  0.42435  Biso   1.000  O
  N3       1.0000 0.66951  0.50135  0.45654  Biso   1.000  N
  C6       1.0000 0.68666  0.50620  0.49417  Biso   1.000  C
  N4       1.0000 0.70982  0.57869  0.52489  Biso   1.000  N
  H3       1.0000 0.64647  0.51825  0.53463  Biso   1.000  H
  N5       1.0000 0.69510  0.64486  0.52896  Biso   1.000  N
  H4       1.0000 0.62899  0.61755  0.55163  Biso   1.000  H
  C7       1.0000 0.64723  0.67924  0.52033  Biso   1.000  C
  O2       1.0000 0.59144  0.61434  0.44035  Biso   1.000  O
  N6       1.0000 0.63084  0.67499  0.48252  Biso   1.000  N
  C8       1.0000 0.66986  0.46716  0.43036  Biso   1.000  C
  N7       1.0000 0.73760  0.53544  0.49844  Biso   1.000  N
  H5       1.0000 0.67436  0.47443  0.50632  Biso   1.000  H
  C9       1.0000 0.75057  0.57694  0.51687  Biso   1.000  C
  C10      1.0000 0.71016  0.61452  0.54811  Biso   1.000  C
  C11      1.0000 0.72408  0.69343  0.53046  Biso   1.000  C
  N8       1.0000 0.69660  0.71382  0.52558  Biso   1.000  N
  H6       1.0000 0.62636  0.68444  0.53784  Biso   1.000  H
  C12      1.0000 0.62068  0.70883  0.46526  Biso   1.000  C
  N9       1.0000 0.71220  0.48563  0.40872  Biso   1.000  N
  H7       1.0000 0.66586  0.43903  0.44422  Biso   1.000  H
  H8       1.0000 0.64218  0.45614  0.41353  Biso   1.000  H
  C13      1.0000 0.77104  0.52100  0.48751  Biso   1.000  C
  O3       1.0000 0.79096  0.60703  0.52586  Biso   1.000  O
  H9       1.0000 0.74277  0.63484  0.55794  Biso   1.000  H
  H10      1.0000 0.68866  0.59894  0.56942  Biso   1.000  H
  O4       1.0000 0.76699  0.71464  0.53605  Biso   1.000  O
  C14      1.0000 0.71435  0.76463  0.52976  Biso   1.000  C
  N10      1.0000 0.66207  0.74998  0.45026  Biso   1.000  N
  H11      1.0000 0.60557  0.71974  0.48374  Biso   1.000  H
  H12      1.0000 0.59736  0.69264  0.44503  Biso   1.000  H
  C15      1.0000 0.75705  0.48955  0.42128  Biso   1.000  C
  C16      1.0000 0.71690  0.50609  0.37471  Biso   1.000  C
  N11      1.0000 0.78248  0.52670  0.44862  Biso   1.000  N
  H13      1.0000 0.75785  0.48702  0.49415  Biso   1.000  H
  H14      1.0000 0.80087  0.53982  0.50173  Biso   1.000  H
  N12      1.0000 0.72643  0.79027  0.49520  Biso   1.000  N
  H15      1.0000 0.68976  0.76912  0.54244  Biso   1.000  H
  H16      1.0000 0.74296  0.77843  0.54573  Biso   1.000  H
  C17      1.0000 0.69226  0.79301  0.47121  Biso   1.000  C
  C18      1.0000 0.67186  0.75586  0.41309  Biso   1.000  C
  C19      1.0000 0.78920  0.50809  0.38677  Biso   1.000  C
  H17      1.0000 0.75246  0.45814  0.42972  Biso   1.000  H
  O5       1.0000 0.68618  0.50962  0.35821  Biso   1.000  O
  N13      1.0000 0.76256  0.52182  0.36217  Biso   1.000  N
  C20      1.0000 0.82738  0.55926  0.43639  Biso   1.000  C
  C21      1.0000 0.77108  0.82054  0.48551  Biso   1.000  C
  H18      1.0000 0.67308  0.80442  0.48482  Biso   1.000  H
  C22      1.0000 0.72329  0.82845  0.44187  Biso   1.000  C
  O6       1.0000 0.65065  0.72666  0.38901  Biso   1.000  O
  N14      1.0000 0.70934  0.80118  0.40747  Biso   1.000  N
  N15      1.0000 0.83240  0.54817  0.40064  Biso   1.000  N
  H19      1.0000 0.79496  0.48324  0.37554  Biso   1.000  H
  C23      1.0000 0.77448  0.53387  0.32365  Biso   1.000  C
  O7       1.0000 0.85808  0.59213  0.45449  Biso   1.000  O
  O8       1.0000 0.80753  0.82920  0.50228  Biso   1.000  O
  N16      1.0000 0.77084  0.84357  0.45402  Biso   1.000  N
  H20      1.0000 0.71746  0.85594  0.44054  Biso   1.000  H
  C24      1.0000 0.72016  0.82214  0.37091  Biso   1.000  C
  C25      1.0000 0.87687  0.57195  0.38077  Biso   1.000  C
  N17      1.0000 0.80994  0.58261  0.31797  Biso   1.000  N
  H21      1.0000 0.78617  0.51333  0.31324  Biso   1.000  H
  H22      1.0000 0.74528  0.52702  0.30992  Biso   1.000  H
  C26      1.0000 0.81388  0.88254  0.43711  Biso   1.000  C
  N18      1.0000 0.76535  0.83099  0.35675  Biso   1.000  N
  H23      1.0000 0.69477  0.80075  0.35365  Biso   1.000  H
  H24      1.0000 0.72018  0.85273  0.37174  Biso   1.000  H
  N19      1.0000 0.88108  0.60910  0.35572  Biso   1.000  N
  H25      1.0000 0.88049  0.54795  0.36632  Biso   1.000  H
  H26      1.0000 0.90335  0.58632  0.39884  Biso   1.000  H
  C27      1.0000 0.86107  0.59883  0.31867  Biso   1.000  C
  C28      1.0000 0.80131  0.61327  0.29672  Biso   1.000  C
  N20      1.0000 0.82683  0.86860  0.40304  Biso   1.000  N
  H27      1.0000 0.80857  0.90953  0.43205  Biso   1.000  H
  H28      1.0000 0.84067  0.89363  0.45482  Biso   1.000  H
  C29      1.0000 0.81018  0.87224  0.36784  Biso   1.000  C
  C30      1.0000 0.76946  0.80995  0.32456  Biso   1.000  C
  C31      1.0000 0.91147  0.65659  0.36101  Biso   1.000  C
  C32      1.0000 0.88356  0.64764  0.30010  Biso   1.000  C
  H29      1.0000 0.86858  0.57644  0.30513  Biso   1.000  H
  O9       1.0000 0.76136  0.60607  0.28858  Biso   1.000  O
  N21      1.0000 0.84379  0.65160  0.28703  Biso   1.000  N
  C33      1.0000 0.86517  0.86254  0.40083  Biso   1.000  C
  H30      1.0000 0.80895  0.90233  0.36544  Biso   1.000  H
  C34      1.0000 0.84617  0.87085  0.33984  Biso   1.000  C
  O10      1.0000 0.73680  0.77736  0.30787  Biso   1.000  O
  N22      1.0000 0.81584  0.83341  0.31482  Biso   1.000  N
  O11      1.0000 0.93601  0.67417  0.38865  Biso   1.000  O
  N23      1.0000 0.90991  0.68016  0.33054  Biso   1.000  N
  H31      1.0000 0.90527  0.65032  0.27942  Biso   1.000  H
  C35      1.0000 0.84801  0.68537  0.25917  Biso   1.000  C
  O12      1.0000 0.88783  0.85826  0.42673  Biso   1.000  O
  N24      1.0000 0.87506  0.86001  0.36425  Biso   1.000  N
  H32      1.0000 0.86548  0.90194  0.32683  Biso   1.000  H
  C36      1.0000 0.83185  0.82603  0.27931  Biso   1.000  C
  C37      1.0000 0.94485  0.72990  0.32323  Biso   1.000  C
  N25      1.0000 0.85911  0.73115  0.27464  Biso   1.000  N
  H33      1.0000 0.81766  0.67203  0.24525  Biso   1.000  H
  H34      1.0000 0.87337  0.69015  0.24154  Biso   1.000  H
  C38      1.0000 0.91715  0.86083  0.35182  Biso   1.000  C
  N26      1.0000 0.85328  0.79590  0.28086  Biso   1.000  N
  H35      1.0000 0.85558  0.85755  0.26905  Biso   1.000  H
  H36      1.0000 0.80439  0.81155  0.26213  Biso   1.000  H
  N27      1.0000 0.92555  0.76010  0.31880  Biso   1.000  N
  H37      1.0000 0.96798  0.74213  0.34393  Biso   1.000  H
  H38      1.0000 0.96268  0.73154  0.30054  Biso   1.000  H
  C39      1.0000 0.90794  0.76841  0.28465  Biso   1.000  C
  C40      1.0000 0.83002  0.75037  0.26999  Biso   1.000  C
  N28      1.0000 0.90907  0.81786  0.33206  Biso   1.000  N
  H39      1.0000 0.93766  0.86554  0.37354  Biso   1.000  H
  H40      1.0000 0.93487  0.88885  0.33533  Biso   1.000  H
  C41      1.0000 0.90126  0.81212  0.29312  Biso   1.000  C
  C42      1.0000 0.92604  0.78913  0.34573  Biso   1.000  C
  H41      1.0000 0.93076  0.77522  0.26384  Biso   1.000  H
  O13      1.0000 0.78977  0.72865  0.25729  Biso   1.000  O
  H42      1.0000 0.92488  0.84115  0.27934  Biso   1.000  H
  O14      1.0000 0.94041  0.79112  0.37781  Biso   1.000  O
  C43      1.0000 0.39708  0.44658  0.50738  Biso   1.000  C
  N29      1.0000 0.38054  0.39677  0.50403  Biso   1.000  N
  N30      1.0000 0.35974  0.45782  0.51554  Biso   1.000  N
  H43      1.0000 0.42133  0.45995  0.52727  Biso   1.000  H
  H44      1.0000 0.41282  0.46245  0.48396  Biso   1.000  H
  C44      1.0000 0.35434  0.36771  0.47215  Biso   1.000  C
  C45      1.0000 0.38769  0.37074  0.53018  Biso   1.000  C
  C46      1.0000 0.33283  0.46427  0.48692  Biso   1.000  C
  C47      1.0000 0.35989  0.48017  0.54817  Biso   1.000  C
  N31      1.0000 0.30488  0.35513  0.47104  Biso   1.000  N
  C48      1.0000 0.35278  0.32076  0.47967  Biso   1.000  C
  H45      1.0000 0.37104  0.38248  0.44837  Biso   1.000  H
  N32      1.0000 0.36919  0.32503  0.51748  Biso   1.000  N
  O15      1.0000 0.40859  0.38568  0.55965  Biso   1.000  O
  N33      1.0000 0.29021  0.42134  0.47511  Biso   1.000  N
  C49      1.0000 0.31333  0.49383  0.50583  Biso   1.000  C
  H46      1.0000 0.35353  0.48178  0.46537  Biso   1.000  H
  N34      1.0000 0.33047  0.49864  0.54346  Biso   1.000  N
  O16      1.0000 0.38312  0.48327  0.57565  Biso   1.000  O
  C50      1.0000 0.27593  0.30657  0.46954  Biso   1.000  C
  C51      1.0000 0.28982  0.38547  0.45189  Biso   1.000  C
  N35      1.0000 0.30341  0.28617  0.47442  Biso   1.000  N
  H47      1.0000 0.37362  0.31555  0.46216  Biso   1.000  H
  C52      1.0000 0.37933  0.29116  0.53474  Biso   1.000  C
  C53      1.0000 0.24941  0.42305  0.48313  Biso   1.000  C
  N36      1.0000 0.26241  0.46455  0.50156  Biso   1.000  N
  H48      1.0000 0.32562  0.52556  0.49368  Biso   1.000  H
  C54      1.0000 0.33014  0.53287  0.56964  Biso   1.000  C
  O17      1.0000 0.23303  0.28535  0.46395  Biso   1.000  O
  H49      1.0000 0.25726  0.36518  0.44206  Biso   1.000  H
  H50      1.0000 0.31132  0.40105  0.43058  Biso   1.000  H
  C55      1.0000 0.28563  0.23536  0.47024  Biso   1.000  C
  N37      1.0000 0.33792  0.25002  0.54974  Biso   1.000  N
  H51      1.0000 0.39444  0.28025  0.51626  Biso   1.000  H
  H52      1.0000 0.40264  0.30739  0.55497  Biso   1.000  H
  O18      1.0000 0.20903  0.39299  0.47414  Biso   1.000  O
  C56      1.0000 0.22894  0.47899  0.51249  Biso   1.000  C
  N38      1.0000 0.28780  0.51440  0.59128  Biso   1.000  N
  H53      1.0000 0.33412  0.56097  0.55578  Biso   1.000  H
  H54      1.0000 0.35783  0.54385  0.58647  Biso   1.000  H
  N39      1.0000 0.27355  0.20973  0.50480  Biso   1.000  N
  H55      1.0000 0.31025  0.23087  0.45756  Biso   1.000  H
  H56      1.0000 0.25702  0.22156  0.45427  Biso   1.000  H
  C57      1.0000 0.30772  0.20698  0.52879  Biso   1.000  C
  C58      1.0000 0.32814  0.24417  0.58691  Biso   1.000  C
  N40      1.0000 0.21752  0.47333  0.55138  Biso   1.000  N
  H57      1.0000 0.24213  0.51297  0.50585  Biso   1.000  H
  H58      1.0000 0.19914  0.46017  0.49827  Biso   1.000  H
  C59      1.0000 0.24293  0.51044  0.57872  Biso   1.000  C
  C60      1.0000 0.28310  0.49393  0.62529  Biso   1.000  C
  C61      1.0000 0.22893  0.17945  0.51449  Biso   1.000  C
  H59      1.0000 0.32693  0.19557  0.51518  Biso   1.000  H
  C62      1.0000 0.27674  0.17157  0.55813  Biso   1.000  C
  N41      1.0000 0.29067  0.19881  0.59253  Biso   1.000  N
  O19      1.0000 0.34938  0.27337  0.61099  Biso   1.000  O
  C63      1.0000 0.17262  0.44077  0.56361  Biso   1.000  C
  C64      1.0000 0.21081  0.49190  0.61323  Biso   1.000  C
  H60      1.0000 0.24752  0.54186  0.57028  Biso   1.000  H
  N42      1.0000 0.23747  0.47821  0.63783  Biso   1.000  N
  O20      1.0000 0.31380  0.49037  0.64179  Biso   1.000  O
  O21      1.0000 0.19245  0.17079  0.49772  Biso   1.000  O
  N43      1.0000 0.22918  0.15642  0.54598  Biso   1.000  N
  H61      1.0000 0.28254  0.14408  0.55946  Biso   1.000  H
  C65      1.0000 0.27983  0.17788  0.62909  Biso   1.000  C
  O22      1.0000 0.14194  0.40790  0.54551  Biso   1.000  O
  N44      1.0000 0.16760  0.45186  0.59936  Biso   1.000  N
  H62      1.0000 0.20502  0.51675  0.62446  Biso   1.000  H
  C66      1.0000 0.22550  0.46612  0.67635  Biso   1.000  C
  C67      1.0000 0.18615  0.11748  0.56289  Biso   1.000  C
  N45      1.0000 0.23463  0.16901  0.64325  Biso   1.000  N
  H63      1.0000 0.30523  0.19928  0.64635  Biso   1.000  H
  H64      1.0000 0.27984  0.14726  0.62826  Biso   1.000  H
  C68      1.0000 0.12315  0.42804  0.61923  Biso   1.000  C
  N46      1.0000 0.19007  0.41738  0.68203  Biso   1.000  N
  H65      1.0000 0.21384  0.48666  0.68676  Biso   1.000  H
  H66      1.0000 0.25473  0.47297  0.69008  Biso   1.000  H
  N47      1.0000 0.17315  0.13139  0.59696  Biso   1.000  N
  H67      1.0000 0.19144  0.09046  0.56795  Biso   1.000  H
  H68      1.0000 0.15934  0.10636  0.54518  Biso   1.000  H
  C69      1.0000 0.18983  0.12775  0.63216  Biso   1.000  C
  C70      1.0000 0.23053  0.19008  0.67544  Biso   1.000  C
  N48      1.0000 0.11895  0.39093  0.64428  Biso   1.000  N
  H69      1.0000 0.11954  0.45207  0.63368  Biso   1.000  H
  H70      1.0000 0.09663  0.41367  0.60116  Biso   1.000  H
  C71      1.0000 0.13893  0.40119  0.68133  Biso   1.000  C
  C72      1.0000 0.19869  0.38675  0.70328  Biso   1.000  C
  C73      1.0000 0.13484  0.13745  0.59917  Biso   1.000  C
  H71      1.0000 0.19103  0.09766  0.63456  Biso   1.000  H
  C74      1.0000 0.15383  0.12918  0.66016  Biso   1.000  C
  N49      1.0000 0.18417  0.16658  0.68518  Biso   1.000  N
  O23      1.0000 0.26321  0.22263  0.69213  Biso   1.000  O
  C75      1.0000 0.08853  0.34343  0.63899  Biso   1.000  C
  C76      1.0000 0.11645  0.35235  0.69990  Biso   1.000  C
  H72      1.0000 0.13143  0.42355  0.69487  Biso   1.000  H
  N50      1.0000 0.15624  0.34842  0.71297  Biso   1.000  N
  O24      1.0000 0.23862  0.39392  0.71142  Biso   1.000  O
  O25      1.0000 0.11218  0.14173  0.57327  Biso   1.000  O
  N51      1.0000 0.12496  0.13998  0.63575  Biso   1.000  N
  H73      1.0000 0.13453  0.09805  0.67317  Biso   1.000  H
  C77      1.0000 0.16813  0.17396  0.72069  Biso   1.000  C
  O26      1.0000 0.06402  0.32585  0.61135  Biso   1.000  O
  N52      1.0000 0.09012  0.31986  0.66946  Biso   1.000  N
  H74      1.0000 0.09474  0.34967  0.72058  Biso   1.000  H
  C78      1.0000 0.15200  0.31462  0.74083  Biso   1.000  C
  C79      1.0000 0.08283  0.13916  0.64818  Biso   1.000  C
  N53      1.0000 0.14673  0.20409  0.71914  Biso   1.000  N
  H75      1.0000 0.14445  0.14248  0.73095  Biso   1.000  H
  H76      1.0000 0.19564  0.18847  0.73787  Biso   1.000  H
  C80      1.0000 0.05513  0.27009  0.67677  Biso   1.000  C
  N54      1.0000 0.14091  0.26884  0.72536  Biso   1.000  N
  H77      1.0000 0.18232  0.32796  0.75475  Biso   1.000  H
  H78      1.0000 0.12666  0.30988  0.75846  Biso   1.000  H
  N55      1.0000 0.09094  0.18213  0.66794  Biso   1.000  N
  H79      1.0000 0.06232  0.13446  0.62646  Biso   1.000  H
  H80      1.0000 0.06513  0.11117  0.66467  Biso   1.000  H
  C81      1.0000 0.09872  0.18787  0.70688  Biso   1.000  C
  C82      1.0000 0.16999  0.24962  0.73001  Biso   1.000  C
  N56      1.0000 0.07443  0.23989  0.68120  Biso   1.000  N
  H81      1.0000 0.03203  0.25786  0.65607  Biso   1.000  H
  H82      1.0000 0.03735  0.26849  0.69946  Biso   1.000  H
  C83      1.0000 0.09205  0.23158  0.71535  Biso   1.000  C
  C84      1.0000 0.07395  0.21090  0.65427  Biso   1.000  C
  H83      1.0000 0.07515  0.15888  0.72066  Biso   1.000  H
  O27      1.0000 0.21023  0.27137  0.74271  Biso   1.000  O
  H84      1.0000 0.06925  0.22477  0.73616  Biso   1.000  H
  O28      1.0000 0.05957  0.20887  0.62219  Biso   1.000  O
  C85      1.0000 0.50404  0.48531  0.59250  Biso   1.000  C
  N57      1.0000 0.53872  0.47425  0.60797  Biso   1.000  N
  N58      1.0000 0.47448  0.48955  0.62037  Biso   1.000  N
  H85      1.0000 0.52105  0.51568  0.57858  Biso   1.000  H
  H86      1.0000 0.48343  0.45995  0.57487  Biso   1.000  H
  C86      1.0000 0.52714  0.42540  0.61799  Biso   1.000  C
  C87      1.0000 0.58703  0.50331  0.60332  Biso   1.000  C
  C88      1.0000 0.43076  0.44979  0.63343  Biso   1.000  C
  C89      1.0000 0.47861  0.53201  0.63005  Biso   1.000  C
  N59      1.0000 0.50122  0.40779  0.65214  Biso   1.000  N
  C90      1.0000 0.57753  0.43207  0.62646  Biso   1.000  C
  H87      1.0000 0.51116  0.40259  0.59718  Biso   1.000  H
  O29      1.0000 0.60555  0.54357  0.59062  Biso   1.000  O
  N60      1.0000 0.60931  0.48006  0.61420  Biso   1.000  N
  N61      1.0000 0.43692  0.42344  0.66387  Biso   1.000  N
  H88      1.0000 0.41175  0.42808  0.61276  Biso   1.000  H
  C91      1.0000 0.40442  0.47226  0.65200  Biso   1.000  C
  O30      1.0000 0.51137  0.57198  0.62192  Biso   1.000  O
  N62      1.0000 0.43934  0.52339  0.65131  Biso   1.000  N
  C92      1.0000 0.52972  0.40729  0.67906  Biso   1.000  C
  C93      1.0000 0.45173  0.38847  0.65657  Biso   1.000  C
  N63      1.0000 0.57548  0.42426  0.66539  Biso   1.000  N
  H89      1.0000 0.58293  0.40847  0.61267  Biso   1.000  H
  C94      1.0000 0.66083  0.50146  0.61265  Biso   1.000  C
  C95      1.0000 0.41180  0.42187  0.69434  Biso   1.000  C
  N64      1.0000 0.39469  0.45225  0.68905  Biso   1.000  N
  H90      1.0000 0.37455  0.46477  0.63847  Biso   1.000  H
  C96      1.0000 0.42602  0.55883  0.65698  Biso   1.000  C
  O31      1.0000 0.51738  0.39292  0.71114  Biso   1.000  O
  H91      1.0000 0.44082  0.36536  0.67727  Biso   1.000  H
  H92      1.0000 0.43555  0.37067  0.63387  Biso   1.000  H
  C97      1.0000 0.61034  0.41617  0.68515  Biso   1.000  C
  N65      1.0000 0.68423  0.51750  0.64815  Biso   1.000  N
  H93      1.0000 0.66863  0.47778  0.60238  Biso   1.000  H
  H94      1.0000 0.67385  0.52898  0.59546  Biso   1.000  H
  O32      1.0000 0.40485  0.39734  0.72199  Biso   1.000  O
  C98      1.0000 0.36175  0.45646  0.71410  Biso   1.000  C
  N66      1.0000 0.42591  0.57077  0.69550  Biso   1.000  N
  H95      1.0000 0.39382  0.54717  0.64658  Biso   1.000  H
  H96      1.0000 0.44842  0.58806  0.64325  Biso   1.000  H
  N67      1.0000 0.65164  0.45831  0.69758  Biso   1.000  N
  H97      1.0000 0.59453  0.39567  0.70688  Biso   1.000  H
  H98      1.0000 0.62064  0.39848  0.66866  Biso   1.000  H
  C99      1.0000 0.69132  0.48716  0.67317  Biso   1.000  C
  C100     1.0000 0.70712  0.56385  0.65789  Biso   1.000  C
  N68      1.0000 0.38241  0.50092  0.73397  Biso   1.000  N
  H99      1.0000 0.33413  0.45286  0.69965  Biso   1.000  H
  H100     1.0000 0.34965  0.42997  0.73217  Biso   1.000  H
  C101     1.0000 0.38555  0.54414  0.72011  Biso   1.000  C
  C102     1.0000 0.45584  0.61641  0.70804  Biso   1.000  C
  C103     1.0000 0.66403  0.46816  0.73416  Biso   1.000  C
  C104     1.0000 0.72875  0.52317  0.70118  Biso   1.000  C
  H101     1.0000 0.70313  0.46787  0.66016  Biso   1.000  H
  O33      1.0000 0.70724  0.59652  0.64121  Biso   1.000  O
  N69      1.0000 0.73232  0.56799  0.69008  Biso   1.000  N
  C105     1.0000 0.39854  0.50595  0.76972  Biso   1.000  C
  H102     1.0000 0.35493  0.53836  0.70887  Biso   1.000  H
  C106     1.0000 0.39917  0.57626  0.75461  Biso   1.000  C
  O34      1.0000 0.49010  0.64715  0.69155  Biso   1.000  O
  N70      1.0000 0.44008  0.62115  0.74205  Biso   1.000  N
  O35      1.0000 0.63712  0.44551  0.76007  Biso   1.000  O
  N71      1.0000 0.70842  0.50649  0.73638  Biso   1.000  N
  H103     1.0000 0.76005  0.52438  0.69877  Biso   1.000  H
  C107     1.0000 0.76865  0.61317  0.70425  Biso   1.000  C
  O36      1.0000 0.40069  0.47525  0.78782  Biso   1.000  O
  N72      1.0000 0.41088  0.55084  0.78196  Biso   1.000  N
  H104     1.0000 0.37232  0.58086  0.76306  Biso   1.000  H
  C108     1.0000 0.46396  0.66348  0.76369  Biso   1.000  C
  C109     1.0000 0.73532  0.51946  0.77044  Biso   1.000  C
  N73      1.0000 0.75851  0.62401  0.74081  Biso   1.000  N
  H105     1.0000 0.77263  0.63855  0.68698  Biso   1.000  H
  H106     1.0000 0.79925  0.61317  0.70508  Biso   1.000  H
  C110     1.0000 0.41664  0.56229  0.82084  Biso   1.000  C
  N74      1.0000 0.49849  0.66380  0.78987  Biso   1.000  N
  H107     1.0000 0.43983  0.66747  0.77756  Biso   1.000  H
  H108     1.0000 0.48065  0.69118  0.74687  Biso   1.000  H
  N75      1.0000 0.73941  0.56254  0.78735  Biso   1.000  N
  H109     1.0000 0.76765  0.52478  0.76538  Biso   1.000  H
  H110     1.0000 0.71963  0.49265  0.78816  Biso   1.000  H
  C111     1.0000 0.77182  0.61006  0.77520  Biso   1.000  C
  C112     1.0000 0.75066  0.66148  0.74642  Biso   1.000  C
  N76      1.0000 0.46452  0.59573  0.83177  Biso   1.000  N
  H111     1.0000 0.39584  0.57548  0.82748  Biso   1.000  H
  H112     1.0000 0.40562  0.53248  0.83506  Biso   1.000  H
  C113     1.0000 0.48619  0.64668  0.82751  Biso   1.000  C
  C114     1.0000 0.54636  0.69321  0.78517  Biso   1.000  C
  C115     1.0000 0.71616  0.56229  0.81885  Biso   1.000  C
  C116     1.0000 0.76742  0.64108  0.80454  Biso   1.000  C
  H113     1.0000 0.80514  0.61588  0.77388  Biso   1.000  H
  O37      1.0000 0.74267  0.68269  0.72235  Biso   1.000  O
  N77      1.0000 0.75457  0.67128  0.78359  Biso   1.000  N
  C117     1.0000 0.49304  0.58275  0.85020  Biso   1.000  C
  H114     1.0000 0.46675  0.65898  0.83966  Biso   1.000  H
  C118     1.0000 0.53525  0.66619  0.84641  Biso   1.000  C
  O38      1.0000 0.56654  0.71646  0.75769  Biso   1.000  O
  N78      1.0000 0.56860  0.69311  0.81779  Biso   1.000  N
  O39      1.0000 0.68835  0.52581  0.83562  Biso   1.000  O
  N79      1.0000 0.73049  0.60689  0.82853  Biso   1.000  N
  H115     1.0000 0.79804  0.66027  0.81815  Biso   1.000  H
  C119     1.0000 0.75483  0.71268  0.79859  Biso   1.000  C
  O40      1.0000 0.48273  0.54235  0.85919  Biso   1.000  O
  N80      1.0000 0.53555  0.62354  0.85823  Biso   1.000  N
  H116     1.0000 0.53843  0.68687  0.86797  Biso   1.000  H
  C120     1.0000 0.61714  0.73040  0.82596  Biso   1.000  C
  C121     1.0000 0.71693  0.61898  0.86310  Biso   1.000  C
  N81      1.0000 0.71081  0.70252  0.81586  Biso   1.000  N
  H117     1.0000 0.78083  0.72776  0.81707  Biso   1.000  H
  H118     1.0000 0.76193  0.73596  0.77836  Biso   1.000  H
  C122     1.0000 0.57103  0.62319  0.88144  Biso   1.000  C
  N82      1.0000 0.65045  0.71389  0.82931  Biso   1.000  N
  H119     1.0000 0.62804  0.75468  0.80606  Biso   1.000  H
  H120     1.0000 0.61702  0.74616  0.84937  Biso   1.000  H
  N83      1.0000 0.68388  0.63673  0.85892  Biso   1.000  N
  H121     1.0000 0.74603  0.64358  0.87577  Biso   1.000  H
  H122     1.0000 0.70214  0.59038  0.87906  Biso   1.000  H
  C123     1.0000 0.69869  0.68612  0.85366  Biso   1.000  C
  C124     1.0000 0.68361  0.72099  0.80315  Biso   1.000  C
  N84      1.0000 0.61641  0.63823  0.86229  Biso   1.000  N
  H123     1.0000 0.55874  0.59056  0.89127  Biso   1.000  H
  H124     1.0000 0.57694  0.64469  0.90275  Biso   1.000  H
  C125     1.0000 0.65331  0.68769  0.86119  Biso   1.000  C
  C126     1.0000 0.63603  0.60928  0.86379  Biso   1.000  C
  H125     1.0000 0.72474  0.70698  0.87118  Biso   1.000  H
  O41      1.0000 0.68956  0.74192  0.77368  Biso   1.000  O
  H126     1.0000 0.65523  0.70437  0.88496  Biso   1.000  H
  O42      1.0000 0.61432  0.56635  0.86938  Biso   1.000  O
  C127     1.0000 0.49597  0.51469  0.40750  Biso   1.000  C
  N85      1.0000 0.52553  0.51044  0.37963  Biso   1.000  N
  N86      1.0000 0.46128  0.52577  0.39203  Biso   1.000  N
  H127     1.0000 0.47898  0.48434  0.42142  Biso   1.000  H
  H128     1.0000 0.51658  0.54004  0.42513  Biso   1.000  H
  C128     1.0000 0.52137  0.46798  0.36995  Biso   1.000  C
  C129     1.0000 0.56922  0.55020  0.36657  Biso   1.000  C
  C130     1.0000 0.41298  0.49668  0.39668  Biso   1.000  C
  C131     1.0000 0.47286  0.57462  0.38201  Biso   1.000  C
  N87      1.0000 0.56064  0.47661  0.34869  Biso   1.000  N
  O43      1.0000 0.48865  0.42804  0.37808  Biso   1.000  O
  C132     1.0000 0.59560  0.52774  0.34800  Biso   1.000  C
  N88      1.0000 0.56309  0.57655  0.33613  Biso   1.000  N
  H129     1.0000 0.58827  0.57195  0.38724  Biso   1.000  H
  N89      1.0000 0.39070  0.51993  0.38580  Biso   1.000  N
  O44      1.0000 0.39448  0.45646  0.40938  Biso   1.000  O
  C133     1.0000 0.42245  0.56792  0.37354  Biso   1.000  C
  N90      1.0000 0.49880  0.59224  0.34786  Biso   1.000  N
  H130     1.0000 0.48887  0.59744  0.40282  Biso   1.000  H
  C134     1.0000 0.57396  0.44116  0.34302  Biso   1.000  C
  N91      1.0000 0.60532  0.54774  0.31095  Biso   1.000  N
  H131     1.0000 0.62546  0.53522  0.36153  Biso   1.000  H
  C135     1.0000 0.58823  0.57815  0.30566  Biso   1.000  C
  C136     1.0000 0.54828  0.61153  0.34343  Biso   1.000  C
  C137     1.0000 0.33915  0.49853  0.38735  Biso   1.000  C
  N92      1.0000 0.42453  0.57573  0.33461  Biso   1.000  N
  H132     1.0000 0.41705  0.59152  0.38733  Biso   1.000  H
  C138     1.0000 0.47026  0.59270  0.32094  Biso   1.000  C
  N93      1.0000 0.57407  0.42922  0.30450  Biso   1.000  N
  H133     1.0000 0.60616  0.45282  0.35342  Biso   1.000  H
  H134     1.0000 0.55156  0.41193  0.35675  Biso   1.000  H
  C139     1.0000 0.63823  0.54353  0.28590  Biso   1.000  C
  O45      1.0000 0.59516  0.60265  0.27801  Biso   1.000  O
  H135     1.0000 0.55916  0.63463  0.32273  Biso   1.000  H
  H136     1.0000 0.56447  0.62932  0.36613  Biso   1.000  H
  N94      1.0000 0.31575  0.48249  0.35185  Biso   1.000  N
  H137     1.0000 0.33137  0.52224  0.39762  Biso   1.000  H
  H138     1.0000 0.32618  0.47104  0.40454  Biso   1.000  H
  C140     1.0000 0.38967  0.58382  0.31485  Biso   1.000  C
  O46      1.0000 0.48265  0.60710  0.28886  Biso   1.000  O
  C141     1.0000 0.54418  0.38358  0.29196  Biso   1.000  C
  C142     1.0000 0.61443  0.45585  0.27989  Biso   1.000  C
  N95      1.0000 0.61758  0.49907  0.26603  Biso   1.000  N
  H139     1.0000 0.66588  0.54713  0.30035  Biso   1.000  H
  H140     1.0000 0.65037  0.57002  0.26783  Biso   1.000  H
  C143     1.0000 0.29286  0.43614  0.34211  Biso   1.000  C
  C144     1.0000 0.30866  0.51283  0.32683  Biso   1.000  C
  N96      1.0000 0.34836  0.54171  0.30242  Biso   1.000  N
  H141     1.0000 0.40545  0.60432  0.29312  Biso   1.000  H
  H142     1.0000 0.37936  0.60154  0.33134  Biso   1.000  H
  N97      1.0000 0.55992  0.37887  0.25795  Biso   1.000  N
  O47      1.0000 0.50990  0.35288  0.30845  Biso   1.000  O
  C145     1.0000 0.60084  0.42373  0.24539  Biso   1.000  C
  H143     1.0000 0.64508  0.46163  0.29113  Biso   1.000  H
  C146     1.0000 0.60147  0.49404  0.23028  Biso   1.000  C
  N98      1.0000 0.26771  0.43204  0.30992  Biso   1.000  N
  O48      1.0000 0.29277  0.40348  0.35879  Biso   1.000  O
  C147     1.0000 0.27126  0.47682  0.29882  Biso   1.000  C
  H144     1.0000 0.29685  0.53212  0.33984  Biso   1.000  H
  C148     1.0000 0.33598  0.53184  0.26584  Biso   1.000  C
  C149     1.0000 0.53607  0.33655  0.23631  Biso   1.000  C
  N99      1.0000 0.58913  0.44915  0.21804  Biso   1.000  N
  H145     1.0000 0.62766  0.41913  0.23694  Biso   1.000  H
  O49      1.0000 0.59929  0.52474  0.21218  Biso   1.000  O
  C150     1.0000 0.23136  0.38683  0.29575  Biso   1.000  C
  N100     1.0000 0.29156  0.49351  0.26362  Biso   1.000  N
  H146     1.0000 0.23998  0.47564  0.30123  Biso   1.000  H
  O50      1.0000 0.36290  0.55448  0.23993  Biso   1.000  O
  N101     1.0000 0.50152  0.33619  0.21013  Biso   1.000  N
  H147     1.0000 0.56015  0.33252  0.22244  Biso   1.000  H
  H148     1.0000 0.51938  0.30885  0.25313  Biso   1.000  H
  C151     1.0000 0.58337  0.43771  0.17916  Biso   1.000  C
  N102     1.0000 0.24147  0.37599  0.25919  Biso   1.000  N
  H149     1.0000 0.22738  0.36144  0.31302  Biso   1.000  H
  H150     1.0000 0.20076  0.38683  0.29492  Biso   1.000  H
  C152     1.0000 0.26466  0.48053  0.22956  Biso   1.000  C
  C153     1.0000 0.45362  0.30678  0.21483  Biso   1.000  C
  C154     1.0000 0.51383  0.35335  0.17249  Biso   1.000  C
  N103     1.0000 0.53546  0.40426  0.16823  Biso   1.000  N
  H151     1.0000 0.60418  0.42455  0.17252  Biso   1.000  H
  H152     1.0000 0.59437  0.46755  0.16494  Biso   1.000  H
  C155     1.0000 0.24937  0.33855  0.25358  Biso   1.000  C
  C156     1.0000 0.22816  0.38993  0.22480  Biso   1.000  C
  N104     1.0000 0.26059  0.43749  0.21265  Biso   1.000  N
  H153     1.0000 0.23238  0.47525  0.23462  Biso   1.000  H
  H154     1.0000 0.28038  0.50734  0.21184  Biso   1.000  H
  N105     1.0000 0.43140  0.30692  0.18221  Biso   1.000  N
  O51      1.0000 0.43348  0.28353  0.24231  Biso   1.000  O
  C157     1.0000 0.46477  0.33384  0.15359  Biso   1.000  C
  H155     1.0000 0.53328  0.34104  0.16034  Biso   1.000  H
  C158     1.0000 0.50697  0.41724  0.14980  Biso   1.000  C
  N106     1.0000 0.24543  0.32874  0.21641  Biso   1.000  N
  O52      1.0000 0.25734  0.31730  0.27765  Biso   1.000  O
  C159     1.0000 0.23258  0.35894  0.19546  Biso   1.000  C
  H156     1.0000 0.19489  0.38415  0.22612  Biso   1.000  H
  C160     1.0000 0.28387  0.43774  0.18115  Biso   1.000  C
  C161     1.0000 0.38284  0.26959  0.17404  Biso   1.000  C
  N107     1.0000 0.46448  0.37649  0.14177  Biso   1.000  N
  H157     1.0000 0.46155  0.31313  0.13203  Biso   1.000  H
  O53      1.0000 0.51729  0.45764  0.14081  Biso   1.000  O
  C162     1.0000 0.24517  0.28735  0.20141  Biso   1.000  C
  N108     1.0000 0.26952  0.39310  0.17147  Biso   1.000  N
  H158     1.0000 0.20198  0.33972  0.18185  Biso   1.000  H
  O54      1.0000 0.31168  0.47422  0.16438  Biso   1.000  O
  N109     1.0000 0.34958  0.28613  0.17069  Biso   1.000  N
  H159     1.0000 0.37199  0.24534  0.19394  Biso   1.000  H
  H160     1.0000 0.38296  0.25383  0.15063  Biso   1.000  H
  C163     1.0000 0.42900  0.37684  0.11856  Biso   1.000  C
  N110     1.0000 0.28919  0.29751  0.18414  Biso   1.000  N
  H161     1.0000 0.21918  0.27223  0.18293  Biso   1.000  H
  H162     1.0000 0.23805  0.26403  0.22164  Biso   1.000  H
  C164     1.0000 0.28307  0.38105  0.13690  Biso   1.000  C
  C165     1.0000 0.31640  0.27900  0.19685  Biso   1.000  C
  C166     1.0000 0.34672  0.31234  0.13881  Biso   1.000  C
  N111     1.0000 0.38357  0.36176  0.13771  Biso   1.000  N
  H163     1.0000 0.44128  0.40943  0.10873  Biso   1.000  H
  H164     1.0000 0.42306  0.35534  0.09725  Biso   1.000  H
  C167     1.0000 0.30134  0.31391  0.14634  Biso   1.000  C
  N112     1.0000 0.31610  0.36326  0.14108  Biso   1.000  N
  H165     1.0000 0.25397  0.35645  0.12423  Biso   1.000  H
  H166     1.0000 0.29786  0.40965  0.12094  Biso   1.000  H
  O55      1.0000 0.31044  0.25811  0.22632  Biso   1.000  O
  H167     1.0000 0.34475  0.29562  0.11504  Biso   1.000  H
  C168     1.0000 0.36397  0.39075  0.13621  Biso   1.000  C
  H168     1.0000 0.27529  0.29305  0.12882  Biso   1.000  H
  O56      1.0000 0.38566  0.43364  0.13062  Biso   1.000  O
  O57      1.0000 0.40789  0.26595  0.45449  Biso   1.000  O
  C169     1.0000 0.44075  0.26813  0.43639  Biso   1.000  C
  N113     1.0000 0.45183  0.28424  0.40064  Biso   1.000  N
  N114     1.0000 0.47330  0.25579  0.44862  Biso   1.000  N
  C170     1.0000 0.42804  0.30489  0.38077  Biso   1.000  C
  C171     1.0000 0.49192  0.28111  0.38677  Biso   1.000  C
  C172     1.0000 0.51043  0.26749  0.42128  Biso   1.000  C
  C173     1.0000 0.47902  0.25005  0.48751  Biso   1.000  C
  N115     1.0000 0.39092  0.27198  0.35572  Biso   1.000  N
  H169     1.0000 0.45207  0.33252  0.36632  Biso   1.000  H
  H170     1.0000 0.41367  0.31705  0.39884  Biso   1.000  H
  N116     1.0000 0.47819  0.24075  0.36217  Biso   1.000  N
  H171     1.0000 0.51678  0.31174  0.37554  Biso   1.000  H
  N117     1.0000 0.51441  0.22659  0.40872  Biso   1.000  N
  H172     1.0000 0.54186  0.29434  0.42972  Biso   1.000  H
  N118     1.0000 0.46454  0.20213  0.49844  Biso   1.000  N
  H173     1.0000 0.51297  0.27084  0.49415  Biso   1.000  H
  H174     1.0000 0.46018  0.26103  0.50173  Biso   1.000  H
  C174     1.0000 0.34341  0.25490  0.36101  Biso   1.000  C
  C175     1.0000 0.40119  0.26225  0.31867  Biso   1.000  C
  C176     1.0000 0.46613  0.24064  0.32365  Biso   1.000  C
  C177     1.0000 0.49393  0.21083  0.37471  Biso   1.000  C
  C178     1.0000 0.53286  0.20274  0.43036  Biso   1.000  C
  C179     1.0000 0.42304  0.17361  0.51687  Biso   1.000  C
  C180     1.0000 0.49383  0.18049  0.49417  Biso   1.000  C
  N119     1.0000 0.31985  0.22976  0.33054  Biso   1.000  N
  O58      1.0000 0.32584  0.26182  0.38865  Biso   1.000  O
  C181     1.0000 0.35235  0.23590  0.30010  Biso   1.000  C
  N120     1.0000 0.41739  0.22734  0.31797  Biso   1.000  N
  H175     1.0000 0.42357  0.29212  0.30513  Biso   1.000  H
  H176     1.0000 0.48667  0.27284  0.31324  Biso   1.000  H
  H177     1.0000 0.47296  0.21825  0.30992  Biso   1.000  H
  O59      1.0000 0.49038  0.17657  0.35821  Biso   1.000  O
  N121     1.0000 0.49867  0.16819  0.45654  Biso   1.000  N
  H178     1.0000 0.56097  0.22684  0.44422  Biso   1.000  H
  H179     1.0000 0.54388  0.18605  0.41353  Biso   1.000  H
  O60      1.0000 0.39298  0.18395  0.52586  Biso   1.000  O
  N122     1.0000 0.42132  0.13114  0.52489  Biso   1.000  N
  H180     1.0000 0.52556  0.19992  0.50632  Biso   1.000  H
  C182     1.0000 0.46426  0.13143  0.51308  Biso   1.000  C
  C183     1.0000 0.27007  0.21493  0.32323  Biso   1.000  C
  N123     1.0000 0.34840  0.19218  0.28703  Biso   1.000  N
  H181     1.0000 0.34967  0.25494  0.27942  Biso   1.000  H
  C184     1.0000 0.38672  0.18805  0.29672  Biso   1.000  C
  C185     1.0000 0.48019  0.12030  0.45183  Biso   1.000  C
  C186     1.0000 0.38547  0.09563  0.54811  Biso   1.000  C
  N124     1.0000 0.45784  0.09809  0.48446  Biso   1.000  N
  H182     1.0000 0.48177  0.12822  0.53463  Biso   1.000  H
  N125     1.0000 0.23991  0.16548  0.31880  Biso   1.000  N
  H183     1.0000 0.25786  0.22584  0.34393  Biso   1.000  H
  H184     1.0000 0.26847  0.23112  0.30054  Biso   1.000  H
  C187     1.0000 0.31460  0.16262  0.25917  Biso   1.000  C
  O61      1.0000 0.39395  0.15531  0.28858  Biso   1.000  O
  O62      1.0000 0.48325  0.10012  0.42435  Biso   1.000  O
  N126     1.0000 0.35515  0.05024  0.52896  Biso   1.000  N
  H185     1.0000 0.36516  0.10793  0.55794  Biso   1.000  H
  H186     1.0000 0.40109  0.08974  0.56942  Biso   1.000  H
  C188     1.0000 0.44659  0.04953  0.49262  Biso   1.000  C
  C189     1.0000 0.21087  0.13692  0.34573  Biso   1.000  C
  C190     1.0000 0.23159  0.13952  0.28465  Biso   1.000  C
  N127     1.0000 0.26886  0.12797  0.27464  Biso   1.000  N
  H187     1.0000 0.32796  0.14562  0.24525  Biso   1.000  H
  H188     1.0000 0.30987  0.18323  0.24154  Biso   1.000  H
  C191     1.0000 0.30656  0.03063  0.53046  Biso   1.000  C
  C192     1.0000 0.36772  0.01337  0.52785  Biso   1.000  C
  N128     1.0000 0.39678  0.01622  0.49597  Biso   1.000  N
  H189     1.0000 0.45996  0.03865  0.47273  Biso   1.000  H
  H190     1.0000 0.46246  0.04963  0.51604  Biso   1.000  H
  O63      1.0000 0.20887  0.14929  0.37781  Biso   1.000  O
  N129     1.0000 0.18215  0.09121  0.33206  Biso   1.000  N
  C193     1.0000 0.18788  0.08914  0.29312  Biso   1.000  C
  H191     1.0000 0.22478  0.15553  0.26384  Biso   1.000  H
  C194     1.0000 0.24965  0.07965  0.26999  Biso   1.000  C
  N130     1.0000 0.28616  0.98278  0.52558  Biso   1.000  N
  O64      1.0000 0.28537  0.05234  0.53605  Biso   1.000  O
  C195     1.0000 0.32072  0.96798  0.52033  Biso   1.000  C
  H192     1.0000 0.38247  0.01145  0.55163  Biso   1.000  H
  C196     1.0000 0.37072  0.98306  0.46982  Biso   1.000  C
  C197     1.0000 0.13918  0.05634  0.35182  Biso   1.000  C
  N131     1.0000 0.20411  0.05737  0.28086  Biso   1.000  N
  H193     1.0000 0.15886  0.08372  0.27934  Biso   1.000  H
  O65      1.0000 0.27137  0.06115  0.25729  Biso   1.000  O
  C198     1.0000 0.23532  0.94973  0.52976  Biso   1.000  C
  N132     1.0000 0.32503  0.95586  0.48252  Biso   1.000  N
  H194     1.0000 0.31553  0.94192  0.53784  Biso   1.000  H
  O66      1.0000 0.38568  0.97711  0.44035  Biso   1.000  O
  N133     1.0000 0.13999  0.01505  0.36425  Biso   1.000  N
  H195     1.0000 0.13448  0.07213  0.37354  Biso   1.000  H
  H196     1.0000 0.11117  0.04603  0.33533  Biso   1.000  H
  C199     1.0000 0.17396  0.00585  0.27931  Biso   1.000  C
  N134     1.0000 0.20971  0.93618  0.49520  Biso   1.000  N
  H197     1.0000 0.23084  0.92063  0.54244  Biso   1.000  H
  H198     1.0000 0.22157  0.96452  0.54573  Biso   1.000  H
  C200     1.0000 0.29118  0.91186  0.46526  Biso   1.000  C
  C201     1.0000 0.13746  0.00264  0.40083  Biso   1.000  C
  C202     1.0000 0.12915  0.97533  0.33984  Biso   1.000  C
  N135     1.0000 0.16657  0.98242  0.31482  Biso   1.000  N
  H199     1.0000 0.14248  0.99804  0.26905  Biso   1.000  H
  H200     1.0000 0.18848  0.99283  0.26213  Biso   1.000  H
  C203     1.0000 0.17944  0.95055  0.48551  Biso   1.000  C
  C204     1.0000 0.20699  0.89924  0.47121  Biso   1.000  C
  N136     1.0000 0.25005  0.91211  0.45026  Biso   1.000  N
  H201     1.0000 0.28026  0.88583  0.48374  Biso   1.000  H
  H202     1.0000 0.30734  0.90473  0.44503  Biso   1.000  H
  O67      1.0000 0.14175  0.02956  0.42673  Biso   1.000  O
  N137     1.0000 0.13139  0.95825  0.40304  Biso   1.000  N
  C205     1.0000 0.12777  0.93792  0.36784  Biso   1.000  C
  H203     1.0000 0.09802  0.96352  0.32683  Biso   1.000  H
  C206     1.0000 0.19008  0.95953  0.32456  Biso   1.000  C
  N138     1.0000 0.15644  0.92726  0.45402  Biso   1.000  N
  O68      1.0000 0.17076  0.97832  0.50228  Biso   1.000  O
  C207     1.0000 0.17152  0.89482  0.44187  Biso   1.000  C
  H204     1.0000 0.19555  0.86865  0.48482  Biso   1.000  H
  C208     1.0000 0.24417  0.91603  0.41309  Biso   1.000  C
  C209     1.0000 0.11743  0.93133  0.43711  Biso   1.000  C
  N139     1.0000 0.16897  0.93436  0.35675  Biso   1.000  N
  H205     1.0000 0.09767  0.90662  0.36544  Biso   1.000  H
  O69      1.0000 0.22263  0.95942  0.30787  Biso   1.000  O
  N140     1.0000 0.19882  0.90815  0.40747  Biso   1.000  N
  H206     1.0000 0.14405  0.86155  0.44054  Biso   1.000  H
  O70      1.0000 0.27331  0.92398  0.38901  Biso   1.000  O
  H207     1.0000 0.09044  0.89902  0.43205  Biso   1.000  H
  H208     1.0000 0.10632  0.94702  0.45482  Biso   1.000  H
  C210     1.0000 0.17782  0.89803  0.37091  Biso   1.000  C
  H209     1.0000 0.19923  0.89403  0.35365  Biso   1.000  H
  H210     1.0000 0.14724  0.86743  0.37174  Biso   1.000  H
  O71      1.0000 0.59212  0.73404  0.54551  Biso   1.000  O
  C211     1.0000 0.55926  0.73186  0.56361  Biso   1.000  C
  N141     1.0000 0.52668  0.74420  0.55138  Biso   1.000  N
  N142     1.0000 0.54815  0.71575  0.59936  Biso   1.000  N
  C212     1.0000 0.52101  0.74998  0.51249  Biso   1.000  C
  C213     1.0000 0.48955  0.73250  0.57872  Biso   1.000  C
  C214     1.0000 0.50809  0.71888  0.61323  Biso   1.000  C
  C215     1.0000 0.57198  0.69510  0.61923  Biso   1.000  C
  N143     1.0000 0.53544  0.79786  0.50156  Biso   1.000  N
  H211     1.0000 0.48704  0.72915  0.50585  Biso   1.000  H
  H212     1.0000 0.53984  0.73896  0.49827  Biso   1.000  H
  N144     1.0000 0.48560  0.77340  0.59128  Biso   1.000  N
  H213     1.0000 0.45812  0.70566  0.57028  Biso   1.000  H
  N145     1.0000 0.52179  0.75925  0.63783  Biso   1.000  N
  H214     1.0000 0.48324  0.68826  0.62446  Biso   1.000  H
  N146     1.0000 0.60909  0.72801  0.64428  Biso   1.000  N
  H215     1.0000 0.54794  0.66747  0.63368  Biso   1.000  H
  H216     1.0000 0.58633  0.68298  0.60116  Biso   1.000  H
  C216     1.0000 0.57697  0.82639  0.48313  Biso   1.000  C
  C217     1.0000 0.50619  0.81950  0.50583  Biso   1.000  C
  C218     1.0000 0.46716  0.79729  0.56964  Biso   1.000  C
  C219     1.0000 0.50610  0.78920  0.62529  Biso   1.000  C
  C220     1.0000 0.53387  0.75939  0.67635  Biso   1.000  C
  C221     1.0000 0.65658  0.74513  0.63899  Biso   1.000  C
  C222     1.0000 0.59883  0.73775  0.68133  Biso   1.000  C
  O72      1.0000 0.60700  0.81605  0.47414  Biso   1.000  O
  N147     1.0000 0.57868  0.86889  0.47511  Biso   1.000  N
  N148     1.0000 0.50136  0.83184  0.54346  Biso   1.000  N
  H217     1.0000 0.47442  0.80007  0.49368  Biso   1.000  H
  C223     1.0000 0.53572  0.86857  0.48692  Biso   1.000  C
  H218     1.0000 0.43904  0.77315  0.55578  Biso   1.000  H
  H219     1.0000 0.45615  0.81398  0.58647  Biso   1.000  H
  O73      1.0000 0.50963  0.82343  0.64179  Biso   1.000  O
  N149     1.0000 0.58264  0.77269  0.68203  Biso   1.000  N
  H220     1.0000 0.51334  0.72716  0.68676  Biso   1.000  H
  H221     1.0000 0.52703  0.78178  0.69008  Biso   1.000  H
  O74      1.0000 0.67417  0.73817  0.61135  Biso   1.000  O
  N150     1.0000 0.68015  0.77026  0.66946  Biso   1.000  N
  C224     1.0000 0.64763  0.76410  0.69990  Biso   1.000  C
  H222     1.0000 0.57644  0.70787  0.69487  Biso   1.000  H
  C225     1.0000 0.61454  0.90436  0.45189  Biso   1.000  C
  C226     1.0000 0.51984  0.87973  0.54817  Biso   1.000  C
  N151     1.0000 0.54218  0.90194  0.51554  Biso   1.000  N
  H223     1.0000 0.51824  0.87177  0.46537  Biso   1.000  H
  C227     1.0000 0.61326  0.81195  0.70328  Biso   1.000  C
  C228     1.0000 0.72991  0.78506  0.67677  Biso   1.000  C
  N152     1.0000 0.65158  0.80781  0.71297  Biso   1.000  N
  H224     1.0000 0.65034  0.74506  0.72058  Biso   1.000  H
  N153     1.0000 0.64486  0.94975  0.47104  Biso   1.000  N
  H225     1.0000 0.63482  0.89206  0.44206  Biso   1.000  H
  H226     1.0000 0.59894  0.91028  0.43058  Biso   1.000  H
  O75      1.0000 0.51673  0.89987  0.57565  Biso   1.000  O
  C229     1.0000 0.55342  0.95047  0.50738  Biso   1.000  C
  O76      1.0000 0.60608  0.84471  0.71142  Biso   1.000  O
  N154     1.0000 0.76009  0.83455  0.68120  Biso   1.000  N
  H227     1.0000 0.74213  0.77419  0.65607  Biso   1.000  H
  H228     1.0000 0.73154  0.76887  0.69946  Biso   1.000  H
  C230     1.0000 0.68538  0.83737  0.74083  Biso   1.000  C
  C231     1.0000 0.69342  0.96936  0.46954  Biso   1.000  C
  C232     1.0000 0.63229  0.98662  0.47215  Biso   1.000  C
  N155     1.0000 0.60323  0.98377  0.50403  Biso   1.000  N
  H229     1.0000 0.54004  0.96138  0.52727  Biso   1.000  H
  H230     1.0000 0.53752  0.95036  0.48396  Biso   1.000  H
  C233     1.0000 0.78911  0.86307  0.65427  Biso   1.000  C
  C234     1.0000 0.76842  0.86047  0.71535  Biso   1.000  C
  N156     1.0000 0.73114  0.87206  0.72536  Biso   1.000  N
  H231     1.0000 0.67202  0.85437  0.75475  Biso   1.000  H
  H232     1.0000 0.69015  0.81676  0.75846  Biso   1.000  H
  O77      1.0000 0.71462  0.94765  0.46395  Biso   1.000  O
  N157     1.0000 0.71383  0.01721  0.47442  Biso   1.000  N
  H233     1.0000 0.61753  0.98858  0.44837  Biso   1.000  H
  C235     1.0000 0.67926  0.03201  0.47967  Biso   1.000  C
  C236     1.0000 0.62929  0.01693  0.53018  Biso   1.000  C
  O78      1.0000 0.79114  0.85070  0.62219  Biso   1.000  O
  N158     1.0000 0.81788  0.90882  0.66794  Biso   1.000  N
  C237     1.0000 0.81213  0.91085  0.70688  Biso   1.000  C
  H234     1.0000 0.77523  0.84446  0.73616  Biso   1.000  H
  C238     1.0000 0.75036  0.92034  0.73001  Biso   1.000  C
  C239     1.0000 0.76463  0.05027  0.47024  Biso   1.000  C
  N159     1.0000 0.67498  0.04413  0.51748  Biso   1.000  N
  H235     1.0000 0.68448  0.05807  0.46216  Biso   1.000  H
  O79      1.0000 0.61436  0.02288  0.55965  Biso   1.000  O
  C240     1.0000 0.86084  0.94366  0.64818  Biso   1.000  C
  N160     1.0000 0.79591  0.94262  0.71914  Biso   1.000  N
  H236     1.0000 0.84112  0.91627  0.72066  Biso   1.000  H
  O80      1.0000 0.72866  0.93888  0.74271  Biso   1.000  O
  N161     1.0000 0.79027  0.06381  0.50480  Biso   1.000  N
  H237     1.0000 0.76914  0.07936  0.45756  Biso   1.000  H
  H238     1.0000 0.77847  0.03547  0.45427  Biso   1.000  H
  C241     1.0000 0.70882  0.08817  0.53474  Biso   1.000  C
  N162     1.0000 0.86001  0.98498  0.63575  Biso   1.000  N
  H239     1.0000 0.86554  0.92786  0.62646  Biso   1.000  H
  H240     1.0000 0.88884  0.95396  0.66467  Biso   1.000  H
  C242     1.0000 0.82604  0.99418  0.72069  Biso   1.000  C
  C243     1.0000 0.82059  0.04948  0.51449  Biso   1.000  C
  C244     1.0000 0.79305  0.10075  0.52879  Biso   1.000  C
  N163     1.0000 0.75001  0.08792  0.54974  Biso   1.000  N
  H241     1.0000 0.71975  0.11416  0.51626  Biso   1.000  H
  H242     1.0000 0.69267  0.09526  0.55497  Biso   1.000  H
  C245     1.0000 0.86252  0.99735  0.59917  Biso   1.000  C
  C246     1.0000 0.87086  0.02467  0.66016  Biso   1.000  C
  N164     1.0000 0.83344  0.01757  0.68518  Biso   1.000  N
  H243     1.0000 0.85753  0.00195  0.73095  Biso   1.000  H
  H244     1.0000 0.81153  0.00716  0.73787  Biso   1.000  H
  O81      1.0000 0.82919  0.02167  0.49772  Biso   1.000  O
  N165     1.0000 0.84356  0.07276  0.54598  Biso   1.000  N
  H245     1.0000 0.80444  0.13138  0.51518  Biso   1.000  H
  C247     1.0000 0.82846  0.10518  0.55813  Biso   1.000  C
  C248     1.0000 0.75586  0.08400  0.58691  Biso   1.000  C
  N166     1.0000 0.86861  0.04178  0.59696  Biso   1.000  N
  O82      1.0000 0.85826  0.97043  0.57327  Biso   1.000  O
  C249     1.0000 0.87224  0.06207  0.63216  Biso   1.000  C
  H246     1.0000 0.90196  0.03647  0.67317  Biso   1.000  H
  C250     1.0000 0.80996  0.04046  0.67544  Biso   1.000  C
  C251     1.0000 0.88255  0.06866  0.56289  Biso   1.000  C
  N167     1.0000 0.80119  0.09184  0.59253  Biso   1.000  N
  H247     1.0000 0.85598  0.13848  0.55946  Biso   1.000  H
  O83      1.0000 0.72664  0.07601  0.61099  Biso   1.000  O
  N168     1.0000 0.83098  0.06563  0.64325  Biso   1.000  N
  H248     1.0000 0.90235  0.09337  0.63456  Biso   1.000  H
  O84      1.0000 0.77738  0.04057  0.69213  Biso   1.000  O
  H249     1.0000 0.90957  0.10097  0.56795  Biso   1.000  H
  H250     1.0000 0.89363  0.05298  0.54518  Biso   1.000  H
  C252     1.0000 0.82213  0.10197  0.62909  Biso   1.000  C
  H251     1.0000 0.80075  0.10596  0.64635  Biso   1.000  H
  H252     1.0000 0.85274  0.13256  0.62826  Biso   1.000  H
  C253     1.0000 0.56870  0.61641  0.19643  Biso   1.000  C
  N169     1.0000 0.54307  0.60283  0.16187  Biso   1.000  N
  N170     1.0000 0.61953  0.64946  0.19225  Biso   1.000  N
  H253     1.0000 0.56422  0.58732  0.20910  Biso   1.000  H
  H254     1.0000 0.55491  0.63121  0.21240  Biso   1.000  H
  C254     1.0000 0.54033  0.56592  0.13787  Biso   1.000  C
  C255     1.0000 0.51280  0.61720  0.15218  Biso   1.000  C
  C256     1.0000 0.63990  0.69731  0.19712  Biso   1.000  C
  C257     1.0000 0.65409  0.63467  0.18699  Biso   1.000  C
  N171     1.0000 0.58337  0.57876  0.11692  Biso   1.000  N
  H255     1.0000 0.52891  0.53529  0.15149  Biso   1.000  H
  C258     1.0000 0.50490  0.56150  0.10854  Biso   1.000  C
  N172     1.0000 0.48976  0.59391  0.12069  Biso   1.000  N
  O85      1.0000 0.50413  0.64501  0.16895  Biso   1.000  O
  O86      1.0000 0.61871  0.71903  0.20271  Biso   1.000  O
  N173     1.0000 0.68849  0.71692  0.19563  Biso   1.000  N
  N174     1.0000 0.65836  0.62251  0.14919  Biso   1.000  N
  C259     1.0000 0.70106  0.68006  0.19452  Biso   1.000  C
  H256     1.0000 0.64891  0.60860  0.20451  Biso   1.000  H
  C260     1.0000 0.57749  0.58268  0.07976  Biso   1.000  C
  C261     1.0000 0.62450  0.57851  0.13192  Biso   1.000  C
  N175     1.0000 0.53216  0.57484  0.07414  Biso   1.000  N
  H257     1.0000 0.47741  0.52820  0.10721  Biso   1.000  H
  C262     1.0000 0.45080  0.59801  0.10378  Biso   1.000  C
  C263     1.0000 0.71881  0.76231  0.21478  Biso   1.000  C
  C264     1.0000 0.70406  0.64975  0.13649  Biso   1.000  C
  N176     1.0000 0.73012  0.68291  0.16264  Biso   1.000  N
  H258     1.0000 0.71580  0.67809  0.21829  Biso   1.000  H
  O87      1.0000 0.60668  0.59067  0.05568  Biso   1.000  O
  H259     1.0000 0.61361  0.55252  0.15041  Biso   1.000  H
  H260     1.0000 0.64072  0.57141  0.11169  Biso   1.000  H
  C265     1.0000 0.51120  0.56471  0.03758  Biso   1.000  C
  N177     1.0000 0.46474  0.62490  0.06971  Biso   1.000  N
  H261     1.0000 0.42381  0.56571  0.09871  Biso   1.000  H
  H262     1.0000 0.43969  0.61370  0.12149  Biso   1.000  H
  N178     1.0000 0.75465  0.79779  0.19156  Biso   1.000  N
  H263     1.0000 0.69850  0.77461  0.22460  Biso   1.000  H
  H264     1.0000 0.73441  0.75639  0.23609  Biso   1.000  H
  O88      1.0000 0.71901  0.64376  0.10702  Biso   1.000  O
  C266     1.0000 0.77992  0.71617  0.15929  Biso   1.000  C
  N179     1.0000 0.50234  0.60104  0.02341  Biso   1.000  N
  H265     1.0000 0.53260  0.56072  0.02031  Biso   1.000  H
  H266     1.0000 0.48061  0.53412  0.03841  Biso   1.000  H
  C267     1.0000 0.47079  0.66929  0.06750  Biso   1.000  C
  C268     1.0000 0.46111  0.60461  0.03451  Biso   1.000  C
  C269     1.0000 0.75638  0.84029  0.18353  Biso   1.000  C
  C270     1.0000 0.79760  0.79811  0.17974  Biso   1.000  C
  N180     1.0000 0.79117  0.76474  0.15113  Biso   1.000  N
  H267     1.0000 0.79329  0.70530  0.13939  Biso   1.000  H
  H268     1.0000 0.79580  0.71632  0.18270  Biso   1.000  H
  C271     1.0000 0.52342  0.62622  0.99123  Biso   1.000  C
  O89      1.0000 0.47508  0.69621  0.09340  Biso   1.000  O
  N181     1.0000 0.47332  0.68170  0.03091  Biso   1.000  N
  H269     1.0000 0.43101  0.57330  0.03210  Biso   1.000  H
  C272     1.0000 0.46249  0.64201  0.00650  Biso   1.000  C
  O90      1.0000 0.72630  0.85060  0.19253  Biso   1.000  O
  N182     1.0000 0.79788  0.86882  0.16510  Biso   1.000  N
  C273     1.0000 0.82715  0.84714  0.16084  Biso   1.000  C
  H270     1.0000 0.81511  0.79490  0.20130  Biso   1.000  H
  C274     1.0000 0.81352  0.78695  0.11850  Biso   1.000  C
  O91      1.0000 0.55598  0.62611  0.97454  Biso   1.000  O
  N183     1.0000 0.49994  0.64911  0.98149  Biso   1.000  N
  C275     1.0000 0.47250  0.72298  0.01849  Biso   1.000  C
  H271     1.0000 0.43139  0.63021  0.99350  Biso   1.000  H
  C276     1.0000 0.81234  0.91670  0.15417  Biso   1.000  C
  N184     1.0000 0.83199  0.83484  0.12320  Biso   1.000  N
  H272     1.0000 0.85890  0.86660  0.17299  Biso   1.000  H
  O92      1.0000 0.81660  0.76681  0.09102  Biso   1.000  O
  C277     1.0000 0.50728  0.67250  0.94598  Biso   1.000  C
  H273     1.0000 0.46782  0.73882  0.04021  Biso   1.000  H
  H274     1.0000 0.44452  0.71272  0.00199  Biso   1.000  H
  N185     1.0000 0.51547  0.75786  0.99873  Biso   1.000  N
  N186     1.0000 0.80665  0.92248  0.11529  Biso   1.000  N
  H275     1.0000 0.84630  0.93749  0.16081  Biso   1.000  H
  H276     1.0000 0.79352  0.92772  0.16840  Biso   1.000  H
  C278     1.0000 0.86619  0.86939  0.09703  Biso   1.000  C
  N187     1.0000 0.53745  0.72405  0.94753  Biso   1.000  N
  H277     1.0000 0.47581  0.66469  0.93571  Biso   1.000  H
  H278     1.0000 0.52182  0.65952  0.92879  Biso   1.000  H
  C279     1.0000 0.54421  0.80360  0.01240  Biso   1.000  C
  C280     1.0000 0.52120  0.75579  0.95979  Biso   1.000  C
  C281     1.0000 0.77409  0.93481  0.10306  Biso   1.000  C
  C282     1.0000 0.84377  0.93417  0.08795  Biso   1.000  C
  N188     1.0000 0.84773  0.89324  0.07538  Biso   1.000  N
  H279     1.0000 0.89430  0.89349  0.11089  Biso   1.000  H
  H280     1.0000 0.87721  0.85270  0.08020  Biso   1.000  H
  C283     1.0000 0.58299  0.74634  0.93665  Biso   1.000  C
  O93      1.0000 0.54222  0.81597  0.04447  Biso   1.000  O
  N189     1.0000 0.57323  0.83213  0.98547  Biso   1.000  N
  H281     1.0000 0.49220  0.75040  0.94601  Biso   1.000  H
  C284     1.0000 0.56494  0.80620  0.95132  Biso   1.000  C
  O94      1.0000 0.74123  0.93264  0.12116  Biso   1.000  O
  N190     1.0000 0.78518  0.95093  0.06730  Biso   1.000  N
  C285     1.0000 0.82524  0.94776  0.05344  Biso   1.000  C
  H282     1.0000 0.87520  0.96102  0.09639  Biso   1.000  H
  C286     1.0000 0.82725  0.87748  0.04137  Biso   1.000  C
  O95      1.0000 0.60469  0.72780  0.92395  Biso   1.000  O
  N191     1.0000 0.60219  0.79462  0.94130  Biso   1.000  N
  C287     1.0000 0.60341  0.88162  0.98990  Biso   1.000  C
  H283     1.0000 0.55812  0.82221  0.93051  Biso   1.000  H
  C288     1.0000 0.76138  0.97157  0.04743  Biso   1.000  C
  N192     1.0000 0.81154  0.90743  0.02884  Biso   1.000  N
  H284     1.0000 0.85012  0.97842  0.04220  Biso   1.000  H
  O96      1.0000 0.82371  0.84321  0.02488  Biso   1.000  O
  C289     1.0000 0.64794  0.82931  0.92583  Biso   1.000  C
  H285     1.0000 0.59119  0.89249  0.01060  Biso   1.000  H
  N193     1.0000 0.65318  0.89641  0.99720  Biso   1.000  N
  H286     1.0000 0.60181  0.89780  0.96721  Biso   1.000  H
  N194     1.0000 0.72427  0.93866  0.02239  Biso   1.000  N
  H287     1.0000 0.78541  0.99921  0.03299  Biso   1.000  H
  H288     1.0000 0.74700  0.98370  0.06550  Biso   1.000  H
  C290     1.0000 0.79945  0.90729  0.99031  Biso   1.000  C
  N195     1.0000 0.68174  0.85887  0.95370  Biso   1.000  N
  H289     1.0000 0.66130  0.81230  0.91191  Biso   1.000  H
  H290     1.0000 0.64321  0.84992  0.90821  Biso   1.000  H
  C291     1.0000 0.67674  0.92155  0.02767  Biso   1.000  C
  C292     1.0000 0.68567  0.90255  0.96676  Biso   1.000  C
  C293     1.0000 0.73453  0.92893  0.98533  Biso   1.000  C
  N196     1.0000 0.75071  0.89399  0.98464  Biso   1.000  N
  H291     1.0000 0.82001  0.93952  0.97991  Biso   1.000  H
  H292     1.0000 0.80629  0.88490  0.97659  Biso   1.000  H
  C294     1.0000 0.72006  0.85473  0.96339  Biso   1.000  C
  O97      1.0000 0.65919  0.92850  0.05532  Biso   1.000  O
  H293     1.0000 0.68299  0.92159  0.94609  Biso   1.000  H
  H294     1.0000 0.75691  0.95881  0.97180  Biso   1.000  H
  O98      1.0000 0.72727  0.82196  0.95525  Biso   1.000  O
  C295     1.0000 0.43130  0.38362  0.80357  Biso   1.000  C
  N197     1.0000 0.38050  0.35056  0.80775  Biso   1.000  N
  N198     1.0000 0.45694  0.39717  0.83813  Biso   1.000  N
  H295     1.0000 0.43581  0.41271  0.79090  Biso   1.000  H
  H296     1.0000 0.44510  0.36878  0.78760  Biso   1.000  H
  C296     1.0000 0.36010  0.30271  0.80288  Biso   1.000  C
  C297     1.0000 0.34589  0.36533  0.81301  Biso   1.000  C
  C298     1.0000 0.48721  0.38280  0.84782  Biso   1.000  C
  C299     1.0000 0.45968  0.43407  0.86213  Biso   1.000  C
  N199     1.0000 0.31154  0.28310  0.80437  Biso   1.000  N
  O99      1.0000 0.38129  0.28100  0.79729  Biso   1.000  O
  C300     1.0000 0.29895  0.31994  0.80548  Biso   1.000  C
  N200     1.0000 0.34165  0.37748  0.85081  Biso   1.000  N
  H297     1.0000 0.35111  0.39139  0.79549  Biso   1.000  H
  O100     1.0000 0.49585  0.35499  0.83105  Biso   1.000  O
  N201     1.0000 0.51022  0.40608  0.87931  Biso   1.000  N
  N202     1.0000 0.41664  0.42123  0.88308  Biso   1.000  N
  H298     1.0000 0.47110  0.46470  0.84851  Biso   1.000  H
  C301     1.0000 0.49508  0.43849  0.89146  Biso   1.000  C
  C302     1.0000 0.28120  0.23768  0.78522  Biso   1.000  C
  N203     1.0000 0.26989  0.31708  0.83736  Biso   1.000  N
  H299     1.0000 0.28418  0.32190  0.78171  Biso   1.000  H
  C303     1.0000 0.29594  0.35028  0.86351  Biso   1.000  C
  C304     1.0000 0.37548  0.42148  0.86808  Biso   1.000  C
  C305     1.0000 0.54919  0.40201  0.89622  Biso   1.000  C
  C306     1.0000 0.42252  0.41731  0.92024  Biso   1.000  C
  N204     1.0000 0.46784  0.42519  0.92586  Biso   1.000  N
  H300     1.0000 0.52260  0.47179  0.89279  Biso   1.000  H
  N205     1.0000 0.24533  0.20220  0.80844  Biso   1.000  N
  H301     1.0000 0.30150  0.22541  0.77540  Biso   1.000  H
  H302     1.0000 0.26560  0.24360  0.76391  Biso   1.000  H
  C307     1.0000 0.22009  0.28382  0.84071  Biso   1.000  C
  O101     1.0000 0.28100  0.35623  0.89298  Biso   1.000  O
  H303     1.0000 0.38639  0.44751  0.84959  Biso   1.000  H
  H304     1.0000 0.35931  0.42861  0.88831  Biso   1.000  H
  N206     1.0000 0.53527  0.37509  0.93029  Biso   1.000  N
  H305     1.0000 0.57621  0.43432  0.90129  Biso   1.000  H
  H306     1.0000 0.56029  0.38629  0.87851  Biso   1.000  H
  O102     1.0000 0.39330  0.40932  0.94432  Biso   1.000  O
  C308     1.0000 0.48880  0.43532  0.96242  Biso   1.000  C
  C309     1.0000 0.24363  0.15970  0.81647  Biso   1.000  C
  C310     1.0000 0.20239  0.20192  0.82026  Biso   1.000  C
  N207     1.0000 0.20884  0.23525  0.84887  Biso   1.000  N
  H307     1.0000 0.20669  0.29469  0.86061  Biso   1.000  H
  H308     1.0000 0.20420  0.28371  0.81730  Biso   1.000  H
  C311     1.0000 0.52919  0.33070  0.93250  Biso   1.000  C
  C312     1.0000 0.53892  0.39542  0.96549  Biso   1.000  C
  N208     1.0000 0.49765  0.39898  0.97659  Biso   1.000  N
  H309     1.0000 0.46739  0.43931  0.97969  Biso   1.000  H
  H310     1.0000 0.51941  0.46591  0.96159  Biso   1.000  H
  O103     1.0000 0.27368  0.14940  0.80747  Biso   1.000  O
  N209     1.0000 0.20210  0.13118  0.83490  Biso   1.000  N
  C313     1.0000 0.17286  0.15285  0.83916  Biso   1.000  C
  H311     1.0000 0.18490  0.20509  0.79870  Biso   1.000  H
  C314     1.0000 0.18650  0.21304  0.88150  Biso   1.000  C
  O104     1.0000 0.52494  0.30378  0.90660  Biso   1.000  O
  N210     1.0000 0.52666  0.31830  0.96909  Biso   1.000  N
  H312     1.0000 0.56900  0.42669  0.96790  Biso   1.000  H
  C315     1.0000 0.53751  0.35802  0.99350  Biso   1.000  C
  C316     1.0000 0.47661  0.37381  0.00877  Biso   1.000  C
  C317     1.0000 0.18767  0.08329  0.84583  Biso   1.000  C
  N211     1.0000 0.16802  0.16516  0.87680  Biso   1.000  N
  H313     1.0000 0.14108  0.13339  0.82701  Biso   1.000  H
  O105     1.0000 0.18338  0.23319  0.90898  Biso   1.000  O
  C318     1.0000 0.52751  0.27701  0.98151  Biso   1.000  C
  N212     1.0000 0.50007  0.35088  0.01851  Biso   1.000  N
  H314     1.0000 0.56861  0.36982  0.00650  Biso   1.000  H
  O106     1.0000 0.44405  0.37392  0.02546  Biso   1.000  O
  N213     1.0000 0.19335  0.07755  0.88471  Biso   1.000  N
  H315     1.0000 0.15372  0.06250  0.83919  Biso   1.000  H
  H316     1.0000 0.20651  0.07231  0.83160  Biso   1.000  H
  C319     1.0000 0.13382  0.13061  0.90297  Biso   1.000  C
  H317     1.0000 0.53221  0.26121  0.95979  Biso   1.000  H
  H318     1.0000 0.55551  0.28731  0.99801  Biso   1.000  H
  N214     1.0000 0.48454  0.24214  0.00127  Biso   1.000  N
  C320     1.0000 0.49270  0.32749  0.05402  Biso   1.000  C
  C321     1.0000 0.22592  0.06518  0.89694  Biso   1.000  C
  C322     1.0000 0.15623  0.06586  0.91205  Biso   1.000  C
  N215     1.0000 0.15228  0.10675  0.92462  Biso   1.000  N
  H319     1.0000 0.10571  0.10650  0.88911  Biso   1.000  H
  H320     1.0000 0.12280  0.14729  0.91980  Biso   1.000  H
  C323     1.0000 0.45577  0.19639  0.98760  Biso   1.000  C
  C324     1.0000 0.47881  0.24420  0.04021  Biso   1.000  C
  N216     1.0000 0.46258  0.27597  0.05247  Biso   1.000  N
  H321     1.0000 0.52421  0.33530  0.06429  Biso   1.000  H
  H322     1.0000 0.47821  0.34051  0.07121  Biso   1.000  H
  O107     1.0000 0.25880  0.06739  0.87884  Biso   1.000  O
  N217     1.0000 0.21482  0.04910  0.93270  Biso   1.000  N
  C325     1.0000 0.17477  0.05224  0.94656  Biso   1.000  C
  H323     1.0000 0.12480  0.03901  0.90361  Biso   1.000  H
  C326     1.0000 0.17276  0.12251  0.95863  Biso   1.000  C
  N218     1.0000 0.42675  0.16787  0.01453  Biso   1.000  N
  O108     1.0000 0.45781  0.18405  0.95553  Biso   1.000  O
  C327     1.0000 0.43507  0.19379  0.04868  Biso   1.000  C
  H324     1.0000 0.50778  0.24959  0.05399  Biso   1.000  H
  C328     1.0000 0.41704  0.25369  0.06335  Biso   1.000  C
  C329     1.0000 0.23863  0.02842  0.95257  Biso   1.000  C
  N219     1.0000 0.18846  0.09260  0.97116  Biso   1.000  N
  H325     1.0000 0.14991  0.02161  0.95780  Biso   1.000  H
  O109     1.0000 0.17630  0.15678  0.97512  Biso   1.000  O
  C330     1.0000 0.39657  0.11838  0.01010  Biso   1.000  C
  N220     1.0000 0.39779  0.20538  0.05870  Biso   1.000  N
  H326     1.0000 0.44191  0.17781  0.06949  Biso   1.000  H
  O110     1.0000 0.39532  0.27219  0.07605  Biso   1.000  O
  N221     1.0000 0.27576  0.06136  0.97761  Biso   1.000  N
  H327     1.0000 0.21460  0.00078  0.96701  Biso   1.000  H
  H328     1.0000 0.25298  0.01629  0.93450  Biso   1.000  H
  C331     1.0000 0.20053  0.09270  0.00969  Biso   1.000  C
  N222     1.0000 0.34680  0.10358  0.00280  Biso   1.000  N
  H329     1.0000 0.40879  0.10750  0.98940  Biso   1.000  H
  H330     1.0000 0.39820  0.10219  0.03279  Biso   1.000  H
  C332     1.0000 0.35206  0.17072  0.07417  Biso   1.000  C
  C333     1.0000 0.32324  0.07844  0.97233  Biso   1.000  C
  C334     1.0000 0.26550  0.07110  0.01467  Biso   1.000  C
  N223     1.0000 0.24930  0.10600  0.01536  Biso   1.000  N
  H331     1.0000 0.18001  0.06051  0.02009  Biso   1.000  H
  H332     1.0000 0.19369  0.11510  0.02341  Biso   1.000  H
  C335     1.0000 0.31431  0.09745  0.03324  Biso   1.000  C
  N224     1.0000 0.31824  0.14112  0.04630  Biso   1.000  N
  H333     1.0000 0.33868  0.18769  0.08809  Biso   1.000  H
  H334     1.0000 0.35682  0.15011  0.09179  Biso   1.000  H
  O111     1.0000 0.34082  0.07149  0.94468  Biso   1.000  O
  H335     1.0000 0.24312  0.04122  0.02820  Biso   1.000  H
  C336     1.0000 0.27994  0.14530  0.03661  Biso   1.000  C
  H336     1.0000 0.31702  0.07841  0.05391  Biso   1.000  H
  O112     1.0000 0.27274  0.17803  0.04475  Biso   1.000  O
  C337     1.0000 0.51283  0.20416  0.67317  Biso   1.000  C
  N225     1.0000 0.48250  0.16672  0.64815  Biso   1.000  N
  N226     1.0000 0.54171  0.19332  0.69758  Biso   1.000  N
  C338     1.0000 0.47684  0.20555  0.70118  Biso   1.000  C
  H337     1.0000 0.53214  0.23525  0.66016  Biso   1.000  H
  C339     1.0000 0.49853  0.15938  0.61265  Biso   1.000  C
  C340     1.0000 0.43612  0.14326  0.65789  Biso   1.000  C
  C341     1.0000 0.58383  0.19418  0.68515  Biso   1.000  C
  C342     1.0000 0.53183  0.19586  0.73416  Biso   1.000  C
  N227     1.0000 0.43202  0.16434  0.69008  Biso   1.000  N
  N228     1.0000 0.49350  0.20195  0.73638  Biso   1.000  N
  H338     1.0000 0.47563  0.23568  0.69877  Biso   1.000  H
  N229     1.0000 0.51994  0.12922  0.61420  Biso   1.000  N
  H339     1.0000 0.52223  0.19086  0.60238  Biso   1.000  H
  H340     1.0000 0.47104  0.14487  0.59546  Biso   1.000  H
  O113     1.0000 0.40348  0.11071  0.64121  Biso   1.000  O
  N230     1.0000 0.57575  0.15121  0.66539  Biso   1.000  N
  H341     1.0000 0.60432  0.19885  0.70688  Biso   1.000  H
  H342     1.0000 0.60153  0.22217  0.66866  Biso   1.000  H
  O114     1.0000 0.55451  0.19161  0.76007  Biso   1.000  O
  C343     1.0000 0.38682  0.15546  0.70425  Biso   1.000  C
  C344     1.0000 0.48054  0.21586  0.77044  Biso   1.000  C
  C345     1.0000 0.56794  0.14547  0.62646  Biso   1.000  C
  C346     1.0000 0.49668  0.08368  0.60332  Biso   1.000  C
  C347     1.0000 0.59270  0.12244  0.67906  Biso   1.000  C
  N231     1.0000 0.37600  0.13449  0.74081  Biso   1.000  N
  H343     1.0000 0.36143  0.13406  0.68698  Biso   1.000  H
  H344     1.0000 0.38683  0.18605  0.70508  Biso   1.000  H
  N232     1.0000 0.43749  0.17689  0.78735  Biso   1.000  N
  H345     1.0000 0.47525  0.24288  0.76538  Biso   1.000  H
  H346     1.0000 0.50735  0.22698  0.78816  Biso   1.000  H
  H347     1.0000 0.59154  0.17446  0.61267  Biso   1.000  H
  C348     1.0000 0.57461  0.10176  0.61799  Biso   1.000  C
  O115     1.0000 0.45643  0.06197  0.59062  Biso   1.000  O
  N233     1.0000 0.52576  0.06446  0.60797  Biso   1.000  N
  N234     1.0000 0.59221  0.09342  0.65214  Biso   1.000  N
  O116     1.0000 0.60709  0.12447  0.71114  Biso   1.000  O
  C349     1.0000 0.38995  0.16177  0.77520  Biso   1.000  C
  C350     1.0000 0.33852  0.08917  0.74642  Biso   1.000  C
  C351     1.0000 0.43774  0.15385  0.81885  Biso   1.000  C
  H348     1.0000 0.59744  0.10857  0.59718  Biso   1.000  H
  C352     1.0000 0.51469  0.01872  0.59250  Biso   1.000  C
  C353     1.0000 0.61152  0.06325  0.65657  Biso   1.000  C
  C354     1.0000 0.35894  0.12636  0.80454  Biso   1.000  C
  H349     1.0000 0.38412  0.18926  0.77388  Biso   1.000  H
  O117     1.0000 0.31731  0.05997  0.72235  Biso   1.000  O
  N235     1.0000 0.32872  0.08329  0.78359  Biso   1.000  N
  O118     1.0000 0.47421  0.16255  0.83562  Biso   1.000  O
  N236     1.0000 0.39309  0.12358  0.82853  Biso   1.000  N
  H350     1.0000 0.48433  0.00538  0.57858  Biso   1.000  H
  H351     1.0000 0.54003  0.02346  0.57487  Biso   1.000  H
  N237     1.0000 0.51041  0.98492  0.62037  Biso   1.000  N
  N238     1.0000 0.57657  0.01348  0.66387  Biso   1.000  N
  H352     1.0000 0.63465  0.07548  0.67727  Biso   1.000  H
  H353     1.0000 0.62934  0.06486  0.63387  Biso   1.000  H
  H354     1.0000 0.33975  0.13777  0.81815  Biso   1.000  H
  C355     1.0000 0.28734  0.04214  0.79859  Biso   1.000  C
  C356     1.0000 0.38103  0.09798  0.86310  Biso   1.000  C
  C357     1.0000 0.55023  0.98100  0.63343  Biso   1.000  C
  C358     1.0000 0.46797  0.94659  0.63005  Biso   1.000  C
  C359     1.0000 0.57813  0.98991  0.69434  Biso   1.000  C
  N239     1.0000 0.29750  0.00831  0.81586  Biso   1.000  N
  H355     1.0000 0.27223  0.05306  0.81707  Biso   1.000  H
  H356     1.0000 0.26402  0.02596  0.77836  Biso   1.000  H
  N240     1.0000 0.36326  0.04714  0.85892  Biso   1.000  N
  H357     1.0000 0.35644  0.10247  0.87577  Biso   1.000  H
  H358     1.0000 0.40963  0.11178  0.87906  Biso   1.000  H
  H359     1.0000 0.57195  0.98367  0.61276  Biso   1.000  H
  C360     1.0000 0.52772  0.93215  0.65200  Biso   1.000  C
  O119     1.0000 0.42799  0.93939  0.62192  Biso   1.000  O
  N241     1.0000 0.47662  0.91596  0.65131  Biso   1.000  N
  O120     1.0000 0.60266  0.00749  0.72199  Biso   1.000  O
  N242     1.0000 0.54774  0.94242  0.68905  Biso   1.000  N
  C361     1.0000 0.31389  0.01255  0.85366  Biso   1.000  C
  C362     1.0000 0.27897  0.96260  0.80315  Biso   1.000  C
  C363     1.0000 0.39075  0.02678  0.86379  Biso   1.000  C
  H360     1.0000 0.53521  0.90976  0.63847  Biso   1.000  H
  C364     1.0000 0.44113  0.86722  0.65698  Biso   1.000  C
  C365     1.0000 0.54354  0.90530  0.71410  Biso   1.000  C
  H361     1.0000 0.29302  0.01776  0.87118  Biso   1.000  H
  C366     1.0000 0.31232  0.96563  0.86119  Biso   1.000  C
  O121     1.0000 0.25810  0.94766  0.77368  Biso   1.000  O
  N243     1.0000 0.28612  0.93657  0.82931  Biso   1.000  N
  O122     1.0000 0.43364  0.04796  0.86938  Biso   1.000  O
  N244     1.0000 0.36176  0.97818  0.86229  Biso   1.000  N
  N245     1.0000 0.42919  0.85513  0.69550  Biso   1.000  N
  H362     1.0000 0.45285  0.84668  0.64658  Biso   1.000  H
  H363     1.0000 0.41192  0.86037  0.64325  Biso   1.000  H
  N246     1.0000 0.49905  0.88148  0.73397  Biso   1.000  N
  H364     1.0000 0.54715  0.88127  0.69965  Biso   1.000  H
  H365     1.0000 0.57002  0.91967  0.73217  Biso   1.000  H
  H366     1.0000 0.29564  0.95087  0.88496  Biso   1.000  H
  C367     1.0000 0.26961  0.88676  0.82596  Biso   1.000  C
  C368     1.0000 0.37681  0.94787  0.88144  Biso   1.000  C
  C369     1.0000 0.45586  0.84140  0.72011  Biso   1.000  C
  C370     1.0000 0.38353  0.83941  0.70804  Biso   1.000  C
  C371     1.0000 0.49401  0.89257  0.76972  Biso   1.000  C
  N247     1.0000 0.30687  0.87549  0.81779  Biso   1.000  N
  H367     1.0000 0.24531  0.87335  0.80606  Biso   1.000  H
  H368     1.0000 0.25379  0.87086  0.84937  Biso   1.000  H
  N248     1.0000 0.37647  0.91200  0.85823  Biso   1.000  N
  H369     1.0000 0.40940  0.96816  0.89127  Biso   1.000  H
  H370     1.0000 0.35532  0.93225  0.90275  Biso   1.000  H
  H371     1.0000 0.46159  0.81655  0.70887  Biso   1.000  H
  C372     1.0000 0.42372  0.82290  0.75461  Biso   1.000  C
  O123     1.0000 0.35286  0.84297  0.69155  Biso   1.000  O
  N249     1.0000 0.37882  0.81894  0.74205  Biso   1.000  N
  O124     1.0000 0.52474  0.92544  0.78782  Biso   1.000  O
  N250     1.0000 0.44911  0.86002  0.78196  Biso   1.000  N
  C373     1.0000 0.30674  0.85314  0.78517  Biso   1.000  C
  C374     1.0000 0.33383  0.86907  0.84641  Biso   1.000  C
  C375     1.0000 0.41721  0.91029  0.85020  Biso   1.000  C
  H372     1.0000 0.41912  0.79145  0.76306  Biso   1.000  H
  C376     1.0000 0.33652  0.80047  0.76369  Biso   1.000  C
  C377     1.0000 0.43772  0.85435  0.82084  Biso   1.000  C
  N251     1.0000 0.33616  0.83470  0.78987  Biso   1.000  N
  O125     1.0000 0.28353  0.85007  0.75769  Biso   1.000  O
  C378     1.0000 0.35329  0.83951  0.82751  Biso   1.000  C
  H373     1.0000 0.31309  0.85157  0.86797  Biso   1.000  H
  N252     1.0000 0.40424  0.86879  0.83177  Biso   1.000  N
  O126     1.0000 0.45762  0.94035  0.85919  Biso   1.000  O
  H374     1.0000 0.33251  0.77238  0.77756  Biso   1.000  H
  H375     1.0000 0.30884  0.78945  0.74687  Biso   1.000  H
  H376     1.0000 0.42453  0.82037  0.82748  Biso   1.000  H
  H377     1.0000 0.46754  0.87317  0.83506  Biso   1.000  H
  H378     1.0000 0.34101  0.80778  0.83966  Biso   1.000  H
  C379     1.0000 0.48715  0.79583  0.32683  Biso   1.000  C
  C380     1.0000 0.52317  0.79444  0.29882  Biso   1.000  C
  N253     1.0000 0.45830  0.80667  0.30242  Biso   1.000  N
  N254     1.0000 0.51751  0.83327  0.35185  Biso   1.000  N
  H379     1.0000 0.46787  0.76474  0.33984  Biso   1.000  H
  N255     1.0000 0.50649  0.79808  0.26362  Biso   1.000  N
  N256     1.0000 0.56798  0.83569  0.30992  Biso   1.000  N
  H380     1.0000 0.52437  0.76435  0.30123  Biso   1.000  H
  C381     1.0000 0.46818  0.80414  0.26584  Biso   1.000  C
  C382     1.0000 0.41617  0.80585  0.31485  Biso   1.000  C
  C383     1.0000 0.56386  0.85673  0.34211  Biso   1.000  C
  C384     1.0000 0.50147  0.84065  0.38735  Biso   1.000  C
  C385     1.0000 0.51947  0.78413  0.22956  Biso   1.000  C
  C386     1.0000 0.61316  0.84453  0.29575  Biso   1.000  C
  O127     1.0000 0.44552  0.80842  0.23993  Biso   1.000  O
  N257     1.0000 0.42428  0.84881  0.33461  Biso   1.000  N
  H381     1.0000 0.39566  0.80114  0.29312  Biso   1.000  H
  H382     1.0000 0.39845  0.77782  0.33134  Biso   1.000  H
  O128     1.0000 0.59653  0.88928  0.35879  Biso   1.000  O
  N258     1.0000 0.48007  0.87078  0.38580  Biso   1.000  N
  H383     1.0000 0.47778  0.80913  0.39762  Biso   1.000  H
  H384     1.0000 0.52897  0.85512  0.40454  Biso   1.000  H
  N259     1.0000 0.56252  0.82311  0.21265  Biso   1.000  N
  H385     1.0000 0.52478  0.75714  0.23462  Biso   1.000  H
  H386     1.0000 0.49268  0.77305  0.21184  Biso   1.000  H
  N260     1.0000 0.62401  0.86550  0.25919  Biso   1.000  N
  H387     1.0000 0.63855  0.86593  0.31302  Biso   1.000  H
  H388     1.0000 0.61318  0.81394  0.29492  Biso   1.000  H
  C387     1.0000 0.40728  0.87755  0.32094  Biso   1.000  C
  C388     1.0000 0.43206  0.85455  0.37354  Biso   1.000  C
  C389     1.0000 0.50333  0.91631  0.39668  Biso   1.000  C
  C390     1.0000 0.56227  0.84614  0.18115  Biso   1.000  C
  C391     1.0000 0.61006  0.83822  0.22480  Biso   1.000  C
  C392     1.0000 0.66146  0.91082  0.25358  Biso   1.000  C
  O129     1.0000 0.39289  0.87552  0.28886  Biso   1.000  O
  N261     1.0000 0.40777  0.90657  0.34786  Biso   1.000  N
  H389     1.0000 0.40847  0.82553  0.38733  Biso   1.000  H
  C393     1.0000 0.42539  0.89827  0.38201  Biso   1.000  C
  N262     1.0000 0.47425  0.93553  0.39203  Biso   1.000  N
  O130     1.0000 0.54355  0.93802  0.40938  Biso   1.000  O
  O131     1.0000 0.52579  0.83747  0.16438  Biso   1.000  O
  N263     1.0000 0.60689  0.87641  0.17147  Biso   1.000  N
  C394     1.0000 0.64106  0.87366  0.19546  Biso   1.000  C
  H390     1.0000 0.61587  0.81073  0.22612  Biso   1.000  H
  N264     1.0000 0.67126  0.91670  0.21641  Biso   1.000  N
  O132     1.0000 0.68270  0.94002  0.27765  Biso   1.000  O
  C395     1.0000 0.38846  0.93674  0.34343  Biso   1.000  C
  H391     1.0000 0.40257  0.89142  0.40282  Biso   1.000  H
  C396     1.0000 0.48533  0.98127  0.40750  Biso   1.000  C
  C397     1.0000 0.61897  0.90205  0.13690  Biso   1.000  C
  H392     1.0000 0.66026  0.86222  0.18185  Biso   1.000  H
  C398     1.0000 0.71267  0.95785  0.20141  Biso   1.000  C
  N265     1.0000 0.42344  0.98651  0.33613  Biso   1.000  N
  H393     1.0000 0.36538  0.92454  0.32273  Biso   1.000  H
  H394     1.0000 0.37067  0.93513  0.36613  Biso   1.000  H
  H395     1.0000 0.51566  0.99464  0.42142  Biso   1.000  H
  H396     1.0000 0.45998  0.97653  0.42513  Biso   1.000  H
  N266     1.0000 0.48957  0.01507  0.37963  Biso   1.000  N
  N267     1.0000 0.63675  0.95286  0.14108  Biso   1.000  N
  H397     1.0000 0.64359  0.89755  0.12423  Biso   1.000  H
  H398     1.0000 0.59036  0.88825  0.12094  Biso   1.000  H
  N268     1.0000 0.70251  0.99168  0.18414  Biso   1.000  N
  H399     1.0000 0.72778  0.94694  0.18293  Biso   1.000  H
  H400     1.0000 0.73596  0.97403  0.22164  Biso   1.000  H
  C399     1.0000 0.42189  0.01008  0.30566  Biso   1.000  C
  C400     1.0000 0.44983  0.01903  0.36657  Biso   1.000  C
  C401     1.0000 0.53201  0.05340  0.36995  Biso   1.000  C
  C402     1.0000 0.60927  0.97325  0.13621  Biso   1.000  C
  C403     1.0000 0.68612  0.98744  0.14634  Biso   1.000  C
  C404     1.0000 0.72104  0.03739  0.19685  Biso   1.000  C
  O133     1.0000 0.39735  0.99250  0.27801  Biso   1.000  O
  N269     1.0000 0.45227  0.05758  0.31095  Biso   1.000  N
  H401     1.0000 0.42806  0.01632  0.38724  Biso   1.000  H
  C405     1.0000 0.47229  0.06784  0.34800  Biso   1.000  C
  N270     1.0000 0.52340  0.08403  0.34869  Biso   1.000  N
  O134     1.0000 0.57196  0.06061  0.37808  Biso   1.000  O
  O135     1.0000 0.56637  0.95204  0.13062  Biso   1.000  O
  N271     1.0000 0.63822  0.02181  0.13771  Biso   1.000  N
  H402     1.0000 0.70696  0.98224  0.12882  Biso   1.000  H
  C406     1.0000 0.68768  0.03440  0.13881  Biso   1.000  C
  N272     1.0000 0.71388  0.06346  0.17069  Biso   1.000  N
  O136     1.0000 0.74191  0.05233  0.22632  Biso   1.000  O
  C407     1.0000 0.45650  0.09469  0.28590  Biso   1.000  C
  H403     1.0000 0.46477  0.09024  0.36153  Biso   1.000  H
  C408     1.0000 0.55887  0.13281  0.34302  Biso   1.000  C
  C409     1.0000 0.62316  0.05216  0.11856  Biso   1.000  C
  H404     1.0000 0.70440  0.04912  0.11504  Biso   1.000  H
  C410     1.0000 0.73042  0.11327  0.17404  Biso   1.000  C
  N273     1.0000 0.50093  0.11851  0.26603  Biso   1.000  N
  H405     1.0000 0.45286  0.11872  0.30035  Biso   1.000  H
  H406     1.0000 0.42999  0.08032  0.26783  Biso   1.000  H
  N274     1.0000 0.57082  0.14486  0.30450  Biso   1.000  N
  H407     1.0000 0.54718  0.15335  0.35342  Biso   1.000  H
  H408     1.0000 0.58811  0.13965  0.35675  Biso   1.000  H
  N275     1.0000 0.62354  0.08799  0.14177  Biso   1.000  N
  H409     1.0000 0.59058  0.03183  0.10873  Biso   1.000  H
  H410     1.0000 0.64466  0.06774  0.09725  Biso   1.000  H
  N276     1.0000 0.69308  0.12450  0.18221  Biso   1.000  N
  H411     1.0000 0.75467  0.12664  0.19394  Biso   1.000  H
  H412     1.0000 0.74616  0.12914  0.15063  Biso   1.000  H
  C411     1.0000 0.50597  0.10742  0.23028  Biso   1.000  C
  C412     1.0000 0.54418  0.15859  0.27989  Biso   1.000  C
  C413     1.0000 0.61645  0.16058  0.29196  Biso   1.000  C
  C414     1.0000 0.58277  0.08970  0.14980  Biso   1.000  C
  C415     1.0000 0.66617  0.13095  0.15359  Biso   1.000  C
  C416     1.0000 0.69327  0.14686  0.21483  Biso   1.000  C
  N277     1.0000 0.55084  0.13997  0.21804  Biso   1.000  N
  O137     1.0000 0.47530  0.07455  0.21218  Biso   1.000  O
  C417     1.0000 0.57626  0.17709  0.24539  Biso   1.000  C
  H413     1.0000 0.53836  0.18344  0.29113  Biso   1.000  H
  N278     1.0000 0.62116  0.18105  0.25795  Biso   1.000  N
  O138     1.0000 0.64717  0.15705  0.30845  Biso   1.000  O
  O139     1.0000 0.54236  0.05964  0.14081  Biso   1.000  O
  N279     1.0000 0.59577  0.13120  0.16823  Biso   1.000  N
  C418     1.0000 0.64666  0.16048  0.17249  Biso   1.000  C
  H414     1.0000 0.68686  0.14843  0.13203  Biso   1.000  H
  N280     1.0000 0.66381  0.16533  0.21013  Biso   1.000  N
  O140     1.0000 0.71645  0.14992  0.24231  Biso   1.000  O
  C419     1.0000 0.56228  0.14568  0.17916  Biso   1.000  C
  H415     1.0000 0.58090  0.20854  0.23694  Biso   1.000  H
  C420     1.0000 0.66346  0.19952  0.23631  Biso   1.000  C
  H416     1.0000 0.65896  0.19225  0.16034  Biso   1.000  H
  H417     1.0000 0.57545  0.17962  0.17252  Biso   1.000  H
  H418     1.0000 0.53249  0.12685  0.16494  Biso   1.000  H
  H419     1.0000 0.66749  0.22765  0.22244  Biso   1.000  H
  H420     1.0000 0.69120  0.21054  0.25313  Biso   1.000  H
  C421     1.0000 0.79727  0.33013  0.43036  Biso   1.000  C
  N281     1.0000 0.77343  0.28781  0.40872  Biso   1.000  N
  N282     1.0000 0.83185  0.33049  0.45654  Biso   1.000  N
  H421     1.0000 0.77318  0.33413  0.44422  Biso   1.000  H
  H422     1.0000 0.81397  0.35784  0.41353  Biso   1.000  H
  C422     1.0000 0.73250  0.24296  0.42128  Biso   1.000  C
  C423     1.0000 0.78920  0.28310  0.37471  Biso   1.000  C
  C424     1.0000 0.81951  0.31334  0.49417  Biso   1.000  C
  C425     1.0000 0.87972  0.35991  0.45183  Biso   1.000  C
  C426     1.0000 0.71891  0.21083  0.38677  Biso   1.000  C
  N283     1.0000 0.74420  0.21750  0.44862  Biso   1.000  N
  H423     1.0000 0.70567  0.24752  0.42972  Biso   1.000  H
  N284     1.0000 0.75928  0.23747  0.36217  Biso   1.000  N
  O141     1.0000 0.82344  0.31380  0.35821  Biso   1.000  O
  N285     1.0000 0.79786  0.26239  0.49844  Biso   1.000  N
  H424     1.0000 0.80006  0.32564  0.50632  Biso   1.000  H
  C427     1.0000 0.86857  0.33284  0.51308  Biso   1.000  C
  O142     1.0000 0.89985  0.38312  0.42435  Biso   1.000  O
  N286     1.0000 0.90194  0.35976  0.48446  Biso   1.000  N
  N287     1.0000 0.71577  0.16762  0.40064  Biso   1.000  N
  H425     1.0000 0.68827  0.20502  0.37554  Biso   1.000  H
  C428     1.0000 0.73185  0.17261  0.43639  Biso   1.000  C
  C429     1.0000 0.74995  0.22894  0.48751  Biso   1.000  C
  C430     1.0000 0.75939  0.22552  0.32365  Biso   1.000  C
  C431     1.0000 0.82636  0.24941  0.51687  Biso   1.000  C
  N288     1.0000 0.86886  0.29020  0.52489  Biso   1.000  N
  H426     1.0000 0.87177  0.35352  0.53463  Biso   1.000  H
  C432     1.0000 0.95048  0.39706  0.49262  Biso   1.000  C
  C433     1.0000 0.69509  0.12312  0.38077  Biso   1.000  C
  O143     1.0000 0.73406  0.14194  0.45449  Biso   1.000  O
  H427     1.0000 0.72916  0.24214  0.49415  Biso   1.000  H
  H428     1.0000 0.73897  0.19914  0.50173  Biso   1.000  H
  N289     1.0000 0.77268  0.19004  0.31797  Biso   1.000  N
  H429     1.0000 0.72717  0.21383  0.31324  Biso   1.000  H
  H430     1.0000 0.78177  0.25472  0.30992  Biso   1.000  H
  O144     1.0000 0.81606  0.20905  0.52586  Biso   1.000  O
  C434     1.0000 0.90438  0.28984  0.54811  Biso   1.000  C
  N290     1.0000 0.98376  0.38055  0.49597  Biso   1.000  N
  H431     1.0000 0.96136  0.42134  0.47273  Biso   1.000  H
  H432     1.0000 0.95036  0.41282  0.51604  Biso   1.000  H
  N291     1.0000 0.72802  0.11895  0.35572  Biso   1.000  N
  H433     1.0000 0.66745  0.11952  0.36632  Biso   1.000  H
  H434     1.0000 0.68296  0.09663  0.39884  Biso   1.000  H
  C435     1.0000 0.73775  0.13895  0.31867  Biso   1.000  C
  C436     1.0000 0.81195  0.19867  0.29672  Biso   1.000  C
  N292     1.0000 0.94976  0.30489  0.52896  Biso   1.000  N
  H435     1.0000 0.89205  0.25722  0.55794  Biso   1.000  H
  H436     1.0000 0.91028  0.31134  0.56942  Biso   1.000  H
  C437     1.0000 0.98662  0.35434  0.52785  Biso   1.000  C
  C438     1.0000 0.01694  0.38768  0.46982  Biso   1.000  C
  C439     1.0000 0.74512  0.08853  0.36101  Biso   1.000  C
  C440     1.0000 0.76411  0.11645  0.30010  Biso   1.000  C
  H437     1.0000 0.70786  0.13143  0.30513  Biso   1.000  H
  O145     1.0000 0.84472  0.23864  0.28858  Biso   1.000  O
  N293     1.0000 0.80779  0.15621  0.28703  Biso   1.000  N
  C441     1.0000 0.96937  0.27594  0.53046  Biso   1.000  C
  H438     1.0000 0.98857  0.37103  0.55163  Biso   1.000  H
  C442     1.0000 0.03200  0.35277  0.52033  Biso   1.000  C
  O146     1.0000 0.02291  0.40858  0.44035  Biso   1.000  O
  N294     1.0000 0.04415  0.36918  0.48252  Biso   1.000  N
  O147     1.0000 0.73816  0.06400  0.38865  Biso   1.000  O
  N295     1.0000 0.77026  0.09010  0.33054  Biso   1.000  N
  H439     1.0000 0.74507  0.09474  0.27942  Biso   1.000  H
  C443     1.0000 0.83737  0.15200  0.25917  Biso   1.000  C
  O148     1.0000 0.94766  0.23301  0.53605  Biso   1.000  O
  N296     1.0000 0.01722  0.30339  0.52558  Biso   1.000  N
  H440     1.0000 0.05808  0.37363  0.53784  Biso   1.000  H
  C444     1.0000 0.08817  0.37934  0.46526  Biso   1.000  C
  C445     1.0000 0.78506  0.05516  0.32323  Biso   1.000  C
  N297     1.0000 0.87206  0.14091  0.27464  Biso   1.000  N
  H441     1.0000 0.85436  0.18234  0.24525  Biso   1.000  H
  H442     1.0000 0.81679  0.12665  0.24154  Biso   1.000  H
  C446     1.0000 0.05027  0.28564  0.52976  Biso   1.000  C
  N298     1.0000 0.08791  0.33794  0.45026  Biso   1.000  N
  H443     1.0000 0.11418  0.39442  0.48374  Biso   1.000  H
  H444     1.0000 0.09527  0.40262  0.44503  Biso   1.000  H
  N299     1.0000 0.83454  0.07445  0.31880  Biso   1.000  N
  H445     1.0000 0.77417  0.03202  0.34393  Biso   1.000  H
  H446     1.0000 0.76886  0.03733  0.30054  Biso   1.000  H
  C447     1.0000 0.86048  0.09206  0.28465  Biso   1.000  C
  C448     1.0000 0.92034  0.16997  0.26999  Biso   1.000  C
  N300     1.0000 0.06381  0.27355  0.49520  Biso   1.000  N
  H447     1.0000 0.07937  0.31024  0.54244  Biso   1.000  H
  H448     1.0000 0.03548  0.25704  0.54573  Biso   1.000  H
  C449     1.0000 0.10076  0.30774  0.47121  Biso   1.000  C
  C450     1.0000 0.08397  0.32814  0.41309  Biso   1.000  C
  C451     1.0000 0.86307  0.07395  0.34573  Biso   1.000  C
  C452     1.0000 0.91087  0.09873  0.29312  Biso   1.000  C
  H449     1.0000 0.84447  0.06924  0.26384  Biso   1.000  H
  O149     1.0000 0.93886  0.21022  0.25729  Biso   1.000  O
  N301     1.0000 0.94262  0.14672  0.28086  Biso   1.000  N
  C453     1.0000 0.04947  0.22894  0.48551  Biso   1.000  C
  H450     1.0000 0.13138  0.32692  0.48482  Biso   1.000  H
  C454     1.0000 0.10517  0.27672  0.44187  Biso   1.000  C
  O150     1.0000 0.07602  0.34935  0.38901  Biso   1.000  O
  N302     1.0000 0.09185  0.29066  0.40747  Biso   1.000  N
  O151     1.0000 0.85073  0.05958  0.37781  Biso   1.000  O
  N303     1.0000 0.90881  0.09096  0.33206  Biso   1.000  N
  H451     1.0000 0.91627  0.07513  0.27934  Biso   1.000  H
  C455     1.0000 0.99419  0.16815  0.27931  Biso   1.000  C
  O152     1.0000 0.02166  0.19247  0.50228  Biso   1.000  O
  N304     1.0000 0.07276  0.22919  0.45402  Biso   1.000  N
  H452     1.0000 0.13846  0.28253  0.44054  Biso   1.000  H
  C456     1.0000 0.10196  0.27982  0.37091  Biso   1.000  C
  C457     1.0000 0.94365  0.08283  0.35182  Biso   1.000  C
  N305     1.0000 0.01757  0.18416  0.31482  Biso   1.000  N
  H453     1.0000 0.00197  0.14444  0.26905  Biso   1.000  H
  H454     1.0000 0.00716  0.19564  0.26213  Biso   1.000  H
  C458     1.0000 0.06867  0.18612  0.43711  Biso   1.000  C
  N306     1.0000 0.06563  0.23465  0.35675  Biso   1.000  N
  H455     1.0000 0.10597  0.30525  0.35365  Biso   1.000  H
  H456     1.0000 0.13256  0.27982  0.37174  Biso   1.000  H
  N307     1.0000 0.98498  0.12497  0.36425  Biso   1.000  N
  H457     1.0000 0.92787  0.06233  0.37354  Biso   1.000  H
  H458     1.0000 0.95399  0.06514  0.33533  Biso   1.000  H
  C459     1.0000 0.02466  0.15382  0.33984  Biso   1.000  C
  C460     1.0000 0.04049  0.23055  0.32456  Biso   1.000  C
  N308     1.0000 0.04178  0.17318  0.40304  Biso   1.000  N
  H459     1.0000 0.10097  0.19143  0.43205  Biso   1.000  H
  H460     1.0000 0.05296  0.15934  0.45482  Biso   1.000  H
  C461     1.0000 0.06206  0.18983  0.36784  Biso   1.000  C
  C462     1.0000 0.99739  0.13485  0.40083  Biso   1.000  C
  H461     1.0000 0.03648  0.13453  0.32683  Biso   1.000  H
  O153     1.0000 0.04057  0.26321  0.30787  Biso   1.000  O
  H462     1.0000 0.09336  0.19104  0.36544  Biso   1.000  H
  O154     1.0000 0.97043  0.11217  0.42673  Biso   1.000  O
  C463     1.0000 0.20271  0.66986  0.56964  Biso   1.000  C
  N309     1.0000 0.16818  0.66954  0.54346  Biso   1.000  N
  N310     1.0000 0.22659  0.71218  0.59128  Biso   1.000  N
  H463     1.0000 0.22683  0.66586  0.55578  Biso   1.000  H
  H464     1.0000 0.18601  0.64215  0.58647  Biso   1.000  H
  C464     1.0000 0.18047  0.68665  0.50583  Biso   1.000  C
  C465     1.0000 0.12031  0.64012  0.54817  Biso   1.000  C
  C466     1.0000 0.26750  0.75707  0.57872  Biso   1.000  C
  C467     1.0000 0.21083  0.71692  0.62529  Biso   1.000  C
  N311     1.0000 0.20215  0.73760  0.50156  Biso   1.000  N
  H465     1.0000 0.19994  0.67439  0.49368  Biso   1.000  H
  C468     1.0000 0.13143  0.66718  0.48692  Biso   1.000  C
  N312     1.0000 0.09808  0.64026  0.51554  Biso   1.000  N
  O155     1.0000 0.10013  0.61687  0.57565  Biso   1.000  O
  N313     1.0000 0.25578  0.78249  0.55138  Biso   1.000  N
  C469     1.0000 0.28112  0.78920  0.61323  Biso   1.000  C
  H466     1.0000 0.29435  0.75247  0.57028  Biso   1.000  H
  O156     1.0000 0.17657  0.68619  0.64179  Biso   1.000  O
  N314     1.0000 0.24075  0.76256  0.63783  Biso   1.000  N
  C470     1.0000 0.17362  0.75058  0.48313  Biso   1.000  C
  C471     1.0000 0.25003  0.77105  0.51249  Biso   1.000  C
  N315     1.0000 0.13112  0.70979  0.47511  Biso   1.000  N
  H467     1.0000 0.12824  0.64647  0.46537  Biso   1.000  H
  C472     1.0000 0.04953  0.60293  0.50738  Biso   1.000  C
  C473     1.0000 0.26813  0.82738  0.56361  Biso   1.000  C
  N316     1.0000 0.28426  0.83241  0.59936  Biso   1.000  N
  H468     1.0000 0.31174  0.79497  0.62446  Biso   1.000  H
  C474     1.0000 0.24064  0.77451  0.67635  Biso   1.000  C
  O157     1.0000 0.18394  0.79098  0.47414  Biso   1.000  O
  H469     1.0000 0.27082  0.75786  0.50585  Biso   1.000  H
  H470     1.0000 0.26104  0.80086  0.49827  Biso   1.000  H
  C475     1.0000 0.09565  0.71018  0.45189  Biso   1.000  C
  N317     1.0000 0.01622  0.61944  0.50403  Biso   1.000  N
  H471     1.0000 0.03862  0.57865  0.52727  Biso   1.000  H
  H472     1.0000 0.04965  0.58717  0.48396  Biso   1.000  H
  O158     1.0000 0.26597  0.85808  0.54551  Biso   1.000  O
  C476     1.0000 0.30492  0.87687  0.61923  Biso   1.000  C
  N318     1.0000 0.22733  0.80995  0.68203  Biso   1.000  N
  H473     1.0000 0.27284  0.78617  0.68676  Biso   1.000  H
  H474     1.0000 0.21824  0.74527  0.69008  Biso   1.000  H
  N319     1.0000 0.05025  0.69510  0.47104  Biso   1.000  N
  H475     1.0000 0.10793  0.74277  0.44206  Biso   1.000  H
  H476     1.0000 0.08975  0.68868  0.43058  Biso   1.000  H
  C477     1.0000 0.01338  0.64568  0.47215  Biso   1.000  C
  C478     1.0000 0.98306  0.61235  0.53018  Biso   1.000  C
  N320     1.0000 0.27197  0.88108  0.64428  Biso   1.000  N
  H477     1.0000 0.33253  0.88047  0.63368  Biso   1.000  H
  H478     1.0000 0.31702  0.90337  0.60116  Biso   1.000  H
  C479     1.0000 0.26225  0.86108  0.68133  Biso   1.000  C
  C480     1.0000 0.18806  0.80132  0.70328  Biso   1.000  C
  C481     1.0000 0.03064  0.72405  0.46954  Biso   1.000  C
  H479     1.0000 0.01144  0.62896  0.44837  Biso   1.000  H
  C482     1.0000 0.96798  0.64722  0.47967  Biso   1.000  C
  O159     1.0000 0.97710  0.59142  0.55965  Biso   1.000  O
  N321     1.0000 0.95586  0.63082  0.51748  Biso   1.000  N
  C483     1.0000 0.25487  0.91146  0.63899  Biso   1.000  C
  C484     1.0000 0.23590  0.88354  0.69990  Biso   1.000  C
  H480     1.0000 0.29212  0.86857  0.69487  Biso   1.000  H
  O160     1.0000 0.15531  0.76139  0.71142  Biso   1.000  O
  N322     1.0000 0.19219  0.84379  0.71297  Biso   1.000  N
  O161     1.0000 0.05235  0.76698  0.46395  Biso   1.000  O
  N323     1.0000 0.98279  0.69660  0.47442  Biso   1.000  N
  H481     1.0000 0.94193  0.62636  0.46216  Biso   1.000  H
  C485     1.0000 0.91184  0.62065  0.53474  Biso   1.000  C
  O162     1.0000 0.26182  0.93599  0.61135  Biso   1.000  O
  N324     1.0000 0.22975  0.90989  0.66946  Biso   1.000  N
  H482     1.0000 0.25491  0.90526  0.72058  Biso   1.000  H
  C486     1.0000 0.16263  0.84803  0.74083  Biso   1.000  C
  C487     1.0000 0.94974  0.71436  0.47024  Biso   1.000  C
  N325     1.0000 0.91211  0.66209  0.54974  Biso   1.000  N
  H483     1.0000 0.88583  0.60557  0.51626  Biso   1.000  H
  H484     1.0000 0.90474  0.59737  0.55497  Biso   1.000  H
  C488     1.0000 0.21494  0.94487  0.67677  Biso   1.000  C
  N326     1.0000 0.12795  0.85908  0.72536  Biso   1.000  N
  H485     1.0000 0.14563  0.81769  0.75475  Biso   1.000  H
  H486     1.0000 0.18324  0.87338  0.75846  Biso   1.000  H
  N327     1.0000 0.93617  0.72644  0.50480  Biso   1.000  N
  H487     1.0000 0.92064  0.68975  0.45756  Biso   1.000  H
  H488     1.0000 0.96453  0.74295  0.45427  Biso   1.000  H
  C489     1.0000 0.89927  0.69229  0.52879  Biso   1.000  C
  C490     1.0000 0.91601  0.67185  0.58691  Biso   1.000  C
  N328     1.0000 0.16544  0.92554  0.68120  Biso   1.000  N
  H489     1.0000 0.22584  0.96797  0.65607  Biso   1.000  H
  H490     1.0000 0.23112  0.96266  0.69946  Biso   1.000  H
  C491     1.0000 0.13955  0.90797  0.71535  Biso   1.000  C
  C492     1.0000 0.07964  0.83002  0.73001  Biso   1.000  C
  C493     1.0000 0.95053  0.77108  0.51449  Biso   1.000  C
  H491     1.0000 0.86863  0.67307  0.51518  Biso   1.000  H
  C494     1.0000 0.89484  0.72327  0.55813  Biso   1.000  C
  O163     1.0000 0.92399  0.65064  0.61099  Biso   1.000  O
  N329     1.0000 0.90816  0.70933  0.59253  Biso   1.000  N
  C495     1.0000 0.13694  0.92604  0.65427  Biso   1.000  C
  C496     1.0000 0.08914  0.90126  0.70688  Biso   1.000  C
  H492     1.0000 0.15553  0.93078  0.73616  Biso   1.000  H
  O164     1.0000 0.06112  0.78977  0.74271  Biso   1.000  O
  N330     1.0000 0.05736  0.85327  0.71914  Biso   1.000  N
  O165     1.0000 0.97832  0.80752  0.49772  Biso   1.000  O
  N331     1.0000 0.92727  0.77083  0.54598  Biso   1.000  N
  H493     1.0000 0.86152  0.71746  0.55946  Biso   1.000  H
  C497     1.0000 0.89802  0.72017  0.62909  Biso   1.000  C
  O166     1.0000 0.14930  0.94045  0.62219  Biso   1.000  O
  N332     1.0000 0.09119  0.90907  0.66794  Biso   1.000  N
  H494     1.0000 0.08374  0.92487  0.72066  Biso   1.000  H
  C498     1.0000 0.00584  0.83188  0.72069  Biso   1.000  C
  C499     1.0000 0.93134  0.81387  0.56289  Biso   1.000  C
  N333     1.0000 0.93435  0.76534  0.64325  Biso   1.000  N
  H495     1.0000 0.89403  0.69478  0.64635  Biso   1.000  H
  H496     1.0000 0.86742  0.72017  0.62826  Biso   1.000  H
  C500     1.0000 0.05633  0.91716  0.64818  Biso   1.000  C
  N334     1.0000 0.98244  0.81583  0.68518  Biso   1.000  N
  H497     1.0000 0.99804  0.85555  0.73095  Biso   1.000  H
  H498     1.0000 0.99284  0.80439  0.73787  Biso   1.000  H
  N335     1.0000 0.95824  0.82685  0.59696  Biso   1.000  N
  H499     1.0000 0.89901  0.80856  0.56795  Biso   1.000  H
  H500     1.0000 0.94704  0.84068  0.54518  Biso   1.000  H
  C501     1.0000 0.93792  0.81016  0.63216  Biso   1.000  C
  C502     1.0000 0.95954  0.76948  0.67544  Biso   1.000  C
  N336     1.0000 0.01505  0.87506  0.63575  Biso   1.000  N
  H501     1.0000 0.07214  0.93767  0.62646  Biso   1.000  H
  H502     1.0000 0.04604  0.93488  0.66467  Biso   1.000  H
  C503     1.0000 0.97535  0.84617  0.66016  Biso   1.000  C
  C504     1.0000 0.00264  0.86518  0.59917  Biso   1.000  C
  H503     1.0000 0.90664  0.80899  0.63456  Biso   1.000  H
  O167     1.0000 0.95942  0.73682  0.69213  Biso   1.000  O
  H504     1.0000 0.96353  0.86546  0.67317  Biso   1.000  H
  O168     1.0000 0.02955  0.88782  0.57327  Biso   1.000  O
  C505     1.0000 0.85453  0.42248  0.62646  Biso   1.000  C
  N337     1.0000 0.87079  0.39071  0.61420  Biso   1.000  N
  N338     1.0000 0.84879  0.42451  0.66539  Biso   1.000  N
  H505     1.0000 0.82554  0.41706  0.61267  Biso   1.000  H
  C506     1.0000 0.89825  0.47286  0.61799  Biso   1.000  C
  C507     1.0000 0.84063  0.33915  0.61265  Biso   1.000  C
  C508     1.0000 0.91630  0.41300  0.60332  Biso   1.000  C
  C509     1.0000 0.87756  0.47026  0.67906  Biso   1.000  C
  C510     1.0000 0.80583  0.38968  0.68515  Biso   1.000  C
  N339     1.0000 0.93553  0.46127  0.60797  Biso   1.000  N
  N340     1.0000 0.90658  0.49878  0.65214  Biso   1.000  N
  H506     1.0000 0.89143  0.48887  0.59718  Biso   1.000  H
  N341     1.0000 0.83326  0.31576  0.64815  Biso   1.000  N
  H507     1.0000 0.80914  0.33138  0.60238  Biso   1.000  H
  H508     1.0000 0.85514  0.32618  0.59546  Biso   1.000  H
  O169     1.0000 0.93803  0.39446  0.59062  Biso   1.000  O
  O170     1.0000 0.87553  0.48263  0.71114  Biso   1.000  O
  N342     1.0000 0.80666  0.34835  0.69758  Biso   1.000  N
  H509     1.0000 0.80113  0.40547  0.70688  Biso   1.000  H
  H510     1.0000 0.77783  0.37937  0.66866  Biso   1.000  H
  C511     1.0000 0.98129  0.49597  0.59250  Biso   1.000  C
  C512     1.0000 0.93676  0.54827  0.65657  Biso   1.000  C
  C513     1.0000 0.79584  0.30867  0.67317  Biso   1.000  C
  C514     1.0000 0.85673  0.29287  0.65789  Biso   1.000  C
  C515     1.0000 0.80415  0.33598  0.73416  Biso   1.000  C
  H511     1.0000 0.99464  0.47896  0.57858  Biso   1.000  H
  H512     1.0000 0.97655  0.51658  0.57487  Biso   1.000  H
  N343     1.0000 0.01509  0.52553  0.62037  Biso   1.000  N
  N344     1.0000 0.98654  0.56311  0.66387  Biso   1.000  N
  H513     1.0000 0.92455  0.55918  0.67727  Biso   1.000  H
  H514     1.0000 0.93513  0.56446  0.63387  Biso   1.000  H
  C516     1.0000 0.79443  0.27127  0.70118  Biso   1.000  C
  H515     1.0000 0.76474  0.29687  0.66016  Biso   1.000  H
  O171     1.0000 0.88929  0.29277  0.64121  Biso   1.000  O
  N345     1.0000 0.83569  0.26770  0.69008  Biso   1.000  N
  N346     1.0000 0.79805  0.29155  0.73638  Biso   1.000  N
  O172     1.0000 0.80841  0.36290  0.76007  Biso   1.000  O
  C517     1.0000 0.01903  0.56924  0.63343  Biso   1.000  C
  C518     1.0000 0.05341  0.52139  0.63005  Biso   1.000  C
  C519     1.0000 0.01008  0.58821  0.69434  Biso   1.000  C
  H516     1.0000 0.76432  0.23996  0.69877  Biso   1.000  H
  C520     1.0000 0.84454  0.23137  0.70425  Biso   1.000  C
  C521     1.0000 0.78415  0.26467  0.77044  Biso   1.000  C
  H517     1.0000 0.01636  0.58828  0.61276  Biso   1.000  H
  C522     1.0000 0.06784  0.59559  0.65200  Biso   1.000  C
  O173     1.0000 0.06058  0.48862  0.62192  Biso   1.000  O
  N347     1.0000 0.08403  0.56065  0.65131  Biso   1.000  N
  O174     1.0000 0.99250  0.59516  0.72199  Biso   1.000  O
  N348     1.0000 0.05758  0.60532  0.68905  Biso   1.000  N
  N349     1.0000 0.86551  0.24149  0.74081  Biso   1.000  N
  H518     1.0000 0.86595  0.22737  0.68698  Biso   1.000  H
  H519     1.0000 0.81393  0.20078  0.70508  Biso   1.000  H
  N350     1.0000 0.82311  0.26057  0.78735  Biso   1.000  N
  H520     1.0000 0.75713  0.23237  0.76538  Biso   1.000  H
  H521     1.0000 0.77303  0.28036  0.78816  Biso   1.000  H
  H522     1.0000 0.09022  0.62547  0.63847  Biso   1.000  H
  C523     1.0000 0.13280  0.57395  0.65698  Biso   1.000  C
  C524     1.0000 0.09469  0.63823  0.71410  Biso   1.000  C
  C525     1.0000 0.83824  0.22816  0.77520  Biso   1.000  C
  C526     1.0000 0.91082  0.24937  0.74642  Biso   1.000  C
  C527     1.0000 0.84614  0.28385  0.81885  Biso   1.000  C
  N351     1.0000 0.14488  0.57409  0.69550  Biso   1.000  N
  H523     1.0000 0.15333  0.60618  0.64658  Biso   1.000  H
  H524     1.0000 0.13963  0.55155  0.64325  Biso   1.000  H
  N352     1.0000 0.11852  0.61759  0.73397  Biso   1.000  N
  H525     1.0000 0.11873  0.66586  0.69965  Biso   1.000  H
  H526     1.0000 0.08034  0.65035  0.73217  Biso   1.000  H
  C528     1.0000 0.87365  0.23258  0.80454  Biso   1.000  C
  H527     1.0000 0.81072  0.19486  0.77388  Biso   1.000  H
  O175     1.0000 0.94003  0.25733  0.72235  Biso   1.000  O
  N353     1.0000 0.91669  0.24542  0.78359  Biso   1.000  N
  O176     1.0000 0.83747  0.31166  0.83562  Biso   1.000  O
  N354     1.0000 0.87640  0.26952  0.82853  Biso   1.000  N
  C529     1.0000 0.15861  0.61445  0.72011  Biso   1.000  C
  C530     1.0000 0.16058  0.54417  0.70804  Biso   1.000  C
  C531     1.0000 0.10744  0.60147  0.76972  Biso   1.000  C
  H528     1.0000 0.86222  0.20195  0.81815  Biso   1.000  H
  C532     1.0000 0.95785  0.24517  0.79859  Biso   1.000  C
  C533     1.0000 0.90204  0.28307  0.86310  Biso   1.000  C
  H529     1.0000 0.18343  0.64508  0.70887  Biso   1.000  H
  C534     1.0000 0.17712  0.60083  0.75461  Biso   1.000  C
  O177     1.0000 0.15704  0.50991  0.69155  Biso   1.000  O
  N355     1.0000 0.18106  0.55993  0.74205  Biso   1.000  N
  O178     1.0000 0.07457  0.59930  0.78782  Biso   1.000  O
  N356     1.0000 0.13999  0.58913  0.78196  Biso   1.000  N
  N357     1.0000 0.99169  0.28920  0.81586  Biso   1.000  N
  H530     1.0000 0.94695  0.21917  0.81707  Biso   1.000  H
  H531     1.0000 0.97403  0.23807  0.77836  Biso   1.000  H
  N358     1.0000 0.95287  0.31612  0.85892  Biso   1.000  N
  H532     1.0000 0.89753  0.25397  0.87577  Biso   1.000  H
  H533     1.0000 0.88823  0.29787  0.87906  Biso   1.000  H
  H534     1.0000 0.20854  0.62768  0.76306  Biso   1.000  H
  C535     1.0000 0.19953  0.53604  0.76369  Biso   1.000  C
  C536     1.0000 0.14567  0.58339  0.82084  Biso   1.000  C
  C537     1.0000 0.98744  0.30132  0.85366  Biso   1.000  C
  C538     1.0000 0.03741  0.31641  0.80315  Biso   1.000  C
  C539     1.0000 0.97325  0.36397  0.86379  Biso   1.000  C
  N359     1.0000 0.16531  0.50149  0.78987  Biso   1.000  N
  H535     1.0000 0.22766  0.56018  0.77756  Biso   1.000  H
  H536     1.0000 0.21052  0.51936  0.74687  Biso   1.000  H
  N360     1.0000 0.13122  0.53547  0.83177  Biso   1.000  N
  H537     1.0000 0.17966  0.60418  0.82748  Biso   1.000  H
  H538     1.0000 0.12683  0.59438  0.83506  Biso   1.000  H
  H539     1.0000 0.98222  0.27526  0.87118  Biso   1.000  H
  C540     1.0000 0.03437  0.34671  0.86119  Biso   1.000  C
  O179     1.0000 0.05234  0.31045  0.77368  Biso   1.000  O
  N361     1.0000 0.06343  0.34957  0.82931  Biso   1.000  N
  O180     1.0000 0.95205  0.38568  0.86938  Biso   1.000  O
  N362     1.0000 0.02180  0.38358  0.86229  Biso   1.000  N
  C541     1.0000 0.16048  0.51383  0.82751  Biso   1.000  C
  C542     1.0000 0.14688  0.45364  0.78517  Biso   1.000  C
  C543     1.0000 0.08973  0.50695  0.85020  Biso   1.000  C
  H540     1.0000 0.04914  0.34475  0.88496  Biso   1.000  H
  C544     1.0000 0.11325  0.38287  0.82596  Biso   1.000  C
  C545     1.0000 0.05216  0.42897  0.88144  Biso   1.000  C
  C546     1.0000 0.13095  0.46477  0.84641  Biso   1.000  C
  H541     1.0000 0.19224  0.53326  0.83966  Biso   1.000  H
  N363     1.0000 0.12448  0.43139  0.81779  Biso   1.000  N
  O181     1.0000 0.14994  0.43346  0.75769  Biso   1.000  O
  N364     1.0000 0.08801  0.46448  0.85823  Biso   1.000  N
  O182     1.0000 0.05966  0.51729  0.85919  Biso   1.000  O
  H542     1.0000 0.12663  0.37196  0.80606  Biso   1.000  H
  H543     1.0000 0.12914  0.38297  0.84937  Biso   1.000  H
  H544     1.0000 0.03184  0.44127  0.89127  Biso   1.000  H
  H545     1.0000 0.06772  0.42305  0.90275  Biso   1.000  H
  H546     1.0000 0.14843  0.46156  0.86797  Biso   1.000  H
  C547     1.0000 0.14547  0.57755  0.37354  Biso   1.000  C
  C548     1.0000 0.10173  0.52713  0.38201  Biso   1.000  C
  N365     1.0000 0.15119  0.57548  0.33461  Biso   1.000  N
  N366     1.0000 0.12922  0.60928  0.38580  Biso   1.000  N
  H547     1.0000 0.17447  0.58293  0.38733  Biso   1.000  H
  N367     1.0000 0.09343  0.50121  0.34786  Biso   1.000  N
  N368     1.0000 0.06448  0.53872  0.39203  Biso   1.000  N
  H548     1.0000 0.10855  0.51112  0.40282  Biso   1.000  H
  C549     1.0000 0.12245  0.52973  0.32094  Biso   1.000  C
  C550     1.0000 0.19417  0.61035  0.31485  Biso   1.000  C
  C551     1.0000 0.08370  0.58703  0.39668  Biso   1.000  C
  C552     1.0000 0.15938  0.66084  0.38735  Biso   1.000  C
  C553     1.0000 0.06325  0.45172  0.34343  Biso   1.000  C
  C554     1.0000 0.01873  0.50402  0.40750  Biso   1.000  C
  O183     1.0000 0.12445  0.51736  0.28886  Biso   1.000  O
  N369     1.0000 0.19335  0.65164  0.30242  Biso   1.000  N
  H549     1.0000 0.19885  0.59452  0.29312  Biso   1.000  H
  H550     1.0000 0.22215  0.62062  0.33134  Biso   1.000  H
  O184     1.0000 0.06198  0.60554  0.40938  Biso   1.000  O
  N370     1.0000 0.16672  0.68423  0.35185  Biso   1.000  N
  H551     1.0000 0.19086  0.66865  0.39762  Biso   1.000  H
  H552     1.0000 0.14486  0.67385  0.40454  Biso   1.000  H
  N371     1.0000 0.01349  0.43692  0.33613  Biso   1.000  N
  H553     1.0000 0.07548  0.44084  0.32273  Biso   1.000  H
  H554     1.0000 0.06486  0.43553  0.36613  Biso   1.000  H
  N372     1.0000 0.98493  0.47447  0.37963  Biso   1.000  N
  H555     1.0000 0.00537  0.52103  0.42142  Biso   1.000  H
  H556     1.0000 0.02348  0.48345  0.42513  Biso   1.000  H
  C555     1.0000 0.19588  0.66405  0.26584  Biso   1.000  C
  C556     1.0000 0.20418  0.69132  0.32683  Biso   1.000  C
  C557     1.0000 0.14325  0.70712  0.34211  Biso   1.000  C
  C558     1.0000 0.98993  0.41178  0.30566  Biso   1.000  C
  C559     1.0000 0.98100  0.43079  0.36657  Biso   1.000  C
  C560     1.0000 0.94660  0.47860  0.36995  Biso   1.000  C
  O185     1.0000 0.19159  0.63713  0.23993  Biso   1.000  O
  N373     1.0000 0.20193  0.70844  0.26362  Biso   1.000  N
  C561     1.0000 0.20555  0.72873  0.29882  Biso   1.000  C
  H557     1.0000 0.23527  0.70312  0.33984  Biso   1.000  H
  N374     1.0000 0.16432  0.73229  0.30992  Biso   1.000  N
  O186     1.0000 0.11069  0.70723  0.35879  Biso   1.000  O
  O187     1.0000 0.00748  0.40483  0.27801  Biso   1.000  O
  N375     1.0000 0.94240  0.39467  0.31095  Biso   1.000  N
  C562     1.0000 0.93214  0.40440  0.34800  Biso   1.000  C
  H558     1.0000 0.98367  0.41175  0.38724  Biso   1.000  H
  N376     1.0000 0.91595  0.43935  0.34869  Biso   1.000  N
  O188     1.0000 0.93940  0.51137  0.37808  Biso   1.000  O
  C563     1.0000 0.21586  0.73532  0.22956  Biso   1.000  C
  H559     1.0000 0.23566  0.76003  0.30123  Biso   1.000  H
  C564     1.0000 0.15547  0.76862  0.29575  Biso   1.000  C
  C565     1.0000 0.90529  0.36176  0.28590  Biso   1.000  C
  H560     1.0000 0.90976  0.37452  0.36153  Biso   1.000  H
  C566     1.0000 0.86722  0.42605  0.34302  Biso   1.000  C
  N377     1.0000 0.17691  0.73942  0.21265  Biso   1.000  N
  H561     1.0000 0.24285  0.76763  0.23462  Biso   1.000  H
  H562     1.0000 0.22698  0.71963  0.21184  Biso   1.000  H
  N378     1.0000 0.13452  0.75853  0.25919  Biso   1.000  N
  H563     1.0000 0.13408  0.77265  0.31302  Biso   1.000  H
  H564     1.0000 0.18607  0.79925  0.29492  Biso   1.000  H
  N379     1.0000 0.88151  0.38244  0.26603  Biso   1.000  N
  H565     1.0000 0.88125  0.33413  0.30035  Biso   1.000  H
  H566     1.0000 0.91967  0.34964  0.26783  Biso   1.000  H
  N380     1.0000 0.85515  0.42594  0.30450  Biso   1.000  N
  H567     1.0000 0.84667  0.39385  0.35342  Biso   1.000  H
  H568     1.0000 0.86038  0.44844  0.35675  Biso   1.000  H
  C567     1.0000 0.15387  0.71614  0.18115  Biso   1.000  C
  C568     1.0000 0.16177  0.77183  0.22480  Biso   1.000  C
  C569     1.0000 0.08918  0.75065  0.25358  Biso   1.000  C
  C570     1.0000 0.89258  0.39852  0.23028  Biso   1.000  C
  C571     1.0000 0.84142  0.38558  0.27989  Biso   1.000  C
  C572     1.0000 0.83941  0.45585  0.29196  Biso   1.000  C
  O189     1.0000 0.16254  0.68833  0.16438  Biso   1.000  O
  N381     1.0000 0.12360  0.73051  0.17147  Biso   1.000  N
  C573     1.0000 0.12633  0.76741  0.19546  Biso   1.000  C
  H569     1.0000 0.18926  0.80513  0.22612  Biso   1.000  H
  N382     1.0000 0.08329  0.75458  0.21641  Biso   1.000  N
  O190     1.0000 0.05999  0.74267  0.27765  Biso   1.000  O
  O191     1.0000 0.92545  0.40073  0.21218  Biso   1.000  O
  N383     1.0000 0.86002  0.41086  0.21804  Biso   1.000  N
  H570     1.0000 0.81657  0.35495  0.29113  Biso   1.000  H
  C574     1.0000 0.82289  0.39916  0.24539  Biso   1.000  C
  N384     1.0000 0.81894  0.44009  0.25795  Biso   1.000  N
  O192     1.0000 0.84296  0.49012  0.30845  Biso   1.000  O
  C575     1.0000 0.09797  0.71692  0.13690  Biso   1.000  C
  H571     1.0000 0.13776  0.79804  0.18185  Biso   1.000  H
  C576     1.0000 0.04216  0.75483  0.20141  Biso   1.000  C
  C577     1.0000 0.85433  0.41663  0.17916  Biso   1.000  C
  H572     1.0000 0.79149  0.37235  0.23694  Biso   1.000  H
  C578     1.0000 0.80048  0.46395  0.23631  Biso   1.000  C
  N385     1.0000 0.04714  0.68387  0.14108  Biso   1.000  N
  H573     1.0000 0.10245  0.74602  0.12423  Biso   1.000  H
  H574     1.0000 0.11175  0.70213  0.12094  Biso   1.000  H
  N386     1.0000 0.00831  0.71083  0.18414  Biso   1.000  N
  H575     1.0000 0.05308  0.78085  0.18293  Biso   1.000  H
  H576     1.0000 0.02595  0.76192  0.22164  Biso   1.000  H
  N387     1.0000 0.86879  0.46452  0.16823  Biso   1.000  N
  H577     1.0000 0.82037  0.39585  0.17252  Biso   1.000  H
  H578     1.0000 0.87317  0.40565  0.16494  Biso   1.000  H
  N388     1.0000 0.83467  0.49850  0.21013  Biso   1.000  N
  H579     1.0000 0.77237  0.43985  0.22244  Biso   1.000  H
  H580     1.0000 0.78946  0.48063  0.25313  Biso   1.000  H
  C579     1.0000 0.02676  0.63602  0.13621  Biso   1.000  C
  C580     1.0000 0.01257  0.69867  0.14634  Biso   1.000  C
  C581     1.0000 0.96262  0.68362  0.19685  Biso   1.000  C
  C582     1.0000 0.91029  0.49304  0.14980  Biso   1.000  C
  C583     1.0000 0.83952  0.48620  0.17249  Biso   1.000  C
  C584     1.0000 0.85315  0.54638  0.21483  Biso   1.000  C
  N389     1.0000 0.97818  0.61641  0.13771  Biso   1.000  N
  O193     1.0000 0.04798  0.61434  0.13062  Biso   1.000  O
  C585     1.0000 0.96561  0.65328  0.13881  Biso   1.000  C
  H581     1.0000 0.01776  0.72473  0.12882  Biso   1.000  H
  N390     1.0000 0.93655  0.65043  0.17069  Biso   1.000  N
  O194     1.0000 0.94766  0.68958  0.22632  Biso   1.000  O
  O195     1.0000 0.94037  0.48274  0.14081  Biso   1.000  O
  N391     1.0000 0.91202  0.53554  0.14177  Biso   1.000  N
  H582     1.0000 0.80777  0.46673  0.16034  Biso   1.000  H
  C586     1.0000 0.86906  0.53522  0.15359  Biso   1.000  C
  N392     1.0000 0.87550  0.56860  0.18221  Biso   1.000  N
  O196     1.0000 0.85007  0.56653  0.24231  Biso   1.000  O
  C587     1.0000 0.94785  0.57102  0.11856  Biso   1.000  C
  H583     1.0000 0.95087  0.65524  0.11504  Biso   1.000  H
  C588     1.0000 0.88675  0.61716  0.17404  Biso   1.000  C
  H584     1.0000 0.85155  0.53843  0.13203  Biso   1.000  H
  H585     1.0000 0.96817  0.55872  0.10873  Biso   1.000  H
  H586     1.0000 0.93226  0.57694  0.09725  Biso   1.000  H
  H587     1.0000 0.87338  0.62803  0.19394  Biso   1.000  H
  H588     1.0000 0.87089  0.61705  0.15063  Biso   1.000  H
  O197     1.0000 0.87570  0.72630  0.80747  Biso   1.000  O
  C589     1.0000 0.91610  0.75639  0.81647  Biso   1.000  C
  N393     1.0000 0.95685  0.75465  0.80844  Biso   1.000  N
  N394     1.0000 0.92907  0.79790  0.83490  Biso   1.000  N
  C590     1.0000 0.95650  0.71881  0.78522  Biso   1.000  C
  C591     1.0000 0.99952  0.79761  0.82026  Biso   1.000  C
  C592     1.0000 0.98002  0.82717  0.83916  Biso   1.000  C
  C593     1.0000 0.89562  0.81234  0.84583  Biso   1.000  C
  N395     1.0000 0.97156  0.68847  0.80437  Biso   1.000  N
  H589     1.0000 0.92389  0.69849  0.77540  Biso   1.000  H
  H590     1.0000 0.97800  0.73439  0.76391  Biso   1.000  H
  N396     1.0000 0.02643  0.79116  0.84887  Biso   1.000  N
  H591     1.0000 0.02022  0.81512  0.79870  Biso   1.000  H
  N397     1.0000 0.99716  0.83198  0.87680  Biso   1.000  N
  H592     1.0000 0.99230  0.85890  0.82701  Biso   1.000  H
  N398     1.0000 0.88419  0.80663  0.88471  Biso   1.000  N
  H593     1.0000 0.90882  0.84632  0.83919  Biso   1.000  H
  H594     1.0000 0.86580  0.79351  0.83160  Biso   1.000  H
  C594     1.0000 0.94262  0.63991  0.80288  Biso   1.000  C
  C595     1.0000 0.02099  0.70106  0.80548  Biso   1.000  C
  C596     1.0000 0.06373  0.77993  0.84071  Biso   1.000  C
  C597     1.0000 0.02655  0.81351  0.88150  Biso   1.000  C
  C598     1.0000 0.99681  0.86618  0.90297  Biso   1.000  C
  C599     1.0000 0.83929  0.77408  0.89694  Biso   1.000  C
  C600     1.0000 0.90962  0.84379  0.91205  Biso   1.000  C
  O198     1.0000 0.89968  0.61869  0.79729  Biso   1.000  O
  N399     1.0000 0.97006  0.61951  0.80775  Biso   1.000  N
  C601     1.0000 0.01944  0.65410  0.81301  Biso   1.000  C
  N400     1.0000 0.04723  0.73012  0.83736  Biso   1.000  N
  H595     1.0000 0.03770  0.71582  0.78171  Biso   1.000  H
  H596     1.0000 0.08799  0.79330  0.86061  Biso   1.000  H
  H597     1.0000 0.07951  0.79579  0.81730  Biso   1.000  H
  O199     1.0000 0.04981  0.81662  0.90898  Biso   1.000  O
  N401     1.0000 0.95447  0.84771  0.92462  Biso   1.000  N
  H598     1.0000 0.00081  0.89431  0.88911  Biso   1.000  H
  H599     1.0000 0.02449  0.87719  0.91980  Biso   1.000  H
  O200     1.0000 0.80858  0.74120  0.87884  Biso   1.000  O
  N402     1.0000 0.83427  0.78517  0.93270  Biso   1.000  N
  C602     1.0000 0.87747  0.82524  0.94656  Biso   1.000  C
  H600     1.0000 0.91421  0.87520  0.90361  Biso   1.000  H
  C603     1.0000 0.95232  0.56870  0.80357  Biso   1.000  C
  N403     1.0000 0.03584  0.65838  0.85081  Biso   1.000  N
  H601     1.0000 0.04030  0.64889  0.79549  Biso   1.000  H
  C604     1.0000 0.05433  0.70405  0.86351  Biso   1.000  C
  C605     1.0000 0.94976  0.82724  0.95863  Biso   1.000  C
  C606     1.0000 0.78980  0.76139  0.95257  Biso   1.000  C
  N404     1.0000 0.90411  0.81152  0.97116  Biso   1.000  N
  H602     1.0000 0.87171  0.85010  0.95780  Biso   1.000  H
  N405     1.0000 0.94024  0.54307  0.83813  Biso   1.000  N
  H603     1.0000 0.97690  0.56421  0.79090  Biso   1.000  H
  H604     1.0000 0.92371  0.55491  0.78760  Biso   1.000  H
  C607     1.0000 0.04599  0.62450  0.86808  Biso   1.000  C
  O201     1.0000 0.07525  0.71903  0.89298  Biso   1.000  O
  O202     1.0000 0.98048  0.82371  0.97512  Biso   1.000  O
  N406     1.0000 0.78560  0.72427  0.97761  Biso   1.000  N
  H605     1.0000 0.78622  0.78542  0.96701  Biso   1.000  H
  H606     1.0000 0.76332  0.74702  0.93450  Biso   1.000  H
  C608     1.0000 0.89218  0.79947  0.00969  Biso   1.000  C
  C609     1.0000 0.89561  0.51280  0.84782  Biso   1.000  C
  C610     1.0000 0.97441  0.54032  0.86213  Biso   1.000  C
  N407     1.0000 0.00460  0.58336  0.88308  Biso   1.000  N
  H607     1.0000 0.06110  0.61359  0.84959  Biso   1.000  H
  H608     1.0000 0.06930  0.64069  0.88831  Biso   1.000  H
  C611     1.0000 0.75520  0.67674  0.97233  Biso   1.000  C
  C612     1.0000 0.80562  0.73454  0.01467  Biso   1.000  C
  N408     1.0000 0.85673  0.75072  0.01536  Biso   1.000  N
  H609     1.0000 0.88050  0.82000  0.02009  Biso   1.000  H
  H610     1.0000 0.92142  0.80631  0.02341  Biso   1.000  H
  O203     1.0000 0.85914  0.50413  0.83105  Biso   1.000  O
  N409     1.0000 0.89586  0.48976  0.87931  Biso   1.000  N
  H611     1.0000 0.99362  0.52891  0.84851  Biso   1.000  H
  C613     1.0000 0.94340  0.50492  0.89146  Biso   1.000  C
  C614     1.0000 0.99481  0.57748  0.92024  Biso   1.000  C
  O204     1.0000 0.73068  0.65920  0.94468  Biso   1.000  O
  N410     1.0000 0.75677  0.65321  0.00280  Biso   1.000  N
  C615     1.0000 0.78314  0.68569  0.03324  Biso   1.000  C
  H612     1.0000 0.79809  0.75689  0.02820  Biso   1.000  H
  C616     1.0000 0.86536  0.72006  0.03661  Biso   1.000  C
  C617     1.0000 0.85278  0.45079  0.89622  Biso   1.000  C
  N411     1.0000 0.95736  0.53216  0.92586  Biso   1.000  N
  H613     1.0000 0.94921  0.47739  0.89279  Biso   1.000  H
  O205     1.0000 0.01601  0.60668  0.94432  Biso   1.000  O
  C618     1.0000 0.72182  0.60343  0.01010  Biso   1.000  C
  N412     1.0000 0.82290  0.68177  0.04630  Biso   1.000  N
  H614     1.0000 0.76142  0.68302  0.05391  Biso   1.000  H
  O206     1.0000 0.90530  0.72726  0.04475  Biso   1.000  O
  N413     1.0000 0.83984  0.46473  0.93029  Biso   1.000  N
  H615     1.0000 0.85809  0.42380  0.90129  Biso   1.000  H
  H616     1.0000 0.82600  0.43970  0.87851  Biso   1.000  H
  C619     1.0000 0.94650  0.51119  0.96242  Biso   1.000  C
  N414     1.0000 0.74112  0.57323  0.01453  Biso   1.000  N
  H617     1.0000 0.69869  0.59120  0.98940  Biso   1.000  H
  H618     1.0000 0.70398  0.60179  0.03279  Biso   1.000  H
  C620     1.0000 0.81866  0.64797  0.07417  Biso   1.000  C
  C621     1.0000 0.80149  0.47079  0.93250  Biso   1.000  C
  C622     1.0000 0.85649  0.46110  0.96549  Biso   1.000  C
  N415     1.0000 0.90132  0.50235  0.97659  Biso   1.000  N
  H619     1.0000 0.97190  0.53258  0.97969  Biso   1.000  H
  H620     1.0000 0.94649  0.48060  0.96159  Biso   1.000  H
  C623     1.0000 0.74062  0.54421  0.98760  Biso   1.000  C
  C624     1.0000 0.75873  0.56492  0.04868  Biso   1.000  C
  N416     1.0000 0.80756  0.60218  0.05870  Biso   1.000  N
  H621     1.0000 0.84901  0.66130  0.08809  Biso   1.000  H
  H622     1.0000 0.79329  0.64319  0.09179  Biso   1.000  H
  O207     1.0000 0.77887  0.47507  0.90660  Biso   1.000  O
  N417     1.0000 0.79164  0.47333  0.96909  Biso   1.000  N
  H623     1.0000 0.85771  0.43100  0.96790  Biso   1.000  H
  C625     1.0000 0.82050  0.46249  0.99350  Biso   1.000  C
  C626     1.0000 0.89720  0.52339  0.00877  Biso   1.000  C
  N418     1.0000 0.75763  0.51547  0.00127  Biso   1.000  N
  O208     1.0000 0.72625  0.54221  0.95553  Biso   1.000  O
  C627     1.0000 0.76541  0.52121  0.04021  Biso   1.000  C
  H624     1.0000 0.73590  0.55811  0.06949  Biso   1.000  H
  C628     1.0000 0.83664  0.58297  0.06335  Biso   1.000  C
  C629     1.0000 0.74952  0.47251  0.98151  Biso   1.000  C
  N419     1.0000 0.85083  0.49992  0.01851  Biso   1.000  N
  H625     1.0000 0.80118  0.43139  0.00650  Biso   1.000  H
  O209     1.0000 0.92986  0.55597  0.02546  Biso   1.000  O
  N420     1.0000 0.81341  0.53743  0.05247  Biso   1.000  N
  H626     1.0000 0.74179  0.49219  0.05399  Biso   1.000  H
  O210     1.0000 0.87690  0.60468  0.07605  Biso   1.000  O
  H627     1.0000 0.72901  0.46780  0.95979  Biso   1.000  H
  H628     1.0000 0.73181  0.44452  0.99801  Biso   1.000  H
  C630     1.0000 0.83482  0.50731  0.05402  Biso   1.000  C
  H629     1.0000 0.81109  0.47579  0.06429  Biso   1.000  H
  H630     1.0000 0.86230  0.52182  0.07121  Biso   1.000  H
  O211     1.0000 0.12431  0.27369  0.19253  Biso   1.000  O
  C631     1.0000 0.08393  0.24363  0.18353  Biso   1.000  C
  N421     1.0000 0.07093  0.20213  0.16510  Biso   1.000  N
  N422     1.0000 0.04313  0.24534  0.19156  Biso   1.000  N
  C632     1.0000 0.10439  0.18765  0.15417  Biso   1.000  C
  C633     1.0000 0.02001  0.17286  0.16084  Biso   1.000  C
  C634     1.0000 0.00051  0.20242  0.17974  Biso   1.000  C
  C635     1.0000 0.04351  0.28118  0.21478  Biso   1.000  C
  N423     1.0000 0.11582  0.19336  0.11529  Biso   1.000  N
  H631     1.0000 0.09121  0.15371  0.16081  Biso   1.000  H
  H632     1.0000 0.13420  0.20652  0.16840  Biso   1.000  H
  N424     1.0000 0.00286  0.16801  0.12320  Biso   1.000  N
  H633     1.0000 0.00771  0.14109  0.17299  Biso   1.000  H
  N425     1.0000 0.97358  0.20883  0.15113  Biso   1.000  N
  H634     1.0000 0.97981  0.18491  0.20130  Biso   1.000  H
  N426     1.0000 0.02845  0.31152  0.19563  Biso   1.000  N
  H635     1.0000 0.07609  0.30150  0.22460  Biso   1.000  H
  H636     1.0000 0.02201  0.26560  0.23609  Biso   1.000  H
  C636     1.0000 0.16073  0.22591  0.10306  Biso   1.000  C
  C637     1.0000 0.09041  0.15624  0.08795  Biso   1.000  C
  C638     1.0000 0.00321  0.13381  0.09703  Biso   1.000  C
  C639     1.0000 0.97343  0.18648  0.11850  Biso   1.000  C
  C640     1.0000 0.93625  0.22007  0.15929  Biso   1.000  C
  C641     1.0000 0.05739  0.36008  0.19712  Biso   1.000  C
  C642     1.0000 0.97899  0.29893  0.19452  Biso   1.000  C
  O212     1.0000 0.19140  0.25879  0.12116  Biso   1.000  O
  N427     1.0000 0.16574  0.21482  0.06730  Biso   1.000  N
  C643     1.0000 0.12251  0.17475  0.05344  Biso   1.000  C
  N428     1.0000 0.04554  0.15228  0.07538  Biso   1.000  N
  H637     1.0000 0.08580  0.12479  0.09639  Biso   1.000  H
  H638     1.0000 0.99921  0.10568  0.11089  Biso   1.000  H
  H639     1.0000 0.97549  0.12280  0.08020  Biso   1.000  H
  O213     1.0000 0.95022  0.18341  0.09102  Biso   1.000  O
  N429     1.0000 0.95279  0.26988  0.16264  Biso   1.000  N
  H640     1.0000 0.91199  0.20669  0.13939  Biso   1.000  H
  H641     1.0000 0.92050  0.20420  0.18270  Biso   1.000  H
  O214     1.0000 0.10030  0.38130  0.20271  Biso   1.000  O
  N430     1.0000 0.02992  0.38048  0.19225  Biso   1.000  N
  H642     1.0000 0.96230  0.28421  0.21829  Biso   1.000  H
  C644     1.0000 0.98054  0.34589  0.18699  Biso   1.000  C
  C645     1.0000 0.21020  0.23864  0.04743  Biso   1.000  C
  N431     1.0000 0.09587  0.18847  0.02884  Biso   1.000  N
  H643     1.0000 0.12831  0.14990  0.04220  Biso   1.000  H
  C646     1.0000 0.05025  0.17275  0.04137  Biso   1.000  C
  C647     1.0000 0.94565  0.29594  0.13649  Biso   1.000  C
  C648     1.0000 0.04770  0.43129  0.19643  Biso   1.000  C
  N432     1.0000 0.96416  0.34165  0.14919  Biso   1.000  N
  H644     1.0000 0.95971  0.35110  0.20451  Biso   1.000  H
  N433     1.0000 0.21440  0.27576  0.02239  Biso   1.000  N
  H645     1.0000 0.21380  0.21461  0.03299  Biso   1.000  H
  H646     1.0000 0.23671  0.25301  0.06550  Biso   1.000  H
  C649     1.0000 0.10783  0.20053  0.99031  Biso   1.000  C
  O215     1.0000 0.01955  0.17632  0.02488  Biso   1.000  O
  O216     1.0000 0.92475  0.28100  0.10702  Biso   1.000  O
  N434     1.0000 0.05977  0.45692  0.16187  Biso   1.000  N
  H647     1.0000 0.02310  0.43582  0.20910  Biso   1.000  H
  H648     1.0000 0.07630  0.44509  0.21240  Biso   1.000  H
  C650     1.0000 0.95399  0.37549  0.13192  Biso   1.000  C
  C651     1.0000 0.24481  0.32325  0.02767  Biso   1.000  C
  C652     1.0000 0.19441  0.26549  0.98533  Biso   1.000  C
  N435     1.0000 0.14327  0.24930  0.98464  Biso   1.000  N
  H649     1.0000 0.11948  0.17999  0.97991  Biso   1.000  H
  H650     1.0000 0.07861  0.19372  0.97659  Biso   1.000  H
  C653     1.0000 0.10440  0.48720  0.15218  Biso   1.000  C
  C654     1.0000 0.02560  0.45967  0.13787  Biso   1.000  C
  N436     1.0000 0.99541  0.41663  0.11692  Biso   1.000  N
  H651     1.0000 0.93888  0.38640  0.15041  Biso   1.000  H
  H652     1.0000 0.93071  0.35930  0.11169  Biso   1.000  H
  O217     1.0000 0.26932  0.34083  0.05532  Biso   1.000  O
  N437     1.0000 0.24323  0.34682  0.99720  Biso   1.000  N
  C655     1.0000 0.21689  0.31434  0.96676  Biso   1.000  C
  H653     1.0000 0.20190  0.24310  0.97180  Biso   1.000  H
  C656     1.0000 0.13465  0.27993  0.96339  Biso   1.000  C
  O218     1.0000 0.14087  0.49586  0.16895  Biso   1.000  O
  N438     1.0000 0.10415  0.51023  0.12069  Biso   1.000  N
  H654     1.0000 0.00641  0.47111  0.15149  Biso   1.000  H
  C657     1.0000 0.05660  0.49511  0.10854  Biso   1.000  C
  C658     1.0000 0.00521  0.42252  0.07976  Biso   1.000  C
  C659     1.0000 0.27821  0.39660  0.98990  Biso   1.000  C
  N439     1.0000 0.17710  0.31826  0.95370  Biso   1.000  N
  H655     1.0000 0.23860  0.31701  0.94609  Biso   1.000  H
  O219     1.0000 0.09471  0.27273  0.95525  Biso   1.000  O
  C660     1.0000 0.14720  0.54920  0.10378  Biso   1.000  C
  N440     1.0000 0.04266  0.46783  0.07414  Biso   1.000  N
  H656     1.0000 0.05080  0.52260  0.10721  Biso   1.000  H
  O220     1.0000 0.98397  0.39331  0.05568  Biso   1.000  O
  H657     1.0000 0.30129  0.40879  0.01060  Biso   1.000  H
  N441     1.0000 0.25889  0.42676  0.98547  Biso   1.000  N
  H658     1.0000 0.29600  0.39820  0.96721  Biso   1.000  H
  C661     1.0000 0.18134  0.35206  0.92583  Biso   1.000  C
  N442     1.0000 0.16017  0.53526  0.06971  Biso   1.000  N
  H659     1.0000 0.14189  0.57619  0.09871  Biso   1.000  H
  H660     1.0000 0.17398  0.56029  0.12149  Biso   1.000  H
  C662     1.0000 0.05351  0.48880  0.03758  Biso   1.000  C
  C663     1.0000 0.25939  0.45578  0.01240  Biso   1.000  C
  C664     1.0000 0.24128  0.43507  0.95132  Biso   1.000  C
  N443     1.0000 0.19242  0.39781  0.94130  Biso   1.000  N
  H661     1.0000 0.15100  0.33869  0.91191  Biso   1.000  H
  H662     1.0000 0.20669  0.35680  0.90821  Biso   1.000  H
  C665     1.0000 0.19849  0.52920  0.06750  Biso   1.000  C
  C666     1.0000 0.14349  0.53890  0.03451  Biso   1.000  C
  N444     1.0000 0.09871  0.49768  0.02341  Biso   1.000  N
  H663     1.0000 0.02811  0.46741  0.02031  Biso   1.000  H
  H664     1.0000 0.05349  0.51939  0.03841  Biso   1.000  H
  O221     1.0000 0.27377  0.45782  0.04447  Biso   1.000  O
  N445     1.0000 0.24238  0.48452  0.99873  Biso   1.000  N
  C667     1.0000 0.23462  0.47882  0.95979  Biso   1.000  C
  H665     1.0000 0.26409  0.44191  0.93051  Biso   1.000  H
  C668     1.0000 0.16334  0.41703  0.93665  Biso   1.000  C
  N446     1.0000 0.20837  0.52667  0.03091  Biso   1.000  N
  O222     1.0000 0.22114  0.52492  0.09340  Biso   1.000  O
  C669     1.0000 0.17951  0.53751  0.00650  Biso   1.000  C
  H666     1.0000 0.14230  0.56899  0.03210  Biso   1.000  H
  C670     1.0000 0.10281  0.47661  0.99123  Biso   1.000  C
  C671     1.0000 0.25050  0.52749  0.01849  Biso   1.000  C
  N447     1.0000 0.18660  0.46256  0.94753  Biso   1.000  N
  H667     1.0000 0.25819  0.50780  0.94601  Biso   1.000  H
  O223     1.0000 0.12312  0.39531  0.92395  Biso   1.000  O
  N448     1.0000 0.14915  0.50007  0.98149  Biso   1.000  N
  H668     1.0000 0.19880  0.56860  0.99350  Biso   1.000  H
  O224     1.0000 0.07013  0.44405  0.97454  Biso   1.000  O
  H669     1.0000 0.27101  0.53219  0.04021  Biso   1.000  H
  H670     1.0000 0.26821  0.55551  0.00199  Biso   1.000  H
  C672     1.0000 0.16519  0.49269  0.94598  Biso   1.000  C
  H671     1.0000 0.18889  0.52421  0.93571  Biso   1.000  H
  H672     1.0000 0.13770  0.47821  0.92879  Biso   1.000  H
  O225     1.0000 0.64499  0.14087  0.83105  Biso   1.000  O
  C673     1.0000 0.61721  0.10440  0.84782  Biso   1.000  C
  N449     1.0000 0.60283  0.05976  0.83813  Biso   1.000  N
  N450     1.0000 0.59393  0.10415  0.87931  Biso   1.000  N
  C674     1.0000 0.61641  0.04771  0.80357  Biso   1.000  C
  C675     1.0000 0.56593  0.02560  0.86213  Biso   1.000  C
  C676     1.0000 0.56150  0.05659  0.89146  Biso   1.000  C
  C677     1.0000 0.59800  0.14719  0.89622  Biso   1.000  C
  N451     1.0000 0.64945  0.02991  0.80775  Biso   1.000  N
  H673     1.0000 0.58731  0.02310  0.79090  Biso   1.000  H
  H674     1.0000 0.63120  0.07630  0.78760  Biso   1.000  H
  H675     1.0000 0.53529  0.00638  0.84851  Biso   1.000  H
  N452     1.0000 0.57874  0.99540  0.88308  Biso   1.000  N
  N453     1.0000 0.57482  0.04264  0.92586  Biso   1.000  N
  H676     1.0000 0.52820  0.05081  0.89279  Biso   1.000  H
  N454     1.0000 0.62490  0.16016  0.93029  Biso   1.000  N
  H677     1.0000 0.56572  0.14191  0.90129  Biso   1.000  H
  H678     1.0000 0.61369  0.17400  0.87851  Biso   1.000  H
  C678     1.0000 0.69731  0.05741  0.80288  Biso   1.000  C
  C679     1.0000 0.63463  0.98057  0.81301  Biso   1.000  C
  C680     1.0000 0.58269  0.00521  0.92024  Biso   1.000  C
  C681     1.0000 0.57852  0.95400  0.86808  Biso   1.000  C
  C682     1.0000 0.56471  0.05348  0.96242  Biso   1.000  C
  C683     1.0000 0.66929  0.19849  0.93250  Biso   1.000  C
  C684     1.0000 0.60460  0.14351  0.96549  Biso   1.000  C
  O226     1.0000 0.71901  0.10030  0.79729  Biso   1.000  O
  N455     1.0000 0.71693  0.02845  0.80437  Biso   1.000  N
  N456     1.0000 0.62253  0.96417  0.85081  Biso   1.000  N
  C685     1.0000 0.68004  0.97900  0.80548  Biso   1.000  C
  H679     1.0000 0.60857  0.95971  0.79549  Biso   1.000  H
  O227     1.0000 0.59062  0.98396  0.94432  Biso   1.000  O
  H680     1.0000 0.55246  0.93889  0.84959  Biso   1.000  H
  H681     1.0000 0.57140  0.93069  0.88831  Biso   1.000  H
  N457     1.0000 0.60102  0.09869  0.97659  Biso   1.000  N
  H682     1.0000 0.56069  0.02810  0.97969  Biso   1.000  H
  H683     1.0000 0.53411  0.05348  0.96159  Biso   1.000  H
  O228     1.0000 0.69621  0.22113  0.90660  Biso   1.000  O
  N458     1.0000 0.68171  0.20837  0.96909  Biso   1.000  N
  H684     1.0000 0.57330  0.14230  0.96790  Biso   1.000  H
  C686     1.0000 0.64201  0.17949  0.99350  Biso   1.000  C
  C687     1.0000 0.76231  0.04350  0.78522  Biso   1.000  C
  C688     1.0000 0.64972  0.94566  0.86351  Biso   1.000  C
  N459     1.0000 0.68290  0.95279  0.83736  Biso   1.000  N
  H685     1.0000 0.67808  0.96231  0.78171  Biso   1.000  H
  C689     1.0000 0.62620  0.10279  0.00877  Biso   1.000  C
  C690     1.0000 0.72300  0.25051  0.98151  Biso   1.000  C
  N460     1.0000 0.64912  0.14918  0.01851  Biso   1.000  N
  H686     1.0000 0.63021  0.19881  0.00650  Biso   1.000  H
  N461     1.0000 0.79780  0.04314  0.80844  Biso   1.000  N
  H687     1.0000 0.77459  0.07609  0.77540  Biso   1.000  H
  H688     1.0000 0.75641  0.02200  0.76391  Biso   1.000  H
  O229     1.0000 0.64378  0.92477  0.89298  Biso   1.000  O
  C691     1.0000 0.71620  0.93628  0.84071  Biso   1.000  C
  O230     1.0000 0.62611  0.07013  0.02546  Biso   1.000  O
  H689     1.0000 0.73881  0.27102  0.95979  Biso   1.000  H
  H690     1.0000 0.71270  0.26820  0.99801  Biso   1.000  H
  N462     1.0000 0.75785  0.24239  0.00127  Biso   1.000  N
  C692     1.0000 0.67250  0.16519  0.05402  Biso   1.000  C
  C693     1.0000 0.84028  0.08390  0.81647  Biso   1.000  C
  C694     1.0000 0.79809  0.00050  0.82026  Biso   1.000  C
  N463     1.0000 0.76474  0.97358  0.84887  Biso   1.000  N
  H691     1.0000 0.70527  0.91200  0.86061  Biso   1.000  H
  H692     1.0000 0.71630  0.92049  0.81730  Biso   1.000  H
  C695     1.0000 0.80362  0.25939  0.98760  Biso   1.000  C
  C696     1.0000 0.75581  0.23461  0.04021  Biso   1.000  C
  N464     1.0000 0.72405  0.18658  0.05247  Biso   1.000  N
  H693     1.0000 0.66472  0.18890  0.06429  Biso   1.000  H
  H694     1.0000 0.65949  0.13770  0.07121  Biso   1.000  H
  O231     1.0000 0.85060  0.12429  0.80747  Biso   1.000  O
  N465     1.0000 0.86881  0.07092  0.83490  Biso   1.000  N
  C697     1.0000 0.84715  0.02000  0.83916  Biso   1.000  C
  H695     1.0000 0.79489  0.97978  0.79870  Biso   1.000  H
  C698     1.0000 0.78697  0.97344  0.88150  Biso   1.000  C
  O232     1.0000 0.81596  0.27376  0.95553  Biso   1.000  O
  N466     1.0000 0.83215  0.25889  0.01453  Biso   1.000  N
  H696     1.0000 0.75041  0.25822  0.05399  Biso   1.000  H
  C699     1.0000 0.80620  0.24128  0.04868  Biso   1.000  C
  C700     1.0000 0.74633  0.16334  0.06335  Biso   1.000  C
  C701     1.0000 0.91672  0.10436  0.84583  Biso   1.000  C
  N467     1.0000 0.83484  0.00285  0.87680  Biso   1.000  N
  H697     1.0000 0.86660  0.00770  0.82701  Biso   1.000  H
  O233     1.0000 0.76679  0.95019  0.90898  Biso   1.000  O
  C702     1.0000 0.88160  0.27818  0.01010  Biso   1.000  C
  N468     1.0000 0.79463  0.19243  0.05870  Biso   1.000  N
  H698     1.0000 0.82222  0.26410  0.06949  Biso   1.000  H
  O234     1.0000 0.72779  0.12312  0.07605  Biso   1.000  O
  N469     1.0000 0.92247  0.11581  0.88471  Biso   1.000  N
  H699     1.0000 0.93750  0.09121  0.83919  Biso   1.000  H
  H700     1.0000 0.92772  0.13421  0.83160  Biso   1.000  H
  C703     1.0000 0.86938  0.00321  0.90297  Biso   1.000  C
  H701     1.0000 0.89250  0.30129  0.98940  Biso   1.000  H
  N470     1.0000 0.89642  0.24324  0.00280  Biso   1.000  N
  H702     1.0000 0.89780  0.29601  0.03279  Biso   1.000  H
  C704     1.0000 0.82929  0.18134  0.07417  Biso   1.000  C
  C705     1.0000 0.93481  0.16073  0.89694  Biso   1.000  C
  C706     1.0000 0.93415  0.09039  0.91205  Biso   1.000  C
  N471     1.0000 0.89326  0.04553  0.92462  Biso   1.000  N
  H703     1.0000 0.89348  0.99922  0.88911  Biso   1.000  H
  H704     1.0000 0.85269  0.97550  0.91980  Biso   1.000  H
  C707     1.0000 0.92157  0.24481  0.97233  Biso   1.000  C
  C708     1.0000 0.90258  0.21689  0.03324  Biso   1.000  C
  N472     1.0000 0.85885  0.17710  0.04630  Biso   1.000  N
  H705     1.0000 0.81229  0.15100  0.08809  Biso   1.000  H
  H706     1.0000 0.84990  0.20669  0.09179  Biso   1.000  H
  O235     1.0000 0.93263  0.19140  0.87884  Biso   1.000  O
  N473     1.0000 0.95092  0.16573  0.93270  Biso   1.000  N
  C709     1.0000 0.94778  0.12251  0.94656  Biso   1.000  C
  H707     1.0000 0.96100  0.08579  0.90361  Biso   1.000  H
  C710     1.0000 0.87749  0.05024  0.95863  Biso   1.000  C
  N474     1.0000 0.93866  0.21440  0.97761  Biso   1.000  N
  O236     1.0000 0.92851  0.26931  0.94468  Biso   1.000  O
  C711     1.0000 0.92891  0.19439  0.01467  Biso   1.000  C
  H708     1.0000 0.92162  0.23861  0.05391  Biso   1.000  H
  C712     1.0000 0.85472  0.13463  0.03661  Biso   1.000  C
  C713     1.0000 0.97158  0.21019  0.95257  Biso   1.000  C
  N475     1.0000 0.90741  0.09588  0.97116  Biso   1.000  N
  H709     1.0000 0.97839  0.12829  0.95780  Biso   1.000  H
  O237     1.0000 0.84324  0.01954  0.97512  Biso   1.000  O
  N476     1.0000 0.89399  0.14326  0.01536  Biso   1.000  N
  H710     1.0000 0.95882  0.20192  0.02820  Biso   1.000  H
  O238     1.0000 0.82197  0.09470  0.04475  Biso   1.000  O
  H711     1.0000 0.99919  0.21379  0.96701  Biso   1.000  H
  H712     1.0000 0.98370  0.23672  0.93450  Biso   1.000  H
  C714     1.0000 0.90730  0.10782  0.00969  Biso   1.000  C
  H713     1.0000 0.93952  0.11952  0.02009  Biso   1.000  H
  H714     1.0000 0.88490  0.07858  0.02341  Biso   1.000  H
  O239     1.0000 0.35499  0.85912  0.16895  Biso   1.000  O
  C715     1.0000 0.38280  0.89559  0.15218  Biso   1.000  C
  N477     1.0000 0.40608  0.89584  0.12069  Biso   1.000  N
  N478     1.0000 0.39715  0.94023  0.16187  Biso   1.000  N
  C716     1.0000 0.40201  0.85281  0.10378  Biso   1.000  C
  C717     1.0000 0.43851  0.94341  0.10854  Biso   1.000  C
  C718     1.0000 0.43408  0.97439  0.13787  Biso   1.000  C
  C719     1.0000 0.38362  0.95232  0.19643  Biso   1.000  C
  N479     1.0000 0.37511  0.83983  0.06971  Biso   1.000  N
  H715     1.0000 0.43431  0.85812  0.09871  Biso   1.000  H
  H716     1.0000 0.38629  0.82599  0.12149  Biso   1.000  H
  N480     1.0000 0.42519  0.95735  0.07414  Biso   1.000  N
  H717     1.0000 0.47180  0.94922  0.10721  Biso   1.000  H
  H718     1.0000 0.46469  0.99361  0.15149  Biso   1.000  H
  N481     1.0000 0.42127  0.00459  0.11692  Biso   1.000  N
  N482     1.0000 0.35056  0.97008  0.19225  Biso   1.000  N
  H719     1.0000 0.41270  0.97689  0.20910  Biso   1.000  H
  H720     1.0000 0.36881  0.92369  0.21240  Biso   1.000  H
  C720     1.0000 0.33069  0.80150  0.06750  Biso   1.000  C
  C721     1.0000 0.39540  0.85651  0.03451  Biso   1.000  C
  C722     1.0000 0.43530  0.94651  0.03758  Biso   1.000  C
  C723     1.0000 0.41729  0.99479  0.07976  Biso   1.000  C
  C724     1.0000 0.42150  0.04599  0.13192  Biso   1.000  C
  C725     1.0000 0.30270  0.94259  0.19712  Biso   1.000  C
  C726     1.0000 0.36534  0.01946  0.18699  Biso   1.000  C
  O240     1.0000 0.30377  0.77886  0.09340  Biso   1.000  O
  N483     1.0000 0.31831  0.79162  0.03091  Biso   1.000  N
  C727     1.0000 0.35800  0.82050  0.00650  Biso   1.000  C
  N484     1.0000 0.39896  0.90130  0.02341  Biso   1.000  N
  H721     1.0000 0.42668  0.85769  0.03210  Biso   1.000  H
  H722     1.0000 0.43929  0.97190  0.02031  Biso   1.000  H
  H723     1.0000 0.46591  0.94651  0.03841  Biso   1.000  H
  O241     1.0000 0.40933  0.01604  0.05568  Biso   1.000  O
  N485     1.0000 0.37748  0.03583  0.14919  Biso   1.000  N
  H724     1.0000 0.44752  0.06111  0.15041  Biso   1.000  H
  H725     1.0000 0.42865  0.06931  0.11169  Biso   1.000  H
  O242     1.0000 0.28100  0.89969  0.20271  Biso   1.000  O
  N486     1.0000 0.28310  0.97157  0.19563  Biso   1.000  N
  C728     1.0000 0.31998  0.02099  0.19452  Biso   1.000  C
  H726     1.0000 0.39140  0.04032  0.20451  Biso   1.000  H
  C729     1.0000 0.27699  0.74951  0.01849  Biso   1.000  C
  N487     1.0000 0.35091  0.85085  0.98149  Biso   1.000  N
  H727     1.0000 0.36982  0.80121  0.99350  Biso   1.000  H
  C730     1.0000 0.37381  0.89720  0.99123  Biso   1.000  C
  C731     1.0000 0.35026  0.05433  0.13649  Biso   1.000  C
  C732     1.0000 0.23767  0.95649  0.21478  Biso   1.000  C
  N488     1.0000 0.31708  0.04720  0.16264  Biso   1.000  N
  H728     1.0000 0.32191  0.03772  0.21829  Biso   1.000  H
  H729     1.0000 0.26122  0.72901  0.04021  Biso   1.000  H
  H730     1.0000 0.28731  0.73179  0.00199  Biso   1.000  H
  N489     1.0000 0.24213  0.75761  0.99873  Biso   1.000  N
  C733     1.0000 0.32751  0.83480  0.94598  Biso   1.000  C
  O243     1.0000 0.37390  0.92986  0.97454  Biso   1.000  O
  O244     1.0000 0.35628  0.07526  0.10702  Biso   1.000  O
  N490     1.0000 0.20219  0.95685  0.19156  Biso   1.000  N
  H731     1.0000 0.22539  0.92390  0.22460  Biso   1.000  H
  H732     1.0000 0.24360  0.97799  0.23609  Biso   1.000  H
  C734     1.0000 0.28382  0.06374  0.15929  Biso   1.000  C
  C735     1.0000 0.19641  0.74063  0.01240  Biso   1.000  C
  C736     1.0000 0.24422  0.76541  0.95979  Biso   1.000  C
  N491     1.0000 0.27596  0.81341  0.94753  Biso   1.000  N
  H733     1.0000 0.33530  0.81109  0.93571  Biso   1.000  H
  H734     1.0000 0.34049  0.86229  0.92879  Biso   1.000  H
  C737     1.0000 0.15970  0.91609  0.18353  Biso   1.000  C
  C738     1.0000 0.20189  0.99949  0.17974  Biso   1.000  C
  N492     1.0000 0.23527  0.02641  0.15113  Biso   1.000  N
  H735     1.0000 0.29471  0.08799  0.13939  Biso   1.000  H
  H736     1.0000 0.28374  0.07950  0.18270  Biso   1.000  H
  O245     1.0000 0.18402  0.72623  0.04447  Biso   1.000  O
  N493     1.0000 0.16786  0.74110  0.98547  Biso   1.000  N
  H737     1.0000 0.24961  0.74181  0.94601  Biso   1.000  H
  C739     1.0000 0.19381  0.75871  0.95132  Biso   1.000  C
  C740     1.0000 0.25368  0.83665  0.93665  Biso   1.000  C
  O246     1.0000 0.14938  0.87570  0.19253  Biso   1.000  O
  N494     1.0000 0.13120  0.92907  0.16510  Biso   1.000  N
  C741     1.0000 0.15283  0.97999  0.16084  Biso   1.000  C
  H738     1.0000 0.20512  0.02021  0.20130  Biso   1.000  H
  C742     1.0000 0.21305  0.02655  0.11850  Biso   1.000  C
  C743     1.0000 0.11838  0.72181  0.98990  Biso   1.000  C
  N495     1.0000 0.20539  0.80756  0.94130  Biso   1.000  N
  H739     1.0000 0.17780  0.73589  0.93051  Biso   1.000  H
  O247     1.0000 0.27220  0.87691  0.92395  Biso   1.000  O
  C744     1.0000 0.08329  0.89563  0.15417  Biso   1.000  C
  N496     1.0000 0.16514  0.99714  0.12320  Biso   1.000  N
  H740     1.0000 0.13338  0.99229  0.17299  Biso   1.000  H
  O248     1.0000 0.23319  0.04980  0.09102  Biso   1.000  O
  H741     1.0000 0.10751  0.69870  0.01060  Biso   1.000  H
  N497     1.0000 0.10357  0.75679  0.99720  Biso   1.000  N
  H742     1.0000 0.10220  0.70402  0.96721  Biso   1.000  H
  C745     1.0000 0.17070  0.81865  0.92583  Biso   1.000  C
  N498     1.0000 0.07754  0.88418  0.11529  Biso   1.000  N
  H743     1.0000 0.06248  0.90879  0.16081  Biso   1.000  H
  H744     1.0000 0.07231  0.86582  0.16840  Biso   1.000  H
  C746     1.0000 0.13062  0.99682  0.09703  Biso   1.000  C
  C747     1.0000 0.07846  0.75522  0.02767  Biso   1.000  C
  C748     1.0000 0.09745  0.78314  0.96676  Biso   1.000  C
  N499     1.0000 0.14114  0.82289  0.95370  Biso   1.000  N
  H745     1.0000 0.18769  0.84899  0.91191  Biso   1.000  H
  H746     1.0000 0.15008  0.79330  0.90821  Biso   1.000  H
  C749     1.0000 0.06519  0.83929  0.10306  Biso   1.000  C
  C750     1.0000 0.06583  0.90961  0.08795  Biso   1.000  C
  N500     1.0000 0.10675  0.95446  0.07538  Biso   1.000  N
  H747     1.0000 0.10655  0.00081  0.11089  Biso   1.000  H
  H748     1.0000 0.14729  0.02449  0.08020  Biso   1.000  H
  O249     1.0000 0.07150  0.73069  0.05532  Biso   1.000  O
  N501     1.0000 0.06135  0.78560  0.02239  Biso   1.000  N
  H749     1.0000 0.07839  0.76139  0.94609  Biso   1.000  H
  C751     1.0000 0.07107  0.80560  0.98533  Biso   1.000  C
  C752     1.0000 0.14529  0.86536  0.96339  Biso   1.000  C
  N502     1.0000 0.04909  0.83427  0.06730  Biso   1.000  N
  O250     1.0000 0.06738  0.80859  0.12116  Biso   1.000  O
  C753     1.0000 0.05223  0.87748  0.05344  Biso   1.000  C
  H750     1.0000 0.03901  0.91420  0.09639  Biso   1.000  H
  C754     1.0000 0.12249  0.94975  0.04137  Biso   1.000  C
  C755     1.0000 0.02844  0.78980  0.04743  Biso   1.000  C
  N503     1.0000 0.10602  0.85673  0.98464  Biso   1.000  N
  H751     1.0000 0.04120  0.79811  0.97180  Biso   1.000  H
  O251     1.0000 0.17801  0.90529  0.95525  Biso   1.000  O
  N504     1.0000 0.09260  0.90411  0.02884  Biso   1.000  N
  H752     1.0000 0.02159  0.87170  0.04220  Biso   1.000  H
  O252     1.0000 0.15679  0.98049  0.02488  Biso   1.000  O
  H753     1.0000 0.00079  0.78620  0.03299  Biso   1.000  H
  H754     1.0000 0.01630  0.76331  0.06550  Biso   1.000  H
  C756     1.0000 0.09271  0.89217  0.99031  Biso   1.000  C
  H755     1.0000 0.06051  0.88051  0.97991  Biso   1.000  H
  H756     1.0000 0.11511  0.92141  0.97659  Biso   1.000  H
  Ne1      1.0000 0.42439  0.43936  0.26100  Biso   1.000  Ne
  He1      1.0000 0.38733  0.35052  0.30683  Biso   1.000  He
  He2      1.0000 0.47064  0.52202  0.20680  Biso   1.000  He
  Ar1      1.0000 0.42413  0.43928  0.26070  Biso   1.000  Ar
  Ne2      1.0000 0.31836  0.09106  0.40567  Biso   1.000  Ne
  He3      1.0000 0.28238  0.13700  0.45940  Biso   1.000  He
  He4      1.0000 0.37022  0.05391  0.35977  Biso   1.000  He
  Ar2      1.0000 0.31817  0.09079  0.40597  Biso   1.000  Ar
  Ne3      1.0000 0.10603  0.34830  0.07234  Biso   1.000  Ne
  He5      1.0000 0.18751  0.38403  0.12576  Biso   1.000  He
  He6      1.0000 0.01643  0.29615  0.02602  Biso   1.000  He
  Ar3      1.0000 0.10595  0.34849  0.07263  Biso   1.000  Ar
  Ne4      1.0000 0.22731  0.31837  0.59433  Biso   1.000  Ne
  He7      1.0000 0.31547  0.36981  0.63970  Biso   1.000  He
  He8      1.0000 0.14238  0.28064  0.53864  Biso   1.000  He
  Ar4      1.0000 0.22825  0.31798  0.59447  Biso   1.000  Ar
  Ne5      1.0000 0.65170  0.75773  0.07234  Biso   1.000  Ne
  He9      1.0000 0.61571  0.80368  0.12606  Biso   1.000  He
  He10     1.0000 0.70356  0.72058  0.02642  Biso   1.000  He
  Ar5      1.0000 0.65152  0.75746  0.07263  Biso   1.000  Ar
  Ne6      1.0000 0.01497  0.57561  0.26100  Biso   1.000  Ne
  He11     1.0000 0.96340  0.61246  0.30652  Biso   1.000  He
  He12     1.0000 0.05957  0.52347  0.19755  Biso   1.000  He
  Ar6      1.0000 0.01515  0.57587  0.26070  Biso   1.000  Ar
  Ne7      1.0000 0.77269  0.68164  0.40567  Biso   1.000  Ne
  He13     1.0000 0.85418  0.71737  0.45910  Biso   1.000  He
  He14     1.0000 0.66442  0.62001  0.34715  Biso   1.000  He
  Ar7      1.0000 0.77352  0.68543  0.40484  Biso   1.000  Ar
  Ne8      1.0000 0.57561  0.56064  0.73900  Biso   1.000  Ne
  He15     1.0000 0.53050  0.48069  0.79142  Biso   1.000  He
  He16     1.0000 0.62323  0.67089  0.67920  Biso   1.000  He
  Ar8      1.0000 0.57772  0.55929  0.73854  Biso   1.000  Ar
  Ne9      1.0000 0.56065  0.98503  0.26100  Biso   1.000  Ne
  He17     1.0000 0.64881  0.03647  0.30637  Biso   1.000  He
  He18     1.0000 0.47570  0.94729  0.20531  Biso   1.000  He
  Ar9      1.0000 0.56072  0.98485  0.26070  Biso   1.000  Ar
  Ne10     1.0000 0.43935  0.01497  0.73900  Biso   1.000  Ne
  He19     1.0000 0.52085  0.05069  0.79243  Biso   1.000  He
  He20     1.0000 0.34971  0.96278  0.69269  Biso   1.000  He
  Ar10     1.0000 0.43928  0.01515  0.73930  Biso   1.000  Ar
  Ne11     1.0000 0.90895  0.22731  0.40567  Biso   1.000  Ne
  He21     1.0000 0.86381  0.14735  0.45809  Biso   1.000  He
  He22     1.0000 0.94898  0.32216  0.35594  Biso   1.000  He
  Ar11     1.0000 0.90921  0.22739  0.40597  Biso   1.000  Ar
  Ne12     1.0000 0.68164  0.90894  0.59433  Biso   1.000  Ne
  He23     1.0000 0.63011  0.94575  0.63979  Biso   1.000  He
  He24     1.0000 0.72621  0.85678  0.53089  Biso   1.000  He
  Ar12     1.0000 0.68545  0.91190  0.59516  Biso   1.000  Ar
  Ne13     1.0000 0.24228  0.89397  0.07234  Biso   1.000  Ne
  He25     1.0000 0.19716  0.81403  0.12475  Biso   1.000  He
  He26     1.0000 0.28230  0.98881  0.02258  Biso   1.000  He
  Ar13     1.0000 0.24254  0.89405  0.07263  Biso   1.000  Ar
  Ne14     1.0000 0.09106  0.77270  0.59433  Biso   1.000  Ne
  He27     1.0000 0.05399  0.68384  0.64014  Biso   1.000  He
  He28     1.0000 0.13730  0.85536  0.54014  Biso   1.000  He
  Ar14     1.0000 0.09080  0.77262  0.59404  Biso   1.000  Ar
  Ne15     1.0000 0.34830  0.24228  0.92766  Biso   1.000  Ne
  He29     1.0000 0.29675  0.27912  0.97320  Biso   1.000  He
  He30     1.0000 0.39289  0.19013  0.86423  Biso   1.000  He
  Ar15     1.0000 0.34849  0.24255  0.92736  Biso   1.000  Ar
  Ne16     1.0000 0.98503  0.42439  0.73900  Biso   1.000  Ne
  He31     1.0000 0.94961  0.46995  0.79210  Biso   1.000  He
  He32     1.0000 0.04643  0.37798  0.68079  Biso   1.000  He
  Ar16     1.0000 0.98140  0.42189  0.73834  Biso   1.000  Ar
  Ne17     1.0000 0.75772  0.10602  0.92766  Biso   1.000  Ne
  He33     1.0000 0.72099  0.01786  0.97301  Biso   1.000  He
  He34     1.0000 0.80343  0.18742  0.87430  Biso   1.000  He
  Ar17     1.0000 0.75521  0.10716  0.92832  Biso   1.000  Ar
  Ne18     1.0000 0.89398  0.65170  0.92766  Biso   1.000  Ne
  He35     1.0000 0.98216  0.70315  0.97303  Biso   1.000  He
  He36     1.0000 0.80906  0.61398  0.87198  Biso   1.000  He
  Ar18     1.0000 0.89683  0.65146  0.92850  Biso   1.000  Ar
