data_image0
_cell_length_a       24.236
_cell_length_b       15.797
_cell_length_c       20.4
_cell_angle_alpha    90
_cell_angle_beta     122.48
_cell_angle_gamma    90

_symmetry_space_group_name_H-M    "P 1"
_symmetry_int_tables_number       1

loop_
  _symmetry_equiv_pos_as_xyz
  'x, y, z'

loop_
  _atom_site_label
  _atom_site_occupancy
  _atom_site_fract_x
  _atom_site_fract_y
  _atom_site_fract_z
  _atom_site_thermal_displace_type
  _atom_site_B_iso_or_equiv
  _atom_site_type_symbol
  N1       1.0000 0.77912  0.43014  0.44552  Biso   1.000  N
  O1       1.0000 0.72174  0.42692  0.39381  Biso   1.000  O
  O2       1.0000 0.80987  0.49528  0.46336  Biso   1.000  O
  C1       1.0000 0.81151  0.35209  0.48515  Biso   1.000  C
  C2       1.0000 0.78470  0.27771  0.44564  Biso   1.000  C
  C3       1.0000 0.86814  0.35026  0.56133  Biso   1.000  C
  H1       1.0000 0.74622  0.27929  0.39503  Biso   1.000  H
  C4       1.0000 0.81297  0.20073  0.47853  Biso   1.000  C
  O3       1.0000 0.89306  0.42438  0.59876  Biso   1.000  O
  C5       1.0000 0.89433  0.27309  0.59370  Biso   1.000  C
  N2       1.0000 0.78264  0.12547  0.43251  Biso   1.000  N
  C6       1.0000 0.86843  0.19694  0.55401  Biso   1.000  C
  C7       1.0000 0.94846  0.42071  0.67575  Biso   1.000  C
  H2       1.0000 0.93159  0.27132  0.64519  Biso   1.000  H
  O4       1.0000 0.73281  0.13186  0.36963  Biso   1.000  O
  O5       1.0000 0.80951  0.05723  0.45918  Biso   1.000  O
  O6       1.0000 0.89982  0.12743  0.59225  Biso   1.000  O
  C8       1.0000 0.93739  0.42052  0.73525  Biso   1.000  C
  C9       1.0000 0.01045  0.42192  0.68766  Biso   1.000  C
  H3       1.0000 0.87961  0.08470  0.56552  Biso   1.000  H
  C10      1.0000 0.98954  0.42192  0.81237  Biso   1.000  C
  H4       1.0000 0.89381  0.41938  0.72363  Biso   1.000  H
  C11      1.0000 0.06264  0.42052  0.76477  Biso   1.000  C
  C12      1.0000 0.02146  0.42749  0.62148  Biso   1.000  C
  C13      1.0000 0.97856  0.42749  0.87855  Biso   1.000  C
  C14      1.0000 0.05153  0.42071  0.82428  Biso   1.000  C
  H5       1.0000 0.10618  0.41938  0.77640  Biso   1.000  H
  H6       1.0000 0.98329  0.40311  0.57400  Biso   1.000  H
  H7       1.0000 0.06048  0.39368  0.63449  Biso   1.000  H
  C15      1.0000 0.03124  0.51801  0.60550  Biso   1.000  C
  H8       1.0000 0.93948  0.39368  0.86548  Biso   1.000  H
  C16      1.0000 0.96876  0.51801  0.89447  Biso   1.000  C
  H9       1.0000 0.01669  0.40311  0.92603  Biso   1.000  H
  O7       1.0000 0.10692  0.42438  0.90127  Biso   1.000  O
  C17      1.0000 0.97785  0.56720  0.55291  Biso   1.000  C
  C18      1.0000 0.09297  0.55498  0.64402  Biso   1.000  C
  C19      1.0000 0.90703  0.55498  0.85595  Biso   1.000  C
  C20      1.0000 0.02216  0.56720  0.94706  Biso   1.000  C
  C21      1.0000 0.13182  0.35026  0.93864  Biso   1.000  C
  C22      1.0000 0.98565  0.65069  0.53867  Biso   1.000  C
  H10      1.0000 0.93528  0.54301  0.52629  Biso   1.000  H
  O8       1.0000 0.14397  0.50326  0.69615  Biso   1.000  O
  C23      1.0000 0.10082  0.63829  0.62926  Biso   1.000  C
  O9       1.0000 0.85603  0.50326  0.80382  Biso   1.000  O
  C24      1.0000 0.89914  0.63829  0.87071  Biso   1.000  C
  C25      1.0000 0.01436  0.65069  0.96130  Biso   1.000  C
  H11      1.0000 0.06468  0.54301  0.97368  Biso   1.000  H
  C26      1.0000 0.10563  0.27309  0.90627  Biso   1.000  C
  C27      1.0000 0.18852  0.35209  0.01488  Biso   1.000  C
  O10      1.0000 0.93478  0.70172  0.48620  Biso   1.000  O
  C28      1.0000 0.04769  0.68785  0.57708  Biso   1.000  C
  C29      1.0000 0.20692  0.53998  0.74130  Biso   1.000  C
  H12      1.0000 0.14350  0.66209  0.65541  Biso   1.000  H
  C30      1.0000 0.79311  0.53998  0.75873  Biso   1.000  C
  H13      1.0000 0.85652  0.66209  0.84462  Biso   1.000  H
  C31      1.0000 0.95229  0.68785  0.92295  Biso   1.000  C
  O11      1.0000 0.06525  0.70172  0.01383  Biso   1.000  O
  C32      1.0000 0.13158  0.19694  0.94596  Biso   1.000  C
  H14      1.0000 0.06837  0.27132  0.85478  Biso   1.000  H
  N3       1.0000 0.22089  0.43014  0.05445  Biso   1.000  N
  C33      1.0000 0.21533  0.27771  0.05439  Biso   1.000  C
  C34      1.0000 0.87074  0.66918  0.45296  Biso   1.000  C
  C35      1.0000 0.05648  0.78002  0.56319  Biso   1.000  C
  H15      1.0000 0.23739  0.49870  0.77942  Biso   1.000  H
  H16      1.0000 0.20480  0.58992  0.76838  Biso   1.000  H
  H17      1.0000 0.22200  0.55688  0.70730  Biso   1.000  H
  H18      1.0000 0.76259  0.49870  0.72061  Biso   1.000  H
  H19      1.0000 0.79520  0.58992  0.73159  Biso   1.000  H
  H20      1.0000 0.77803  0.55688  0.79272  Biso   1.000  H
  C36      1.0000 0.94353  0.78002  0.93678  Biso   1.000  C
  C37      1.0000 0.12927  0.66918  0.04701  Biso   1.000  C
  O12      1.0000 0.10021  0.12743  0.90778  Biso   1.000  O
  C38      1.0000 0.18699  0.20073  0.02144  Biso   1.000  C
  O13      1.0000 0.19015  0.49528  0.03667  Biso   1.000  O
  O14      1.0000 0.27825  0.42692  0.10622  Biso   1.000  O
  H21      1.0000 0.25380  0.27929  0.10500  Biso   1.000  H
  H22      1.0000 0.86458  0.65031  0.49439  Biso   1.000  H
  H23      1.0000 0.86439  0.62119  0.41920  Biso   1.000  H
  H24      1.0000 0.83881  0.71349  0.42239  Biso   1.000  H
  H25      1.0000 0.10190  0.78882  0.57679  Biso   1.000  H
  H26      1.0000 0.02671  0.79319  0.50729  Biso   1.000  H
  C39      1.0000 0.04264  0.84035  0.61055  Biso   1.000  C
  H27      1.0000 0.89810  0.78882  0.92318  Biso   1.000  H
  H28      1.0000 0.97329  0.79319  0.99268  Biso   1.000  H
  C40      1.0000 0.95738  0.84035  0.88948  Biso   1.000  C
  H29      1.0000 0.13538  0.65031  0.00558  Biso   1.000  H
  H30      1.0000 0.13560  0.62119  0.08083  Biso   1.000  H
  H31      1.0000 0.16122  0.71349  0.07763  Biso   1.000  H
  H32      1.0000 0.12042  0.08470  0.93451  Biso   1.000  H
  N4       1.0000 0.21735  0.12547  0.06752  Biso   1.000  N
  C41      1.0000 0.97971  0.86871  0.58260  Biso   1.000  C
  C42      1.0000 0.09227  0.86763  0.68400  Biso   1.000  C
  C43      1.0000 0.90773  0.86763  0.81597  Biso   1.000  C
  C44      1.0000 0.02027  0.86871  0.91743  Biso   1.000  C
  O15      1.0000 0.26715  0.13186  0.13034  Biso   1.000  O
  O16      1.0000 0.19048  0.05723  0.04085  Biso   1.000  O
  C45      1.0000 0.96535  0.92049  0.62613  Biso   1.000  C
  H33      1.0000 0.94541  0.85212  0.53199  Biso   1.000  H
  O17      1.0000 0.15435  0.83934  0.70899  Biso   1.000  O
  C46      1.0000 0.07825  0.92024  0.72729  Biso   1.000  C
  O18      1.0000 0.84561  0.83934  0.79098  Biso   1.000  O
  C47      1.0000 0.92174  0.92024  0.77273  Biso   1.000  C
  C48      1.0000 0.03464  0.92049  0.87390  Biso   1.000  C
  H34      1.0000 0.05459  0.85212  0.96798  Biso   1.000  H
  O19      1.0000 0.90225  0.94942  0.59835  Biso   1.000  O
  C49      1.0000 0.01461  0.94689  0.69969  Biso   1.000  C
  C50      1.0000 0.20549  0.86459  0.78378  Biso   1.000  C
  H35      1.0000 0.11280  0.93872  0.77698  Biso   1.000  H
  C51      1.0000 0.79451  0.86459  0.71619  Biso   1.000  C
  H36      1.0000 0.88721  0.93872  0.72299  Biso   1.000  H
  C52      1.0000 0.98542  0.94689  0.80034  Biso   1.000  C
  O20      1.0000 0.09771  0.94942  0.90162  Biso   1.000  O
  C53      1.0000 0.85090  0.89352  0.55012  Biso   1.000  C
  C54      1.0000 0.00001  0.00089  0.75001  Biso   1.000  C
  H37      1.0000 0.19849  0.84022  0.82288  Biso   1.000  H
  H38      1.0000 0.20610  0.92651  0.78749  Biso   1.000  H
  H39      1.0000 0.24742  0.84472  0.79301  Biso   1.000  H
  H40      1.0000 0.80151  0.84022  0.67709  Biso   1.000  H
  H41      1.0000 0.79391  0.92651  0.71248  Biso   1.000  H
  H42      1.0000 0.75261  0.84472  0.70701  Biso   1.000  H
  C55      1.0000 0.14912  0.89352  0.94991  Biso   1.000  C
  H43      1.0000 0.86189  0.83649  0.57261  Biso   1.000  H
  H44      1.0000 0.84440  0.89232  0.49840  Biso   1.000  H
  H45      1.0000 0.81059  0.91258  0.54582  Biso   1.000  H
  H46      1.0000 0.96201  0.03779  0.71643  Biso   1.000  H
  H47      1.0000 0.03801  0.03779  0.78360  Biso   1.000  H
  H48      1.0000 0.13809  0.83649  0.92742  Biso   1.000  H
  H49      1.0000 0.18940  0.91258  0.95421  Biso   1.000  H
  H50      1.0000 0.15562  0.89232  0.00163  Biso   1.000  H
  N5       1.0000 0.77912  0.43014  0.44552  Biso   1.000  N
  O21      1.0000 0.72174  0.42692  0.39381  Biso   1.000  O
  O22      1.0000 0.80987  0.49528  0.46336  Biso   1.000  O
  C56      1.0000 0.81151  0.35209  0.48515  Biso   1.000  C
  C57      1.0000 0.78470  0.27771  0.44564  Biso   1.000  C
  C58      1.0000 0.86814  0.35026  0.56133  Biso   1.000  C
  H51      1.0000 0.74622  0.27929  0.39503  Biso   1.000  H
  C59      1.0000 0.81297  0.20073  0.47853  Biso   1.000  C
  O23      1.0000 0.89306  0.42438  0.59876  Biso   1.000  O
  C60      1.0000 0.89433  0.27309  0.59370  Biso   1.000  C
  N6       1.0000 0.78264  0.12547  0.43251  Biso   1.000  N
  C61      1.0000 0.86843  0.19694  0.55401  Biso   1.000  C
  C62      1.0000 0.94846  0.42071  0.67575  Biso   1.000  C
  H52      1.0000 0.93159  0.27132  0.64519  Biso   1.000  H
  O24      1.0000 0.73281  0.13186  0.36963  Biso   1.000  O
  O25      1.0000 0.80951  0.05723  0.45918  Biso   1.000  O
  O26      1.0000 0.89982  0.12743  0.59225  Biso   1.000  O
  C63      1.0000 0.93739  0.42052  0.73525  Biso   1.000  C
  C64      1.0000 0.01045  0.42192  0.68766  Biso   1.000  C
  H53      1.0000 0.87961  0.08470  0.56552  Biso   1.000  H
  C65      1.0000 0.98954  0.42192  0.81237  Biso   1.000  C
  H54      1.0000 0.89381  0.41938  0.72363  Biso   1.000  H
  C66      1.0000 0.06264  0.42052  0.76477  Biso   1.000  C
  C67      1.0000 0.02146  0.42749  0.62148  Biso   1.000  C
  C68      1.0000 0.97856  0.42749  0.87855  Biso   1.000  C
  C69      1.0000 0.05153  0.42071  0.82428  Biso   1.000  C
  H55      1.0000 0.10618  0.41938  0.77640  Biso   1.000  H
  H56      1.0000 0.98329  0.40311  0.57400  Biso   1.000  H
  H57      1.0000 0.06048  0.39368  0.63449  Biso   1.000  H
  C70      1.0000 0.03124  0.51801  0.60550  Biso   1.000  C
  H58      1.0000 0.93948  0.39368  0.86548  Biso   1.000  H
  C71      1.0000 0.96876  0.51801  0.89447  Biso   1.000  C
  H59      1.0000 0.01669  0.40311  0.92603  Biso   1.000  H
  O27      1.0000 0.10692  0.42438  0.90127  Biso   1.000  O
  C72      1.0000 0.97785  0.56720  0.55291  Biso   1.000  C
  C73      1.0000 0.09297  0.55498  0.64402  Biso   1.000  C
  C74      1.0000 0.90703  0.55498  0.85595  Biso   1.000  C
  C75      1.0000 0.02216  0.56720  0.94706  Biso   1.000  C
  C76      1.0000 0.13182  0.35026  0.93864  Biso   1.000  C
  C77      1.0000 0.98565  0.65069  0.53867  Biso   1.000  C
  H60      1.0000 0.93528  0.54301  0.52629  Biso   1.000  H
  O28      1.0000 0.14397  0.50326  0.69615  Biso   1.000  O
  C78      1.0000 0.10082  0.63829  0.62926  Biso   1.000  C
  O29      1.0000 0.85603  0.50326  0.80382  Biso   1.000  O
  C79      1.0000 0.89914  0.63829  0.87071  Biso   1.000  C
  C80      1.0000 0.01436  0.65069  0.96130  Biso   1.000  C
  H61      1.0000 0.06468  0.54301  0.97368  Biso   1.000  H
  C81      1.0000 0.10563  0.27309  0.90627  Biso   1.000  C
  C82      1.0000 0.18852  0.35209  0.01488  Biso   1.000  C
  O30      1.0000 0.93478  0.70172  0.48620  Biso   1.000  O
  C83      1.0000 0.04769  0.68785  0.57708  Biso   1.000  C
  C84      1.0000 0.20692  0.53998  0.74130  Biso   1.000  C
  H62      1.0000 0.14350  0.66209  0.65541  Biso   1.000  H
  C85      1.0000 0.79311  0.53998  0.75873  Biso   1.000  C
  H63      1.0000 0.85652  0.66209  0.84462  Biso   1.000  H
  C86      1.0000 0.95229  0.68785  0.92295  Biso   1.000  C
  O31      1.0000 0.06525  0.70172  0.01383  Biso   1.000  O
  C87      1.0000 0.13158  0.19694  0.94596  Biso   1.000  C
  H64      1.0000 0.06837  0.27132  0.85478  Biso   1.000  H
  N7       1.0000 0.22089  0.43014  0.05445  Biso   1.000  N
  C88      1.0000 0.21533  0.27771  0.05439  Biso   1.000  C
  C89      1.0000 0.87074  0.66918  0.45296  Biso   1.000  C
  C90      1.0000 0.05648  0.78002  0.56319  Biso   1.000  C
  H65      1.0000 0.23739  0.49870  0.77942  Biso   1.000  H
  H66      1.0000 0.20480  0.58992  0.76838  Biso   1.000  H
  H67      1.0000 0.22200  0.55688  0.70730  Biso   1.000  H
  H68      1.0000 0.76259  0.49870  0.72061  Biso   1.000  H
  H69      1.0000 0.79520  0.58992  0.73159  Biso   1.000  H
  H70      1.0000 0.77803  0.55688  0.79272  Biso   1.000  H
  C91      1.0000 0.94353  0.78002  0.93678  Biso   1.000  C
  C92      1.0000 0.12927  0.66918  0.04701  Biso   1.000  C
  O32      1.0000 0.10021  0.12743  0.90778  Biso   1.000  O
  C93      1.0000 0.18699  0.20073  0.02144  Biso   1.000  C
  O33      1.0000 0.19015  0.49528  0.03667  Biso   1.000  O
  O34      1.0000 0.27825  0.42692  0.10622  Biso   1.000  O
  H71      1.0000 0.25380  0.27929  0.10500  Biso   1.000  H
  H72      1.0000 0.86458  0.65031  0.49439  Biso   1.000  H
  H73      1.0000 0.86439  0.62119  0.41920  Biso   1.000  H
  H74      1.0000 0.83881  0.71349  0.42239  Biso   1.000  H
  H75      1.0000 0.10190  0.78882  0.57679  Biso   1.000  H
  H76      1.0000 0.02671  0.79319  0.50729  Biso   1.000  H
  C94      1.0000 0.04264  0.84035  0.61055  Biso   1.000  C
  H77      1.0000 0.89810  0.78882  0.92318  Biso   1.000  H
  H78      1.0000 0.97329  0.79319  0.99268  Biso   1.000  H
  C95      1.0000 0.95738  0.84035  0.88948  Biso   1.000  C
  H79      1.0000 0.13538  0.65031  0.00558  Biso   1.000  H
  H80      1.0000 0.13560  0.62119  0.08083  Biso   1.000  H
  H81      1.0000 0.16122  0.71349  0.07763  Biso   1.000  H
  H82      1.0000 0.12042  0.08470  0.93451  Biso   1.000  H
  N8       1.0000 0.21735  0.12547  0.06752  Biso   1.000  N
  C96      1.0000 0.97971  0.86871  0.58260  Biso   1.000  C
  C97      1.0000 0.09227  0.86763  0.68400  Biso   1.000  C
  C98      1.0000 0.90773  0.86763  0.81597  Biso   1.000  C
  C99      1.0000 0.02027  0.86871  0.91743  Biso   1.000  C
  O35      1.0000 0.26715  0.13186  0.13034  Biso   1.000  O
  O36      1.0000 0.19048  0.05723  0.04085  Biso   1.000  O
  C100     1.0000 0.96535  0.92049  0.62613  Biso   1.000  C
  H83      1.0000 0.94541  0.85212  0.53199  Biso   1.000  H
  O37      1.0000 0.15435  0.83934  0.70899  Biso   1.000  O
  C101     1.0000 0.07825  0.92024  0.72729  Biso   1.000  C
  O38      1.0000 0.84561  0.83934  0.79098  Biso   1.000  O
  C102     1.0000 0.92174  0.92024  0.77273  Biso   1.000  C
  C103     1.0000 0.03464  0.92049  0.87390  Biso   1.000  C
  H84      1.0000 0.05459  0.85212  0.96798  Biso   1.000  H
  O39      1.0000 0.90225  0.94942  0.59835  Biso   1.000  O
  C104     1.0000 0.01461  0.94689  0.69969  Biso   1.000  C
  C105     1.0000 0.20549  0.86459  0.78378  Biso   1.000  C
  H85      1.0000 0.11280  0.93872  0.77698  Biso   1.000  H
  C106     1.0000 0.79451  0.86459  0.71619  Biso   1.000  C
  H86      1.0000 0.88721  0.93872  0.72299  Biso   1.000  H
  C107     1.0000 0.98542  0.94689  0.80034  Biso   1.000  C
  O40      1.0000 0.09771  0.94942  0.90162  Biso   1.000  O
  C108     1.0000 0.85090  0.89352  0.55012  Biso   1.000  C
  C109     1.0000 0.00001  0.00089  0.75001  Biso   1.000  C
  H87      1.0000 0.19849  0.84022  0.82288  Biso   1.000  H
  H88      1.0000 0.20610  0.92651  0.78749  Biso   1.000  H
  H89      1.0000 0.24742  0.84472  0.79301  Biso   1.000  H
  H90      1.0000 0.80151  0.84022  0.67709  Biso   1.000  H
  H91      1.0000 0.79391  0.92651  0.71248  Biso   1.000  H
  H92      1.0000 0.75261  0.84472  0.70701  Biso   1.000  H
  C110     1.0000 0.14912  0.89352  0.94991  Biso   1.000  C
  H93      1.0000 0.86189  0.83649  0.57261  Biso   1.000  H
  H94      1.0000 0.84440  0.89232  0.49840  Biso   1.000  H
  H95      1.0000 0.81059  0.91258  0.54582  Biso   1.000  H
  H96      1.0000 0.96201  0.03779  0.71643  Biso   1.000  H
  H97      1.0000 0.03801  0.03779  0.78360  Biso   1.000  H
  H98      1.0000 0.13809  0.83649  0.92742  Biso   1.000  H
  H99      1.0000 0.18940  0.91258  0.95421  Biso   1.000  H
  H100     1.0000 0.15562  0.89232  0.00163  Biso   1.000  H
  C111     1.0000 0.64909  0.60651  0.44988  Biso   1.000  C
  O41      1.0000 0.59775  0.55055  0.40165  Biso   1.000  O
  H101     1.0000 0.63810  0.66348  0.42739  Biso   1.000  H
  H102     1.0000 0.65559  0.60771  0.50160  Biso   1.000  H
  H103     1.0000 0.68941  0.58739  0.45418  Biso   1.000  H
  C112     1.0000 0.53465  0.57948  0.37387  Biso   1.000  C
  C113     1.0000 0.52028  0.63132  0.41740  Biso   1.000  C
  C114     1.0000 0.48539  0.55314  0.30031  Biso   1.000  C
  C115     1.0000 0.45735  0.65968  0.38945  Biso   1.000  C
  H104     1.0000 0.55459  0.64791  0.46801  Biso   1.000  H
  C116     1.0000 0.42175  0.57979  0.27271  Biso   1.000  C
  C117     1.0000 0.49998  0.49908  0.24999  Biso   1.000  C
  C118     1.0000 0.40773  0.63234  0.31600  Biso   1.000  C
  C119     1.0000 0.44352  0.72001  0.43681  Biso   1.000  C
  H105     1.0000 0.38720  0.56131  0.22302  Biso   1.000  H
  C120     1.0000 0.51458  0.55314  0.19966  Biso   1.000  C
  H106     1.0000 0.53798  0.46218  0.28357  Biso   1.000  H
  H107     1.0000 0.46198  0.46218  0.21640  Biso   1.000  H
  O42      1.0000 0.34564  0.66063  0.29101  Biso   1.000  O
  C121     1.0000 0.45230  0.81212  0.42292  Biso   1.000  C
  H108     1.0000 0.39809  0.71121  0.42321  Biso   1.000  H
  H109     1.0000 0.47329  0.70678  0.49271  Biso   1.000  H
  C122     1.0000 0.57826  0.57979  0.22726  Biso   1.000  C
  C123     1.0000 0.46536  0.57948  0.12610  Biso   1.000  C
  C124     1.0000 0.29451  0.63537  0.21622  Biso   1.000  C
  C125     1.0000 0.39917  0.86168  0.37074  Biso   1.000  C
  C126     1.0000 0.51435  0.84928  0.46133  Biso   1.000  C
  C127     1.0000 0.59226  0.63234  0.18403  Biso   1.000  C
  H110     1.0000 0.61279  0.56131  0.27701  Biso   1.000  H
  O43      1.0000 0.40228  0.55055  0.09838  Biso   1.000  O
  C128     1.0000 0.47972  0.63132  0.08257  Biso   1.000  C
  H111     1.0000 0.30151  0.65981  0.17712  Biso   1.000  H
  H112     1.0000 0.29390  0.57353  0.21250  Biso   1.000  H
  H113     1.0000 0.25258  0.65531  0.20698  Biso   1.000  H
  C129     1.0000 0.40703  0.94499  0.35598  Biso   1.000  C
  H114     1.0000 0.35649  0.83788  0.34459  Biso   1.000  H
  O44      1.0000 0.56522  0.79832  0.51380  Biso   1.000  O
  C130     1.0000 0.52215  0.93284  0.44709  Biso   1.000  C
  O45      1.0000 0.65439  0.66063  0.20902  Biso   1.000  O
  C131     1.0000 0.54261  0.65968  0.11052  Biso   1.000  C
  C132     1.0000 0.35087  0.60651  0.05009  Biso   1.000  C
  H115     1.0000 0.44540  0.64791  0.03202  Biso   1.000  H
  O46      1.0000 0.35603  0.99671  0.30385  Biso   1.000  O
  C133     1.0000 0.46875  0.98202  0.39450  Biso   1.000  C
  C134     1.0000 0.62926  0.83079  0.54704  Biso   1.000  C
  H116     1.0000 0.56471  0.95702  0.47371  Biso   1.000  H
  C135     1.0000 0.70548  0.63537  0.28380  Biso   1.000  C
  C136     1.0000 0.55647  0.72001  0.06322  Biso   1.000  C
  H117     1.0000 0.36190  0.66348  0.07258  Biso   1.000  H
  H118     1.0000 0.31060  0.58739  0.04579  Biso   1.000  H
  H119     1.0000 0.34437  0.60771  0.99837  Biso   1.000  H
  C137     1.0000 0.29312  0.95999  0.25870  Biso   1.000  C
  C138     1.0000 0.47853  0.07248  0.37852  Biso   1.000  C
  H120     1.0000 0.63541  0.84972  0.50561  Biso   1.000  H
  H121     1.0000 0.63561  0.87877  0.58080  Biso   1.000  H
  H122     1.0000 0.66119  0.78648  0.57760  Biso   1.000  H
  H123     1.0000 0.69848  0.65981  0.32291  Biso   1.000  H
  H124     1.0000 0.70609  0.57353  0.28752  Biso   1.000  H
  H125     1.0000 0.74739  0.65531  0.29299  Biso   1.000  H
  C139     1.0000 0.54770  0.81212  0.07705  Biso   1.000  C
  H126     1.0000 0.60190  0.71121  0.07682  Biso   1.000  H
  H127     1.0000 0.52670  0.70678  0.00732  Biso   1.000  H
  H128     1.0000 0.29520  0.91011  0.23162  Biso   1.000  H
  H129     1.0000 0.27799  0.94309  0.29270  Biso   1.000  H
  H130     1.0000 0.26260  0.00127  0.22058  Biso   1.000  H
  C140     1.0000 0.48955  0.07812  0.31234  Biso   1.000  C
  H131     1.0000 0.43952  0.10629  0.36551  Biso   1.000  H
  H132     1.0000 0.51670  0.09692  0.42600  Biso   1.000  H
  C141     1.0000 0.60086  0.86168  0.12929  Biso   1.000  C
  C142     1.0000 0.48564  0.84928  0.03870  Biso   1.000  C
  C143     1.0000 0.43736  0.07945  0.23523  Biso   1.000  C
  C144     1.0000 0.55157  0.07926  0.32431  Biso   1.000  C
  C145     1.0000 0.59301  0.94499  0.14405  Biso   1.000  C
  H133     1.0000 0.64347  0.83788  0.15538  Biso   1.000  H
  C146     1.0000 0.47784  0.93284  0.05294  Biso   1.000  C
  O47      1.0000 0.43475  0.79832  0.98617  Biso   1.000  O
  C147     1.0000 0.44847  0.07926  0.17572  Biso   1.000  C
  H134     1.0000 0.39382  0.08058  0.22360  Biso   1.000  H
  O48      1.0000 0.60693  0.07558  0.40124  Biso   1.000  O
  C148     1.0000 0.56260  0.07945  0.26475  Biso   1.000  C
  O49      1.0000 0.64396  0.99671  0.19618  Biso   1.000  O
  C149     1.0000 0.53124  0.98202  0.10553  Biso   1.000  C
  H135     1.0000 0.43532  0.95702  0.02632  Biso   1.000  H
  C150     1.0000 0.37073  0.83079  0.95299  Biso   1.000  C
  O50      1.0000 0.39307  0.07558  0.09873  Biso   1.000  O
  C151     1.0000 0.51046  0.07812  0.18763  Biso   1.000  C
  C152     1.0000 0.63185  0.14978  0.43867  Biso   1.000  C
  H136     1.0000 0.60621  0.08058  0.27642  Biso   1.000  H
  C153     1.0000 0.70691  0.95999  0.24133  Biso   1.000  C
  C154     1.0000 0.52147  0.07248  0.12145  Biso   1.000  C
  H137     1.0000 0.36462  0.84972  0.99442  Biso   1.000  H
  H138     1.0000 0.36442  0.87877  0.91923  Biso   1.000  H
  H139     1.0000 0.33880  0.78648  0.92242  Biso   1.000  H
  C155     1.0000 0.36818  0.14978  0.06136  Biso   1.000  C
  C156     1.0000 0.68848  0.14794  0.51485  Biso   1.000  C
  C157     1.0000 0.60567  0.22688  0.40630  Biso   1.000  C
  H140     1.0000 0.70479  0.91011  0.26841  Biso   1.000  H
  H141     1.0000 0.72197  0.94309  0.20728  Biso   1.000  H
  H142     1.0000 0.73740  0.00127  0.27939  Biso   1.000  H
  H143     1.0000 0.56052  0.10629  0.13452  Biso   1.000  H
  H144     1.0000 0.48330  0.09692  0.07397  Biso   1.000  H
  C158     1.0000 0.31148  0.14794  0.98512  Biso   1.000  C
  C159     1.0000 0.39436  0.22688  0.09373  Biso   1.000  C
  N9       1.0000 0.72092  0.06982  0.55448  Biso   1.000  N
  C160     1.0000 0.71530  0.22232  0.55436  Biso   1.000  C
  C161     1.0000 0.63161  0.30303  0.44599  Biso   1.000  C
  H145     1.0000 0.56841  0.22871  0.35481  Biso   1.000  H
  N10      1.0000 0.27911  0.06982  0.94555  Biso   1.000  N
  C162     1.0000 0.28467  0.22232  0.94561  Biso   1.000  C
  C163     1.0000 0.36842  0.30303  0.05404  Biso   1.000  C
  H146     1.0000 0.43162  0.22871  0.14521  Biso   1.000  H
  O51      1.0000 0.69012  0.00468  0.53664  Biso   1.000  O
  O52      1.0000 0.77826  0.07305  0.60619  Biso   1.000  O
  H147     1.0000 0.75380  0.22067  0.60503  Biso   1.000  H
  C164     1.0000 0.68702  0.29930  0.52147  Biso   1.000  C
  O53      1.0000 0.60018  0.37254  0.40775  Biso   1.000  O
  O54      1.0000 0.30984  0.00468  0.96333  Biso   1.000  O
  O55      1.0000 0.22175  0.07305  0.89378  Biso   1.000  O
  H148     1.0000 0.24619  0.22067  0.89500  Biso   1.000  H
  C165     1.0000 0.31301  0.29930  0.97856  Biso   1.000  C
  O56      1.0000 0.39979  0.37254  0.09222  Biso   1.000  O
  N11      1.0000 0.71736  0.37456  0.56749  Biso   1.000  N
  H149     1.0000 0.62039  0.41527  0.43448  Biso   1.000  H
  N12      1.0000 0.28268  0.37456  0.93254  Biso   1.000  N
  H150     1.0000 0.37958  0.41527  0.06549  Biso   1.000  H
  O57      1.0000 0.76719  0.36811  0.63037  Biso   1.000  O
  O58      1.0000 0.69049  0.44274  0.54082  Biso   1.000  O
  O59      1.0000 0.23284  0.36811  0.86966  Biso   1.000  O
  O60      1.0000 0.30952  0.44274  0.95915  Biso   1.000  O
  C166     1.0000 0.79312  0.46002  0.25870  Biso   1.000  C
  O61      1.0000 0.85603  0.49674  0.30385  Biso   1.000  O
  H151     1.0000 0.76260  0.50130  0.22058  Biso   1.000  H
  H152     1.0000 0.79520  0.41008  0.23162  Biso   1.000  H
  H153     1.0000 0.77799  0.44312  0.29270  Biso   1.000  H
  C167     1.0000 0.90703  0.44502  0.35598  Biso   1.000  C
  C168     1.0000 0.96875  0.48199  0.39450  Biso   1.000  C
  C169     1.0000 0.89917  0.36171  0.37074  Biso   1.000  C
  C170     1.0000 0.97853  0.57251  0.37852  Biso   1.000  C
  C171     1.0000 0.02215  0.43280  0.44709  Biso   1.000  C
  H154     1.0000 0.85649  0.33791  0.34459  Biso   1.000  H
  C172     1.0000 0.95230  0.31215  0.42292  Biso   1.000  C
  C173     1.0000 0.98955  0.57808  0.31234  Biso   1.000  C
  H155     1.0000 0.93952  0.60632  0.36551  Biso   1.000  H
  H156     1.0000 0.01670  0.59689  0.42600  Biso   1.000  H
  C174     1.0000 0.01435  0.34931  0.46133  Biso   1.000  C
  H157     1.0000 0.06471  0.45699  0.47371  Biso   1.000  H
  C175     1.0000 0.94352  0.21998  0.43681  Biso   1.000  C
  C176     1.0000 0.93736  0.57948  0.23523  Biso   1.000  C
  C177     1.0000 0.05157  0.57929  0.32431  Biso   1.000  C
  O62      1.0000 0.06522  0.29828  0.51380  Biso   1.000  O
  H158     1.0000 0.89809  0.21118  0.42321  Biso   1.000  H
  H159     1.0000 0.97329  0.20681  0.49271  Biso   1.000  H
  C178     1.0000 0.95735  0.15965  0.38945  Biso   1.000  C
  C179     1.0000 0.94847  0.57929  0.17572  Biso   1.000  C
  H160     1.0000 0.89382  0.58062  0.22360  Biso   1.000  H
  O63      1.0000 0.10693  0.57562  0.40124  Biso   1.000  O
  C180     1.0000 0.06260  0.57948  0.26475  Biso   1.000  C
  C181     1.0000 0.12926  0.33082  0.54704  Biso   1.000  C
  C182     1.0000 0.90773  0.13237  0.31600  Biso   1.000  C
  C183     1.0000 0.02028  0.13129  0.41740  Biso   1.000  C
  O64      1.0000 0.89307  0.57562  0.09873  Biso   1.000  O
  C184     1.0000 0.01046  0.57808  0.18763  Biso   1.000  C
  C185     1.0000 0.13185  0.64974  0.43867  Biso   1.000  C
  H161     1.0000 0.10621  0.58062  0.27642  Biso   1.000  H
  H162     1.0000 0.13541  0.34969  0.50561  Biso   1.000  H
  H163     1.0000 0.13561  0.37881  0.58080  Biso   1.000  H
  H164     1.0000 0.16119  0.28651  0.57760  Biso   1.000  H
  O65      1.0000 0.84564  0.16066  0.29101  Biso   1.000  O
  C186     1.0000 0.92175  0.07976  0.27271  Biso   1.000  C
  C187     1.0000 0.03465  0.07951  0.37387  Biso   1.000  C
  H165     1.0000 0.05459  0.14788  0.46801  Biso   1.000  H
  C188     1.0000 0.86818  0.64974  0.06136  Biso   1.000  C
  C189     1.0000 0.02147  0.57251  0.12145  Biso   1.000  C
  C190     1.0000 0.18848  0.64791  0.51485  Biso   1.000  C
  C191     1.0000 0.10567  0.72691  0.40630  Biso   1.000  C
  C192     1.0000 0.79451  0.13541  0.21622  Biso   1.000  C
  H166     1.0000 0.88720  0.06128  0.22302  Biso   1.000  H
  C193     1.0000 0.98539  0.05311  0.30031  Biso   1.000  C
  O66      1.0000 0.09775  0.05058  0.40165  Biso   1.000  O
  C194     1.0000 0.89436  0.72691  0.09373  Biso   1.000  C
  C195     1.0000 0.81148  0.64791  0.98512  Biso   1.000  C
  H167     1.0000 0.98330  0.59689  0.07397  Biso   1.000  H
  H168     1.0000 0.06052  0.60632  0.13452  Biso   1.000  H
  C196     1.0000 0.03124  0.48199  0.10553  Biso   1.000  C
  N13      1.0000 0.22092  0.56986  0.55448  Biso   1.000  N
  C197     1.0000 0.21530  0.72229  0.55436  Biso   1.000  C
  C198     1.0000 0.13161  0.80306  0.44599  Biso   1.000  C
  H169     1.0000 0.06841  0.72868  0.35481  Biso   1.000  H
  H170     1.0000 0.80151  0.15978  0.17712  Biso   1.000  H
  H171     1.0000 0.79390  0.07349  0.21250  Biso   1.000  H
  H172     1.0000 0.75258  0.15528  0.20698  Biso   1.000  H
  C199     1.0000 0.99998  0.99911  0.24999  Biso   1.000  C
  C200     1.0000 0.14909  0.10648  0.44988  Biso   1.000  C
  C201     1.0000 0.86842  0.80306  0.05404  Biso   1.000  C
  H173     1.0000 0.93162  0.72868  0.14521  Biso   1.000  H
  N14      1.0000 0.77911  0.56986  0.94555  Biso   1.000  N
  C202     1.0000 0.78467  0.72229  0.94561  Biso   1.000  C
  C203     1.0000 0.97784  0.43280  0.05294  Biso   1.000  C
  C204     1.0000 0.09301  0.44502  0.14405  Biso   1.000  C
  O67      1.0000 0.19012  0.50472  0.53664  Biso   1.000  O
  O68      1.0000 0.27826  0.57308  0.60619  Biso   1.000  O
  H174     1.0000 0.25380  0.72071  0.60503  Biso   1.000  H
  C205     1.0000 0.18702  0.79927  0.52147  Biso   1.000  C
  O69      1.0000 0.10018  0.87257  0.40775  Biso   1.000  O
  H175     1.0000 0.96198  0.96221  0.21640  Biso   1.000  H
  H176     1.0000 0.03798  0.96221  0.28357  Biso   1.000  H
  C206     1.0000 0.01458  0.05311  0.19966  Biso   1.000  C
  H177     1.0000 0.13810  0.16351  0.42739  Biso   1.000  H
  H178     1.0000 0.15559  0.10768  0.50160  Biso   1.000  H
  H179     1.0000 0.18941  0.08742  0.45418  Biso   1.000  H
  O70      1.0000 0.89979  0.87257  0.09222  Biso   1.000  O
  C207     1.0000 0.81301  0.79927  0.97856  Biso   1.000  C
  O71      1.0000 0.80984  0.50472  0.96333  Biso   1.000  O
  O72      1.0000 0.72175  0.57308  0.89378  Biso   1.000  O
  H180     1.0000 0.74619  0.72071  0.89500  Biso   1.000  H
  C208     1.0000 0.98564  0.34931  0.03870  Biso   1.000  C
  H181     1.0000 0.93532  0.45699  0.02632  Biso   1.000  H
  O73      1.0000 0.14396  0.49674  0.19618  Biso   1.000  O
  C209     1.0000 0.10086  0.36171  0.12929  Biso   1.000  C
  N15      1.0000 0.21736  0.87453  0.56749  Biso   1.000  N
  H182     1.0000 0.12039  0.91530  0.43448  Biso   1.000  H
  C210     1.0000 0.96536  0.07951  0.12610  Biso   1.000  C
  C211     1.0000 0.07826  0.07976  0.22726  Biso   1.000  C
  H183     1.0000 0.87958  0.91530  0.06549  Biso   1.000  H
  N16      1.0000 0.78268  0.87453  0.93254  Biso   1.000  N
  O74      1.0000 0.93475  0.29828  0.98617  Biso   1.000  O
  C212     1.0000 0.04770  0.31215  0.07705  Biso   1.000  C
  C213     1.0000 0.20691  0.46002  0.24133  Biso   1.000  C
  H184     1.0000 0.14347  0.33791  0.15538  Biso   1.000  H
  O75      1.0000 0.26719  0.86814  0.63037  Biso   1.000  O
  O76      1.0000 0.19049  0.94277  0.54082  Biso   1.000  O
  O77      1.0000 0.90228  0.05058  0.09838  Biso   1.000  O
  C214     1.0000 0.97972  0.13129  0.08257  Biso   1.000  C
  C215     1.0000 0.09226  0.13237  0.18403  Biso   1.000  C
  H185     1.0000 0.11279  0.06128  0.27701  Biso   1.000  H
  O78      1.0000 0.73284  0.86814  0.86966  Biso   1.000  O
  O79      1.0000 0.80952  0.94277  0.95915  Biso   1.000  O
  C216     1.0000 0.87073  0.33082  0.95299  Biso   1.000  C
  C217     1.0000 0.05647  0.21998  0.06322  Biso   1.000  C
  H186     1.0000 0.23740  0.50130  0.27939  Biso   1.000  H
  H187     1.0000 0.20479  0.41008  0.26841  Biso   1.000  H
  H188     1.0000 0.22197  0.44312  0.20728  Biso   1.000  H
  C218     1.0000 0.85087  0.10648  0.05009  Biso   1.000  C
  H189     1.0000 0.94540  0.14788  0.03202  Biso   1.000  H
  C219     1.0000 0.04261  0.15965  0.11052  Biso   1.000  C
  O80      1.0000 0.15439  0.16066  0.20902  Biso   1.000  O
  H190     1.0000 0.86462  0.34969  0.99442  Biso   1.000  H
  H191     1.0000 0.86442  0.37881  0.91923  Biso   1.000  H
  H192     1.0000 0.83880  0.28651  0.92242  Biso   1.000  H
  H193     1.0000 0.10190  0.21118  0.07682  Biso   1.000  H
  H194     1.0000 0.02670  0.20681  0.00732  Biso   1.000  H
  H195     1.0000 0.86190  0.16351  0.07258  Biso   1.000  H
  H196     1.0000 0.81060  0.08742  0.04579  Biso   1.000  H
  H197     1.0000 0.84437  0.10768  0.99837  Biso   1.000  H
  C220     1.0000 0.20548  0.13541  0.28380  Biso   1.000  C
  H198     1.0000 0.19848  0.15978  0.32291  Biso   1.000  H
  H199     1.0000 0.20609  0.07349  0.28752  Biso   1.000  H
  H200     1.0000 0.24739  0.15528  0.29299  Biso   1.000  H
  C221     1.0000 0.79312  0.46002  0.25870  Biso   1.000  C
  O81      1.0000 0.85603  0.49674  0.30385  Biso   1.000  O
  H201     1.0000 0.76260  0.50130  0.22058  Biso   1.000  H
  H202     1.0000 0.79520  0.41008  0.23162  Biso   1.000  H
  H203     1.0000 0.77799  0.44312  0.29270  Biso   1.000  H
  C222     1.0000 0.90703  0.44502  0.35598  Biso   1.000  C
  C223     1.0000 0.96875  0.48199  0.39450  Biso   1.000  C
  C224     1.0000 0.89917  0.36171  0.37074  Biso   1.000  C
  C225     1.0000 0.97853  0.57251  0.37852  Biso   1.000  C
  C226     1.0000 0.02215  0.43280  0.44709  Biso   1.000  C
  H204     1.0000 0.85649  0.33791  0.34459  Biso   1.000  H
  C227     1.0000 0.95230  0.31215  0.42292  Biso   1.000  C
  C228     1.0000 0.98955  0.57808  0.31234  Biso   1.000  C
  H205     1.0000 0.93952  0.60632  0.36551  Biso   1.000  H
  H206     1.0000 0.01670  0.59689  0.42600  Biso   1.000  H
  C229     1.0000 0.01435  0.34931  0.46133  Biso   1.000  C
  H207     1.0000 0.06471  0.45699  0.47371  Biso   1.000  H
  C230     1.0000 0.94352  0.21998  0.43681  Biso   1.000  C
  C231     1.0000 0.93736  0.57948  0.23523  Biso   1.000  C
  C232     1.0000 0.05157  0.57929  0.32431  Biso   1.000  C
  O82      1.0000 0.06522  0.29828  0.51380  Biso   1.000  O
  H208     1.0000 0.89809  0.21118  0.42321  Biso   1.000  H
  H209     1.0000 0.97329  0.20681  0.49271  Biso   1.000  H
  C233     1.0000 0.95735  0.15965  0.38945  Biso   1.000  C
  C234     1.0000 0.94847  0.57929  0.17572  Biso   1.000  C
  H210     1.0000 0.89382  0.58062  0.22360  Biso   1.000  H
  O83      1.0000 0.10693  0.57562  0.40124  Biso   1.000  O
  C235     1.0000 0.06260  0.57948  0.26475  Biso   1.000  C
  C236     1.0000 0.12926  0.33082  0.54704  Biso   1.000  C
  C237     1.0000 0.90773  0.13237  0.31600  Biso   1.000  C
  C238     1.0000 0.02028  0.13129  0.41740  Biso   1.000  C
  O84      1.0000 0.89307  0.57562  0.09873  Biso   1.000  O
  C239     1.0000 0.01046  0.57808  0.18763  Biso   1.000  C
  C240     1.0000 0.13185  0.64974  0.43867  Biso   1.000  C
  H211     1.0000 0.10621  0.58062  0.27642  Biso   1.000  H
  H212     1.0000 0.13541  0.34969  0.50561  Biso   1.000  H
  H213     1.0000 0.13561  0.37881  0.58080  Biso   1.000  H
  H214     1.0000 0.16119  0.28651  0.57760  Biso   1.000  H
  O85      1.0000 0.84564  0.16066  0.29101  Biso   1.000  O
  C241     1.0000 0.92175  0.07976  0.27271  Biso   1.000  C
  C242     1.0000 0.03465  0.07951  0.37387  Biso   1.000  C
  H215     1.0000 0.05459  0.14788  0.46801  Biso   1.000  H
  C243     1.0000 0.86818  0.64974  0.06136  Biso   1.000  C
  C244     1.0000 0.02147  0.57251  0.12145  Biso   1.000  C
  C245     1.0000 0.18848  0.64791  0.51485  Biso   1.000  C
  C246     1.0000 0.10567  0.72691  0.40630  Biso   1.000  C
  C247     1.0000 0.79451  0.13541  0.21622  Biso   1.000  C
  H216     1.0000 0.88720  0.06128  0.22302  Biso   1.000  H
  C248     1.0000 0.98539  0.05311  0.30031  Biso   1.000  C
  O86      1.0000 0.09775  0.05058  0.40165  Biso   1.000  O
  C249     1.0000 0.89436  0.72691  0.09373  Biso   1.000  C
  C250     1.0000 0.81148  0.64791  0.98512  Biso   1.000  C
  H217     1.0000 0.98330  0.59689  0.07397  Biso   1.000  H
  H218     1.0000 0.06052  0.60632  0.13452  Biso   1.000  H
  C251     1.0000 0.03124  0.48199  0.10553  Biso   1.000  C
  N17      1.0000 0.22092  0.56986  0.55448  Biso   1.000  N
  C252     1.0000 0.21530  0.72229  0.55436  Biso   1.000  C
  C253     1.0000 0.13161  0.80306  0.44599  Biso   1.000  C
  H219     1.0000 0.06841  0.72868  0.35481  Biso   1.000  H
  H220     1.0000 0.80151  0.15978  0.17712  Biso   1.000  H
  H221     1.0000 0.79390  0.07349  0.21250  Biso   1.000  H
  H222     1.0000 0.75258  0.15528  0.20698  Biso   1.000  H
  C254     1.0000 0.99998  0.99911  0.24999  Biso   1.000  C
  C255     1.0000 0.14909  0.10648  0.44988  Biso   1.000  C
  C256     1.0000 0.86842  0.80306  0.05404  Biso   1.000  C
  H223     1.0000 0.93162  0.72868  0.14521  Biso   1.000  H
  N18      1.0000 0.77911  0.56986  0.94555  Biso   1.000  N
  C257     1.0000 0.78467  0.72229  0.94561  Biso   1.000  C
  C258     1.0000 0.97784  0.43280  0.05294  Biso   1.000  C
  C259     1.0000 0.09301  0.44502  0.14405  Biso   1.000  C
  O87      1.0000 0.19012  0.50472  0.53664  Biso   1.000  O
  O88      1.0000 0.27826  0.57308  0.60619  Biso   1.000  O
  H224     1.0000 0.25380  0.72071  0.60503  Biso   1.000  H
  C260     1.0000 0.18702  0.79927  0.52147  Biso   1.000  C
  O89      1.0000 0.10018  0.87257  0.40775  Biso   1.000  O
  H225     1.0000 0.96198  0.96221  0.21640  Biso   1.000  H
  H226     1.0000 0.03798  0.96221  0.28357  Biso   1.000  H
  C261     1.0000 0.01458  0.05311  0.19966  Biso   1.000  C
  H227     1.0000 0.13810  0.16351  0.42739  Biso   1.000  H
  H228     1.0000 0.15559  0.10768  0.50160  Biso   1.000  H
  H229     1.0000 0.18941  0.08742  0.45418  Biso   1.000  H
  O90      1.0000 0.89979  0.87257  0.09222  Biso   1.000  O
  C262     1.0000 0.81301  0.79927  0.97856  Biso   1.000  C
  O91      1.0000 0.80984  0.50472  0.96333  Biso   1.000  O
  O92      1.0000 0.72175  0.57308  0.89378  Biso   1.000  O
  H230     1.0000 0.74619  0.72071  0.89500  Biso   1.000  H
  C263     1.0000 0.98564  0.34931  0.03870  Biso   1.000  C
  H231     1.0000 0.93532  0.45699  0.02632  Biso   1.000  H
  O93      1.0000 0.14396  0.49674  0.19618  Biso   1.000  O
  C264     1.0000 0.10086  0.36171  0.12929  Biso   1.000  C
  N19      1.0000 0.21736  0.87453  0.56749  Biso   1.000  N
  H232     1.0000 0.12039  0.91530  0.43448  Biso   1.000  H
  C265     1.0000 0.96536  0.07951  0.12610  Biso   1.000  C
  C266     1.0000 0.07826  0.07976  0.22726  Biso   1.000  C
  H233     1.0000 0.87958  0.91530  0.06549  Biso   1.000  H
  N20      1.0000 0.78268  0.87453  0.93254  Biso   1.000  N
  O94      1.0000 0.93475  0.29828  0.98617  Biso   1.000  O
  C267     1.0000 0.04770  0.31215  0.07705  Biso   1.000  C
  C268     1.0000 0.20691  0.46002  0.24133  Biso   1.000  C
  H234     1.0000 0.14347  0.33791  0.15538  Biso   1.000  H
  O95      1.0000 0.26719  0.86814  0.63037  Biso   1.000  O
  O96      1.0000 0.19049  0.94277  0.54082  Biso   1.000  O
  O97      1.0000 0.90228  0.05058  0.09838  Biso   1.000  O
  C269     1.0000 0.97972  0.13129  0.08257  Biso   1.000  C
  C270     1.0000 0.09226  0.13237  0.18403  Biso   1.000  C
  H235     1.0000 0.11279  0.06128  0.27701  Biso   1.000  H
  O98      1.0000 0.73284  0.86814  0.86966  Biso   1.000  O
  O99      1.0000 0.80952  0.94277  0.95915  Biso   1.000  O
  C271     1.0000 0.87073  0.33082  0.95299  Biso   1.000  C
  C272     1.0000 0.05647  0.21998  0.06322  Biso   1.000  C
  H236     1.0000 0.23740  0.50130  0.27939  Biso   1.000  H
  H237     1.0000 0.20479  0.41008  0.26841  Biso   1.000  H
  H238     1.0000 0.22197  0.44312  0.20728  Biso   1.000  H
  C273     1.0000 0.85087  0.10648  0.05009  Biso   1.000  C
  H239     1.0000 0.94540  0.14788  0.03202  Biso   1.000  H
  C274     1.0000 0.04261  0.15965  0.11052  Biso   1.000  C
  O100     1.0000 0.15439  0.16066  0.20902  Biso   1.000  O
  H240     1.0000 0.86462  0.34969  0.99442  Biso   1.000  H
  H241     1.0000 0.86442  0.37881  0.91923  Biso   1.000  H
  H242     1.0000 0.83880  0.28651  0.92242  Biso   1.000  H
  H243     1.0000 0.10190  0.21118  0.07682  Biso   1.000  H
  H244     1.0000 0.02670  0.20681  0.00732  Biso   1.000  H
  H245     1.0000 0.86190  0.16351  0.07258  Biso   1.000  H
  H246     1.0000 0.81060  0.08742  0.04579  Biso   1.000  H
  H247     1.0000 0.84437  0.10768  0.99837  Biso   1.000  H
  C275     1.0000 0.20548  0.13541  0.28380  Biso   1.000  C
  H248     1.0000 0.19848  0.15978  0.32291  Biso   1.000  H
  H249     1.0000 0.20609  0.07349  0.28752  Biso   1.000  H
  H250     1.0000 0.24739  0.15528  0.29299  Biso   1.000  H
  O101     1.0000 0.65435  0.33937  0.70899  Biso   1.000  O
  C276     1.0000 0.59227  0.36760  0.68400  Biso   1.000  C
  C277     1.0000 0.70549  0.36463  0.78378  Biso   1.000  C
  C278     1.0000 0.54264  0.34032  0.61055  Biso   1.000  C
  C279     1.0000 0.57825  0.42021  0.72729  Biso   1.000  C
  H251     1.0000 0.69849  0.34019  0.82288  Biso   1.000  H
  H252     1.0000 0.70610  0.42647  0.78749  Biso   1.000  H
  H253     1.0000 0.74742  0.34469  0.79301  Biso   1.000  H
  C280     1.0000 0.55648  0.27999  0.56319  Biso   1.000  C
  C281     1.0000 0.47971  0.36868  0.58260  Biso   1.000  C
  H254     1.0000 0.61280  0.43869  0.77698  Biso   1.000  H
  C282     1.0000 0.51461  0.44686  0.69969  Biso   1.000  C
  C283     1.0000 0.54769  0.18788  0.57708  Biso   1.000  C
  H255     1.0000 0.60190  0.28879  0.57679  Biso   1.000  H
  H256     1.0000 0.52671  0.29322  0.50729  Biso   1.000  H
  C284     1.0000 0.46535  0.42046  0.62613  Biso   1.000  C
  H257     1.0000 0.44541  0.35209  0.53199  Biso   1.000  H
  C285     1.0000 0.50001  0.50092  0.75001  Biso   1.000  C
  C286     1.0000 0.48565  0.15072  0.53867  Biso   1.000  C
  C287     1.0000 0.60082  0.13832  0.62926  Biso   1.000  C
  O102     1.0000 0.40225  0.44945  0.59835  Biso   1.000  O
  C288     1.0000 0.48542  0.44686  0.80034  Biso   1.000  C
  H258     1.0000 0.46201  0.53782  0.71643  Biso   1.000  H
  H259     1.0000 0.53801  0.53782  0.78360  Biso   1.000  H
  O103     1.0000 0.43478  0.20168  0.48620  Biso   1.000  O
  C289     1.0000 0.47785  0.06716  0.55291  Biso   1.000  C
  C290     1.0000 0.59297  0.05501  0.64402  Biso   1.000  C
  H260     1.0000 0.64350  0.16212  0.65541  Biso   1.000  H
  C291     1.0000 0.35090  0.39349  0.55012  Biso   1.000  C
  C292     1.0000 0.42174  0.42021  0.77273  Biso   1.000  C
  C293     1.0000 0.53464  0.42046  0.87390  Biso   1.000  C
  C294     1.0000 0.37074  0.16921  0.45296  Biso   1.000  C
  C295     1.0000 0.53124  0.01798  0.60550  Biso   1.000  C
  H261     1.0000 0.43528  0.04298  0.52629  Biso   1.000  H
  O104     1.0000 0.64397  0.00323  0.69615  Biso   1.000  O
  H262     1.0000 0.36189  0.33652  0.57261  Biso   1.000  H
  H263     1.0000 0.34440  0.39229  0.49840  Biso   1.000  H
  H264     1.0000 0.31059  0.41261  0.54582  Biso   1.000  H
  C296     1.0000 0.40773  0.36760  0.81597  Biso   1.000  C
  H265     1.0000 0.38721  0.43869  0.72299  Biso   1.000  H
  O105     1.0000 0.59771  0.44945  0.90162  Biso   1.000  O
  C297     1.0000 0.52027  0.36868  0.91743  Biso   1.000  C
  H266     1.0000 0.36458  0.15028  0.49439  Biso   1.000  H
  H267     1.0000 0.36439  0.12123  0.41920  Biso   1.000  H
  H268     1.0000 0.33881  0.21352  0.42239  Biso   1.000  H
  C298     1.0000 0.52146  0.92752  0.62148  Biso   1.000  C
  C299     1.0000 0.70692  0.04001  0.74130  Biso   1.000  C
  O106     1.0000 0.34561  0.33937  0.79098  Biso   1.000  O
  C300     1.0000 0.45738  0.34032  0.88948  Biso   1.000  C
  C301     1.0000 0.64912  0.39349  0.94991  Biso   1.000  C
  H269     1.0000 0.55459  0.35209  0.96798  Biso   1.000  H
  C302     1.0000 0.51045  0.92188  0.68766  Biso   1.000  C
  H270     1.0000 0.56048  0.89371  0.63449  Biso   1.000  H
  H271     1.0000 0.48329  0.90308  0.57400  Biso   1.000  H
  H272     1.0000 0.70480  0.08989  0.76838  Biso   1.000  H
  H273     1.0000 0.72200  0.05691  0.70730  Biso   1.000  H
  H274     1.0000 0.73739  0.99867  0.77942  Biso   1.000  H
  C303     1.0000 0.29451  0.36463  0.71619  Biso   1.000  C
  C304     1.0000 0.44353  0.27999  0.93678  Biso   1.000  C
  H275     1.0000 0.63809  0.33652  0.92742  Biso   1.000  H
  H276     1.0000 0.68940  0.41261  0.95421  Biso   1.000  H
  H277     1.0000 0.65562  0.39229  0.00163  Biso   1.000  H
  C305     1.0000 0.56264  0.92049  0.76477  Biso   1.000  C
  C306     1.0000 0.44846  0.92074  0.67575  Biso   1.000  C
  H278     1.0000 0.30151  0.34019  0.67709  Biso   1.000  H
  H279     1.0000 0.29391  0.42647  0.71248  Biso   1.000  H
  H280     1.0000 0.25261  0.34469  0.70701  Biso   1.000  H
  C307     1.0000 0.45229  0.18788  0.92295  Biso   1.000  C
  H281     1.0000 0.39810  0.28879  0.92318  Biso   1.000  H
  H282     1.0000 0.47329  0.29322  0.99268  Biso   1.000  H
  C308     1.0000 0.55153  0.92074  0.82428  Biso   1.000  C
  H283     1.0000 0.60618  0.91942  0.77640  Biso   1.000  H
  O107     1.0000 0.39306  0.92442  0.59876  Biso   1.000  O
  C309     1.0000 0.43739  0.92049  0.73525  Biso   1.000  C
  C310     1.0000 0.39914  0.13832  0.87071  Biso   1.000  C
  C311     1.0000 0.51436  0.15072  0.96130  Biso   1.000  C
  O108     1.0000 0.60692  0.92442  0.90127  Biso   1.000  O
  C312     1.0000 0.48954  0.92188  0.81237  Biso   1.000  C
  C313     1.0000 0.36814  0.85022  0.56133  Biso   1.000  C
  H284     1.0000 0.39381  0.91942  0.72363  Biso   1.000  H
  C314     1.0000 0.40703  0.05501  0.85595  Biso   1.000  C
  H285     1.0000 0.35652  0.16212  0.84462  Biso   1.000  H
  C315     1.0000 0.52216  0.06716  0.94706  Biso   1.000  C
  O109     1.0000 0.56525  0.20168  0.01383  Biso   1.000  O
  C316     1.0000 0.63182  0.85022  0.93864  Biso   1.000  C
  C317     1.0000 0.47856  0.92752  0.87855  Biso   1.000  C
  C318     1.0000 0.31151  0.85206  0.48515  Biso   1.000  C
  C319     1.0000 0.39433  0.77312  0.59370  Biso   1.000  C
  C320     1.0000 0.46876  0.01798  0.89447  Biso   1.000  C
  O110     1.0000 0.35603  0.00323  0.80382  Biso   1.000  O
  H286     1.0000 0.56468  0.04298  0.97368  Biso   1.000  H
  C321     1.0000 0.62927  0.16921  0.04701  Biso   1.000  C
  C322     1.0000 0.60563  0.77312  0.90627  Biso   1.000  C
  C323     1.0000 0.68852  0.85206  0.01488  Biso   1.000  C
  H287     1.0000 0.43948  0.89371  0.86548  Biso   1.000  H
  H288     1.0000 0.51669  0.90308  0.92603  Biso   1.000  H
  N21      1.0000 0.27912  0.93018  0.44552  Biso   1.000  N
  C324     1.0000 0.28470  0.77768  0.44564  Biso   1.000  C
  C325     1.0000 0.36843  0.69697  0.55401  Biso   1.000  C
  H289     1.0000 0.43159  0.77129  0.64519  Biso   1.000  H
  C326     1.0000 0.29311  0.04001  0.75873  Biso   1.000  C
  H290     1.0000 0.63538  0.15028  0.00558  Biso   1.000  H
  H291     1.0000 0.63560  0.12123  0.08083  Biso   1.000  H
  H292     1.0000 0.66122  0.21352  0.07763  Biso   1.000  H
  C327     1.0000 0.63158  0.69697  0.94596  Biso   1.000  C
  H293     1.0000 0.56837  0.77129  0.85478  Biso   1.000  H
  N22      1.0000 0.72089  0.93018  0.05445  Biso   1.000  N
  C328     1.0000 0.71533  0.77768  0.05439  Biso   1.000  C
  O111     1.0000 0.30987  0.99532  0.46336  Biso   1.000  O
  O112     1.0000 0.22174  0.92688  0.39381  Biso   1.000  O
  H294     1.0000 0.24622  0.77933  0.39503  Biso   1.000  H
  C329     1.0000 0.31297  0.70070  0.47853  Biso   1.000  C
  O113     1.0000 0.39982  0.62746  0.59225  Biso   1.000  O
  H295     1.0000 0.29520  0.08989  0.73159  Biso   1.000  H
  H296     1.0000 0.27803  0.05691  0.79272  Biso   1.000  H
  H297     1.0000 0.26259  0.99867  0.72061  Biso   1.000  H
  O114     1.0000 0.60021  0.62746  0.90778  Biso   1.000  O
  C330     1.0000 0.68699  0.70070  0.02144  Biso   1.000  C
  O115     1.0000 0.69015  0.99532  0.03667  Biso   1.000  O
  O116     1.0000 0.77825  0.92688  0.10622  Biso   1.000  O
  H298     1.0000 0.75380  0.77933  0.10500  Biso   1.000  H
  N23      1.0000 0.28264  0.62544  0.43251  Biso   1.000  N
  H299     1.0000 0.37961  0.58473  0.56552  Biso   1.000  H
  H300     1.0000 0.62042  0.58473  0.93451  Biso   1.000  H
  N24      1.0000 0.71735  0.62544  0.06752  Biso   1.000  N
  O117     1.0000 0.23281  0.63189  0.36963  Biso   1.000  O
  O118     1.0000 0.30951  0.55726  0.45918  Biso   1.000  O
  O119     1.0000 0.76715  0.63189  0.13034  Biso   1.000  O
  O120     1.0000 0.69048  0.55726  0.04085  Biso   1.000  O
