data_image0
_cell_length_a       30.128
_cell_length_b       30.128
_cell_length_c       20.746
_cell_angle_alpha    90
_cell_angle_beta     90
_cell_angle_gamma    120

_symmetry_space_group_name_H-M    "P 1"
_symmetry_int_tables_number       1

loop_
  _symmetry_equiv_pos_as_xyz
  'x, y, z'

loop_
  _atom_site_label
  _atom_site_occupancy
  _atom_site_fract_x
  _atom_site_fract_y
  _atom_site_fract_z
  _atom_site_thermal_displace_type
  _atom_site_B_iso_or_equiv
  _atom_site_type_symbol
  C1       1.0000 0.33337  0.25855  0.57953  Biso   1.000  C
  C2       1.0000 0.28778  0.21244  0.59424  Biso   1.000  C
  C3       1.0000 0.37037  0.25395  0.54825  Biso   1.000  C
  H1       1.0000 0.33778  0.29094  0.59105  Biso   1.000  H
  C4       1.0000 0.28057  0.16523  0.57756  Biso   1.000  C
  H2       1.0000 0.26117  0.21432  0.61631  Biso   1.000  H
  C5       1.0000 0.36666  0.20922  0.53292  Biso   1.000  C
  F1       1.0000 0.41468  0.29975  0.53524  Biso   1.000  F
  C6       1.0000 0.22967  0.11713  0.58821  Biso   1.000  C
  C7       1.0000 0.32086  0.16423  0.54685  Biso   1.000  C
  H3       1.0000 0.39435  0.20792  0.51301  Biso   1.000  H
  C8       1.0000 0.18986  0.11544  0.53914  Biso   1.000  C
  N1       1.0000 0.20966  0.11954  0.65155  Biso   1.000  N
  H4       1.0000 0.23305  0.08593  0.58445  Biso   1.000  H
  H5       1.0000 0.31737  0.13223  0.53495  Biso   1.000  H
  C9       1.0000 0.20566  0.11333  0.47011  Biso   1.000  C
  N2       1.0000 0.14036  0.07075  0.55254  Biso   1.000  N
  H6       1.0000 0.18709  0.14694  0.54464  Biso   1.000  H
  C10      1.0000 0.19547  0.08213  0.68823  Biso   1.000  C
  C11      1.0000 0.22526  0.15564  0.43073  Biso   1.000  C
  C12      1.0000 0.19608  0.06734  0.44356  Biso   1.000  C
  C13      1.0000 0.10458  0.07865  0.57225  Biso   1.000  C
  H7       1.0000 0.19997  0.05442  0.67502  Biso   1.000  H
  C14      1.0000 0.17127  0.07934  0.75316  Biso   1.000  C
  C15      1.0000 0.23788  0.15373  0.36754  Biso   1.000  C
  H8       1.0000 0.23026  0.18715  0.44765  Biso   1.000  H
  C16      1.0000 0.20747  0.06523  0.37795  Biso   1.000  C
  H9       1.0000 0.18177  0.03714  0.46925  Biso   1.000  H
  C17      1.0000 0.05098  0.03744  0.58271  Biso   1.000  C
  H10      1.0000 0.11287  0.11295  0.58055  Biso   1.000  H
  C18      1.0000 0.15886  0.11743  0.76641  Biso   1.000  C
  C19      1.0000 0.16058  0.04055  0.79606  Biso   1.000  C
  C20      1.0000 0.22705  0.10712  0.34363  Biso   1.000  C
  H11      1.0000 0.25345  0.18362  0.34151  Biso   1.000  H
  H12      1.0000 0.20098  0.03373  0.35906  Biso   1.000  H
  C21      1.0000 0.01378  0.05105  0.58214  Biso   1.000  C
  C22      1.0000 0.03725  0.98620  0.58214  Biso   1.000  C
  H13      1.0000 0.16437  0.14273  0.73513  Biso   1.000  H
  C23      1.0000 0.13805  0.11732  0.82744  Biso   1.000  C
  C24      1.0000 0.13835  0.03951  0.85631  Biso   1.000  C
  H14      1.0000 0.16808  0.01433  0.78502  Biso   1.000  H
  F2       1.0000 0.23748  0.10613  0.27923  Biso   1.000  F
  H15      1.0000 0.02317  0.08623  0.58112  Biso   1.000  H
  C25      1.0000 0.96255  0.01353  0.58271  Biso   1.000  C
  C26      1.0000 0.98646  0.94903  0.58271  Biso   1.000  C
  H16      1.0000 0.06305  0.97681  0.58112  Biso   1.000  H
  C27      1.0000 0.12835  0.07773  0.86913  Biso   1.000  C
  C28      1.0000 0.13117  0.16124  0.84291  Biso   1.000  C
  C29      1.0000 0.12996  0.99923  0.90152  Biso   1.000  C
  C30      1.0000 0.94896  0.96271  0.58214  Biso   1.000  C
  C31      1.0000 0.92136  0.02595  0.57225  Biso   1.000  C
  C32      1.0000 0.97406  0.89541  0.57225  Biso   1.000  C
  H17      1.0000 0.11349  0.07715  0.90972  Biso   1.000  H
  N3       1.0000 0.12058  0.16894  0.89984  Biso   1.000  N
  H18      1.0000 0.13466  0.18435  0.80965  Biso   1.000  H
  N4       1.0000 0.14826  0.97072  0.89526  Biso   1.000  N
  H19      1.0000 0.10915  0.99452  0.93825  Biso   1.000  H
  H20      1.0000 0.91376  0.93691  0.58112  Biso   1.000  H
  H21      1.0000 0.88708  0.99992  0.58055  Biso   1.000  H
  N5       1.0000 0.92927  0.06964  0.55254  Biso   1.000  N
  N6       1.0000 0.93037  0.85961  0.55254  Biso   1.000  N
  H22      1.0000 0.00006  0.88713  0.58055  Biso   1.000  H
  C33      1.0000 0.12097  0.21704  0.91015  Biso   1.000  C
  C34      1.0000 0.13676  0.93032  0.94201  Biso   1.000  C
  C35      1.0000 0.88457  0.07443  0.53914  Biso   1.000  C
  C36      1.0000 0.92558  0.81013  0.53914  Biso   1.000  C
  C37      1.0000 0.06966  0.20643  0.94201  Biso   1.000  C
  H23      1.0000 0.12364  0.23322  0.86716  Biso   1.000  H
  C38      1.0000 0.16618  0.25184  0.94804  Biso   1.000  C
  H24      1.0000 0.12138  0.93653  0.98135  Biso   1.000  H
  C39      1.0000 0.09607  0.87900  0.91015  Biso   1.000  C
  C40      1.0000 0.18537  0.92982  0.96144  Biso   1.000  C
  H25      1.0000 0.85308  0.04013  0.54464  Biso   1.000  H
  C41      1.0000 0.88287  0.11253  0.58821  Biso   1.000  C
  C42      1.0000 0.88668  0.09233  0.47011  Biso   1.000  C
  H26      1.0000 0.95987  0.81293  0.54464  Biso   1.000  H
  C43      1.0000 0.88744  0.77031  0.58821  Biso   1.000  C
  C44      1.0000 0.90764  0.79430  0.47011  Biso   1.000  C
  N7       1.0000 0.02925  0.17753  0.89526  Biso   1.000  N
  H27      1.0000 0.06348  0.18485  0.98135  Biso   1.000  H
  C45      1.0000 0.07017  0.25552  0.96144  Biso   1.000  C
  C46      1.0000 0.20408  0.29603  0.91565  Biso   1.000  C
  C47      1.0000 0.17368  0.24035  0.00925  Biso   1.000  C
  N8       1.0000 0.04835  0.87942  0.89984  Biso   1.000  N
  H28      1.0000 0.10956  0.87632  0.86716  Biso   1.000  H
  C48      1.0000 0.08565  0.83382  0.94804  Biso   1.000  C
  C49      1.0000 0.21807  0.93163  0.91565  Biso   1.000  C
  C50      1.0000 0.19585  0.92741  0.02372  Biso   1.000  C
  N9       1.0000 0.88047  0.09014  0.65155  Biso   1.000  N
  H29      1.0000 0.91408  0.14714  0.58445  Biso   1.000  H
  C51      1.0000 0.83475  0.11532  0.57756  Biso   1.000  C
  C52      1.0000 0.93266  0.12874  0.44356  Biso   1.000  C
  C53      1.0000 0.84437  0.06964  0.43073  Biso   1.000  C
  N10      1.0000 0.90986  0.79032  0.65155  Biso   1.000  N
  H30      1.0000 0.85287  0.76694  0.58445  Biso   1.000  H
  C54      1.0000 0.88467  0.71941  0.57756  Biso   1.000  C
  C55      1.0000 0.87126  0.80392  0.44356  Biso   1.000  C
  C56      1.0000 0.93037  0.77472  0.43073  Biso   1.000  C
  C57      1.0000 0.00077  0.13073  0.90152  Biso   1.000  C
  C58      1.0000 0.06838  0.28645  0.91565  Biso   1.000  C
  C59      1.0000 0.07258  0.26844  0.02372  Biso   1.000  C
  C60      1.0000 0.24818  0.32735  0.94934  Biso   1.000  C
  H31      1.0000 0.19928  0.30362  0.87265  Biso   1.000  H
  H32      1.0000 0.14826  0.20942  0.02854  Biso   1.000  H
  C61      1.0000 0.21758  0.27285  0.04391  Biso   1.000  C
  C62      1.0000 0.03006  0.86881  0.84291  Biso   1.000  C
  C63      1.0000 0.09196  0.79591  0.91565  Biso   1.000  C
  C64      1.0000 0.06666  0.82630  0.00925  Biso   1.000  C
  C65      1.0000 0.26277  0.93101  0.93102  Biso   1.000  C
  H33      1.0000 0.21047  0.93343  0.87164  Biso   1.000  H
  H34      1.0000 0.17276  0.92591  0.05591  Biso   1.000  H
  C66      1.0000 0.24054  0.92710  0.04203  Biso   1.000  C
  C67      1.0000 0.91786  0.11333  0.68823  Biso   1.000  C
  C68      1.0000 0.83576  0.15664  0.54685  Biso   1.000  C
  C69      1.0000 0.78758  0.07535  0.59424  Biso   1.000  C
  H35      1.0000 0.96286  0.14464  0.46925  Biso   1.000  H
  C70      1.0000 0.93476  0.14223  0.37795  Biso   1.000  C
  C71      1.0000 0.84627  0.08413  0.36754  Biso   1.000  C
  H36      1.0000 0.81285  0.04312  0.44765  Biso   1.000  H
  C72      1.0000 0.88667  0.80453  0.68823  Biso   1.000  C
  C73      1.0000 0.84335  0.67913  0.54685  Biso   1.000  C
  C74      1.0000 0.92464  0.71221  0.59424  Biso   1.000  C
  H37      1.0000 0.85537  0.81822  0.46925  Biso   1.000  H
  C75      1.0000 0.85775  0.79250  0.37795  Biso   1.000  C
  C76      1.0000 0.91584  0.76211  0.36754  Biso   1.000  C
  H38      1.0000 0.95686  0.76973  0.44765  Biso   1.000  H
  H39      1.0000 0.00547  0.11463  0.93825  Biso   1.000  H
  C77      1.0000 0.96047  0.09884  0.85631  Biso   1.000  C
  C78      1.0000 0.06897  0.33172  0.93102  Biso   1.000  C
  H40      1.0000 0.06655  0.27702  0.87164  Biso   1.000  H
  H41      1.0000 0.07406  0.24682  0.05591  Biso   1.000  H
  C79      1.0000 0.07287  0.31343  0.04203  Biso   1.000  C
  H42      1.0000 0.27507  0.35663  0.92885  Biso   1.000  H
  C80      1.0000 0.25386  0.31654  0.01301  Biso   1.000  C
  H43      1.0000 0.22226  0.26522  0.08705  Biso   1.000  H
  C81      1.0000 0.97925  0.86191  0.82744  Biso   1.000  C
  H44      1.0000 0.04966  0.86532  0.80965  Biso   1.000  H
  C82      1.0000 0.07918  0.75184  0.94934  Biso   1.000  C
  H45      1.0000 0.10435  0.80070  0.87265  Biso   1.000  H
  H46      1.0000 0.06115  0.85171  0.02854  Biso   1.000  H
  C83      1.0000 0.05524  0.78242  0.04391  Biso   1.000  C
  C84      1.0000 0.27208  0.93044  0.99634  Biso   1.000  C
  H47      1.0000 0.28527  0.93094  0.89902  Biso   1.000  H
  H48      1.0000 0.24778  0.92473  0.08604  Biso   1.000  H
  H49      1.0000 0.94557  0.14553  0.67502  Biso   1.000  H
  C85      1.0000 0.92067  0.09195  0.75316  Biso   1.000  C
  H50      1.0000 0.86775  0.18512  0.53495  Biso   1.000  H
  C86      1.0000 0.79078  0.15745  0.53292  Biso   1.000  C
  C87      1.0000 0.74149  0.07485  0.57953  Biso   1.000  C
  H51      1.0000 0.78567  0.04683  0.61631  Biso   1.000  H
  H52      1.0000 0.96624  0.16722  0.35906  Biso   1.000  H
  C88      1.0000 0.89287  0.11992  0.34363  Biso   1.000  C
  H53      1.0000 0.81638  0.06983  0.34151  Biso   1.000  H
  H54      1.0000 0.85447  0.80001  0.67502  Biso   1.000  H
  C89      1.0000 0.90805  0.82872  0.75316  Biso   1.000  C
  H55      1.0000 0.81486  0.68262  0.53495  Biso   1.000  H
  C90      1.0000 0.84255  0.63333  0.53292  Biso   1.000  C
  C91      1.0000 0.92516  0.66664  0.57953  Biso   1.000  C
  H56      1.0000 0.95315  0.73880  0.61631  Biso   1.000  H
  H57      1.0000 0.83276  0.79902  0.35906  Biso   1.000  H
  C92      1.0000 0.88005  0.77292  0.34363  Biso   1.000  C
  H58      1.0000 0.93014  0.74651  0.34151  Biso   1.000  H
  C93      1.0000 0.95948  0.12004  0.79606  Biso   1.000  C
  C94      1.0000 0.92225  0.05063  0.86913  Biso   1.000  C
  C95      1.0000 0.06959  0.34164  0.99634  Biso   1.000  C
  H59      1.0000 0.06906  0.35433  0.89902  Biso   1.000  H
  H60      1.0000 0.07524  0.32302  0.08604  Biso   1.000  H
  F3       1.0000 0.29757  0.34984  0.04242  Biso   1.000  F
  C96      1.0000 0.95857  0.84114  0.76641  Biso   1.000  C
  C97      1.0000 0.94935  0.87161  0.86913  Biso   1.000  C
  H61      1.0000 0.08156  0.72493  0.92885  Biso   1.000  H
  C98      1.0000 0.06265  0.74613  0.01301  Biso   1.000  C
  H62      1.0000 0.04296  0.77771  0.08705  Biso   1.000  H
  F4       1.0000 0.31574  0.92940  0.01032  Biso   1.000  F
  C99      1.0000 0.88257  0.04143  0.76641  Biso   1.000  C
  H63      1.0000 0.79206  0.18642  0.51301  Biso   1.000  H
  C100     1.0000 0.74608  0.11644  0.54825  Biso   1.000  C
  H64      1.0000 0.70906  0.04683  0.59105  Biso   1.000  H
  F5       1.0000 0.89387  0.13134  0.27923  Biso   1.000  F
  C101     1.0000 0.87994  0.83941  0.79606  Biso   1.000  C
  H65      1.0000 0.81356  0.60562  0.51301  Biso   1.000  H
  C102     1.0000 0.88355  0.62961  0.54825  Biso   1.000  C
  H66      1.0000 0.95316  0.66223  0.59105  Biso   1.000  H
  F6       1.0000 0.86865  0.76253  0.27923  Biso   1.000  F
  H67      1.0000 0.98565  0.15373  0.78502  Biso   1.000  H
  C103     1.0000 0.88268  0.02073  0.82744  Biso   1.000  C
  H68      1.0000 0.92287  0.03633  0.90972  Biso   1.000  H
  F7       1.0000 0.07056  0.38633  0.01032  Biso   1.000  F
  H69      1.0000 0.97835  0.83562  0.73513  Biso   1.000  H
  C104     1.0000 0.90116  0.86160  0.85631  Biso   1.000  C
  H70      1.0000 0.96367  0.88652  0.90972  Biso   1.000  H
  F8       1.0000 0.05226  0.70243  0.04242  Biso   1.000  F
  H71      1.0000 0.85726  0.02162  0.73513  Biso   1.000  H
  F9       1.0000 0.70026  0.11494  0.53524  Biso   1.000  F
  H72      1.0000 0.84625  0.83190  0.78502  Biso   1.000  H
  F10      1.0000 0.88506  0.58531  0.53524  Biso   1.000  F
  C105     1.0000 0.83875  0.96991  0.84291  Biso   1.000  C
  C106     1.0000 0.86926  0.87003  0.90152  Biso   1.000  C
  N11      1.0000 0.83107  0.95163  0.89984  Biso   1.000  N
  H73      1.0000 0.81568  0.95033  0.80965  Biso   1.000  H
  N12      1.0000 0.82247  0.85171  0.89526  Biso   1.000  N
  H74      1.0000 0.88536  0.89081  0.93825  Biso   1.000  H
  C107     1.0000 0.78295  0.90392  0.91015  Biso   1.000  C
  C108     1.0000 0.79356  0.86321  0.94201  Biso   1.000  C
  H75      1.0000 0.76677  0.89042  0.86716  Biso   1.000  H
  C109     1.0000 0.74814  0.91430  0.94804  Biso   1.000  C
  H76      1.0000 0.81517  0.87862  0.98135  Biso   1.000  H
  C110     1.0000 0.74447  0.81461  0.96144  Biso   1.000  C
  C111     1.0000 0.70394  0.90802  0.91565  Biso   1.000  C
  C112     1.0000 0.75967  0.93331  0.00925  Biso   1.000  C
  C113     1.0000 0.71355  0.78192  0.91565  Biso   1.000  C
  C114     1.0000 0.73155  0.80411  0.02372  Biso   1.000  C
  C115     1.0000 0.67267  0.92082  0.94934  Biso   1.000  C
  H77      1.0000 0.69636  0.89564  0.87265  Biso   1.000  H
  H78      1.0000 0.79058  0.93883  0.02854  Biso   1.000  H
  C116     1.0000 0.72718  0.94473  0.04391  Biso   1.000  C
  C117     1.0000 0.66827  0.73723  0.93102  Biso   1.000  C
  H79      1.0000 0.72296  0.78951  0.87164  Biso   1.000  H
  H80      1.0000 0.75316  0.82722  0.05591  Biso   1.000  H
  C118     1.0000 0.68657  0.75942  0.04203  Biso   1.000  C
  H81      1.0000 0.64335  0.91840  0.92885  Biso   1.000  H
  C119     1.0000 0.68345  0.93734  0.01301  Biso   1.000  C
  H82      1.0000 0.73476  0.95704  0.08705  Biso   1.000  H
  C120     1.0000 0.65837  0.72792  0.99634  Biso   1.000  C
  H83      1.0000 0.64567  0.71474  0.89902  Biso   1.000  H
  H84      1.0000 0.67696  0.75222  0.08604  Biso   1.000  H
  F11      1.0000 0.65018  0.94772  0.04242  Biso   1.000  F
  F12      1.0000 0.61366  0.68423  0.01032  Biso   1.000  F
  C121     1.0000 0.25852  0.33336  0.42047  Biso   1.000  C
  C122     1.0000 0.21242  0.28776  0.40576  Biso   1.000  C
  C123     1.0000 0.25391  0.37035  0.45175  Biso   1.000  C
  H85      1.0000 0.29093  0.33777  0.40895  Biso   1.000  H
  C124     1.0000 0.16524  0.28055  0.42244  Biso   1.000  C
  H86      1.0000 0.21432  0.26116  0.38369  Biso   1.000  H
  C125     1.0000 0.20922  0.36667  0.46708  Biso   1.000  C
  F13      1.0000 0.29973  0.41465  0.46476  Biso   1.000  F
  C126     1.0000 0.11712  0.22965  0.41179  Biso   1.000  C
  C127     1.0000 0.16422  0.32087  0.45315  Biso   1.000  C
  H87      1.0000 0.20794  0.39438  0.48699  Biso   1.000  H
  N13      1.0000 0.11955  0.20968  0.34845  Biso   1.000  N
  C128     1.0000 0.11545  0.18987  0.46086  Biso   1.000  C
  H88      1.0000 0.08593  0.23306  0.41555  Biso   1.000  H
  H89      1.0000 0.13224  0.31738  0.46505  Biso   1.000  H
  C129     1.0000 0.08213  0.19547  0.31177  Biso   1.000  C
  N14      1.0000 0.07074  0.14035  0.44746  Biso   1.000  N
  H90      1.0000 0.14694  0.18707  0.45536  Biso   1.000  H
  C130     1.0000 0.11332  0.20566  0.52989  Biso   1.000  C
  C131     1.0000 0.07933  0.17128  0.24684  Biso   1.000  C
  H91      1.0000 0.05444  0.19995  0.32498  Biso   1.000  H
  C132     1.0000 0.07863  0.10455  0.42775  Biso   1.000  C
  C133     1.0000 0.06734  0.19608  0.55644  Biso   1.000  C
  C134     1.0000 0.15566  0.22528  0.56927  Biso   1.000  C
  C135     1.0000 0.11744  0.15886  0.23359  Biso   1.000  C
  C136     1.0000 0.04051  0.16055  0.20394  Biso   1.000  C
  C137     1.0000 0.03744  0.05097  0.41729  Biso   1.000  C
  H92      1.0000 0.11293  0.11287  0.41945  Biso   1.000  H
  H93      1.0000 0.03715  0.18178  0.53075  Biso   1.000  H
  C138     1.0000 0.06523  0.20746  0.62205  Biso   1.000  C
  C139     1.0000 0.15371  0.23785  0.63246  Biso   1.000  C
  H94      1.0000 0.18713  0.23027  0.55235  Biso   1.000  H
  H95      1.0000 0.14273  0.16438  0.26487  Biso   1.000  H
  C140     1.0000 0.11732  0.13805  0.17256  Biso   1.000  C
  C141     1.0000 0.03954  0.13836  0.14369  Biso   1.000  C
  H96      1.0000 0.01433  0.16806  0.21498  Biso   1.000  H
  C142     1.0000 0.05102  0.01376  0.41786  Biso   1.000  C
  C143     1.0000 0.98623  0.03725  0.41786  Biso   1.000  C
  H97      1.0000 0.03374  0.20098  0.64094  Biso   1.000  H
  C144     1.0000 0.10714  0.22708  0.65637  Biso   1.000  C
  H98      1.0000 0.18362  0.25345  0.65849  Biso   1.000  H
  C145     1.0000 0.07772  0.12836  0.13087  Biso   1.000  C
  C146     1.0000 0.16124  0.13115  0.15709  Biso   1.000  C
  C147     1.0000 0.99923  0.12997  0.09848  Biso   1.000  C
  H99      1.0000 0.08622  0.02315  0.41888  Biso   1.000  H
  C148     1.0000 0.01354  0.96256  0.41729  Biso   1.000  C
  C149     1.0000 0.94902  0.98647  0.41729  Biso   1.000  C
  H100     1.0000 0.97684  0.06309  0.41888  Biso   1.000  H
  F14      1.0000 0.10612  0.23747  0.72077  Biso   1.000  F
  H101     1.0000 0.07716  0.11348  0.09028  Biso   1.000  H
  N15      1.0000 0.16892  0.12058  0.10016  Biso   1.000  N
  H102     1.0000 0.18434  0.13468  0.19035  Biso   1.000  H
  N16      1.0000 0.97075  0.14829  0.10474  Biso   1.000  N
  H103     1.0000 0.99453  0.10915  0.06175  Biso   1.000  H
  C150     1.0000 0.96272  0.94895  0.41786  Biso   1.000  C
  C151     1.0000 0.02593  0.92135  0.42775  Biso   1.000  C
  C152     1.0000 0.89542  0.97405  0.42775  Biso   1.000  C
  C153     1.0000 0.21704  0.12096  0.08985  Biso   1.000  C
  C154     1.0000 0.93033  0.13675  0.05799  Biso   1.000  C
  H104     1.0000 0.93693  0.91377  0.41888  Biso   1.000  H
  H105     1.0000 0.99992  0.88705  0.41945  Biso   1.000  H
  N17      1.0000 0.06961  0.92925  0.44746  Biso   1.000  N
  N18      1.0000 0.85963  0.93036  0.44746  Biso   1.000  N
  H106     1.0000 0.88715  0.00008  0.41945  Biso   1.000  H
  C155     1.0000 0.20644  0.06968  0.05799  Biso   1.000  C
  H107     1.0000 0.23324  0.12368  0.13284  Biso   1.000  H
  C156     1.0000 0.25184  0.16618  0.05196  Biso   1.000  C
  H108     1.0000 0.93655  0.12138  0.01865  Biso   1.000  H
  C157     1.0000 0.87903  0.09608  0.08985  Biso   1.000  C
  C158     1.0000 0.92985  0.18539  0.03856  Biso   1.000  C
  C159     1.0000 0.07442  0.88456  0.46086  Biso   1.000  C
  C160     1.0000 0.81014  0.92557  0.46086  Biso   1.000  C
  N19      1.0000 0.17755  0.02928  0.10474  Biso   1.000  N
  H109     1.0000 0.18485  0.06347  0.01865  Biso   1.000  H
  C161     1.0000 0.25555  0.07018  0.03856  Biso   1.000  C
  C162     1.0000 0.29603  0.20405  0.08435  Biso   1.000  C
  C163     1.0000 0.24034  0.17366  0.99075  Biso   1.000  C
  N20      1.0000 0.87943  0.04837  0.10016  Biso   1.000  N
  H110     1.0000 0.87635  0.10958  0.13284  Biso   1.000  H
  C164     1.0000 0.83382  0.08566  0.05196  Biso   1.000  C
  C165     1.0000 0.92742  0.19585  0.97628  Biso   1.000  C
  C166     1.0000 0.93163  0.21808  0.08435  Biso   1.000  C
  C167     1.0000 0.11252  0.88284  0.41179  Biso   1.000  C
  H111     1.0000 0.04014  0.85306  0.45536  Biso   1.000  H
  C168     1.0000 0.09233  0.88667  0.52989  Biso   1.000  C
  H112     1.0000 0.81293  0.95983  0.45536  Biso   1.000  H
  C169     1.0000 0.77032  0.88744  0.41179  Biso   1.000  C
  C170     1.0000 0.79433  0.90763  0.52989  Biso   1.000  C
  C171     1.0000 0.13073  0.00077  0.09848  Biso   1.000  C
  C172     1.0000 0.28644  0.06837  0.08435  Biso   1.000  C
  C173     1.0000 0.26842  0.07255  0.97628  Biso   1.000  C
  C174     1.0000 0.32735  0.24816  0.05066  Biso   1.000  C
  H113     1.0000 0.30363  0.19926  0.12735  Biso   1.000  H
  H114     1.0000 0.20943  0.14829  0.97146  Biso   1.000  H
  C175     1.0000 0.27282  0.21758  0.95609  Biso   1.000  C
  C176     1.0000 0.86881  0.03005  0.15709  Biso   1.000  C
  C177     1.0000 0.82634  0.06665  0.99075  Biso   1.000  C
  C178     1.0000 0.79593  0.09198  0.08435  Biso   1.000  C
  H115     1.0000 0.92594  0.17278  0.94409  Biso   1.000  H
  C179     1.0000 0.92715  0.24058  0.95797  Biso   1.000  C
  C180     1.0000 0.93104  0.26277  0.06898  Biso   1.000  C
  H116     1.0000 0.93343  0.21045  0.12836  Biso   1.000  H
  N21      1.0000 0.09012  0.88046  0.34845  Biso   1.000  N
  H117     1.0000 0.14711  0.91403  0.41555  Biso   1.000  H
  C181     1.0000 0.11532  0.83474  0.42244  Biso   1.000  C
  C182     1.0000 0.12874  0.93266  0.55644  Biso   1.000  C
  C183     1.0000 0.06962  0.84436  0.56927  Biso   1.000  C
  N22      1.0000 0.79033  0.90986  0.34845  Biso   1.000  N
  H118     1.0000 0.76695  0.85286  0.41555  Biso   1.000  H
  C184     1.0000 0.71940  0.88464  0.42244  Biso   1.000  C
  C185     1.0000 0.80393  0.87126  0.55644  Biso   1.000  C
  C186     1.0000 0.77473  0.93036  0.56927  Biso   1.000  C
  H119     1.0000 0.11463  0.00548  0.06175  Biso   1.000  H
  C187     1.0000 0.09882  0.96045  0.14369  Biso   1.000  C
  C188     1.0000 0.33174  0.06895  0.06898  Biso   1.000  C
  H120     1.0000 0.27705  0.06657  0.12836  Biso   1.000  H
  H121     1.0000 0.24685  0.07409  0.94409  Biso   1.000  H
  C189     1.0000 0.31341  0.07286  0.95797  Biso   1.000  C
  H122     1.0000 0.35663  0.27507  0.07115  Biso   1.000  H
  C190     1.0000 0.31653  0.25387  0.98699  Biso   1.000  C
  H123     1.0000 0.26524  0.22226  0.91295  Biso   1.000  H
  C191     1.0000 0.86194  0.97927  0.17256  Biso   1.000  C
  H124     1.0000 0.86535  0.04967  0.19035  Biso   1.000  H
  H125     1.0000 0.85175  0.06117  0.97146  Biso   1.000  H
  C192     1.0000 0.78245  0.05527  0.95609  Biso   1.000  C
  C193     1.0000 0.75185  0.07918  0.05066  Biso   1.000  C
  H126     1.0000 0.80072  0.10436  0.12735  Biso   1.000  H
  H127     1.0000 0.92474  0.24778  0.91396  Biso   1.000  H
  C194     1.0000 0.93045  0.27208  0.00366  Biso   1.000  C
  H128     1.0000 0.93094  0.28526  0.10098  Biso   1.000  H
  C195     1.0000 0.11334  0.91787  0.31177  Biso   1.000  C
  C196     1.0000 0.15663  0.83577  0.45315  Biso   1.000  C
  C197     1.0000 0.07534  0.78756  0.40576  Biso   1.000  C
  H129     1.0000 0.14463  0.96286  0.53075  Biso   1.000  H
  C198     1.0000 0.14224  0.93477  0.62205  Biso   1.000  C
  C199     1.0000 0.08413  0.84623  0.63246  Biso   1.000  C
  H130     1.0000 0.04311  0.81285  0.55235  Biso   1.000  H
  C200     1.0000 0.80453  0.88667  0.31177  Biso   1.000  C
  C201     1.0000 0.67911  0.84336  0.45315  Biso   1.000  C
  C202     1.0000 0.71223  0.92465  0.40576  Biso   1.000  C
  H131     1.0000 0.81821  0.85536  0.53075  Biso   1.000  H
  C203     1.0000 0.79253  0.85777  0.62205  Biso   1.000  C
  C204     1.0000 0.76212  0.91584  0.63246  Biso   1.000  C
  H132     1.0000 0.76971  0.95684  0.55235  Biso   1.000  H
  C205     1.0000 0.05060  0.92224  0.13087  Biso   1.000  C
  C206     1.0000 0.12003  0.95945  0.20394  Biso   1.000  C
  C207     1.0000 0.34164  0.06956  0.00366  Biso   1.000  C
  H133     1.0000 0.35433  0.06906  0.10098  Biso   1.000  H
  H134     1.0000 0.32305  0.07527  0.91396  Biso   1.000  H
  F15      1.0000 0.34983  0.29757  0.95758  Biso   1.000  F
  C208     1.0000 0.84114  0.95857  0.23359  Biso   1.000  C
  C209     1.0000 0.87163  0.94937  0.13087  Biso   1.000  C
  H135     1.0000 0.77772  0.04296  0.91295  Biso   1.000  H
  C210     1.0000 0.74612  0.06266  0.98699  Biso   1.000  C
  H136     1.0000 0.72493  0.08156  0.07115  Biso   1.000  H
  F16      1.0000 0.92943  0.31577  0.98968  Biso   1.000  F
  C211     1.0000 0.09194  0.92066  0.24684  Biso   1.000  C
  H137     1.0000 0.14553  0.94554  0.32498  Biso   1.000  H
  H138     1.0000 0.18513  0.86774  0.46505  Biso   1.000  H
  C212     1.0000 0.15742  0.79074  0.46708  Biso   1.000  C
  C213     1.0000 0.07482  0.74145  0.42047  Biso   1.000  C
  H139     1.0000 0.04683  0.78564  0.38369  Biso   1.000  H
  H140     1.0000 0.16723  0.96623  0.64094  Biso   1.000  H
  C214     1.0000 0.11991  0.89284  0.65637  Biso   1.000  C
  H141     1.0000 0.06981  0.81634  0.65849  Biso   1.000  H
  C215     1.0000 0.82873  0.90805  0.24684  Biso   1.000  C
  H142     1.0000 0.80003  0.85444  0.32498  Biso   1.000  H
  H143     1.0000 0.68261  0.81484  0.46505  Biso   1.000  H
  C216     1.0000 0.63334  0.84255  0.46708  Biso   1.000  C
  C217     1.0000 0.66664  0.92515  0.42047  Biso   1.000  C
  H144     1.0000 0.73883  0.95317  0.38369  Biso   1.000  H
  H145     1.0000 0.79901  0.83274  0.64094  Biso   1.000  H
  C218     1.0000 0.77293  0.88004  0.65637  Biso   1.000  C
  H146     1.0000 0.74655  0.93017  0.65849  Biso   1.000  H
  C219     1.0000 0.02072  0.88264  0.17256  Biso   1.000  C
  H147     1.0000 0.03634  0.92285  0.09028  Biso   1.000  H
  H148     1.0000 0.15375  0.98567  0.21498  Biso   1.000  H
  F17      1.0000 0.38632  0.07056  0.98968  Biso   1.000  F
  H149     1.0000 0.83563  0.97835  0.26487  Biso   1.000  H
  H150     1.0000 0.88654  0.96367  0.09028  Biso   1.000  H
  C220     1.0000 0.86162  0.90116  0.14369  Biso   1.000  C
  F18      1.0000 0.70245  0.05228  0.95758  Biso   1.000  F
  C221     1.0000 0.04142  0.88257  0.23359  Biso   1.000  C
  H151     1.0000 0.18641  0.79204  0.48699  Biso   1.000  H
  C222     1.0000 0.11642  0.74605  0.45175  Biso   1.000  C
  H152     1.0000 0.04684  0.70906  0.40895  Biso   1.000  H
  F19      1.0000 0.13133  0.89384  0.72077  Biso   1.000  F
  C223     1.0000 0.83944  0.87996  0.20394  Biso   1.000  C
  H153     1.0000 0.60562  0.81354  0.48699  Biso   1.000  H
  C224     1.0000 0.62965  0.88356  0.45175  Biso   1.000  C
  H154     1.0000 0.66222  0.95317  0.40895  Biso   1.000  H
  F20      1.0000 0.76253  0.86866  0.72077  Biso   1.000  F
  C225     1.0000 0.96993  0.83876  0.15709  Biso   1.000  C
  C226     1.0000 0.87004  0.86927  0.09848  Biso   1.000  C
  H155     1.0000 0.02162  0.85723  0.26487  Biso   1.000  H
  F21      1.0000 0.11493  0.70025  0.46476  Biso   1.000  F
  H156     1.0000 0.83191  0.84623  0.21498  Biso   1.000  H
  F22      1.0000 0.58532  0.88506  0.46476  Biso   1.000  F
  N23      1.0000 0.95164  0.83106  0.10016  Biso   1.000  N
  H157     1.0000 0.95031  0.81565  0.19035  Biso   1.000  H
  N24      1.0000 0.85170  0.82243  0.10474  Biso   1.000  N
  H158     1.0000 0.89084  0.88537  0.06175  Biso   1.000  H
  C227     1.0000 0.90393  0.78296  0.08985  Biso   1.000  C
  C228     1.0000 0.86321  0.79354  0.05799  Biso   1.000  C
  H159     1.0000 0.89041  0.76674  0.13284  Biso   1.000  H
  C229     1.0000 0.91434  0.74816  0.05196  Biso   1.000  C
  H160     1.0000 0.87863  0.81515  0.01865  Biso   1.000  H
  C230     1.0000 0.81463  0.74444  0.03856  Biso   1.000  C
  C231     1.0000 0.93333  0.75965  0.99075  Biso   1.000  C
  C232     1.0000 0.90804  0.70397  0.08435  Biso   1.000  C
  C233     1.0000 0.80414  0.73156  0.97628  Biso   1.000  C
  C234     1.0000 0.78193  0.71355  0.08435  Biso   1.000  C
  H161     1.0000 0.93882  0.79055  0.97146  Biso   1.000  H
  C235     1.0000 0.94473  0.72715  0.95609  Biso   1.000  C
  C236     1.0000 0.92083  0.67265  0.05066  Biso   1.000  C
  H162     1.0000 0.89563  0.69634  0.12735  Biso   1.000  H
  H163     1.0000 0.82721  0.75314  0.94409  Biso   1.000  H
  C237     1.0000 0.75944  0.68657  0.95797  Biso   1.000  C
  C238     1.0000 0.73724  0.66825  0.06898  Biso   1.000  C
  H164     1.0000 0.78951  0.72294  0.12836  Biso   1.000  H
  H165     1.0000 0.95702  0.73474  0.91295  Biso   1.000  H
  C239     1.0000 0.93732  0.68346  0.98699  Biso   1.000  C
  H166     1.0000 0.91842  0.64333  0.07115  Biso   1.000  H
  H167     1.0000 0.75221  0.67695  0.91396  Biso   1.000  H
  C240     1.0000 0.72794  0.65836  0.00366  Biso   1.000  C
  H168     1.0000 0.71471  0.64563  0.10098  Biso   1.000  H
  F23      1.0000 0.94772  0.65016  0.95758  Biso   1.000  F
  F24      1.0000 0.68422  0.61367  0.98968  Biso   1.000  F
  C241     1.0000 0.41852  0.41251  0.38398  Biso   1.000  C
  C242     1.0000 0.41278  0.39599  0.32030  Biso   1.000  C
  H169     1.0000 0.39159  0.41488  0.40451  Biso   1.000  H
  C243     1.0000 0.46259  0.42531  0.41772  Biso   1.000  C
  F25      1.0000 0.36912  0.38560  0.29090  Biso   1.000  F
  C244     1.0000 0.44911  0.38859  0.28941  Biso   1.000  C
  C245     1.0000 0.50048  0.41899  0.38528  Biso   1.000  C
  H170     1.0000 0.46738  0.43769  0.46072  Biso   1.000  H
  C246     1.0000 0.49302  0.40001  0.32411  Biso   1.000  C
  H171     1.0000 0.44438  0.37629  0.24631  Biso   1.000  H
  C247     1.0000 0.54569  0.42941  0.42321  Biso   1.000  C
  H172     1.0000 0.51841  0.39449  0.30478  Biso   1.000  H
  N25      1.0000 0.54610  0.38169  0.43348  Biso   1.000  N
  C248     1.0000 0.59701  0.47011  0.39130  Biso   1.000  C
  H173     1.0000 0.54301  0.44290  0.46621  Biso   1.000  H
  C249     1.0000 0.53550  0.36341  0.49041  Biso   1.000  C
  N26      1.0000 0.63741  0.48161  0.43811  Biso   1.000  N
  H174     1.0000 0.60322  0.45471  0.35202  Biso   1.000  H
  C250     1.0000 0.59652  0.51871  0.37188  Biso   1.000  C
  C251     1.0000 0.52861  0.31259  0.50588  Biso   1.000  C
  H175     1.0000 0.53201  0.38300  0.52372  Biso   1.000  H
  C252     1.0000 0.66589  0.46329  0.43179  Biso   1.000  C
  C253     1.0000 0.59410  0.52921  0.30960  Biso   1.000  C
  C254     1.0000 0.59829  0.55140  0.41772  Biso   1.000  C
  C255     1.0000 0.50780  0.29189  0.56690  Biso   1.000  C
  C256     1.0000 0.53829  0.28270  0.46419  Biso   1.000  C
  C257     1.0000 0.70620  0.47168  0.47701  Biso   1.000  C
  H176     1.0000 0.66122  0.44252  0.39511  Biso   1.000  H
  H177     1.0000 0.59260  0.50610  0.27740  Biso   1.000  H
  C258     1.0000 0.59381  0.57390  0.29129  Biso   1.000  C
  C259     1.0000 0.59770  0.59609  0.40229  Biso   1.000  C
  H178     1.0000 0.60011  0.54381  0.46168  Biso   1.000  H
  C260     1.0000 0.49541  0.24142  0.58021  Biso   1.000  C
  H179     1.0000 0.50231  0.31171  0.59819  Biso   1.000  H
  H180     1.0000 0.55320  0.29699  0.42360  Biso   1.000  H
  C261     1.0000 0.52829  0.23448  0.47701  Biso   1.000  C
  C262     1.0000 0.74438  0.46168  0.46419  Biso   1.000  C
  C263     1.0000 0.70719  0.49391  0.53731  Biso   1.000  C
  H181     1.0000 0.59140  0.58111  0.24728  Biso   1.000  H
  C264     1.0000 0.59711  0.60541  0.33698  Biso   1.000  C
  H182     1.0000 0.59760  0.61859  0.43430  Biso   1.000  H
  C265     1.0000 0.47119  0.21999  0.64509  Biso   1.000  C
  C266     1.0000 0.50611  0.21329  0.53731  Biso   1.000  C
  C267     1.0000 0.53671  0.20259  0.43179  Biso   1.000  C
  C268     1.0000 0.78400  0.47142  0.50588  Biso   1.000  C
  H183     1.0000 0.74382  0.44681  0.42360  Biso   1.000  H
  C269     1.0000 0.74600  0.50461  0.58021  Biso   1.000  C
  H184     1.0000 0.68099  0.50139  0.54830  Biso   1.000  H
  F26      1.0000 0.59609  0.64910  0.32300  Biso   1.000  F
  N27      1.0000 0.45699  0.24318  0.68182  Biso   1.000  N
  H185     1.0000 0.46671  0.18780  0.65830  Biso   1.000  H
  H186     1.0000 0.49859  0.17960  0.54830  Biso   1.000  H
  N28      1.0000 0.51839  0.15580  0.43811  Biso   1.000  N
  H187     1.0000 0.55750  0.21869  0.39511  Biso   1.000  H
  C270     1.0000 0.78410  0.49219  0.56690  Biso   1.000  C
  C271     1.0000 0.82792  0.46452  0.49041  Biso   1.000  C
  C272     1.0000 0.74880  0.52879  0.64509  Biso   1.000  C
  C273     1.0000 0.43701  0.22080  0.74511  Biso   1.000  C
  C274     1.0000 0.52989  0.12690  0.39130  Biso   1.000  C
  H188     1.0000 0.80940  0.49771  0.59819  Biso   1.000  H
  N29      1.0000 0.83559  0.45390  0.43348  Biso   1.000  N
  H189     1.0000 0.85100  0.46800  0.52372  Biso   1.000  H
  N30      1.0000 0.78621  0.54301  0.68182  Biso   1.000  N
  H190     1.0000 0.72112  0.53331  0.65830  Biso   1.000  H
  C275     1.0000 0.47680  0.25890  0.79418  Biso   1.000  C
  H191     1.0000 0.43361  0.18619  0.74892  Biso   1.000  H
  C276     1.0000 0.38608  0.21800  0.75581  Biso   1.000  C
  H192     1.0000 0.54531  0.14852  0.35202  Biso   1.000  H
  C277     1.0000 0.57059  0.11628  0.42321  Biso   1.000  C
  C278     1.0000 0.48131  0.07780  0.37188  Biso   1.000  C
  C279     1.0000 0.88371  0.45428  0.42321  Biso   1.000  C
  C280     1.0000 0.78380  0.56302  0.74511  Biso   1.000  C
  N31      1.0000 0.52629  0.26369  0.78078  Biso   1.000  N
  H193     1.0000 0.47961  0.29320  0.78868  Biso   1.000  H
  C281     1.0000 0.46101  0.24100  0.86320  Biso   1.000  C
  C282     1.0000 0.34578  0.17669  0.78651  Biso   1.000  C
  C283     1.0000 0.37891  0.25801  0.73908  Biso   1.000  C
  N32      1.0000 0.61830  0.16438  0.43348  Biso   1.000  N
  H194     1.0000 0.55709  0.10011  0.46621  Biso   1.000  H
  C284     1.0000 0.58100  0.08148  0.38528  Biso   1.000  C
  C285     1.0000 0.47081  0.06489  0.30960  Biso   1.000  C
  C286     1.0000 0.44861  0.04691  0.41772  Biso   1.000  C
  C287     1.0000 0.87310  0.40300  0.39130  Biso   1.000  C
  H195     1.0000 0.89990  0.45701  0.46621  Biso   1.000  H
  C288     1.0000 0.91850  0.49951  0.38528  Biso   1.000  C
  C289     1.0000 0.78211  0.52319  0.79418  Biso   1.000  C
  H196     1.0000 0.75259  0.56639  0.74892  Biso   1.000  H
  C290     1.0000 0.83192  0.61391  0.75581  Biso   1.000  C
  C291     1.0000 0.56210  0.30742  0.76111  Biso   1.000  C
  C292     1.0000 0.47059  0.20459  0.88981  Biso   1.000  C
  C293     1.0000 0.44139  0.26369  0.90258  Biso   1.000  C
  H197     1.0000 0.34930  0.14821  0.79842  Biso   1.000  H
  C294     1.0000 0.30002  0.17592  0.80040  Biso   1.000  C
  C295     1.0000 0.33332  0.25851  0.75378  Biso   1.000  C
  H198     1.0000 0.40549  0.28649  0.71701  Biso   1.000  H
  C296     1.0000 0.63659  0.17209  0.49041  Biso   1.000  C
  C297     1.0000 0.60001  0.09302  0.32411  Biso   1.000  C
  C298     1.0000 0.57471  0.03729  0.41772  Biso   1.000  C
  H199     1.0000 0.49390  0.08650  0.27740  Biso   1.000  H
  C299     1.0000 0.42610  0.01989  0.29129  Biso   1.000  C
  C300     1.0000 0.40392  0.00161  0.40229  Biso   1.000  C
  H200     1.0000 0.45619  0.05630  0.46168  Biso   1.000  H
  N33      1.0000 0.84421  0.36261  0.43811  Biso   1.000  N
  H201     1.0000 0.85151  0.39679  0.35202  Biso   1.000  H
  C301     1.0000 0.92221  0.40350  0.37188  Biso   1.000  C
  C302     1.0000 0.90700  0.50698  0.32411  Biso   1.000  C
  C303     1.0000 0.96271  0.53741  0.41772  Biso   1.000  C
  N34      1.0000 0.73742  0.47372  0.78078  Biso   1.000  N
  H202     1.0000 0.81360  0.52040  0.78868  Biso   1.000  H
  C304     1.0000 0.77998  0.53899  0.86320  Biso   1.000  C
  C305     1.0000 0.83088  0.65419  0.78651  Biso   1.000  C
  C306     1.0000 0.87910  0.62112  0.73908  Biso   1.000  C
  C307     1.0000 0.61569  0.31980  0.75060  Biso   1.000  C
  H203     1.0000 0.55382  0.33340  0.75282  Biso   1.000  H
  H204     1.0000 0.48487  0.18868  0.86412  Biso   1.000  H
  C308     1.0000 0.45920  0.19110  0.95541  Biso   1.000  C
  C309     1.0000 0.42880  0.24920  0.96578  Biso   1.000  C
  H205     1.0000 0.43639  0.29021  0.88571  Biso   1.000  H
  H206     1.0000 0.27230  0.14691  0.82030  Biso   1.000  H
  C310     1.0000 0.29631  0.21689  0.78512  Biso   1.000  C
  H207     1.0000 0.32889  0.28649  0.74231  Biso   1.000  H
  C311     1.0000 0.68740  0.21601  0.50588  Biso   1.000  C
  H208     1.0000 0.61699  0.14901  0.52372  Biso   1.000  H
  H209     1.0000 0.60550  0.12391  0.30478  Biso   1.000  H
  C312     1.0000 0.61141  0.06052  0.28941  Biso   1.000  C
  C313     1.0000 0.58751  0.00602  0.38398  Biso   1.000  C
  H210     1.0000 0.56232  0.02970  0.46072  Biso   1.000  H
  H211     1.0000 0.41889  0.01031  0.24728  Biso   1.000  H
  C314     1.0000 0.39461  0.99168  0.33698  Biso   1.000  C
  H212     1.0000 0.38139  0.97900  0.43430  Biso   1.000  H
  C315     1.0000 0.79739  0.33409  0.43179  Biso   1.000  C
  C316     1.0000 0.93510  0.40592  0.30960  Biso   1.000  C
  C317     1.0000 0.95311  0.40170  0.41772  Biso   1.000  C
  H213     1.0000 0.87609  0.48161  0.30478  Biso   1.000  H
  C318     1.0000 0.93949  0.55090  0.28941  Biso   1.000  C
  C319     1.0000 0.99401  0.58149  0.38398  Biso   1.000  C
  H214     1.0000 0.97029  0.53258  0.46072  Biso   1.000  H
  C320     1.0000 0.74531  0.43792  0.76111  Biso   1.000  C
  C321     1.0000 0.73400  0.52940  0.88981  Biso   1.000  C
  C322     1.0000 0.82232  0.55861  0.90258  Biso   1.000  C
  H215     1.0000 0.79890  0.65071  0.79842  Biso   1.000  H
  C323     1.0000 0.87589  0.70000  0.80040  Biso   1.000  C
  C324     1.0000 0.92519  0.66669  0.75378  Biso   1.000  C
  H216     1.0000 0.88098  0.59448  0.71701  Biso   1.000  H
  C325     1.0000 0.65291  0.37062  0.75118  Biso   1.000  C
  C326     1.0000 0.62941  0.28231  0.75118  Biso   1.000  C
  H217     1.0000 0.46569  0.16611  0.97431  Biso   1.000  H
  C327     1.0000 0.43961  0.21340  0.98968  Biso   1.000  C
  H218     1.0000 0.41321  0.26349  0.99181  Biso   1.000  H
  F27      1.0000 0.25198  0.21838  0.79808  Biso   1.000  F
  C328     1.0000 0.70809  0.21589  0.56690  Biso   1.000  C
  C329     1.0000 0.71728  0.25560  0.46419  Biso   1.000  C
  H219     1.0000 0.62370  0.06811  0.24631  Biso   1.000  H
  C330     1.0000 0.60399  0.01679  0.32030  Biso   1.000  C
  H220     1.0000 0.58510  0.97670  0.40451  Biso   1.000  H
  F28      1.0000 0.35089  0.94699  0.32300  Biso   1.000  F
  C331     1.0000 0.76550  0.29381  0.47701  Biso   1.000  C
  H221     1.0000 0.78129  0.33881  0.39511  Biso   1.000  H
  H222     1.0000 0.91351  0.40741  0.27740  Biso   1.000  H
  C332     1.0000 0.98008  0.40618  0.29129  Biso   1.000  C
  C333     1.0000 0.99842  0.40231  0.40229  Biso   1.000  C
  H223     1.0000 0.94371  0.39990  0.46168  Biso   1.000  H
  H224     1.0000 0.93192  0.55562  0.24631  Biso   1.000  H
  C334     1.0000 0.98319  0.58720  0.32030  Biso   1.000  C
  H225     1.0000 0.02330  0.60839  0.40451  Biso   1.000  H
  C335     1.0000 0.70410  0.38430  0.75060  Biso   1.000  C
  H226     1.0000 0.77959  0.44620  0.75282  Biso   1.000  H
  H227     1.0000 0.70382  0.51511  0.86412  Biso   1.000  H
  C336     1.0000 0.73189  0.54079  0.95541  Biso   1.000  C
  C337     1.0000 0.82039  0.57122  0.96578  Biso   1.000  C
  H228     1.0000 0.85379  0.56359  0.88571  Biso   1.000  H
  H229     1.0000 0.87461  0.72771  0.82030  Biso   1.000  H
  C338     1.0000 0.92060  0.70371  0.78512  Biso   1.000  C
  H230     1.0000 0.95759  0.67110  0.74231  Biso   1.000  H
  H231     1.0000 0.64351  0.39641  0.75219  Biso   1.000  H
  H232     1.0000 0.60360  0.24709  0.75219  Biso   1.000  H
  C339     1.0000 0.68022  0.29592  0.75060  Biso   1.000  C
  F29      1.0000 0.42921  0.20202  0.05408  Biso   1.000  F
  C340     1.0000 0.75860  0.25399  0.58021  Biso   1.000  C
  H233     1.0000 0.68830  0.19060  0.59819  Biso   1.000  H
  H234     1.0000 0.70302  0.25621  0.42360  Biso   1.000  H
  F30      1.0000 0.61438  0.98348  0.29090  Biso   1.000  F
  C341     1.0000 0.78671  0.29281  0.53731  Biso   1.000  C
  H235     1.0000 0.98971  0.40860  0.24728  Biso   1.000  H
  C342     1.0000 0.00830  0.40289  0.33698  Biso   1.000  C
  H236     1.0000 0.02100  0.40239  0.43430  Biso   1.000  H
  F31      1.0000 0.01649  0.63089  0.29090  Biso   1.000  F
  C343     1.0000 0.71769  0.34708  0.75118  Biso   1.000  C
  H237     1.0000 0.70041  0.53431  0.97431  Biso   1.000  H
  C344     1.0000 0.77380  0.56041  0.98968  Biso   1.000  C
  H238     1.0000 0.85030  0.58682  0.99181  Biso   1.000  H
  F32      1.0000 0.96641  0.74802  0.79808  Biso   1.000  F
  C345     1.0000 0.69261  0.25472  0.76111  Biso   1.000  C
  C346     1.0000 0.78000  0.25119  0.64509  Biso   1.000  C
  H239     1.0000 0.82041  0.31899  0.54830  Biso   1.000  H
  F33      1.0000 0.05298  0.40388  0.32300  Biso   1.000  F
  H240     1.0000 0.75290  0.35651  0.75219  Biso   1.000  H
  F34      1.0000 0.77279  0.57080  0.05408  Biso   1.000  F
  N35      1.0000 0.73629  0.26261  0.78078  Biso   1.000  N
  H241     1.0000 0.66660  0.22042  0.75282  Biso   1.000  H
  N36      1.0000 0.75679  0.21379  0.68182  Biso   1.000  N
  H242     1.0000 0.81221  0.27890  0.65830  Biso   1.000  H
  C347     1.0000 0.74108  0.21789  0.79418  Biso   1.000  C
  C348     1.0000 0.77920  0.21620  0.74511  Biso   1.000  C
  H243     1.0000 0.70681  0.18638  0.78868  Biso   1.000  H
  C349     1.0000 0.75899  0.21999  0.86320  Biso   1.000  C
  H244     1.0000 0.81379  0.24740  0.74892  Biso   1.000  H
  C350     1.0000 0.78201  0.16810  0.75581  Biso   1.000  C
  C351     1.0000 0.79540  0.26599  0.88981  Biso   1.000  C
  C352     1.0000 0.73628  0.17768  0.90258  Biso   1.000  C
  C353     1.0000 0.82330  0.16910  0.78651  Biso   1.000  C
  C354     1.0000 0.74200  0.12088  0.73908  Biso   1.000  C
  H245     1.0000 0.81130  0.29619  0.86412  Biso   1.000  H
  C355     1.0000 0.80890  0.26809  0.95541  Biso   1.000  C
  C356     1.0000 0.75081  0.17960  0.96578  Biso   1.000  C
  H246     1.0000 0.70979  0.14622  0.88571  Biso   1.000  H
  H247     1.0000 0.85181  0.20110  0.79842  Biso   1.000  H
  C357     1.0000 0.82410  0.12410  0.80040  Biso   1.000  C
  C358     1.0000 0.74150  0.07481  0.75378  Biso   1.000  C
  H248     1.0000 0.71351  0.11900  0.71701  Biso   1.000  H
  H249     1.0000 0.83391  0.29960  0.97431  Biso   1.000  H
  C359     1.0000 0.78659  0.22620  0.98968  Biso   1.000  C
  H250     1.0000 0.73650  0.14970  0.99181  Biso   1.000  H
  H251     1.0000 0.85310  0.12540  0.82030  Biso   1.000  H
  C360     1.0000 0.78310  0.07941  0.78512  Biso   1.000  C
  H252     1.0000 0.71351  0.04239  0.74231  Biso   1.000  H
  F35      1.0000 0.79801  0.22720  0.05408  Biso   1.000  F
  F36      1.0000 0.78161  0.03361  0.79808  Biso   1.000  F
  C361     1.0000 0.41251  0.41849  0.61602  Biso   1.000  C
  C362     1.0000 0.42531  0.46260  0.58228  Biso   1.000  C
  C363     1.0000 0.39600  0.41281  0.67970  Biso   1.000  C
  H253     1.0000 0.41489  0.39158  0.59549  Biso   1.000  H
  C364     1.0000 0.41900  0.50051  0.61472  Biso   1.000  C
  H254     1.0000 0.43769  0.46739  0.53928  Biso   1.000  H
  C365     1.0000 0.38859  0.44911  0.71059  Biso   1.000  C
  F37      1.0000 0.38558  0.36908  0.70910  Biso   1.000  F
  C366     1.0000 0.42941  0.54569  0.57679  Biso   1.000  C
  C367     1.0000 0.40001  0.49299  0.67589  Biso   1.000  C
  H255     1.0000 0.37631  0.44440  0.75369  Biso   1.000  H
  N37      1.0000 0.38169  0.54611  0.56652  Biso   1.000  N
  C368     1.0000 0.47011  0.59701  0.60870  Biso   1.000  C
  H256     1.0000 0.44291  0.54301  0.53379  Biso   1.000  H
  H257     1.0000 0.39449  0.51840  0.69522  Biso   1.000  H
  C369     1.0000 0.36341  0.53550  0.50959  Biso   1.000  C
  N38      1.0000 0.48161  0.63741  0.56189  Biso   1.000  N
  H258     1.0000 0.45470  0.60318  0.64798  Biso   1.000  H
  C370     1.0000 0.51872  0.59651  0.62812  Biso   1.000  C
  C371     1.0000 0.31259  0.52860  0.49412  Biso   1.000  C
  H259     1.0000 0.38301  0.53201  0.47628  Biso   1.000  H
  C372     1.0000 0.46329  0.66588  0.56821  Biso   1.000  C
  C373     1.0000 0.52919  0.59410  0.69040  Biso   1.000  C
  C374     1.0000 0.55141  0.59831  0.58228  Biso   1.000  C
  C375     1.0000 0.29190  0.50779  0.43310  Biso   1.000  C
  C376     1.0000 0.28269  0.53830  0.53581  Biso   1.000  C
  C377     1.0000 0.47170  0.70620  0.52299  Biso   1.000  C
  H260     1.0000 0.44249  0.66121  0.60489  Biso   1.000  H
  H261     1.0000 0.50611  0.59260  0.72260  Biso   1.000  H
  C378     1.0000 0.57388  0.59379  0.70871  Biso   1.000  C
  C379     1.0000 0.59612  0.59770  0.59771  Biso   1.000  C
  H262     1.0000 0.54382  0.60012  0.53832  Biso   1.000  H
  C380     1.0000 0.24140  0.49541  0.41979  Biso   1.000  C
  H263     1.0000 0.31170  0.50231  0.40181  Biso   1.000  H
  C381     1.0000 0.23451  0.52829  0.52299  Biso   1.000  C
  H264     1.0000 0.29702  0.55320  0.57640  Biso   1.000  H
  C382     1.0000 0.46169  0.74442  0.53581  Biso   1.000  C
  C383     1.0000 0.49390  0.70720  0.46269  Biso   1.000  C
  H265     1.0000 0.58112  0.59142  0.75272  Biso   1.000  H
  C384     1.0000 0.60540  0.59709  0.66302  Biso   1.000  C
  H266     1.0000 0.61860  0.59759  0.56570  Biso   1.000  H
  C385     1.0000 0.21999  0.47119  0.35491  Biso   1.000  C
  C386     1.0000 0.21329  0.50610  0.46269  Biso   1.000  C
  C387     1.0000 0.20259  0.53669  0.56821  Biso   1.000  C
  C388     1.0000 0.47140  0.78401  0.49412  Biso   1.000  C
  H267     1.0000 0.44681  0.74380  0.57640  Biso   1.000  H
  C389     1.0000 0.50460  0.74599  0.41979  Biso   1.000  C
  H268     1.0000 0.50141  0.68099  0.45170  Biso   1.000  H
  F38      1.0000 0.64908  0.59609  0.67700  Biso   1.000  F
  N39      1.0000 0.24321  0.45701  0.31818  Biso   1.000  N
  H269     1.0000 0.18781  0.46670  0.34170  Biso   1.000  H
  H270     1.0000 0.17959  0.49859  0.45170  Biso   1.000  H
  N40      1.0000 0.15581  0.51840  0.56189  Biso   1.000  N
  H271     1.0000 0.21870  0.55750  0.60489  Biso   1.000  H
  C390     1.0000 0.49218  0.78408  0.43310  Biso   1.000  C
  C391     1.0000 0.46450  0.82789  0.50959  Biso   1.000  C
  C392     1.0000 0.52880  0.74878  0.35491  Biso   1.000  C
  C393     1.0000 0.22079  0.43700  0.25489  Biso   1.000  C
  C394     1.0000 0.12691  0.52990  0.60870  Biso   1.000  C
  H272     1.0000 0.49771  0.80942  0.40181  Biso   1.000  H
  N41      1.0000 0.45391  0.83559  0.56652  Biso   1.000  N
  H273     1.0000 0.46799  0.85100  0.47628  Biso   1.000  H
  N42      1.0000 0.54299  0.78619  0.31818  Biso   1.000  N
  H274     1.0000 0.53332  0.72111  0.34170  Biso   1.000  H
  C395     1.0000 0.21801  0.38610  0.24419  Biso   1.000  C
  C396     1.0000 0.25890  0.47678  0.20582  Biso   1.000  C
  H275     1.0000 0.18619  0.43359  0.25108  Biso   1.000  H
  H276     1.0000 0.14852  0.54531  0.64798  Biso   1.000  H
  C397     1.0000 0.11629  0.57060  0.57679  Biso   1.000  C
  C398     1.0000 0.07781  0.48130  0.62812  Biso   1.000  C
  C399     1.0000 0.45429  0.88369  0.57679  Biso   1.000  C
  C400     1.0000 0.56301  0.78382  0.25489  Biso   1.000  C
  C401     1.0000 0.17667  0.34578  0.21349  Biso   1.000  C
  C402     1.0000 0.25799  0.37890  0.26092  Biso   1.000  C
  N43      1.0000 0.26371  0.52630  0.21922  Biso   1.000  N
  H277     1.0000 0.29321  0.47962  0.21132  Biso   1.000  H
  C403     1.0000 0.24098  0.46099  0.13680  Biso   1.000  C
  N44      1.0000 0.16439  0.61828  0.56652  Biso   1.000  N
  H278     1.0000 0.10012  0.55711  0.53379  Biso   1.000  H
  C404     1.0000 0.08149  0.58099  0.61472  Biso   1.000  C
  C405     1.0000 0.06490  0.47080  0.69040  Biso   1.000  C
  C406     1.0000 0.04690  0.44861  0.58228  Biso   1.000  C
  C407     1.0000 0.40300  0.87312  0.60870  Biso   1.000  C
  H279     1.0000 0.45699  0.89991  0.53379  Biso   1.000  H
  C408     1.0000 0.49951  0.91849  0.61472  Biso   1.000  C
  C409     1.0000 0.52318  0.78209  0.20582  Biso   1.000  C
  H280     1.0000 0.56640  0.75262  0.25108  Biso   1.000  H
  C410     1.0000 0.61391  0.83191  0.24419  Biso   1.000  C
  C411     1.0000 0.17588  0.29998  0.19960  Biso   1.000  C
  H281     1.0000 0.14820  0.34931  0.20158  Biso   1.000  H
  C412     1.0000 0.25849  0.33329  0.24622  Biso   1.000  C
  H282     1.0000 0.28649  0.40549  0.28299  Biso   1.000  H
  C413     1.0000 0.30740  0.56210  0.23889  Biso   1.000  C
  C414     1.0000 0.20460  0.47061  0.11019  Biso   1.000  C
  C415     1.0000 0.26372  0.44141  0.09742  Biso   1.000  C
  C416     1.0000 0.17209  0.63660  0.50959  Biso   1.000  C
  C417     1.0000 0.09302  0.60000  0.67589  Biso   1.000  C
  C418     1.0000 0.03729  0.57471  0.58228  Biso   1.000  C
  H283     1.0000 0.08651  0.49391  0.72260  Biso   1.000  H
  C419     1.0000 0.01991  0.42611  0.70871  Biso   1.000  C
  C420     1.0000 0.00160  0.40388  0.59771  Biso   1.000  C
  H284     1.0000 0.05630  0.45620  0.53832  Biso   1.000  H
  N45      1.0000 0.36260  0.84422  0.56189  Biso   1.000  N
  H285     1.0000 0.39681  0.85150  0.64798  Biso   1.000  H
  C421     1.0000 0.40352  0.92221  0.62812  Biso   1.000  C
  C422     1.0000 0.50700  0.90700  0.67589  Biso   1.000  C
  C423     1.0000 0.53740  0.96268  0.58228  Biso   1.000  C
  N46      1.0000 0.47369  0.73740  0.21922  Biso   1.000  N
  H286     1.0000 0.52041  0.81359  0.21132  Biso   1.000  H
  C424     1.0000 0.53899  0.77998  0.13680  Biso   1.000  C
  C425     1.0000 0.65421  0.83092  0.21349  Biso   1.000  C
  C426     1.0000 0.62111  0.87909  0.26092  Biso   1.000  C
  C427     1.0000 0.21689  0.29630  0.21488  Biso   1.000  C
  H287     1.0000 0.14691  0.27231  0.17970  Biso   1.000  H
  H288     1.0000 0.28650  0.32892  0.25769  Biso   1.000  H
  C428     1.0000 0.31981  0.61572  0.24940  Biso   1.000  C
  H289     1.0000 0.33340  0.55382  0.24718  Biso   1.000  H
  H290     1.0000 0.18872  0.48491  0.13588  Biso   1.000  H
  C429     1.0000 0.19109  0.45919  0.04459  Biso   1.000  C
  C430     1.0000 0.24918  0.42880  0.03422  Biso   1.000  C
  H291     1.0000 0.29019  0.43639  0.11429  Biso   1.000  H
  C431     1.0000 0.21600  0.68739  0.49412  Biso   1.000  C
  H292     1.0000 0.14902  0.61702  0.47628  Biso   1.000  H
  H293     1.0000 0.12390  0.60548  0.69522  Biso   1.000  H
  C432     1.0000 0.06050  0.61138  0.71059  Biso   1.000  C
  C433     1.0000 0.00601  0.58751  0.61602  Biso   1.000  C
  H294     1.0000 0.02968  0.56229  0.53928  Biso   1.000  H
  H295     1.0000 0.01030  0.41891  0.75272  Biso   1.000  H
  C434     1.0000 0.99172  0.39461  0.66302  Biso   1.000  C
  H296     1.0000 0.97900  0.38139  0.56570  Biso   1.000  H
  C435     1.0000 0.33410  0.79738  0.56821  Biso   1.000  C
  C436     1.0000 0.40591  0.93509  0.69040  Biso   1.000  C
  C437     1.0000 0.40170  0.95310  0.58228  Biso   1.000  C
  H297     1.0000 0.48160  0.87611  0.69522  Biso   1.000  H
  C438     1.0000 0.55090  0.93950  0.71059  Biso   1.000  C
  C439     1.0000 0.58150  0.99400  0.61602  Biso   1.000  C
  H298     1.0000 0.53262  0.97031  0.53928  Biso   1.000  H
  C440     1.0000 0.43790  0.74530  0.23889  Biso   1.000  C
  C441     1.0000 0.52940  0.73399  0.11019  Biso   1.000  C
  C442     1.0000 0.55859  0.82229  0.09742  Biso   1.000  C
  H299     1.0000 0.65072  0.79892  0.20158  Biso   1.000  H
  C443     1.0000 0.70001  0.87591  0.19960  Biso   1.000  C
  C444     1.0000 0.66670  0.92520  0.24622  Biso   1.000  C
  H300     1.0000 0.59452  0.88101  0.28299  Biso   1.000  H
  F39      1.0000 0.21840  0.25200  0.20192  Biso   1.000  F
  C445     1.0000 0.37059  0.65289  0.24882  Biso   1.000  C
  C446     1.0000 0.28230  0.62940  0.24882  Biso   1.000  C
  H301     1.0000 0.16610  0.46571  0.02569  Biso   1.000  H
  C447     1.0000 0.21340  0.43960  0.01032  Biso   1.000  C
  H302     1.0000 0.26349  0.41320  0.00819  Biso   1.000  H
  C448     1.0000 0.21590  0.70808  0.43310  Biso   1.000  C
  C449     1.0000 0.25560  0.71732  0.53581  Biso   1.000  C
  H303     1.0000 0.06808  0.62369  0.75369  Biso   1.000  H
  C450     1.0000 0.01678  0.60399  0.67970  Biso   1.000  C
  H304     1.0000 0.97669  0.58509  0.59549  Biso   1.000  H
  F40      1.0000 0.94700  0.35092  0.67700  Biso   1.000  F
  C451     1.0000 0.29379  0.76550  0.52299  Biso   1.000  C
  H305     1.0000 0.33880  0.78129  0.60489  Biso   1.000  H
  H306     1.0000 0.40740  0.91351  0.72260  Biso   1.000  H
  C452     1.0000 0.40620  0.98009  0.70871  Biso   1.000  C
  C453     1.0000 0.40232  0.99841  0.59771  Biso   1.000  C
  H307     1.0000 0.39990  0.94371  0.53832  Biso   1.000  H
  H308     1.0000 0.55561  0.93191  0.75369  Biso   1.000  H
  C454     1.0000 0.58719  0.98319  0.67970  Biso   1.000  C
  H309     1.0000 0.60841  0.02332  0.59549  Biso   1.000  H
  C455     1.0000 0.38431  0.70410  0.24940  Biso   1.000  C
  H310     1.0000 0.44619  0.77960  0.24718  Biso   1.000  H
  H311     1.0000 0.51510  0.70379  0.13588  Biso   1.000  H
  C456     1.0000 0.54080  0.73188  0.04459  Biso   1.000  C
  C457     1.0000 0.57122  0.82042  0.03422  Biso   1.000  C
  H312     1.0000 0.56358  0.85380  0.11429  Biso   1.000  H
  H313     1.0000 0.72770  0.87461  0.17970  Biso   1.000  H
  C458     1.0000 0.70370  0.92060  0.21488  Biso   1.000  C
  H314     1.0000 0.67111  0.95759  0.25769  Biso   1.000  H
  H315     1.0000 0.39640  0.64350  0.24781  Biso   1.000  H
  H316     1.0000 0.24710  0.60360  0.24781  Biso   1.000  H
  C459     1.0000 0.29590  0.68022  0.24940  Biso   1.000  C
  F41      1.0000 0.20200  0.42922  0.94592  Biso   1.000  F
  C460     1.0000 0.25400  0.75860  0.41979  Biso   1.000  C
  H317     1.0000 0.19061  0.68831  0.40181  Biso   1.000  H
  H318     1.0000 0.25620  0.70298  0.57640  Biso   1.000  H
  F42      1.0000 0.98352  0.61441  0.70910  Biso   1.000  F
  C461     1.0000 0.29281  0.78669  0.46269  Biso   1.000  C
  H319     1.0000 0.40859  0.98970  0.75272  Biso   1.000  H
  C462     1.0000 0.40293  0.00833  0.66302  Biso   1.000  C
  H320     1.0000 0.40240  0.02102  0.56570  Biso   1.000  H
  F43      1.0000 0.63091  0.01653  0.70910  Biso   1.000  F
  C463     1.0000 0.34710  0.71770  0.24882  Biso   1.000  C
  H321     1.0000 0.53432  0.70042  0.02569  Biso   1.000  H
  C464     1.0000 0.56040  0.77381  0.01032  Biso   1.000  C
  H322     1.0000 0.58680  0.85031  0.00819  Biso   1.000  H
  F44      1.0000 0.74800  0.96640  0.20192  Biso   1.000  F
  C465     1.0000 0.25469  0.69260  0.23889  Biso   1.000  C
  C466     1.0000 0.25118  0.77998  0.35491  Biso   1.000  C
  H323     1.0000 0.31900  0.82042  0.45170  Biso   1.000  H
  F45      1.0000 0.40390  0.05302  0.67700  Biso   1.000  F
  H324     1.0000 0.35649  0.75289  0.24781  Biso   1.000  H
  F46      1.0000 0.57082  0.77282  0.94592  Biso   1.000  F
  N47      1.0000 0.26260  0.73629  0.21922  Biso   1.000  N
  H325     1.0000 0.22042  0.66661  0.24718  Biso   1.000  H
  N48      1.0000 0.21380  0.75679  0.31818  Biso   1.000  N
  H326     1.0000 0.27892  0.81222  0.34170  Biso   1.000  H
  C467     1.0000 0.21789  0.74108  0.20582  Biso   1.000  C
  C468     1.0000 0.21621  0.77922  0.25489  Biso   1.000  C
  H327     1.0000 0.18642  0.70682  0.21132  Biso   1.000  H
  C469     1.0000 0.22002  0.75902  0.13680  Biso   1.000  C
  H328     1.0000 0.24741  0.81379  0.25108  Biso   1.000  H
  C470     1.0000 0.16809  0.78201  0.24419  Biso   1.000  C
  C471     1.0000 0.26599  0.79539  0.11019  Biso   1.000  C
  C472     1.0000 0.17769  0.73629  0.09742  Biso   1.000  C
  C473     1.0000 0.16908  0.82329  0.21349  Biso   1.000  C
  C474     1.0000 0.12090  0.74200  0.26092  Biso   1.000  C
  H329     1.0000 0.29618  0.81130  0.13588  Biso   1.000  H
  C475     1.0000 0.26811  0.80892  0.04459  Biso   1.000  C
  C476     1.0000 0.17961  0.75082  0.03422  Biso   1.000  C
  H330     1.0000 0.14619  0.70981  0.11429  Biso   1.000  H
  H331     1.0000 0.20110  0.85181  0.20158  Biso   1.000  H
  C477     1.0000 0.12411  0.82410  0.19960  Biso   1.000  C
  C478     1.0000 0.07481  0.74150  0.24622  Biso   1.000  C
  H332     1.0000 0.11899  0.71349  0.28299  Biso   1.000  H
  H333     1.0000 0.29959  0.83391  0.02569  Biso   1.000  H
  C479     1.0000 0.22622  0.78661  0.01032  Biso   1.000  C
  H334     1.0000 0.14971  0.73648  0.00819  Biso   1.000  H
  H335     1.0000 0.12541  0.85311  0.17970  Biso   1.000  H
  C480     1.0000 0.07941  0.78309  0.21488  Biso   1.000  C
  H336     1.0000 0.04238  0.71349  0.25769  Biso   1.000  H
  F47      1.0000 0.22720  0.79800  0.94592  Biso   1.000  F
  F48      1.0000 0.03359  0.78159  0.20192  Biso   1.000  F
  C481     1.0000 0.35011  0.27066  0.34638  Biso   1.000  C
  C482     1.0000 0.33935  0.25418  0.28266  Biso   1.000  C
  F49      1.0000 0.31684  0.28105  0.37578  Biso   1.000  F
  C483     1.0000 0.39384  0.27806  0.37728  Biso   1.000  C
  H337     1.0000 0.31003  0.25177  0.26217  Biso   1.000  H
  C484     1.0000 0.37062  0.24138  0.24896  Biso   1.000  C
  C485     1.0000 0.42635  0.26668  0.34257  Biso   1.000  C
  H338     1.0000 0.40142  0.29036  0.42037  Biso   1.000  H
  C486     1.0000 0.41482  0.24767  0.28136  Biso   1.000  C
  H339     1.0000 0.36302  0.22896  0.20597  Biso   1.000  H
  H340     1.0000 0.45724  0.27216  0.36185  Biso   1.000  H
  C487     1.0000 0.44963  0.23728  0.24347  Biso   1.000  C
  N49      1.0000 0.49773  0.28496  0.23315  Biso   1.000  N
  C488     1.0000 0.46024  0.19658  0.27538  Biso   1.000  C
  H341     1.0000 0.43344  0.22375  0.20047  Biso   1.000  H
  C489     1.0000 0.50543  0.30328  0.17627  Biso   1.000  C
  N50      1.0000 0.48915  0.18508  0.22857  Biso   1.000  N
  H342     1.0000 0.48185  0.21198  0.31466  Biso   1.000  H
  C490     1.0000 0.41115  0.14798  0.29476  Biso   1.000  C
  C491     1.0000 0.54934  0.35406  0.16075  Biso   1.000  C
  H343     1.0000 0.48234  0.28365  0.14297  Biso   1.000  H
  C492     1.0000 0.53593  0.20336  0.23489  Biso   1.000  C
  C493     1.0000 0.39823  0.13748  0.35708  Biso   1.000  C
  C494     1.0000 0.38021  0.11525  0.24896  Biso   1.000  C
  C495     1.0000 0.54923  0.37476  0.09978  Biso   1.000  C
  C496     1.0000 0.58892  0.38395  0.20245  Biso   1.000  C
  C497     1.0000 0.56784  0.19497  0.18968  Biso   1.000  C
  H344     1.0000 0.55204  0.22417  0.27157  Biso   1.000  H
  H345     1.0000 0.41983  0.16055  0.38928  Biso   1.000  H
  C498     1.0000 0.35323  0.09275  0.37535  Biso   1.000  C
  C499     1.0000 0.33493  0.07056  0.26439  Biso   1.000  C
  H346     1.0000 0.38964  0.12287  0.20496  Biso   1.000  H
  C500     1.0000 0.58734  0.42527  0.08647  Biso   1.000  C
  H347     1.0000 0.52395  0.35498  0.06845  Biso   1.000  H
  H348     1.0000 0.58954  0.36966  0.24308  Biso   1.000  H
  C501     1.0000 0.62713  0.43217  0.18968  Biso   1.000  C
  C502     1.0000 0.61603  0.20497  0.20245  Biso   1.000  C
  C503     1.0000 0.54662  0.17278  0.12937  Biso   1.000  C
  H349     1.0000 0.34364  0.08558  0.41936  Biso   1.000  H
  C504     1.0000 0.32505  0.06128  0.32965  Biso   1.000  C
  H350     1.0000 0.31233  0.04806  0.23238  Biso   1.000  H
  C505     1.0000 0.58452  0.44666  0.02155  Biso   1.000  C
  C506     1.0000 0.62614  0.45336  0.12937  Biso   1.000  C
  C507     1.0000 0.66744  0.46406  0.23489  Biso   1.000  C
  C508     1.0000 0.64593  0.19527  0.16075  Biso   1.000  C
  H351     1.0000 0.63035  0.21988  0.24308  Biso   1.000  H
  C509     1.0000 0.57473  0.16208  0.08647  Biso   1.000  C
  H352     1.0000 0.51293  0.16526  0.11838  Biso   1.000  H
  F50      1.0000 0.28032  0.01755  0.34368  Biso   1.000  F
  H353     1.0000 0.61223  0.47885  0.00839  Biso   1.000  H
  N51      1.0000 0.54714  0.42347  0.98486  Biso   1.000  N
  H354     1.0000 0.65232  0.48705  0.11838  Biso   1.000  H
  N52      1.0000 0.69591  0.51085  0.22857  Biso   1.000  N
  H355     1.0000 0.67213  0.44796  0.27157  Biso   1.000  H
  C510     1.0000 0.62524  0.17446  0.09978  Biso   1.000  C
  C511     1.0000 0.69674  0.20217  0.17627  Biso   1.000  C
  C512     1.0000 0.55333  0.13786  0.02155  Biso   1.000  C
  C513     1.0000 0.54953  0.44585  0.92158  Biso   1.000  C
  C514     1.0000 0.73632  0.53975  0.27538  Biso   1.000  C
  H356     1.0000 0.64503  0.16898  0.06845  Biso   1.000  H
  N53      1.0000 0.71501  0.21275  0.23315  Biso   1.000  N
  H357     1.0000 0.71634  0.19868  0.14297  Biso   1.000  H
  H358     1.0000 0.52115  0.13338  0.00839  Biso   1.000  H
  N54      1.0000 0.57654  0.12368  0.98486  Biso   1.000  N
  C515     1.0000 0.55123  0.40776  0.87246  Biso   1.000  C
  H359     1.0000 0.58074  0.48046  0.91777  Biso   1.000  H
  C516     1.0000 0.50141  0.44865  0.91087  Biso   1.000  C
  H360     1.0000 0.73014  0.51817  0.31466  Biso   1.000  H
  C517     1.0000 0.78763  0.55037  0.24347  Biso   1.000  C
  C518     1.0000 0.73684  0.58885  0.29476  Biso   1.000  C
  C519     1.0000 0.76275  0.21237  0.24347  Biso   1.000  C
  C520     1.0000 0.55413  0.10367  0.92158  Biso   1.000  C
  N55      1.0000 0.59593  0.40296  0.88586  Biso   1.000  N
  H361     1.0000 0.51974  0.37345  0.87795  Biso   1.000  H
  C521     1.0000 0.55334  0.42565  0.80348  Biso   1.000  C
  C522     1.0000 0.50242  0.48997  0.88017  Biso   1.000  C
  C523     1.0000 0.45424  0.40868  0.92755  Biso   1.000  C
  N56      1.0000 0.78725  0.50227  0.23315  Biso   1.000  N
  H362     1.0000 0.79033  0.56658  0.20047  Biso   1.000  H
  C524     1.0000 0.83285  0.58517  0.28136  Biso   1.000  C
  C525     1.0000 0.73925  0.60176  0.35708  Biso   1.000  C
  C526     1.0000 0.73504  0.61978  0.24896  Biso   1.000  C
  C527     1.0000 0.80343  0.26365  0.27538  Biso   1.000  C
  H363     1.0000 0.77624  0.20968  0.20047  Biso   1.000  H
  C528     1.0000 0.75234  0.16718  0.28136  Biso   1.000  C
  C529     1.0000 0.59224  0.14346  0.87246  Biso   1.000  C
  H364     1.0000 0.51953  0.10026  0.91777  Biso   1.000  H
  C530     1.0000 0.55135  0.05278  0.91087  Biso   1.000  C
  C531     1.0000 0.58803  0.35927  0.90557  Biso   1.000  C
  C532     1.0000 0.59933  0.46206  0.77687  Biso   1.000  C
  C533     1.0000 0.51103  0.40296  0.76405  Biso   1.000  C
  H365     1.0000 0.53443  0.51848  0.86826  Biso   1.000  H
  C534     1.0000 0.45745  0.49077  0.86629  Biso   1.000  C
  C535     1.0000 0.40815  0.40818  0.91285  Biso   1.000  C
  H366     1.0000 0.45233  0.38016  0.94968  Biso   1.000  H
  C536     1.0000 0.79783  0.49457  0.17627  Biso   1.000  C
  C537     1.0000 0.84034  0.57367  0.34257  Biso   1.000  C
  C538     1.0000 0.87074  0.62936  0.24896  Biso   1.000  C
  H367     1.0000 0.74072  0.58015  0.38928  Biso   1.000  H
  C539     1.0000 0.73954  0.64676  0.37535  Biso   1.000  C
  C540     1.0000 0.73565  0.66508  0.26439  Biso   1.000  C
  H368     1.0000 0.73322  0.61035  0.20496  Biso   1.000  H
  N57      1.0000 0.81495  0.30408  0.22857  Biso   1.000  N
  H369     1.0000 0.78804  0.26986  0.31466  Biso   1.000  H
  C541     1.0000 0.85203  0.26315  0.29476  Biso   1.000  C
  C542     1.0000 0.73335  0.15967  0.34257  Biso   1.000  C
  C543     1.0000 0.75864  0.12928  0.24896  Biso   1.000  C
  N58      1.0000 0.59705  0.19297  0.88586  Biso   1.000  N
  H370     1.0000 0.62653  0.14625  0.87795  Biso   1.000  H
  C544     1.0000 0.57432  0.12767  0.80348  Biso   1.000  C
  C545     1.0000 0.51001  0.01246  0.88017  Biso   1.000  C
  C546     1.0000 0.59133  0.04557  0.92755  Biso   1.000  C
  C547     1.0000 0.62922  0.34685  0.91608  Biso   1.000  C
  H371     1.0000 0.55374  0.33325  0.91386  Biso   1.000  H
  H372     1.0000 0.62952  0.47797  0.80256  Biso   1.000  H
  C548     1.0000 0.60143  0.47556  0.71127  Biso   1.000  C
  C549     1.0000 0.51293  0.41745  0.70086  Biso   1.000  C
  H373     1.0000 0.47953  0.37648  0.78097  Biso   1.000  H
  H374     1.0000 0.45874  0.51978  0.84638  Biso   1.000  H
  C550     1.0000 0.41275  0.44976  0.88157  Biso   1.000  C
  H375     1.0000 0.37572  0.38016  0.92437  Biso   1.000  H
  C551     1.0000 0.80474  0.45068  0.16075  Biso   1.000  C
  H376     1.0000 0.80132  0.51768  0.14297  Biso   1.000  H
  H377     1.0000 0.81494  0.54278  0.36185  Biso   1.000  H
  C552     1.0000 0.88424  0.60617  0.37728  Biso   1.000  C
  C553     1.0000 0.91484  0.66067  0.28266  Biso   1.000  C
  H378     1.0000 0.86594  0.63695  0.20597  Biso   1.000  H
  H379     1.0000 0.74192  0.65638  0.41936  Biso   1.000  H
  C554     1.0000 0.73625  0.67497  0.32965  Biso   1.000  C
  H380     1.0000 0.73572  0.68765  0.23238  Biso   1.000  H
  C555     1.0000 0.79662  0.33256  0.23489  Biso   1.000  C
  C556     1.0000 0.86253  0.26077  0.35708  Biso   1.000  C
  C557     1.0000 0.88473  0.26495  0.24896  Biso   1.000  C
  H381     1.0000 0.72783  0.18508  0.36185  Biso   1.000  H
  C558     1.0000 0.72193  0.11578  0.37728  Biso   1.000  C
  C559     1.0000 0.74585  0.08516  0.28266  Biso   1.000  C
  H382     1.0000 0.77103  0.13407  0.20597  Biso   1.000  H
  C560     1.0000 0.64074  0.22877  0.90557  Biso   1.000  C
  C561     1.0000 0.53794  0.13729  0.77687  Biso   1.000  C
  C562     1.0000 0.59706  0.10808  0.76405  Biso   1.000  C
  C563     1.0000 0.50922  0.96666  0.86629  Biso   1.000  C
  H383     1.0000 0.48154  0.01598  0.86826  Biso   1.000  H
  C564     1.0000 0.59182  0.99996  0.91285  Biso   1.000  C
  H384     1.0000 0.61983  0.07217  0.94968  Biso   1.000  H
  C565     1.0000 0.68044  0.38438  0.91545  Biso   1.000  C
  C566     1.0000 0.61564  0.29607  0.91545  Biso   1.000  C
  H385     1.0000 0.63293  0.50058  0.69237  Biso   1.000  H
  C567     1.0000 0.55954  0.45325  0.67695  Biso   1.000  C
  H386     1.0000 0.48304  0.40316  0.67488  Biso   1.000  H
  F51      1.0000 0.36692  0.44827  0.86855  Biso   1.000  F
  C568     1.0000 0.82552  0.45076  0.09978  Biso   1.000  C
  C569     1.0000 0.79501  0.41105  0.20245  Biso   1.000  C
  H387     1.0000 0.88894  0.59858  0.42037  Biso   1.000  H
  C570     1.0000 0.92052  0.64986  0.34638  Biso   1.000  C
  H388     1.0000 0.94173  0.68995  0.26217  Biso   1.000  H
  F52      1.0000 0.73722  0.71966  0.34368  Biso   1.000  F
  C571     1.0000 0.80503  0.37288  0.18968  Biso   1.000  C
  H389     1.0000 0.77583  0.32788  0.27157  Biso   1.000  H
  H390     1.0000 0.83944  0.25928  0.38928  Biso   1.000  H
  C572     1.0000 0.90722  0.26047  0.37535  Biso   1.000  C
  C573     1.0000 0.92945  0.26438  0.26439  Biso   1.000  C
  H391     1.0000 0.87714  0.26675  0.20496  Biso   1.000  H
  H392     1.0000 0.70964  0.11107  0.42037  Biso   1.000  H
  C574     1.0000 0.72932  0.07945  0.34638  Biso   1.000  C
  H393     1.0000 0.74823  0.05826  0.26217  Biso   1.000  H
  C575     1.0000 0.65312  0.28235  0.91608  Biso   1.000  C
  H394     1.0000 0.66672  0.22045  0.91386  Biso   1.000  H
  H395     1.0000 0.52205  0.15158  0.80256  Biso   1.000  H
  C576     1.0000 0.52443  0.12586  0.71127  Biso   1.000  C
  C577     1.0000 0.58252  0.09547  0.70086  Biso   1.000  C
  H396     1.0000 0.62352  0.10306  0.78097  Biso   1.000  H
  H397     1.0000 0.48023  0.93895  0.84638  Biso   1.000  H
  C578     1.0000 0.55021  0.96294  0.88157  Biso   1.000  C
  H398     1.0000 0.61982  0.99555  0.92437  Biso   1.000  H
  H399     1.0000 0.68983  0.41956  0.91449  Biso   1.000  H
  C579     1.0000 0.71765  0.37077  0.91608  Biso   1.000  C
  H400     1.0000 0.58044  0.27028  0.91449  Biso   1.000  H
  F53      1.0000 0.56053  0.46467  0.61255  Biso   1.000  F
  C580     1.0000 0.83794  0.41266  0.08647  Biso   1.000  C
  H401     1.0000 0.83103  0.47605  0.06845  Biso   1.000  H
  H402     1.0000 0.78015  0.41048  0.24308  Biso   1.000  H
  F54      1.0000 0.96423  0.68317  0.37578  Biso   1.000  F
  C581     1.0000 0.82724  0.37387  0.12937  Biso   1.000  C
  H403     1.0000 0.91444  0.25805  0.41936  Biso   1.000  H
  C582     1.0000 0.93874  0.26376  0.32965  Biso   1.000  C
  H404     1.0000 0.95193  0.26426  0.23238  Biso   1.000  H
  F55      1.0000 0.71892  0.03576  0.37578  Biso   1.000  F
  C583     1.0000 0.70393  0.31957  0.91545  Biso   1.000  C
  H405     1.0000 0.49944  0.13238  0.69237  Biso   1.000  H
  C584     1.0000 0.54673  0.10628  0.67695  Biso   1.000  C
  H406     1.0000 0.59683  0.07987  0.67488  Biso   1.000  H
  F56      1.0000 0.55172  0.91863  0.86855  Biso   1.000  F
  C585     1.0000 0.77124  0.41197  0.90557  Biso   1.000  C
  C586     1.0000 0.86214  0.41546  0.02155  Biso   1.000  C
  H407     1.0000 0.83474  0.34766  0.11838  Biso   1.000  H
  F57      1.0000 0.98242  0.26277  0.34368  Biso   1.000  F
  H408     1.0000 0.72974  0.31018  0.91449  Biso   1.000  H
  F58      1.0000 0.53531  0.09585  0.61255  Biso   1.000  F
  N59      1.0000 0.80702  0.40408  0.88586  Biso   1.000  N
  H409     1.0000 0.77953  0.44627  0.91386  Biso   1.000  H
  H410     1.0000 0.86664  0.38775  0.00839  Biso   1.000  H
  N60      1.0000 0.87633  0.45287  0.98486  Biso   1.000  N
  C587     1.0000 0.85652  0.44876  0.87246  Biso   1.000  C
  C588     1.0000 0.89633  0.45045  0.92158  Biso   1.000  C
  H411     1.0000 0.85375  0.48027  0.87795  Biso   1.000  H
  C589     1.0000 0.87233  0.44666  0.80348  Biso   1.000  C
  H412     1.0000 0.89972  0.41925  0.91777  Biso   1.000  H
  C590     1.0000 0.94723  0.49855  0.91087  Biso   1.000  C
  C591     1.0000 0.86274  0.40067  0.77687  Biso   1.000  C
  C592     1.0000 0.89192  0.48897  0.76405  Biso   1.000  C
  C593     1.0000 0.98753  0.49755  0.88017  Biso   1.000  C
  C594     1.0000 0.95444  0.54577  0.92755  Biso   1.000  C
  H413     1.0000 0.84844  0.37046  0.80256  Biso   1.000  H
  C595     1.0000 0.87413  0.39856  0.71127  Biso   1.000  C
  C596     1.0000 0.90454  0.48705  0.70086  Biso   1.000  C
  H414     1.0000 0.89692  0.52047  0.78097  Biso   1.000  H
  H415     1.0000 0.98404  0.46555  0.86826  Biso   1.000  H
  C597     1.0000 0.03332  0.54255  0.86629  Biso   1.000  C
  H416     1.0000 0.92785  0.54769  0.94968  Biso   1.000  H
  C598     1.0000 0.00003  0.59188  0.91285  Biso   1.000  C
  H417     1.0000 0.86764  0.36705  0.69237  Biso   1.000  H
  C599     1.0000 0.89372  0.44045  0.67695  Biso   1.000  C
  H418     1.0000 0.92012  0.51695  0.67488  Biso   1.000  H
  H419     1.0000 0.06104  0.54129  0.84638  Biso   1.000  H
  C600     1.0000 0.03703  0.58728  0.88157  Biso   1.000  C
  H420     1.0000 0.00444  0.62426  0.92437  Biso   1.000  H
  F59      1.0000 0.90414  0.43945  0.61255  Biso   1.000  F
  F60      1.0000 0.08134  0.63308  0.86855  Biso   1.000  F
  C601     1.0000 0.27067  0.35015  0.65362  Biso   1.000  C
  C602     1.0000 0.27808  0.39384  0.62272  Biso   1.000  C
  F61      1.0000 0.28107  0.31685  0.62422  Biso   1.000  F
  C603     1.0000 0.25418  0.33934  0.71734  Biso   1.000  C
  C604     1.0000 0.26668  0.42634  0.65743  Biso   1.000  C
  H421     1.0000 0.29037  0.40143  0.57963  Biso   1.000  H
  C605     1.0000 0.24137  0.37062  0.75104  Biso   1.000  C
  H422     1.0000 0.25177  0.31002  0.73783  Biso   1.000  H
  C606     1.0000 0.24768  0.41485  0.71864  Biso   1.000  C
  H423     1.0000 0.27217  0.45724  0.63815  Biso   1.000  H
  H424     1.0000 0.22898  0.36303  0.79403  Biso   1.000  H
  C607     1.0000 0.23727  0.44965  0.75653  Biso   1.000  C
  N61      1.0000 0.28499  0.49775  0.76685  Biso   1.000  N
  C608     1.0000 0.19656  0.46022  0.72462  Biso   1.000  C
  H425     1.0000 0.22375  0.43343  0.79953  Biso   1.000  H
  C609     1.0000 0.30328  0.50545  0.82373  Biso   1.000  C
  N62      1.0000 0.18505  0.48912  0.77143  Biso   1.000  N
  H426     1.0000 0.21198  0.48184  0.68534  Biso   1.000  H
  C610     1.0000 0.14798  0.41113  0.70524  Biso   1.000  C
  C611     1.0000 0.35406  0.54933  0.83925  Biso   1.000  C
  H427     1.0000 0.28365  0.48234  0.85703  Biso   1.000  H
  C612     1.0000 0.20337  0.53592  0.76511  Biso   1.000  C
  C613     1.0000 0.13749  0.39825  0.64292  Biso   1.000  C
  C614     1.0000 0.11527  0.38024  0.75104  Biso   1.000  C
  C615     1.0000 0.37475  0.54922  0.90022  Biso   1.000  C
  C616     1.0000 0.38395  0.58892  0.79755  Biso   1.000  C
  C617     1.0000 0.19497  0.56785  0.81032  Biso   1.000  C
  H428     1.0000 0.22416  0.55202  0.72843  Biso   1.000  H
  H429     1.0000 0.16056  0.41983  0.61072  Biso   1.000  H
  C618     1.0000 0.09277  0.35322  0.62465  Biso   1.000  C
  C619     1.0000 0.07058  0.33494  0.73561  Biso   1.000  C
  H430     1.0000 0.12285  0.38963  0.79504  Biso   1.000  H
  C620     1.0000 0.42526  0.58732  0.91353  Biso   1.000  C
  H431     1.0000 0.35496  0.52392  0.93155  Biso   1.000  H
  H432     1.0000 0.36968  0.58954  0.75692  Biso   1.000  H
  C621     1.0000 0.43216  0.62714  0.81032  Biso   1.000  C
  C622     1.0000 0.20495  0.61602  0.79755  Biso   1.000  C
  C623     1.0000 0.17279  0.54665  0.87063  Biso   1.000  C
  H433     1.0000 0.08555  0.34364  0.58064  Biso   1.000  H
  C624     1.0000 0.06129  0.32505  0.67035  Biso   1.000  C
  H434     1.0000 0.04806  0.31232  0.76762  Biso   1.000  H
  C625     1.0000 0.44667  0.58452  0.97845  Biso   1.000  C
  C626     1.0000 0.45337  0.62614  0.87063  Biso   1.000  C
  C627     1.0000 0.46405  0.66742  0.76511  Biso   1.000  C
  C628     1.0000 0.19527  0.64592  0.83925  Biso   1.000  C
  H435     1.0000 0.21987  0.63032  0.75692  Biso   1.000  H
  C629     1.0000 0.16207  0.57474  0.91353  Biso   1.000  C
  H436     1.0000 0.16525  0.51292  0.88162  Biso   1.000  H
  F62      1.0000 0.01755  0.28032  0.65632  Biso   1.000  F
  H437     1.0000 0.47888  0.61223  0.99161  Biso   1.000  H
  N63      1.0000 0.42347  0.54715  0.01514  Biso   1.000  N
  H438     1.0000 0.48707  0.65232  0.88162  Biso   1.000  H
  N64      1.0000 0.51087  0.69593  0.77143  Biso   1.000  N
  H439     1.0000 0.44796  0.67213  0.72843  Biso   1.000  H
  C630     1.0000 0.17447  0.62522  0.90022  Biso   1.000  C
  C631     1.0000 0.20216  0.69674  0.82373  Biso   1.000  C
  C632     1.0000 0.13785  0.55332  0.97845  Biso   1.000  C
  C633     1.0000 0.44587  0.54953  0.07842  Biso   1.000  C
  C634     1.0000 0.53977  0.73633  0.72462  Biso   1.000  C
  H440     1.0000 0.16897  0.64503  0.93155  Biso   1.000  H
  N65      1.0000 0.21276  0.71502  0.76685  Biso   1.000  N
  H441     1.0000 0.19867  0.71632  0.85703  Biso   1.000  H
  H442     1.0000 0.13337  0.52113  0.99161  Biso   1.000  H
  N66      1.0000 0.12367  0.57655  0.01514  Biso   1.000  N
  C635     1.0000 0.40776  0.55125  0.12754  Biso   1.000  C
  H443     1.0000 0.48045  0.58072  0.08223  Biso   1.000  H
  C636     1.0000 0.44867  0.50143  0.08913  Biso   1.000  C
  H444     1.0000 0.51817  0.73012  0.68534  Biso   1.000  H
  C637     1.0000 0.55039  0.78765  0.75653  Biso   1.000  C
  C638     1.0000 0.58887  0.73683  0.70524  Biso   1.000  C
  C639     1.0000 0.21236  0.76274  0.75653  Biso   1.000  C
  C640     1.0000 0.10367  0.55412  0.07842  Biso   1.000  C
  N67      1.0000 0.40295  0.59594  0.11414  Biso   1.000  N
  H445     1.0000 0.37349  0.51975  0.12205  Biso   1.000  H
  C641     1.0000 0.42566  0.55332  0.19652  Biso   1.000  C
  C642     1.0000 0.48996  0.50242  0.11983  Biso   1.000  C
  C643     1.0000 0.40868  0.45425  0.07245  Biso   1.000  C
  N68      1.0000 0.50225  0.78723  0.76685  Biso   1.000  N
  H446     1.0000 0.56657  0.79033  0.79953  Biso   1.000  H
  C644     1.0000 0.58516  0.83283  0.71864  Biso   1.000  C
  C645     1.0000 0.60176  0.73924  0.64292  Biso   1.000  C
  C646     1.0000 0.61977  0.73503  0.75104  Biso   1.000  C
  C647     1.0000 0.26367  0.80344  0.72462  Biso   1.000  C
  H447     1.0000 0.20967  0.77623  0.79953  Biso   1.000  H
  C648     1.0000 0.16717  0.75235  0.71864  Biso   1.000  C
  C649     1.0000 0.14346  0.59222  0.12754  Biso   1.000  C
  H448     1.0000 0.10027  0.51952  0.08223  Biso   1.000  H
  C650     1.0000 0.05275  0.55133  0.08913  Biso   1.000  C
  C651     1.0000 0.35928  0.58804  0.09443  Biso   1.000  C
  C652     1.0000 0.46208  0.59935  0.22313  Biso   1.000  C
  C653     1.0000 0.40296  0.51105  0.23595  Biso   1.000  C
  H449     1.0000 0.51847  0.53442  0.13174  Biso   1.000  H
  C654     1.0000 0.49076  0.45743  0.13371  Biso   1.000  C
  C655     1.0000 0.40817  0.40814  0.08715  Biso   1.000  C
  H450     1.0000 0.38017  0.45233  0.05032  Biso   1.000  H
  C656     1.0000 0.49458  0.79784  0.82373  Biso   1.000  C
  C657     1.0000 0.57369  0.84035  0.65743  Biso   1.000  C
  C658     1.0000 0.62938  0.87074  0.75104  Biso   1.000  C
  H451     1.0000 0.58017  0.74074  0.61072  Biso   1.000  H
  C659     1.0000 0.64676  0.73955  0.62465  Biso   1.000  C
  C660     1.0000 0.66508  0.73564  0.73561  Biso   1.000  C
  H452     1.0000 0.61037  0.73322  0.79504  Biso   1.000  H
  N69      1.0000 0.30408  0.81494  0.77143  Biso   1.000  N
  H453     1.0000 0.26988  0.78803  0.68534  Biso   1.000  H
  C661     1.0000 0.26318  0.85204  0.70524  Biso   1.000  C
  C662     1.0000 0.15969  0.73334  0.65743  Biso   1.000  C
  C663     1.0000 0.12925  0.75863  0.75104  Biso   1.000  C
  N70      1.0000 0.19298  0.59705  0.11414  Biso   1.000  N
  H454     1.0000 0.14627  0.62652  0.12205  Biso   1.000  H
  C664     1.0000 0.12768  0.57432  0.19652  Biso   1.000  C
  C665     1.0000 0.01246  0.51005  0.11983  Biso   1.000  C
  C666     1.0000 0.04557  0.59134  0.07245  Biso   1.000  C
  C667     1.0000 0.34688  0.62924  0.08392  Biso   1.000  C
  H455     1.0000 0.33326  0.55374  0.08614  Biso   1.000  H
  H456     1.0000 0.47798  0.62955  0.19744  Biso   1.000  H
  C668     1.0000 0.47556  0.60142  0.28873  Biso   1.000  C
  C669     1.0000 0.41747  0.51292  0.29914  Biso   1.000  C
  H457     1.0000 0.37645  0.47954  0.21903  Biso   1.000  H
  H458     1.0000 0.51976  0.45873  0.15362  Biso   1.000  H
  C670     1.0000 0.44976  0.41274  0.11843  Biso   1.000  C
  H459     1.0000 0.38017  0.37571  0.07563  Biso   1.000  H
  C671     1.0000 0.45066  0.80474  0.83925  Biso   1.000  C
  H460     1.0000 0.51767  0.80133  0.85703  Biso   1.000  H
  H461     1.0000 0.54276  0.81494  0.63815  Biso   1.000  H
  C672     1.0000 0.60615  0.88423  0.62272  Biso   1.000  C
  C673     1.0000 0.66067  0.91482  0.71734  Biso   1.000  C
  H462     1.0000 0.63697  0.86595  0.79403  Biso   1.000  H
  H463     1.0000 0.65638  0.74192  0.58064  Biso   1.000  H
  C674     1.0000 0.67498  0.73625  0.67035  Biso   1.000  C
  H464     1.0000 0.68766  0.73572  0.76762  Biso   1.000  H
  C675     1.0000 0.33256  0.79662  0.76511  Biso   1.000  C
  C676     1.0000 0.26076  0.86254  0.64292  Biso   1.000  C
  C677     1.0000 0.26495  0.88473  0.75104  Biso   1.000  C
  H465     1.0000 0.18507  0.72782  0.63815  Biso   1.000  H
  C678     1.0000 0.11577  0.72192  0.62272  Biso   1.000  C
  C679     1.0000 0.08518  0.74583  0.71734  Biso   1.000  C
  H466     1.0000 0.13407  0.77105  0.79403  Biso   1.000  H
  C680     1.0000 0.22876  0.64074  0.09443  Biso   1.000  C
  C681     1.0000 0.13727  0.53795  0.22313  Biso   1.000  C
  C682     1.0000 0.10807  0.59705  0.23595  Biso   1.000  C
  C683     1.0000 0.96668  0.50924  0.13371  Biso   1.000  C
  H467     1.0000 0.01596  0.48153  0.13174  Biso   1.000  H
  C684     1.0000 0.99998  0.59184  0.08715  Biso   1.000  C
  H468     1.0000 0.07216  0.61982  0.05032  Biso   1.000  H
  C685     1.0000 0.38437  0.68045  0.08455  Biso   1.000  C
  C686     1.0000 0.29607  0.61564  0.08455  Biso   1.000  C
  H469     1.0000 0.50058  0.63292  0.30763  Biso   1.000  H
  C687     1.0000 0.45326  0.55953  0.32305  Biso   1.000  C
  H470     1.0000 0.40316  0.48303  0.32512  Biso   1.000  H
  F63      1.0000 0.44827  0.36694  0.13145  Biso   1.000  F
  C688     1.0000 0.45076  0.82551  0.90022  Biso   1.000  C
  C689     1.0000 0.41106  0.79504  0.79755  Biso   1.000  C
  H471     1.0000 0.59858  0.88894  0.57963  Biso   1.000  H
  C690     1.0000 0.64985  0.92053  0.65362  Biso   1.000  C
  H472     1.0000 0.68996  0.94172  0.73783  Biso   1.000  H
  F64      1.0000 0.71966  0.73725  0.65632  Biso   1.000  F
  C691     1.0000 0.37288  0.80505  0.81032  Biso   1.000  C
  H473     1.0000 0.32788  0.77584  0.72843  Biso   1.000  H
  H474     1.0000 0.25926  0.83943  0.61072  Biso   1.000  H
  C692     1.0000 0.26047  0.90723  0.62465  Biso   1.000  C
  C693     1.0000 0.26436  0.92942  0.73561  Biso   1.000  C
  H475     1.0000 0.26677  0.87714  0.79504  Biso   1.000  H
  H476     1.0000 0.11105  0.70961  0.57963  Biso   1.000  H
  C694     1.0000 0.07944  0.72931  0.65362  Biso   1.000  C
  H477     1.0000 0.05827  0.74825  0.73783  Biso   1.000  H
  C695     1.0000 0.28235  0.65312  0.08392  Biso   1.000  C
  H478     1.0000 0.22048  0.66673  0.08614  Biso   1.000  H
  H479     1.0000 0.15156  0.52205  0.19744  Biso   1.000  H
  C696     1.0000 0.12586  0.52442  0.28873  Biso   1.000  C
  C697     1.0000 0.09546  0.58252  0.29914  Biso   1.000  C
  H480     1.0000 0.10306  0.62353  0.21903  Biso   1.000  H
  H481     1.0000 0.93897  0.48023  0.15362  Biso   1.000  H
  C698     1.0000 0.96297  0.55022  0.11843  Biso   1.000  C
  H482     1.0000 0.99555  0.61982  0.07563  Biso   1.000  H
  H483     1.0000 0.41957  0.68984  0.08551  Biso   1.000  H
  C699     1.0000 0.37076  0.71763  0.08392  Biso   1.000  C
  H484     1.0000 0.27026  0.58042  0.08551  Biso   1.000  H
  F65      1.0000 0.46468  0.56052  0.38745  Biso   1.000  F
  C700     1.0000 0.41266  0.83793  0.91353  Biso   1.000  C
  H485     1.0000 0.47606  0.83103  0.93155  Biso   1.000  H
  H486     1.0000 0.41048  0.78014  0.75692  Biso   1.000  H
  F66      1.0000 0.68315  0.96422  0.62422  Biso   1.000  F
  C701     1.0000 0.37386  0.82724  0.87063  Biso   1.000  C
  H487     1.0000 0.25807  0.91443  0.58064  Biso   1.000  H
  C702     1.0000 0.26378  0.93873  0.67035  Biso   1.000  C
  H488     1.0000 0.26426  0.95192  0.76762  Biso   1.000  H
  F67      1.0000 0.03578  0.71893  0.62422  Biso   1.000  F
  C703     1.0000 0.31958  0.70394  0.08455  Biso   1.000  C
  H489     1.0000 0.13235  0.49943  0.30763  Biso   1.000  H
  C704     1.0000 0.10628  0.54673  0.32305  Biso   1.000  C
  H490     1.0000 0.07988  0.59682  0.32512  Biso   1.000  H
  F68      1.0000 0.91866  0.55175  0.13145  Biso   1.000  F
  C705     1.0000 0.41198  0.77124  0.09443  Biso   1.000  C
  C706     1.0000 0.41546  0.86212  0.97845  Biso   1.000  C
  H491     1.0000 0.34767  0.83475  0.88162  Biso   1.000  H
  F69      1.0000 0.26275  0.98242  0.65632  Biso   1.000  F
  H492     1.0000 0.31017  0.72974  0.08551  Biso   1.000  H
  F70      1.0000 0.09587  0.53534  0.38745  Biso   1.000  F
  N71      1.0000 0.40408  0.80704  0.11414  Biso   1.000  N
  H493     1.0000 0.44625  0.77952  0.08614  Biso   1.000  H
  H494     1.0000 0.38778  0.86664  0.99161  Biso   1.000  H
  N72      1.0000 0.45287  0.87634  0.01514  Biso   1.000  N
  C707     1.0000 0.44877  0.85652  0.12754  Biso   1.000  C
  C708     1.0000 0.45046  0.89634  0.07842  Biso   1.000  C
  H495     1.0000 0.48027  0.85372  0.12205  Biso   1.000  H
  C709     1.0000 0.44666  0.87235  0.19652  Biso   1.000  C
  H496     1.0000 0.41925  0.89971  0.08223  Biso   1.000  H
  C710     1.0000 0.49858  0.94724  0.08913  Biso   1.000  C
  C711     1.0000 0.40066  0.86273  0.22313  Biso   1.000  C
  C712     1.0000 0.48898  0.89193  0.23595  Biso   1.000  C
  C713     1.0000 0.49754  0.98752  0.11983  Biso   1.000  C
  C714     1.0000 0.54576  0.95444  0.07245  Biso   1.000  C
  H497     1.0000 0.37048  0.84843  0.19744  Biso   1.000  H
  C715     1.0000 0.39857  0.87415  0.28873  Biso   1.000  C
  C716     1.0000 0.48706  0.90454  0.29914  Biso   1.000  C
  H498     1.0000 0.52045  0.89692  0.21903  Biso   1.000  H
  H499     1.0000 0.46556  0.98403  0.13174  Biso   1.000  H
  C717     1.0000 0.54257  0.03336  0.13371  Biso   1.000  C
  H500     1.0000 0.54767  0.92785  0.05032  Biso   1.000  H
  C718     1.0000 0.59187  0.00005  0.08715  Biso   1.000  C
  H501     1.0000 0.36707  0.86764  0.30763  Biso   1.000  H
  C719     1.0000 0.44046  0.89374  0.32305  Biso   1.000  C
  H502     1.0000 0.51696  0.92014  0.32512  Biso   1.000  H
  H503     1.0000 0.54127  0.06103  0.15362  Biso   1.000  H
  C720     1.0000 0.58726  0.03704  0.11843  Biso   1.000  C
  H504     1.0000 0.62428  0.00446  0.07563  Biso   1.000  H
  F71      1.0000 0.43945  0.90412  0.38745  Biso   1.000  F
  F72      1.0000 0.63308  0.08134  0.13145  Biso   1.000  F
