data_image0
_cell_length_a       29.494
_cell_length_b       29.494
_cell_length_c       11.036
_cell_angle_alpha    90
_cell_angle_beta     90
_cell_angle_gamma    120

_symmetry_space_group_name_H-M    "P 1"
_symmetry_int_tables_number       1

loop_
  _symmetry_equiv_pos_as_xyz
  'x, y, z'

loop_
  _atom_site_label
  _atom_site_occupancy
  _atom_site_fract_x
  _atom_site_fract_y
  _atom_site_fract_z
  _atom_site_thermal_displace_type
  _atom_site_B_iso_or_equiv
  _atom_site_type_symbol
  C1       1.0000 0.69456  0.23709  0.24583  Biso   1.000  C
  C2       1.0000 0.64452  0.20245  0.21203  Biso   1.000  C
  H1       1.0000 0.70094  0.25088  0.32394  Biso   1.000  H
  C3       1.0000 0.73652  0.25252  0.16646  Biso   1.000  C
  C4       1.0000 0.60173  0.18393  0.29947  Biso   1.000  C
  C5       1.0000 0.63545  0.18240  0.09333  Biso   1.000  C
  C6       1.0000 0.72639  0.23220  0.04938  Biso   1.000  C
  C7       1.0000 0.79122  0.28732  0.20234  Biso   1.000  C
  N1       1.0000 0.55624  0.14787  0.27827  Biso   1.000  N
  H2       1.0000 0.60875  0.19986  0.37514  Biso   1.000  H
  C8       1.0000 0.67616  0.19716  0.01278  Biso   1.000  C
  H3       1.0000 0.60142  0.15875  0.06896  Biso   1.000  H
  H4       1.0000 0.75393  0.24246  0.99511  Biso   1.000  H
  N2       1.0000 0.80579  0.29836  0.31189  Biso   1.000  N
  H5       1.0000 0.81643  0.30208  0.14190  Biso   1.000  H
  C9       1.0000 0.51752  0.13147  0.37695  Biso   1.000  C
  C10      1.0000 0.66566  0.17128  0.89389  Biso   1.000  C
  C11      1.0000 0.86163  0.33356  0.33246  Biso   1.000  C
  C12      1.0000 0.47194  0.13836  0.33246  Biso   1.000  C
  H6       1.0000 0.53383  0.15406  0.44754  Biso   1.000  H
  C13      1.0000 0.49963  0.07568  0.41084  Biso   1.000  C
  N3       1.0000 0.70182  0.17661  0.82349  Biso   1.000  N
  H7       1.0000 0.63103  0.15018  0.86961  Biso   1.000  H
  H8       1.0000 0.88053  0.33908  0.25607  Biso   1.000  H
  C14      1.0000 0.86852  0.38606  0.37695  Biso   1.000  C
  C15      1.0000 0.88204  0.30968  0.42543  Biso   1.000  C
  N4       1.0000 0.49256  0.19419  0.31189  Biso   1.000  N
  H9       1.0000 0.45852  0.11945  0.25607  Biso   1.000  H
  C16      1.0000 0.42763  0.11796  0.42543  Biso   1.000  C
  C17      1.0000 0.49583  0.06198  0.52954  Biso   1.000  C
  C18      1.0000 0.48526  0.03778  0.32403  Biso   1.000  C
  C19      1.0000 0.68600  0.14525  0.71095  Biso   1.000  C
  N5       1.0000 0.85213  0.40834  0.27827  Biso   1.000  N
  H10      1.0000 0.84594  0.37976  0.44754  Biso   1.000  H
  C20      1.0000 0.92433  0.42396  0.41084  Biso   1.000  C
  C21      1.0000 0.85815  0.29187  0.53208  Biso   1.000  C
  C22      1.0000 0.92672  0.30757  0.39996  Biso   1.000  C
  C23      1.0000 0.49608  0.20875  0.20234  Biso   1.000  C
  C24      1.0000 0.43373  0.14188  0.53208  Biso   1.000  C
  C25      1.0000 0.38083  0.07325  0.39996  Biso   1.000  C
  H11      1.0000 0.50385  0.08738  0.58844  Biso   1.000  H
  C26      1.0000 0.48023  0.01077  0.56597  Biso   1.000  C
  H12      1.0000 0.48644  0.04667  0.24284  Biso   1.000  H
  C27      1.0000 0.46881  0.98563  0.35565  Biso   1.000  C
  C28      1.0000 0.70463  0.18271  0.60167  Biso   1.000  C
  H13      1.0000 0.64782  0.12285  0.70868  Biso   1.000  H
  C29      1.0000 0.71179  0.11185  0.70696  Biso   1.000  C
  C30      1.0000 0.81606  0.41777  0.29947  Biso   1.000  C
  C31      1.0000 0.93803  0.43386  0.52954  Biso   1.000  C
  C32      1.0000 0.96221  0.44745  0.32403  Biso   1.000  C
  H14      1.0000 0.82835  0.29378  0.55011  Biso   1.000  H
  C33      1.0000 0.87721  0.27025  0.61734  Biso   1.000  C
  C34      1.0000 0.94545  0.28678  0.48795  Biso   1.000  C
  H15      1.0000 0.94402  0.31966  0.32639  Biso   1.000  H
  C35      1.0000 0.51599  0.26348  0.16646  Biso   1.000  C
  H16      1.0000 0.48563  0.18358  0.14190  Biso   1.000  H
  H17      1.0000 0.46544  0.17167  0.55011  Biso   1.000  H
  C36      1.0000 0.39305  0.12278  0.61734  Biso   1.000  C
  C37      1.0000 0.34135  0.05458  0.48795  Biso   1.000  C
  H18      1.0000 0.37566  0.05599  0.32639  Biso   1.000  H
  H19      1.0000 0.48003  0.00196  0.64688  Biso   1.000  H
  C38      1.0000 0.46503  0.97373  0.47254  Biso   1.000  C
  H20      1.0000 0.46084  0.96026  0.29657  Biso   1.000  H
  N6       1.0000 0.67761  0.21282  0.60285  Biso   1.000  N
  H21      1.0000 0.74234  0.20687  0.60919  Biso   1.000  H
  C39      1.0000 0.69433  0.15186  0.48596  Biso   1.000  C
  C40      1.0000 0.68344  0.06037  0.67298  Biso   1.000  C
  C41      1.0000 0.76364  0.13248  0.72988  Biso   1.000  C
  C42      1.0000 0.79757  0.44209  0.21203  Biso   1.000  C
  H22      1.0000 0.80014  0.40885  0.37514  Biso   1.000  H
  H23      1.0000 0.91266  0.41648  0.58844  Biso   1.000  H
  C43      1.0000 0.98922  0.46945  0.56597  Biso   1.000  C
  H24      1.0000 0.95333  0.43978  0.24284  Biso   1.000  H
  C44      1.0000 0.01431  0.48315  0.35565  Biso   1.000  C
  H25      1.0000 0.85973  0.25687  0.69011  Biso   1.000  H
  C45      1.0000 0.92141  0.26935  0.59270  Biso   1.000  C
  H26      1.0000 0.97564  0.28525  0.47209  Biso   1.000  H
  C46      1.0000 0.50584  0.27362  0.04938  Biso   1.000  C
  C47      1.0000 0.54253  0.30545  0.24583  Biso   1.000  C
  H27      1.0000 0.39715  0.14028  0.69011  Biso   1.000  H
  C48      1.0000 0.34793  0.07857  0.59270  Biso   1.000  C
  H28      1.0000 0.30963  0.02435  0.47209  Biso   1.000  H
  H29      1.0000 0.45153  0.93873  0.49384  Biso   1.000  H
  C49      1.0000 0.70541  0.26156  0.61218  Biso   1.000  C
  C50      1.0000 0.64374  0.11788  0.45234  Biso   1.000  C
  C51      1.0000 0.73514  0.15605  0.41600  Biso   1.000  C
  H30      1.0000 0.64774  0.04545  0.65893  Biso   1.000  H
  C52      1.0000 0.70632  0.03065  0.65903  Biso   1.000  C
  C53      1.0000 0.78743  0.10195  0.71421  Biso   1.000  C
  H31      1.0000 0.78343  0.16698  0.75607  Biso   1.000  H
  C54      1.0000 0.76291  0.45747  0.24583  Biso   1.000  C
  C55      1.0000 0.81759  0.45305  0.09333  Biso   1.000  C
  H32      1.0000 0.99803  0.47806  0.64688  Biso   1.000  H
  C56      1.0000 0.02623  0.49126  0.47254  Biso   1.000  C
  H33      1.0000 0.03974  0.50058  0.29657  Biso   1.000  H
  H34      1.0000 0.93515  0.25628  0.64987  Biso   1.000  H
  C57      1.0000 0.52102  0.32385  0.01278  Biso   1.000  C
  H35      1.0000 0.48853  0.24606  0.99511  Biso   1.000  H
  C58      1.0000 0.55792  0.35549  0.21203  Biso   1.000  C
  H36      1.0000 0.54992  0.29907  0.32394  Biso   1.000  H
  H37      1.0000 0.32114  0.06487  0.64987  Biso   1.000  H
  C59      1.0000 0.68557  0.29825  0.61327  Biso   1.000  C
  H38      1.0000 0.74144  0.27558  0.61888  Biso   1.000  H
  H39      1.0000 0.61613  0.11467  0.49946  Biso   1.000  H
  C60      1.0000 0.63354  0.08758  0.34587  Biso   1.000  C
  C61      1.0000 0.72572  0.12465  0.31533  Biso   1.000  C
  H40      1.0000 0.76944  0.18037  0.43684  Biso   1.000  H
  H41      1.0000 0.68601  0.99554  0.63746  Biso   1.000  H
  C62      1.0000 0.75843  0.05148  0.67624  Biso   1.000  C
  H42      1.0000 0.82291  0.11616  0.72952  Biso   1.000  H
  C63      1.0000 0.74750  0.48402  0.16646  Biso   1.000  C
  H43      1.0000 0.74914  0.45007  0.32394  Biso   1.000  H
  C64      1.0000 0.80284  0.47900  0.01278  Biso   1.000  C
  H44      1.0000 0.84123  0.44267  0.06896  Biso   1.000  H
  H45      1.0000 0.06122  0.51275  0.49384  Biso   1.000  H
  C65      1.0000 0.54691  0.36453  0.09333  Biso   1.000  C
  C66      1.0000 0.50565  0.33434  0.89389  Biso   1.000  C
  C67      1.0000 0.58223  0.39828  0.29947  Biso   1.000  C
  C68      1.0000 0.63213  0.28047  0.61308  Biso   1.000  C
  C69      1.0000 0.71953  0.35165  0.61308  Biso   1.000  C
  H46      1.0000 0.59931  0.06585  0.31923  Biso   1.000  H
  C70      1.0000 0.67442  0.09075  0.28371  Biso   1.000  C
  H47      1.0000 0.75323  0.12638  0.27039  Biso   1.000  H
  H48      1.0000 0.77423  0.03148  0.66238  Biso   1.000  H
  C71      1.0000 0.71266  0.50390  0.20234  Biso   1.000  C
  C72      1.0000 0.76778  0.49419  0.04938  Biso   1.000  C
  C73      1.0000 0.82868  0.49435  0.89389  Biso   1.000  C
  H49      1.0000 0.55731  0.39855  0.06896  Biso   1.000  H
  N7       1.0000 0.47478  0.29817  0.82349  Biso   1.000  N
  H50      1.0000 0.51912  0.36895  0.86961  Biso   1.000  H
  N8       1.0000 0.59165  0.44377  0.27827  Biso   1.000  N
  H51      1.0000 0.59114  0.39127  0.37514  Biso   1.000  H
  C74      1.0000 0.61266  0.31442  0.61327  Biso   1.000  C
  H52      1.0000 0.60872  0.24457  0.61290  Biso   1.000  H
  C75      1.0000 0.70178  0.38735  0.61327  Biso   1.000  C
  H53      1.0000 0.75543  0.36418  0.61290  Biso   1.000  H
  H54      1.0000 0.66763  0.06918  0.21656  Biso   1.000  H
  N9       1.0000 0.70164  0.50743  0.31189  Biso   1.000  N
  H55      1.0000 0.69791  0.51436  0.14190  Biso   1.000  H
  H56      1.0000 0.75753  0.51146  0.99511  Biso   1.000  H
  N10      1.0000 0.82336  0.52520  0.82349  Biso   1.000  N
  H57      1.0000 0.84985  0.48088  0.86961  Biso   1.000  H
  C76      1.0000 0.45922  0.31399  0.71095  Biso   1.000  C
  C77      1.0000 0.61391  0.48245  0.37695  Biso   1.000  C
  C78      1.0000 0.55617  0.29461  0.61218  Biso   1.000  C
  C79      1.0000 0.64833  0.36786  0.61308  Biso   1.000  C
  C80      1.0000 0.73844  0.44385  0.61218  Biso   1.000  C
  C81      1.0000 0.66642  0.52806  0.33246  Biso   1.000  C
  C82      1.0000 0.85478  0.54078  0.71095  Biso   1.000  C
  C83      1.0000 0.47808  0.29535  0.60167  Biso   1.000  C
  H58      1.0000 0.47502  0.35216  0.70868  Biso   1.000  H
  C84      1.0000 0.40004  0.28819  0.70696  Biso   1.000  C
  H59      1.0000 0.62025  0.46616  0.44754  Biso   1.000  H
  C85      1.0000 0.57605  0.50038  0.41084  Biso   1.000  C
  N11      1.0000 0.53521  0.32240  0.60285  Biso   1.000  N
  H60      1.0000 0.53414  0.25855  0.61888  Biso   1.000  H
  H61      1.0000 0.63583  0.39127  0.61290  Biso   1.000  H
  N12      1.0000 0.78719  0.46479  0.60285  Biso   1.000  N
  H62      1.0000 0.72441  0.46585  0.61888  Biso   1.000  H
  H63      1.0000 0.66094  0.54145  0.25607  Biso   1.000  H
  C86      1.0000 0.69034  0.57238  0.42543  Biso   1.000  C
  C87      1.0000 0.81727  0.52191  0.60167  Biso   1.000  C
  H64      1.0000 0.87712  0.52497  0.70868  Biso   1.000  H
  C88      1.0000 0.88812  0.59994  0.70696  Biso   1.000  C
  H65      1.0000 0.46452  0.25765  0.60919  Biso   1.000  H
  C89      1.0000 0.45755  0.30569  0.48596  Biso   1.000  C
  C90      1.0000 0.37694  0.31657  0.67298  Biso   1.000  C
  C91      1.0000 0.36884  0.23635  0.72988  Biso   1.000  C
  C92      1.0000 0.56615  0.50418  0.52954  Biso   1.000  C
  C93      1.0000 0.55252  0.51475  0.32403  Biso   1.000  C
  C94      1.0000 0.70814  0.56627  0.53208  Biso   1.000  C
  C95      1.0000 0.69244  0.61916  0.39996  Biso   1.000  C
  H66      1.0000 0.79312  0.53546  0.60919  Biso   1.000  H
  C96      1.0000 0.84813  0.54247  0.48596  Biso   1.000  C
  C97      1.0000 0.93963  0.62308  0.67298  Biso   1.000  C
  C98      1.0000 0.86753  0.63118  0.72988  Biso   1.000  C
  C99      1.0000 0.47413  0.35627  0.45234  Biso   1.000  C
  C100     1.0000 0.42093  0.26485  0.41600  Biso   1.000  C
  H67      1.0000 0.39774  0.35227  0.65893  Biso   1.000  H
  C101     1.0000 0.32433  0.29367  0.65903  Biso   1.000  C
  C102     1.0000 0.31452  0.21255  0.71421  Biso   1.000  C
  H68      1.0000 0.38353  0.21658  0.75607  Biso   1.000  H
  H69      1.0000 0.58353  0.49615  0.58844  Biso   1.000  H
  C103     1.0000 0.53055  0.51976  0.56597  Biso   1.000  C
  C104     1.0000 0.51681  0.53115  0.35565  Biso   1.000  C
  H70      1.0000 0.56024  0.51357  0.24284  Biso   1.000  H
  H71      1.0000 0.70622  0.53456  0.55011  Biso   1.000  H
  C105     1.0000 0.72973  0.60695  0.61734  Biso   1.000  C
  C106     1.0000 0.71324  0.65867  0.48795  Biso   1.000  C
  H72      1.0000 0.68033  0.62437  0.32639  Biso   1.000  H
  C107     1.0000 0.88214  0.52587  0.45234  Biso   1.000  C
  C108     1.0000 0.84392  0.57907  0.41600  Biso   1.000  C
  H73      1.0000 0.95451  0.60225  0.65893  Biso   1.000  H
  C109     1.0000 0.96931  0.67566  0.65903  Biso   1.000  C
  C110     1.0000 0.89804  0.68548  0.71421  Biso   1.000  C
  H74      1.0000 0.83302  0.61646  0.75607  Biso   1.000  H
  H75      1.0000 0.49854  0.38387  0.49946  Biso   1.000  H
  C111     1.0000 0.45402  0.36645  0.34587  Biso   1.000  C
  C112     1.0000 0.39894  0.27425  0.31533  Biso   1.000  C
  H76      1.0000 0.41093  0.23056  0.43684  Biso   1.000  H
  H77      1.0000 0.30953  0.31399  0.63746  Biso   1.000  H
  C113     1.0000 0.29302  0.24156  0.67624  Biso   1.000  C
  H78      1.0000 0.29322  0.17708  0.72952  Biso   1.000  H
  H79      1.0000 0.52193  0.51996  0.64688  Biso   1.000  H
  C114     1.0000 0.50871  0.53495  0.47254  Biso   1.000  C
  H80      1.0000 0.49943  0.53918  0.29657  Biso   1.000  H
  H81      1.0000 0.74312  0.60288  0.69011  Biso   1.000  H
  C115     1.0000 0.73062  0.65205  0.59270  Biso   1.000  C
  H82      1.0000 0.71476  0.69038  0.47209  Biso   1.000  H
  H83      1.0000 0.88534  0.50148  0.49946  Biso   1.000  H
  C116     1.0000 0.91243  0.54595  0.34587  Biso   1.000  C
  C117     1.0000 0.87533  0.60108  0.31533  Biso   1.000  C
  H84      1.0000 0.81962  0.58906  0.43684  Biso   1.000  H
  C118     1.0000 0.94852  0.70698  0.67624  Biso   1.000  C
  H85      1.0000 0.00441  0.69046  0.63746  Biso   1.000  H
  H86      1.0000 0.88384  0.70678  0.72952  Biso   1.000  H
  H87      1.0000 0.46652  0.40066  0.31923  Biso   1.000  H
  C119     1.0000 0.41633  0.32557  0.28371  Biso   1.000  C
  H88      1.0000 0.37313  0.24676  0.27039  Biso   1.000  H
  H89      1.0000 0.25722  0.22578  0.66238  Biso   1.000  H
  H90      1.0000 0.48722  0.54846  0.49384  Biso   1.000  H
  H91      1.0000 0.74372  0.67887  0.64987  Biso   1.000  H
  H92      1.0000 0.93412  0.53346  0.31923  Biso   1.000  H
  C120     1.0000 0.90924  0.58365  0.28371  Biso   1.000  C
  H93      1.0000 0.87365  0.62688  0.27039  Biso   1.000  H
  H94      1.0000 0.96852  0.74276  0.66238  Biso   1.000  H
  H95      1.0000 0.40151  0.33235  0.21656  Biso   1.000  H
  H96      1.0000 0.93081  0.59845  0.21656  Biso   1.000  H
  C121     1.0000 0.42510  0.38481  0.00960  Biso   1.000  C
  C122     1.0000 0.37298  0.36398  0.99239  Biso   1.000  C
  C123     1.0000 0.45411  0.43531  0.04748  Biso   1.000  C
  H97      1.0000 0.44089  0.36480  0.99574  Biso   1.000  H
  C124     1.0000 0.35010  0.39370  0.00634  Biso   1.000  C
  H98      1.0000 0.35269  0.32890  0.97082  Biso   1.000  H
  C125     1.0000 0.43030  0.46581  0.06316  Biso   1.000  C
  H99      1.0000 0.48958  0.44949  0.06289  Biso   1.000  H
  C126     1.0000 0.37847  0.44522  0.04032  Biso   1.000  C
  H100     1.0000 0.31442  0.37882  0.99230  Biso   1.000  H
  H101     1.0000 0.45009  0.50030  0.08943  Biso   1.000  H
  C127     1.0000 0.35267  0.47857  0.04431  Biso   1.000  C
  N13      1.0000 0.36848  0.50993  0.15676  Biso   1.000  N
  H102     1.0000 0.31450  0.45622  0.04204  Biso   1.000  H
  C128     1.0000 0.37130  0.51604  0.93503  Biso   1.000  C
  C129     1.0000 0.33234  0.50465  0.22717  Biso   1.000  C
  N14      1.0000 0.34427  0.54615  0.93621  Biso   1.000  N
  H103     1.0000 0.40901  0.54020  0.94246  Biso   1.000  H
  C130     1.0000 0.36099  0.48519  0.81932  Biso   1.000  C
  H104     1.0000 0.29770  0.48351  0.20288  Biso   1.000  H
  C131     1.0000 0.34282  0.53049  0.34614  Biso   1.000  C
  C132     1.0000 0.37207  0.59489  0.94554  Biso   1.000  C
  C133     1.0000 0.31040  0.45121  0.78570  Biso   1.000  C
  C134     1.0000 0.40183  0.48942  0.74928  Biso   1.000  C
  C135     1.0000 0.30211  0.51573  0.42669  Biso   1.000  C
  C136     1.0000 0.39308  0.56557  0.38266  Biso   1.000  C
  C137     1.0000 0.35223  0.63157  0.94663  Biso   1.000  C
  H105     1.0000 0.40810  0.60891  0.95216  Biso   1.000  H
  H106     1.0000 0.28279  0.44800  0.83282  Biso   1.000  H
  C138     1.0000 0.30020  0.42091  0.67923  Biso   1.000  C
  C139     1.0000 0.39238  0.45798  0.64870  Biso   1.000  C
  H107     1.0000 0.43610  0.51369  0.77021  Biso   1.000  H
  H108     1.0000 0.26808  0.49208  0.40232  Biso   1.000  H
  C140     1.0000 0.31118  0.53577  0.54540  Biso   1.000  C
  C141     1.0000 0.40318  0.58585  0.49982  Biso   1.000  C
  H109     1.0000 0.42060  0.57578  0.32838  Biso   1.000  H
  C142     1.0000 0.38621  0.68501  0.94636  Biso   1.000  C
  C143     1.0000 0.29880  0.61380  0.94636  Biso   1.000  C
  H110     1.0000 0.26599  0.39922  0.65259  Biso   1.000  H
  C144     1.0000 0.34110  0.42412  0.61698  Biso   1.000  C
  H111     1.0000 0.41989  0.45970  0.60366  Biso   1.000  H
  C145     1.0000 0.36123  0.57042  0.57920  Biso   1.000  C
  C146     1.0000 0.26841  0.51729  0.63284  Biso   1.000  C
  C147     1.0000 0.45788  0.62065  0.53570  Biso   1.000  C
  H112     1.0000 0.42209  0.69750  0.94618  Biso   1.000  H
  C148     1.0000 0.36844  0.72068  0.94663  Biso   1.000  C
  H113     1.0000 0.27539  0.57790  0.94618  Biso   1.000  H
  C149     1.0000 0.27932  0.64774  0.94663  Biso   1.000  C
  H114     1.0000 0.33430  0.40250  0.54993  Biso   1.000  H
  H115     1.0000 0.36761  0.58420  0.65730  Biso   1.000  H
  N15      1.0000 0.22290  0.48120  0.61163  Biso   1.000  N
  H116     1.0000 0.27541  0.53319  0.70850  Biso   1.000  H
  N16      1.0000 0.47245  0.63169  0.64516  Biso   1.000  N
  H117     1.0000 0.48309  0.63541  0.47517  Biso   1.000  H
  C150     1.0000 0.31499  0.70118  0.94636  Biso   1.000  C
  C151     1.0000 0.40510  0.77717  0.94554  Biso   1.000  C
  C152     1.0000 0.22283  0.62793  0.94554  Biso   1.000  C
  C153     1.0000 0.18418  0.46479  0.71031  Biso   1.000  C
  C154     1.0000 0.52830  0.66689  0.66582  Biso   1.000  C
  H118     1.0000 0.30249  0.72459  0.94618  Biso   1.000  H
  N17      1.0000 0.45385  0.79812  0.93621  Biso   1.000  N
  H119     1.0000 0.39110  0.79922  0.95216  Biso   1.000  H
  N18      1.0000 0.20187  0.65573  0.93621  Biso   1.000  N
  H120     1.0000 0.20082  0.59191  0.95216  Biso   1.000  H
  C155     1.0000 0.13860  0.47168  0.66582  Biso   1.000  C
  H121     1.0000 0.20050  0.48738  0.78090  Biso   1.000  H
  C156     1.0000 0.16629  0.40900  0.74420  Biso   1.000  C
  H122     1.0000 0.54720  0.67241  0.58943  Biso   1.000  H
  C157     1.0000 0.53519  0.71939  0.71031  Biso   1.000  C
  C158     1.0000 0.54870  0.64301  0.75879  Biso   1.000  C
  C159     1.0000 0.48396  0.85528  0.93503  Biso   1.000  C
  C160     1.0000 0.14474  0.62868  0.93503  Biso   1.000  C
  N19      1.0000 0.15923  0.52751  0.64516  Biso   1.000  N
  H123     1.0000 0.12520  0.45281  0.58943  Biso   1.000  H
  C161     1.0000 0.09429  0.45129  0.75879  Biso   1.000  C
  C162     1.0000 0.16249  0.39530  0.86290  Biso   1.000  C
  C163     1.0000 0.15192  0.37111  0.65739  Biso   1.000  C
  N20      1.0000 0.51881  0.74170  0.61163  Biso   1.000  N
  H124     1.0000 0.51261  0.71308  0.78090  Biso   1.000  H
  C164     1.0000 0.59099  0.75729  0.74420  Biso   1.000  C
  C165     1.0000 0.52481  0.62519  0.86544  Biso   1.000  C
  C166     1.0000 0.59338  0.64089  0.73333  Biso   1.000  C
  C167     1.0000 0.52145  0.87411  0.04431  Biso   1.000  C
  H125     1.0000 0.45979  0.86879  0.94246  Biso   1.000  H
  C168     1.0000 0.51479  0.87579  0.81932  Biso   1.000  C
  C169     1.0000 0.12589  0.64731  0.04431  Biso   1.000  C
  H126     1.0000 0.13120  0.59101  0.94246  Biso   1.000  H
  C170     1.0000 0.12421  0.63901  0.81932  Biso   1.000  C
  C171     1.0000 0.16276  0.54211  0.53570  Biso   1.000  C
  C172     1.0000 0.10039  0.47521  0.86544  Biso   1.000  C
  C173     1.0000 0.04751  0.40662  0.73333  Biso   1.000  C
  H127     1.0000 0.17052  0.42071  0.92180  Biso   1.000  H
  C174     1.0000 0.14689  0.34409  0.89933  Biso   1.000  C
  C175     1.0000 0.13549  0.31900  0.68902  Biso   1.000  C
  H128     1.0000 0.15311  0.37999  0.57621  Biso   1.000  H
  C176     1.0000 0.48274  0.75114  0.63284  Biso   1.000  C
  C177     1.0000 0.60469  0.76719  0.86290  Biso   1.000  C
  C178     1.0000 0.62890  0.78081  0.65739  Biso   1.000  C
  H129     1.0000 0.49502  0.62711  0.88338  Biso   1.000  H
  C179     1.0000 0.54387  0.60358  0.95071  Biso   1.000  C
  C180     1.0000 0.61211  0.62010  0.82131  Biso   1.000  C
  H130     1.0000 0.61069  0.65299  0.65966  Biso   1.000  H
  N21      1.0000 0.49004  0.85857  0.15676  Biso   1.000  N
  H131     1.0000 0.54378  0.85829  0.04204  Biso   1.000  H
  C181     1.0000 0.55479  0.93327  0.04032  Biso   1.000  C
  C182     1.0000 0.54881  0.85919  0.78570  Biso   1.000  C
  C183     1.0000 0.51058  0.91240  0.74928  Biso   1.000  C
  N22      1.0000 0.14144  0.63150  0.15676  Biso   1.000  N
  H132     1.0000 0.14168  0.68548  0.04204  Biso   1.000  H
  C184     1.0000 0.06671  0.62151  0.04032  Biso   1.000  C
  C185     1.0000 0.14079  0.68959  0.78570  Biso   1.000  C
  C186     1.0000 0.08761  0.59822  0.74928  Biso   1.000  C
  C187     1.0000 0.18265  0.59681  0.49982  Biso   1.000  C
  H133     1.0000 0.15229  0.51690  0.47517  Biso   1.000  H
  H134     1.0000 0.13210  0.50500  0.88338  Biso   1.000  H
  C188     1.0000 0.05971  0.45610  0.95071  Biso   1.000  C
  C189     1.0000 0.00801  0.38790  0.82131  Biso   1.000  C
  H135     1.0000 0.04232  0.38931  0.65966  Biso   1.000  H
  H136     1.0000 0.14669  0.33528  0.98016  Biso   1.000  H
  C190     1.0000 0.13171  0.30710  0.80591  Biso   1.000  C
  H137     1.0000 0.12750  0.29359  0.62994  Biso   1.000  H
  C191     1.0000 0.46423  0.77541  0.54540  Biso   1.000  C
  H138     1.0000 0.46682  0.74221  0.70850  Biso   1.000  H
  H139     1.0000 0.57932  0.74981  0.92180  Biso   1.000  H
  C192     1.0000 0.65590  0.80282  0.89933  Biso   1.000  C
  C193     1.0000 0.68097  0.81648  0.68902  Biso   1.000  C
  H140     1.0000 0.61999  0.77310  0.57621  Biso   1.000  H
  C194     1.0000 0.58808  0.60268  0.92597  Biso   1.000  C
  H141     1.0000 0.52640  0.59019  0.02338  Biso   1.000  H
  H142     1.0000 0.64232  0.61861  0.80536  Biso   1.000  H
  C195     1.0000 0.49537  0.82772  0.22717  Biso   1.000  C
  C196     1.0000 0.60630  0.95640  0.00634  Biso   1.000  C
  C197     1.0000 0.53420  0.96451  0.06316  Biso   1.000  C
  H143     1.0000 0.55201  0.83480  0.83282  Biso   1.000  H
  C198     1.0000 0.57911  0.87932  0.67923  Biso   1.000  C
  C199     1.0000 0.54200  0.93440  0.64870  Biso   1.000  C
  H144     1.0000 0.48628  0.92238  0.77021  Biso   1.000  H
  C200     1.0000 0.17231  0.66767  0.22717  Biso   1.000  C
  C201     1.0000 0.04360  0.64990  0.00634  Biso   1.000  C
  C202     1.0000 0.03552  0.56972  0.06316  Biso   1.000  C
  H145     1.0000 0.16520  0.71720  0.83282  Biso   1.000  H
  C203     1.0000 0.12071  0.69981  0.67923  Biso   1.000  C
  C204     1.0000 0.06562  0.60761  0.64870  Biso   1.000  C
  H146     1.0000 0.07759  0.56388  0.77021  Biso   1.000  H
  C205     1.0000 0.20920  0.63878  0.57920  Biso   1.000  C
  C206     1.0000 0.17250  0.60695  0.38266  Biso   1.000  C
  C207     1.0000 0.01459  0.41190  0.92597  Biso   1.000  C
  H147     1.0000 0.06382  0.47360  0.02338  Biso   1.000  H
  H148     1.0000 0.97631  0.35772  0.80536  Biso   1.000  H
  H149     1.0000 0.11821  0.27209  0.82720  Biso   1.000  H
  C208     1.0000 0.48428  0.78641  0.42669  Biso   1.000  C
  C209     1.0000 0.42958  0.79080  0.57920  Biso   1.000  C
  H150     1.0000 0.66470  0.81139  0.98016  Biso   1.000  H
  C210     1.0000 0.69289  0.82458  0.80591  Biso   1.000  C
  H151     1.0000 0.70640  0.83390  0.62994  Biso   1.000  H
  H152     1.0000 0.60181  0.58960  0.98324  Biso   1.000  H
  H153     1.0000 0.51652  0.81421  0.20288  Biso   1.000  H
  C211     1.0000 0.46950  0.81233  0.34614  Biso   1.000  C
  H154     1.0000 0.62119  0.93562  0.99230  Biso   1.000  H
  C212     1.0000 0.63600  0.00902  0.99239  Biso   1.000  C
  H155     1.0000 0.49968  0.94979  0.08943  Biso   1.000  H
  C213     1.0000 0.56470  0.01881  0.04748  Biso   1.000  C
  H156     1.0000 0.60078  0.86679  0.65259  Biso   1.000  H
  C214     1.0000 0.57592  0.91702  0.61698  Biso   1.000  C
  H157     1.0000 0.54032  0.96020  0.60366  Biso   1.000  H
  H158     1.0000 0.18580  0.70232  0.20288  Biso   1.000  H
  C215     1.0000 0.18768  0.65718  0.34614  Biso   1.000  C
  C216     1.0000 0.99099  0.62699  0.99239  Biso   1.000  C
  H159     1.0000 0.06440  0.68560  0.99230  Biso   1.000  H
  H160     1.0000 0.05020  0.54991  0.08943  Biso   1.000  H
  C217     1.0000 0.98120  0.54591  0.04748  Biso   1.000  C
  H161     1.0000 0.13319  0.73399  0.65259  Biso   1.000  H
  C218     1.0000 0.08299  0.65890  0.61698  Biso   1.000  C
  H162     1.0000 0.03979  0.58009  0.60366  Biso   1.000  H
  C219     1.0000 0.22458  0.68881  0.54540  Biso   1.000  C
  H163     1.0000 0.21658  0.63240  0.65730  Biso   1.000  H
  H164     1.0000 0.15519  0.57939  0.32838  Biso   1.000  H
  H165     1.0000 0.98780  0.39820  0.98324  Biso   1.000  H
  H166     1.0000 0.50789  0.77600  0.40232  Biso   1.000  H
  H167     1.0000 0.41581  0.78340  0.65730  Biso   1.000  H
  C220     1.0000 0.41416  0.81734  0.49982  Biso   1.000  C
  H168     1.0000 0.72790  0.84612  0.82720  Biso   1.000  H
  C221     1.0000 0.43444  0.82752  0.38266  Biso   1.000  C
  H169     1.0000 0.67110  0.02382  0.97082  Biso   1.000  H
  C222     1.0000 0.61519  0.04030  0.00960  Biso   1.000  C
  H170     1.0000 0.55050  0.04011  0.06289  Biso   1.000  H
  H171     1.0000 0.59749  0.93182  0.54993  Biso   1.000  H
  C223     1.0000 0.21360  0.69789  0.42669  Biso   1.000  C
  H172     1.0000 0.97620  0.64731  0.97082  Biso   1.000  H
  C224     1.0000 0.95968  0.57488  0.00960  Biso   1.000  C
  H173     1.0000 0.95989  0.51040  0.06289  Biso   1.000  H
  H174     1.0000 0.06819  0.66571  0.54993  Biso   1.000  H
  C225     1.0000 0.24890  0.73160  0.63284  Biso   1.000  C
  C226     1.0000 0.37932  0.83723  0.53570  Biso   1.000  C
  H175     1.0000 0.42419  0.84479  0.32838  Biso   1.000  H
  H176     1.0000 0.63520  0.07613  0.99574  Biso   1.000  H
  H177     1.0000 0.22400  0.73192  0.40232  Biso   1.000  H
  H178     1.0000 0.92389  0.55911  0.99574  Biso   1.000  H
  N23      1.0000 0.25832  0.77710  0.61163  Biso   1.000  N
  H179     1.0000 0.25780  0.72459  0.70850  Biso   1.000  H
  N24      1.0000 0.36830  0.84075  0.64516  Biso   1.000  N
  H180     1.0000 0.36458  0.84768  0.47517  Biso   1.000  H
  C227     1.0000 0.28059  0.81582  0.71031  Biso   1.000  C
  C228     1.0000 0.33308  0.86139  0.66582  Biso   1.000  C
  H181     1.0000 0.28691  0.79949  0.78090  Biso   1.000  H
  C229     1.0000 0.24272  0.83371  0.74420  Biso   1.000  C
  H182     1.0000 0.32762  0.87481  0.58943  Biso   1.000  H
  C230     1.0000 0.35700  0.90570  0.75879  Biso   1.000  C
  C231     1.0000 0.23282  0.83750  0.86290  Biso   1.000  C
  C232     1.0000 0.21920  0.84811  0.65739  Biso   1.000  C
  C233     1.0000 0.37480  0.89960  0.86544  Biso   1.000  C
  C234     1.0000 0.35910  0.95249  0.73333  Biso   1.000  C
  H183     1.0000 0.25022  0.82952  0.92180  Biso   1.000  H
  C235     1.0000 0.19721  0.85309  0.89933  Biso   1.000  C
  C236     1.0000 0.18350  0.86452  0.68902  Biso   1.000  C
  H184     1.0000 0.22690  0.84690  0.57621  Biso   1.000  H
  H185     1.0000 0.37288  0.86789  0.88338  Biso   1.000  H
  C237     1.0000 0.39641  0.94031  0.95071  Biso   1.000  C
  C238     1.0000 0.37990  0.99199  0.82131  Biso   1.000  C
  H186     1.0000 0.34699  0.95770  0.65966  Biso   1.000  H
  H187     1.0000 0.18859  0.85328  0.98016  Biso   1.000  H
  C239     1.0000 0.17539  0.86832  0.80591  Biso   1.000  C
  H188     1.0000 0.16610  0.87250  0.62994  Biso   1.000  H
  C240     1.0000 0.39730  0.98541  0.92597  Biso   1.000  C
  H189     1.0000 0.40978  0.93620  0.02338  Biso   1.000  H
  H190     1.0000 0.38142  0.02370  0.80536  Biso   1.000  H
  H191     1.0000 0.15388  0.88178  0.82720  Biso   1.000  H
  H192     1.0000 0.41040  0.01223  0.98324  Biso   1.000  H
  C241     1.0000 0.65764  0.96030  0.32575  Biso   1.000  C
  C242     1.0000 0.71026  0.98320  0.33962  Biso   1.000  C
  H193     1.0000 0.64285  0.98062  0.30410  Biso   1.000  H
  C243     1.0000 0.62635  0.90823  0.34297  Biso   1.000  C
  C244     1.0000 0.73338  0.95486  0.37360  Biso   1.000  C
  H194     1.0000 0.73108  0.01895  0.32566  Biso   1.000  H
  C245     1.0000 0.64786  0.87922  0.38084  Biso   1.000  C
  H195     1.0000 0.59054  0.89241  0.32901  Biso   1.000  H
  C246     1.0000 0.79256  0.98066  0.37767  Biso   1.000  C
  C247     1.0000 0.70217  0.90302  0.39652  Biso   1.000  C
  H196     1.0000 0.62654  0.84371  0.39625  Biso   1.000  H
  C248     1.0000 0.81142  0.96202  0.26830  Biso   1.000  C
  H197     1.0000 0.80836  0.01883  0.37532  Biso   1.000  H
  N25      1.0000 0.80810  0.96480  0.49012  Biso   1.000  N
  H198     1.0000 0.71685  0.88321  0.42271  Biso   1.000  H
  C249     1.0000 0.79087  0.97232  0.15259  Biso   1.000  C
  N26      1.0000 0.86853  0.98904  0.26957  Biso   1.000  N
  H199     1.0000 0.79786  0.92432  0.27582  Biso   1.000  H
  C250     1.0000 0.83898  0.00102  0.56053  Biso   1.000  C
  C251     1.0000 0.80746  0.02294  0.11906  Biso   1.000  C
  C252     1.0000 0.75426  0.93153  0.08264  Biso   1.000  C
  C253     1.0000 0.88948  0.96124  0.27881  Biso   1.000  C
  H200     1.0000 0.85246  0.03563  0.53625  Biso   1.000  H
  C254     1.0000 0.85433  0.99049  0.67941  Biso   1.000  C
  C255     1.0000 0.78736  0.03312  0.01250  Biso   1.000  C
  H201     1.0000 0.83188  0.05054  0.16609  Biso   1.000  H
  C256     1.0000 0.73228  0.94092  0.98206  Biso   1.000  C
  H202     1.0000 0.74427  0.89723  0.10357  Biso   1.000  H
  C257     1.0000 0.94599  0.98109  0.27990  Biso   1.000  C
  H203     1.0000 0.86747  0.92522  0.28552  Biso   1.000  H
  C258     1.0000 0.88025  0.03120  0.76006  Biso   1.000  C
  C259     1.0000 0.83915  0.94026  0.71602  Biso   1.000  C
  C260     1.0000 0.74965  0.99221  0.95034  Biso   1.000  C
  H204     1.0000 0.79986  0.06734  0.98596  Biso   1.000  H
  H205     1.0000 0.70645  0.91340  0.93702  Biso   1.000  H
  C261     1.0000 0.98166  0.03453  0.27972  Biso   1.000  C
  C262     1.0000 0.96545  0.94711  0.27972  Biso   1.000  C
  H206     1.0000 0.89065  0.06522  0.73559  Biso   1.000  H
  C263     1.0000 0.89126  0.02216  0.87876  Biso   1.000  C
  C264     1.0000 0.84931  0.93012  0.83309  Biso   1.000  C
  H207     1.0000 0.82186  0.91273  0.66174  Biso   1.000  H
  H208     1.0000 0.73485  0.99902  0.88320  Biso   1.000  H
  H209     1.0000 0.96916  0.05794  0.27954  Biso   1.000  H
  C265     1.0000 0.03510  0.05399  0.27990  Biso   1.000  C
  H210     1.0000 0.94204  0.91121  0.27954  Biso   1.000  H
  C266     1.0000 0.01889  0.96488  0.27990  Biso   1.000  C
  C267     1.0000 0.91557  0.06495  0.96611  Biso   1.000  C
  C268     1.0000 0.87585  0.97209  0.91256  Biso   1.000  C
  C269     1.0000 0.82942  0.87542  0.86906  Biso   1.000  C
  C270     1.0000 0.05286  0.01832  0.27972  Biso   1.000  C
  C271     1.0000 0.07177  0.11052  0.27881  Biso   1.000  C
  C272     1.0000 0.03872  0.92820  0.27881  Biso   1.000  C
  N27      1.0000 0.92499  0.11044  0.94491  Biso   1.000  N
  H211     1.0000 0.92448  0.05794  0.04186  Biso   1.000  H
  H212     1.0000 0.88324  0.96570  0.99067  Biso   1.000  H
  N28      1.0000 0.82590  0.86086  0.97852  Biso   1.000  N
  H213     1.0000 0.81895  0.85021  0.80854  Biso   1.000  H
  H214     1.0000 0.08876  0.03085  0.27954  Biso   1.000  H
  N29      1.0000 0.12052  0.13147  0.26957  Biso   1.000  N
  H215     1.0000 0.05775  0.13252  0.28552  Biso   1.000  H
  N30      1.0000 0.01095  0.87950  0.26957  Biso   1.000  N
  H216     1.0000 0.07476  0.94221  0.28552  Biso   1.000  H
  C273     1.0000 0.94725  0.14912  0.04368  Biso   1.000  C
  C274     1.0000 0.80528  0.80503  0.99909  Biso   1.000  C
  C275     1.0000 0.15061  0.18859  0.26830  Biso   1.000  C
  C276     1.0000 0.03795  0.84935  0.26830  Biso   1.000  C
  C277     1.0000 0.99975  0.19473  0.99909  Biso   1.000  C
  H217     1.0000 0.95358  0.13284  0.11426  Biso   1.000  H
  C278     1.0000 0.90937  0.16702  0.07756  Biso   1.000  C
  H218     1.0000 0.79185  0.78612  0.92271  Biso   1.000  H
  C279     1.0000 0.85084  0.79810  0.04368  Biso   1.000  C
  C280     1.0000 0.76097  0.78463  0.09215  Biso   1.000  C
  H219     1.0000 0.12646  0.20213  0.27582  Biso   1.000  H
  C281     1.0000 0.18810  0.20742  0.37767  Biso   1.000  C
  C282     1.0000 0.18147  0.20914  0.15259  Biso   1.000  C
  H220     1.0000 0.07566  0.87351  0.27582  Biso   1.000  H
  C283     1.0000 0.01932  0.81188  0.37767  Biso   1.000  C
  C284     1.0000 0.02765  0.81850  0.15259  Biso   1.000  C
  H221     1.0000 0.99428  0.20812  0.92271  Biso   1.000  H
  N31      1.0000 0.03497  0.17410  0.97852  Biso   1.000  N
  C285     1.0000 0.02368  0.23905  0.09215  Biso   1.000  C
  C286     1.0000 0.88586  0.18142  0.99076  Biso   1.000  C
  C287     1.0000 0.89949  0.17085  0.19627  Biso   1.000  C
  N32      1.0000 0.88955  0.81451  0.94491  Biso   1.000  N
  H222     1.0000 0.86717  0.82073  0.11426  Biso   1.000  H
  C288     1.0000 0.83295  0.74231  0.07756  Biso   1.000  C
  C289     1.0000 0.76704  0.80852  0.19871  Biso   1.000  C
  C290     1.0000 0.71417  0.73992  0.06660  Biso   1.000  C
  N33      1.0000 0.15670  0.19188  0.49012  Biso   1.000  N
  H223     1.0000 0.21045  0.19164  0.37532  Biso   1.000  H
  C291     1.0000 0.22146  0.26661  0.37360  Biso   1.000  C
  C292     1.0000 0.21548  0.19254  0.11906  Biso   1.000  C
  C293     1.0000 0.17726  0.24575  0.08264  Biso   1.000  C
  H224     1.0000 0.98115  0.78953  0.37532  Biso   1.000  H
  N34      1.0000 0.03516  0.84328  0.49012  Biso   1.000  N
  C294     1.0000 0.04513  0.77853  0.37360  Biso   1.000  C
  C295     1.0000 0.97706  0.78452  0.11906  Biso   1.000  C
  C296     1.0000 0.06848  0.82273  0.08264  Biso   1.000  C
  C297     1.0000 0.04599  0.17058  0.86906  Biso   1.000  C
  C298     1.0000 0.04147  0.23294  0.19871  Biso   1.000  C
  C299     1.0000 0.02578  0.28584  0.06660  Biso   1.000  C
  H225     1.0000 0.89358  0.18025  0.90957  Biso   1.000  H
  C300     1.0000 0.85015  0.19783  0.02229  Biso   1.000  C
  H226     1.0000 0.91687  0.16283  0.25516  Biso   1.000  H
  C301     1.0000 0.86388  0.18643  0.23260  Biso   1.000  C
  C302     1.0000 0.93507  0.85060  0.96611  Biso   1.000  C
  C303     1.0000 0.81857  0.70441  0.99076  Biso   1.000  C
  C304     1.0000 0.82915  0.72861  0.19627  Biso   1.000  C
  H227     1.0000 0.79876  0.83831  0.21675  Biso   1.000  H
  C305     1.0000 0.72637  0.78941  0.28407  Biso   1.000  C
  H228     1.0000 0.70897  0.72262  0.99302  Biso   1.000  H
  C306     1.0000 0.67467  0.72121  0.15468  Biso   1.000  C
  C307     1.0000 0.16202  0.16103  0.56053  Biso   1.000  C
  C308     1.0000 0.27297  0.28975  0.33962  Biso   1.000  C
  C309     1.0000 0.20085  0.29782  0.39652  Biso   1.000  C
  H229     1.0000 0.21868  0.16815  0.16609  Biso   1.000  H
  C310     1.0000 0.24576  0.21263  0.01250  Biso   1.000  C
  C311     1.0000 0.20867  0.26775  0.98206  Biso   1.000  C
  H230     1.0000 0.15295  0.25573  0.10357  Biso   1.000  H
  C312     1.0000 0.99899  0.83796  0.56053  Biso   1.000  C
  C313     1.0000 0.01675  0.72700  0.33962  Biso   1.000  C
  C314     1.0000 0.09696  0.79912  0.39652  Biso   1.000  C
  H231     1.0000 0.94944  0.78131  0.16609  Biso   1.000  H
  C315     1.0000 0.96685  0.75421  0.01250  Biso   1.000  C
  C316     1.0000 0.05905  0.79133  0.98206  Biso   1.000  C
  H232     1.0000 0.10276  0.84700  0.10357  Biso   1.000  H
  C317     1.0000 0.08084  0.15069  0.83309  Biso   1.000  C
  H233     1.0000 0.03125  0.18103  0.80854  Biso   1.000  H
  H234     1.0000 0.03955  0.20123  0.21675  Biso   1.000  H
  C318     1.0000 0.06307  0.27362  0.28407  Biso   1.000  C
  H235     1.0000 0.01366  0.29104  0.99302  Biso   1.000  H
  C319     1.0000 0.04658  0.32534  0.15468  Biso   1.000  C
  H236     1.0000 0.83277  0.20585  0.96321  Biso   1.000  H
  C320     1.0000 0.84205  0.20162  0.13927  Biso   1.000  C
  H237     1.0000 0.85527  0.18663  0.31352  Biso   1.000  H
  C321     1.0000 0.97784  0.86908  0.87876  Biso   1.000  C
  H238     1.0000 0.94206  0.86650  0.04186  Biso   1.000  H
  H239     1.0000 0.81976  0.71330  0.90957  Biso   1.000  H
  C322     1.0000 0.80215  0.65231  0.02229  Biso   1.000  C
  H240     1.0000 0.83717  0.75402  0.25516  Biso   1.000  H
  C323     1.0000 0.81354  0.67740  0.23260  Biso   1.000  C
  H241     1.0000 0.73047  0.80691  0.35674  Biso   1.000  H
  C324     1.0000 0.68124  0.74521  0.25933  Biso   1.000  C
  H242     1.0000 0.64296  0.69103  0.13873  Biso   1.000  H
  H243     1.0000 0.18317  0.14752  0.53625  Biso   1.000  H
  C325     1.0000 0.13615  0.14564  0.67941  Biso   1.000  C
  H244     1.0000 0.28785  0.26892  0.32566  Biso   1.000  H
  C326     1.0000 0.30265  0.34233  0.32575  Biso   1.000  C
  C327     1.0000 0.23136  0.35212  0.38084  Biso   1.000  C
  H245     1.0000 0.16635  0.28314  0.42271  Biso   1.000  H
  H246     1.0000 0.26746  0.20014  0.98596  Biso   1.000  H
  C328     1.0000 0.24258  0.25033  0.95034  Biso   1.000  C
  H247     1.0000 0.20699  0.29355  0.93702  Biso   1.000  H
  H248     1.0000 0.96435  0.81682  0.53625  Biso   1.000  H
  C329     1.0000 0.00947  0.86380  0.67941  Biso   1.000  C
  H249     1.0000 0.98107  0.71213  0.32566  Biso   1.000  H
  C330     1.0000 0.03965  0.69733  0.32575  Biso   1.000  C
  C331     1.0000 0.12077  0.76862  0.38084  Biso   1.000  C
  H250     1.0000 0.11674  0.83361  0.42271  Biso   1.000  H
  H251     1.0000 0.93265  0.73252  0.98596  Biso   1.000  H
  C332     1.0000 0.00776  0.75742  0.95034  Biso   1.000  C
  H252     1.0000 0.08654  0.79301  0.93702  Biso   1.000  H
  C333     1.0000 0.10110  0.16083  0.71602  Biso   1.000  C
  C334     1.0000 0.09625  0.12415  0.91256  Biso   1.000  C
  H253     1.0000 0.07646  0.26955  0.35674  Biso   1.000  H
  C335     1.0000 0.06395  0.31872  0.25933  Biso   1.000  C
  H254     1.0000 0.04809  0.35705  0.13873  Biso   1.000  H
  H255     1.0000 0.82056  0.21513  0.16057  Biso   1.000  H
  C336     1.0000 0.96876  0.84904  0.76006  Biso   1.000  C
  C337     1.0000 0.02788  0.90373  0.91256  Biso   1.000  C
  H256     1.0000 0.79416  0.62690  0.96321  Biso   1.000  H
  C338     1.0000 0.79837  0.64040  0.13927  Biso   1.000  C
  H257     1.0000 0.81336  0.66863  0.31352  Biso   1.000  H
  H258     1.0000 0.65446  0.73151  0.31651  Biso   1.000  H
  C339     1.0000 0.15093  0.11972  0.76006  Biso   1.000  C
  H259     1.0000 0.33775  0.35713  0.30410  Biso   1.000  H
  C340     1.0000 0.28186  0.37365  0.34297  Biso   1.000  C
  H260     1.0000 0.21715  0.37342  0.39625  Biso   1.000  H
  H261     1.0000 0.26415  0.26513  0.88320  Biso   1.000  H
  C341     1.0000 0.05973  0.89887  0.71602  Biso   1.000  C
  H262     1.0000 0.01935  0.66221  0.30410  Biso   1.000  H
  C342     1.0000 0.09175  0.71812  0.34297  Biso   1.000  C
  H263     1.0000 0.15625  0.78283  0.39625  Biso   1.000  H
  H264     1.0000 0.00095  0.73581  0.88320  Biso   1.000  H
  H265     1.0000 0.09086  0.17813  0.66174  Biso   1.000  H
  C343     1.0000 0.13088  0.10872  0.87876  Biso   1.000  C
  H266     1.0000 0.08248  0.11675  0.99067  Biso   1.000  H
  H267     1.0000 0.07706  0.34554  0.31651  Biso   1.000  H
  H268     1.0000 0.93475  0.82543  0.73559  Biso   1.000  H
  C344     1.0000 0.06984  0.91915  0.83309  Biso   1.000  C
  H269     1.0000 0.03426  0.91751  0.99067  Biso   1.000  H
  H270     1.0000 0.78487  0.60540  0.16057  Biso   1.000  H
  H271     1.0000 0.17456  0.10935  0.73559  Biso   1.000  H
  H272     1.0000 0.30186  0.40943  0.32901  Biso   1.000  H
  H273     1.0000 0.08727  0.90913  0.66174  Biso   1.000  H
  H274     1.0000 0.10755  0.69811  0.32901  Biso   1.000  H
  C345     1.0000 0.14940  0.08445  0.96611  Biso   1.000  C
  C346     1.0000 0.12455  0.95400  0.86906  Biso   1.000  C
  N35      1.0000 0.18547  0.07501  0.94491  Biso   1.000  N
  H275     1.0000 0.13347  0.07552  0.04186  Biso   1.000  H
  N36      1.0000 0.13913  0.96504  0.97852  Biso   1.000  N
  H276     1.0000 0.14975  0.96872  0.80854  Biso   1.000  H
  C347     1.0000 0.20186  0.05274  0.04368  Biso   1.000  C
  C348     1.0000 0.19497  0.00023  0.99909  Biso   1.000  C
  H277     1.0000 0.17928  0.04643  0.11426  Biso   1.000  H
  C349     1.0000 0.25766  0.09063  0.07756  Biso   1.000  C
  C350     1.0000 0.21536  0.97631  0.09215  Biso   1.000  C
  H278     1.0000 0.21385  0.00572  0.92271  Biso   1.000  H
  C351     1.0000 0.29555  0.11412  0.99076  Biso   1.000  C
  C352     1.0000 0.27136  0.10054  0.19627  Biso   1.000  C
  C353     1.0000 0.19146  0.95850  0.19871  Biso   1.000  C
  C354     1.0000 0.26004  0.97420  0.06660  Biso   1.000  C
  H279     1.0000 0.28666  0.10645  0.90957  Biso   1.000  H
  C355     1.0000 0.34765  0.14983  0.02229  Biso   1.000  C
  H280     1.0000 0.24597  0.08312  0.25516  Biso   1.000  H
  C356     1.0000 0.32256  0.13613  0.23260  Biso   1.000  C
  H281     1.0000 0.16167  0.96042  0.21675  Biso   1.000  H
  C357     1.0000 0.21055  0.93693  0.28407  Biso   1.000  C
  H282     1.0000 0.27734  0.98630  0.99302  Biso   1.000  H
  C358     1.0000 0.27877  0.95341  0.15468  Biso   1.000  C
  H283     1.0000 0.37307  0.16725  0.96321  Biso   1.000  H
  C359     1.0000 0.35957  0.15793  0.13927  Biso   1.000  C
  H284     1.0000 0.33137  0.14474  0.31352  Biso   1.000  H
  H285     1.0000 0.19305  0.92350  0.35674  Biso   1.000  H
  C360     1.0000 0.25475  0.93603  0.25933  Biso   1.000  C
  H286     1.0000 0.30898  0.95192  0.13873  Biso   1.000  H
  H287     1.0000 0.39455  0.17943  0.16057  Biso   1.000  H
  H288     1.0000 0.26847  0.92291  0.31651  Biso   1.000  H
  Ne1      1.0000 0.33333  0.66667  0.33846  Biso   1.000  Ne
  He1      1.0000 0.33333  0.66666  0.58920  Biso   1.000  He
  He2      1.0000 0.31810  0.75405  0.22791  Biso   1.000  He
  He3      1.0000 0.41951  0.67963  0.24127  Biso   1.000  He
  He4      1.0000 0.26469  0.58580  0.24557  Biso   1.000  He
  Ar1      1.0000 0.33334  0.66666  0.33846  Biso   1.000  Ar
  Ne2      1.0000 0.66666  0.33333  0.00512  Biso   1.000  Ne
  He5      1.0000 0.66667  0.33333  0.25584  Biso   1.000  He
  He6      1.0000 0.65144  0.42072  0.89463  Biso   1.000  He
  He7      1.0000 0.75282  0.34626  0.90798  Biso   1.000  He
  He8      1.0000 0.59802  0.25249  0.91228  Biso   1.000  He
  Ar2      1.0000 0.66667  0.33334  0.00512  Biso   1.000  Ar
  Ne3      1.0000 0.99999  0.99999  0.67179  Biso   1.000  Ne
  He9      1.0000 0.00000  1.00000  0.92256  Biso   1.000  He
  He10     1.0000 0.98475  0.08738  0.56127  Biso   1.000  He
  He11     1.0000 0.08616  0.01295  0.57464  Biso   1.000  He
  He12     1.0000 0.93134  0.91911  0.57894  Biso   1.000  He
  Ar3      1.0000 0.99999  0.99997  0.67179  Biso   1.000  Ar
