data_image0
_cell_length_a       29.494
_cell_length_b       29.494
_cell_length_c       11.036
_cell_angle_alpha    90
_cell_angle_beta     90
_cell_angle_gamma    120

_symmetry_space_group_name_H-M    "P 1"
_symmetry_int_tables_number       1

loop_
  _symmetry_equiv_pos_as_xyz
  'x, y, z'

loop_
  _atom_site_label
  _atom_site_occupancy
  _atom_site_fract_x
  _atom_site_fract_y
  _atom_site_fract_z
  _atom_site_thermal_displace_type
  _atom_site_B_iso_or_equiv
  _atom_site_type_symbol
  C1       1.0000 0.83916  0.94027  0.71602  Biso   1.000  C
  C2       1.0000 0.85436  0.99054  0.67941  Biso   1.000  C
  C3       1.0000 0.85434  0.99050  0.67941  Biso   1.000  C
  C4       1.0000 0.84933  0.93017  0.83309  Biso   1.000  C
  H1       1.0000 0.82187  0.91275  0.66174  Biso   1.000  H
  C5       1.0000 0.84931  0.93013  0.83309  Biso   1.000  C
  C6       1.0000 0.83899  0.00104  0.56053  Biso   1.000  C
  C7       1.0000 0.83897  0.00100  0.56053  Biso   1.000  C
  C8       1.0000 0.88026  0.03122  0.76006  Biso   1.000  C
  C9       1.0000 0.87586  0.97210  0.91256  Biso   1.000  C
  C10      1.0000 0.82943  0.87544  0.86906  Biso   1.000  C
  N1       1.0000 0.80812  0.96486  0.49012  Biso   1.000  N
  N2       1.0000 0.80810  0.96482  0.49012  Biso   1.000  N
  H2       1.0000 0.85247  0.03564  0.53625  Biso   1.000  H
  H3       1.0000 0.89066  0.06524  0.73559  Biso   1.000  H
  C11      1.0000 0.89127  0.02218  0.87876  Biso   1.000  C
  C12      1.0000 0.89125  0.02214  0.87876  Biso   1.000  C
  H4       1.0000 0.88327  0.96576  0.99067  Biso   1.000  H
  H5       1.0000 0.88325  0.96572  0.99067  Biso   1.000  H
  N3       1.0000 0.82591  0.86088  0.97852  Biso   1.000  N
  H6       1.0000 0.81898  0.85027  0.80854  Biso   1.000  H
  H7       1.0000 0.81896  0.85023  0.80854  Biso   1.000  H
  C13      1.0000 0.79257  0.98068  0.37767  Biso   1.000  C
  C14      1.0000 0.91558  0.06497  0.96611  Biso   1.000  C
  C15      1.0000 0.91556  0.06493  0.96611  Biso   1.000  C
  C16      1.0000 0.80528  0.80505  0.99909  Biso   1.000  C
  C17      1.0000 0.73339  0.95488  0.37360  Biso   1.000  C
  C18      1.0000 0.81143  0.96204  0.26830  Biso   1.000  C
  H8       1.0000 0.80837  0.01885  0.37532  Biso   1.000  H
  N4       1.0000 0.92500  0.11046  0.94491  Biso   1.000  N
  H9       1.0000 0.92448  0.05796  0.04186  Biso   1.000  H
  H10      1.0000 0.92446  0.05792  0.04186  Biso   1.000  H
  H11      1.0000 0.79186  0.78614  0.92271  Biso   1.000  H
  C19      1.0000 0.85087  0.79816  0.04368  Biso   1.000  C
  C20      1.0000 0.76098  0.78465  0.09215  Biso   1.000  C
  C21      1.0000 0.85085  0.79812  0.04368  Biso   1.000  C
  C22      1.0000 0.70218  0.90304  0.39652  Biso   1.000  C
  C23      1.0000 0.71029  0.98326  0.33962  Biso   1.000  C
  C24      1.0000 0.71027  0.98322  0.33962  Biso   1.000  C
  N5       1.0000 0.86854  0.98906  0.26957  Biso   1.000  N
  H12      1.0000 0.79787  0.92434  0.27582  Biso   1.000  H
  C25      1.0000 0.79088  0.97234  0.15259  Biso   1.000  C
  C26      1.0000 0.94726  0.14914  0.04368  Biso   1.000  C
  N6       1.0000 0.88958  0.81456  0.94491  Biso   1.000  N
  N7       1.0000 0.88956  0.81452  0.94491  Biso   1.000  N
  H13      1.0000 0.86718  0.82075  0.11426  Biso   1.000  H
  C27      1.0000 0.83297  0.74237  0.07756  Biso   1.000  C
  C28      1.0000 0.83295  0.74233  0.07756  Biso   1.000  C
  C29      1.0000 0.76705  0.80853  0.19871  Biso   1.000  C
  C30      1.0000 0.71418  0.73994  0.06660  Biso   1.000  C
  C31      1.0000 0.64787  0.87924  0.38084  Biso   1.000  C
  H14      1.0000 0.71686  0.88323  0.42271  Biso   1.000  H
  C32      1.0000 0.65767  0.96036  0.32575  Biso   1.000  C
  C33      1.0000 0.65765  0.96032  0.32575  Biso   1.000  C
  H15      1.0000 0.73109  0.01897  0.32566  Biso   1.000  H
  H16      1.0000 0.73107  0.01893  0.32566  Biso   1.000  H
  C34      1.0000 0.88951  0.96130  0.27881  Biso   1.000  C
  C35      1.0000 0.88949  0.96126  0.27881  Biso   1.000  C
  C36      1.0000 0.75427  0.93154  0.08264  Biso   1.000  C
  C37      1.0000 0.80747  0.02296  0.11906  Biso   1.000  C
  C38      1.0000 0.80745  0.02292  0.11906  Biso   1.000  C
  C39      1.0000 0.99976  0.19475  0.99909  Biso   1.000  C
  H17      1.0000 0.95359  0.13285  0.11426  Biso   1.000  H
  C40      1.0000 0.90938  0.16703  0.07756  Biso   1.000  C
  H18      1.0000 0.95357  0.13282  0.11426  Biso   1.000  H
  C41      1.0000 0.93507  0.85062  0.96611  Biso   1.000  C
  C42      1.0000 0.81858  0.70443  0.99076  Biso   1.000  C
  C43      1.0000 0.82917  0.72867  0.19627  Biso   1.000  C
  C44      1.0000 0.82915  0.72863  0.19627  Biso   1.000  C
  H19      1.0000 0.79879  0.83837  0.21675  Biso   1.000  H
  C45      1.0000 0.72639  0.78947  0.28407  Biso   1.000  C
  H20      1.0000 0.79877  0.83833  0.21675  Biso   1.000  H
  C46      1.0000 0.72637  0.78943  0.28407  Biso   1.000  C
  H21      1.0000 0.70898  0.72264  0.99302  Biso   1.000  H
  C47      1.0000 0.67470  0.72127  0.15468  Biso   1.000  C
  C48      1.0000 0.67468  0.72123  0.15468  Biso   1.000  C
  C49      1.0000 0.62636  0.90825  0.34297  Biso   1.000  C
  H22      1.0000 0.62657  0.84377  0.39625  Biso   1.000  H
  H23      1.0000 0.62655  0.84373  0.39625  Biso   1.000  H
  H24      1.0000 0.64286  0.98064  0.30410  Biso   1.000  H
  C50      1.0000 0.94600  0.98111  0.27990  Biso   1.000  C
  H25      1.0000 0.86748  0.92524  0.28552  Biso   1.000  H
  H26      1.0000 0.74428  0.89725  0.10357  Biso   1.000  H
  C51      1.0000 0.73229  0.94094  0.98206  Biso   1.000  C
  H27      1.0000 0.83189  0.05056  0.16609  Biso   1.000  H
  C52      1.0000 0.78737  0.03314  0.01250  Biso   1.000  C
  H28      1.0000 0.83187  0.05052  0.16609  Biso   1.000  H
  H29      1.0000 0.99429  0.20814  0.92271  Biso   1.000  H
  N8       1.0000 0.03498  0.17412  0.97852  Biso   1.000  N
  N9       1.0000 0.03496  0.17408  0.97852  Biso   1.000  N
  C53      1.0000 0.02368  0.23907  0.09215  Biso   1.000  C
  C54      1.0000 0.02367  0.23903  0.09215  Biso   1.000  C
  C55      1.0000 0.88586  0.18144  0.99076  Biso   1.000  C
  C56      1.0000 0.89950  0.17087  0.19627  Biso   1.000  C
  C57      1.0000 0.89948  0.17083  0.19627  Biso   1.000  C
  C58      1.0000 0.97787  0.86914  0.87876  Biso   1.000  C
  C59      1.0000 0.97785  0.86910  0.87876  Biso   1.000  C
  H30      1.0000 0.94209  0.86655  0.04186  Biso   1.000  H
  H31      1.0000 0.94207  0.86651  0.04186  Biso   1.000  H
  H32      1.0000 0.81979  0.71336  0.90957  Biso   1.000  H
  H33      1.0000 0.81977  0.71332  0.90957  Biso   1.000  H
  C60      1.0000 0.80218  0.65236  0.02229  Biso   1.000  C
  C61      1.0000 0.80216  0.65232  0.02229  Biso   1.000  C
  H34      1.0000 0.83718  0.75404  0.25516  Biso   1.000  H
  C62      1.0000 0.81357  0.67746  0.23260  Biso   1.000  C
  C63      1.0000 0.81355  0.67742  0.23260  Biso   1.000  C
  H35      1.0000 0.73050  0.80697  0.35674  Biso   1.000  H
  C64      1.0000 0.68127  0.74527  0.25933  Biso   1.000  C
  H36      1.0000 0.73048  0.80693  0.35674  Biso   1.000  H
  C65      1.0000 0.68125  0.74523  0.25933  Biso   1.000  C
  H37      1.0000 0.64297  0.69104  0.13873  Biso   1.000  H
  H38      1.0000 0.59055  0.89243  0.32901  Biso   1.000  H
  C66      1.0000 0.96548  0.94716  0.27972  Biso   1.000  C
  C67      1.0000 0.96546  0.94713  0.27972  Biso   1.000  C
  C68      1.0000 0.98167  0.03455  0.27972  Biso   1.000  C
  C69      1.0000 0.98165  0.03451  0.27972  Biso   1.000  C
  C70      1.0000 0.74968  0.99227  0.95034  Biso   1.000  C
  H39      1.0000 0.70647  0.91346  0.93702  Biso   1.000  H
  C71      1.0000 0.74966  0.99223  0.95034  Biso   1.000  C
  H40      1.0000 0.70645  0.91342  0.93702  Biso   1.000  H
  H41      1.0000 0.79987  0.06736  0.98596  Biso   1.000  H
  H42      1.0000 0.79985  0.06732  0.98596  Biso   1.000  H
  C72      1.0000 0.04600  0.17060  0.86906  Biso   1.000  C
  C73      1.0000 0.04598  0.17056  0.86906  Biso   1.000  C
  C74      1.0000 0.04148  0.23296  0.19871  Biso   1.000  C
  C75      1.0000 0.02578  0.28585  0.06660  Biso   1.000  C
  C76      1.0000 0.04146  0.23292  0.19871  Biso   1.000  C
  C77      1.0000 0.02577  0.28582  0.06660  Biso   1.000  C
  H43      1.0000 0.89358  0.18027  0.90957  Biso   1.000  H
  H44      1.0000 0.89356  0.18023  0.90957  Biso   1.000  H
  C78      1.0000 0.85016  0.19784  0.02229  Biso   1.000  C
  H45      1.0000 0.91688  0.16284  0.25516  Biso   1.000  H
  C79      1.0000 0.86389  0.18645  0.23260  Biso   1.000  C
  C80      1.0000 0.96877  0.84905  0.76006  Biso   1.000  C
  C81      1.0000 0.02791  0.90379  0.91256  Biso   1.000  C
  C82      1.0000 0.02789  0.90375  0.91256  Biso   1.000  C
  H46      1.0000 0.79418  0.62695  0.96321  Biso   1.000  H
  H47      1.0000 0.79417  0.62691  0.96321  Biso   1.000  H
  C83      1.0000 0.79840  0.64046  0.13927  Biso   1.000  C
  C84      1.0000 0.79838  0.64042  0.13927  Biso   1.000  C
  H48      1.0000 0.81337  0.66865  0.31352  Biso   1.000  H
  H49      1.0000 0.65448  0.73156  0.31651  Biso   1.000  H
  H50      1.0000 0.65446  0.73152  0.31651  Biso   1.000  H
  H51      1.0000 0.94207  0.91126  0.27954  Biso   1.000  H
  H52      1.0000 0.94205  0.91122  0.27954  Biso   1.000  H
  C85      1.0000 0.01892  0.96494  0.27990  Biso   1.000  C
  C86      1.0000 0.01890  0.96490  0.27990  Biso   1.000  C
  H53      1.0000 0.96917  0.05796  0.27954  Biso   1.000  H
  H54      1.0000 0.96915  0.05792  0.27954  Biso   1.000  H
  C87      1.0000 0.03511  0.05401  0.27990  Biso   1.000  C
  H55      1.0000 0.73486  0.99904  0.88320  Biso   1.000  H
  C88      1.0000 0.08085  0.15071  0.83309  Biso   1.000  C
  H56      1.0000 0.03126  0.18105  0.80854  Biso   1.000  H
  C89      1.0000 0.08083  0.15067  0.83309  Biso   1.000  C
  H57      1.0000 0.03956  0.20125  0.21675  Biso   1.000  H
  C90      1.0000 0.06308  0.27364  0.28407  Biso   1.000  C
  H58      1.0000 0.01367  0.29106  0.99302  Biso   1.000  H
  H59      1.0000 0.01365  0.29102  0.99302  Biso   1.000  H
  C91      1.0000 0.04659  0.32536  0.15468  Biso   1.000  C
  C92      1.0000 0.04657  0.32532  0.15468  Biso   1.000  C
  H60      1.0000 0.83278  0.20587  0.96321  Biso   1.000  H
  H61      1.0000 0.83276  0.20583  0.96321  Biso   1.000  H
  C93      1.0000 0.84206  0.20164  0.13927  Biso   1.000  C
  H62      1.0000 0.85528  0.18665  0.31352  Biso   1.000  H
  C94      1.0000 0.00950  0.86385  0.67941  Biso   1.000  C
  C95      1.0000 0.00948  0.86381  0.67941  Biso   1.000  C
  H63      1.0000 0.93476  0.82545  0.73559  Biso   1.000  H
  H64      1.0000 0.03429  0.91757  0.99067  Biso   1.000  H
  C96      1.0000 0.06985  0.91917  0.83309  Biso   1.000  C
  H65      1.0000 0.03427  0.91753  0.99067  Biso   1.000  H
  H66      1.0000 0.78490  0.60546  0.16057  Biso   1.000  H
  H67      1.0000 0.78488  0.60542  0.16057  Biso   1.000  H
  C97      1.0000 0.03875  0.92825  0.27881  Biso   1.000  C
  C98      1.0000 0.03873  0.92822  0.27881  Biso   1.000  C
  C99      1.0000 0.05287  0.01834  0.27972  Biso   1.000  C
  C100     1.0000 0.07178  0.11054  0.27881  Biso   1.000  C
  C101     1.0000 0.07176  0.11050  0.27881  Biso   1.000  C
  C102     1.0000 0.09626  0.12416  0.91256  Biso   1.000  C
  C103     1.0000 0.10111  0.16085  0.71602  Biso   1.000  C
  C104     1.0000 0.09624  0.12412  0.91256  Biso   1.000  C
  H68      1.0000 0.07647  0.26957  0.35674  Biso   1.000  H
  C105     1.0000 0.06396  0.31874  0.25933  Biso   1.000  C
  H69      1.0000 0.07645  0.26953  0.35674  Biso   1.000  H
  H70      1.0000 0.04810  0.35707  0.13873  Biso   1.000  H
  H71      1.0000 0.04808  0.35703  0.13873  Biso   1.000  H
  H72      1.0000 0.82057  0.21515  0.16057  Biso   1.000  H
  C106     1.0000 0.99900  0.83797  0.56053  Biso   1.000  C
  C107     1.0000 0.05974  0.89889  0.71602  Biso   1.000  C
  C108     1.0000 0.12456  0.95402  0.86906  Biso   1.000  C
  N10      1.0000 0.01096  0.87951  0.26957  Biso   1.000  N
  H73      1.0000 0.07476  0.94223  0.28552  Biso   1.000  H
  H74      1.0000 0.08877  0.03087  0.27954  Biso   1.000  H
  H75      1.0000 0.08875  0.03083  0.27954  Biso   1.000  H
  N11      1.0000 0.12053  0.13148  0.26957  Biso   1.000  N
  H76      1.0000 0.05776  0.13254  0.28552  Biso   1.000  H
  N12      1.0000 0.12051  0.13145  0.26957  Biso   1.000  N
  C109     1.0000 0.13089  0.10874  0.87876  Biso   1.000  C
  H77      1.0000 0.08249  0.11676  0.99067  Biso   1.000  H
  H78      1.0000 0.08247  0.11672  0.99067  Biso   1.000  H
  C110     1.0000 0.13616  0.14566  0.67941  Biso   1.000  C
  H79      1.0000 0.09087  0.17815  0.66174  Biso   1.000  H
  H80      1.0000 0.07706  0.34556  0.31651  Biso   1.000  H
  H81      1.0000 0.07705  0.34552  0.31651  Biso   1.000  H
  N13      1.0000 0.03516  0.84330  0.49012  Biso   1.000  N
  H82      1.0000 0.96436  0.81683  0.53625  Biso   1.000  H
  H83      1.0000 0.08728  0.90915  0.66174  Biso   1.000  H
  N14      1.0000 0.13914  0.96506  0.97852  Biso   1.000  N
  H84      1.0000 0.14976  0.96874  0.80854  Biso   1.000  H
  C111     1.0000 0.03798  0.84941  0.26830  Biso   1.000  C
  C112     1.0000 0.03796  0.84937  0.26830  Biso   1.000  C
  C113     1.0000 0.15062  0.18860  0.26830  Biso   1.000  C
  C114     1.0000 0.15094  0.11974  0.76006  Biso   1.000  C
  C115     1.0000 0.14941  0.08446  0.96611  Biso   1.000  C
  C116     1.0000 0.16203  0.16104  0.56053  Biso   1.000  C
  C117     1.0000 0.01935  0.81194  0.37767  Biso   1.000  C
  C118     1.0000 0.01933  0.81190  0.37767  Biso   1.000  C
  C119     1.0000 0.19498  0.00025  0.99909  Biso   1.000  C
  H85      1.0000 0.07569  0.87356  0.27582  Biso   1.000  H
  C120     1.0000 0.02767  0.81856  0.15259  Biso   1.000  C
  H86      1.0000 0.07567  0.87352  0.27582  Biso   1.000  H
  C121     1.0000 0.02766  0.81852  0.15259  Biso   1.000  C
  H87      1.0000 0.12647  0.20215  0.27582  Biso   1.000  H
  C122     1.0000 0.18811  0.20744  0.37767  Biso   1.000  C
  C123     1.0000 0.18148  0.20916  0.15259  Biso   1.000  C
  C124     1.0000 0.18146  0.20912  0.15259  Biso   1.000  C
  H88      1.0000 0.17457  0.10936  0.73559  Biso   1.000  H
  H89      1.0000 0.17455  0.10933  0.73559  Biso   1.000  H
  N15      1.0000 0.18548  0.07503  0.94491  Biso   1.000  N
  H90      1.0000 0.13348  0.07554  0.04186  Biso   1.000  H
  N16      1.0000 0.15670  0.19189  0.49012  Biso   1.000  N
  H91      1.0000 0.18318  0.14754  0.53625  Biso   1.000  H
  H92      1.0000 0.98116  0.78955  0.37532  Biso   1.000  H
  C125     1.0000 0.04513  0.77854  0.37360  Biso   1.000  C
  C126     1.0000 0.20187  0.05275  0.04368  Biso   1.000  C
  C127     1.0000 0.20185  0.05271  0.04368  Biso   1.000  C
  C128     1.0000 0.21536  0.97633  0.09215  Biso   1.000  C
  H93      1.0000 0.21386  0.00573  0.92271  Biso   1.000  H
  C129     1.0000 0.97706  0.78453  0.11906  Biso   1.000  C
  C130     1.0000 0.06849  0.82274  0.08264  Biso   1.000  C
  H94      1.0000 0.21046  0.19166  0.37532  Biso   1.000  H
  C131     1.0000 0.22147  0.26663  0.37360  Biso   1.000  C
  H95      1.0000 0.21044  0.19162  0.37532  Biso   1.000  H
  C132     1.0000 0.22145  0.26659  0.37360  Biso   1.000  C
  C133     1.0000 0.21549  0.19256  0.11906  Biso   1.000  C
  C134     1.0000 0.17727  0.24576  0.08264  Biso   1.000  C
  C135     1.0000 0.21547  0.19252  0.11906  Biso   1.000  C
  C136     1.0000 0.17725  0.24573  0.08264  Biso   1.000  C
  C137     1.0000 0.01678  0.72706  0.33962  Biso   1.000  C
  C138     1.0000 0.09696  0.79914  0.39652  Biso   1.000  C
  C139     1.0000 0.01676  0.72702  0.33962  Biso   1.000  C
  H96      1.0000 0.17929  0.04645  0.11426  Biso   1.000  H
  C140     1.0000 0.25767  0.09065  0.07756  Biso   1.000  C
  C141     1.0000 0.19149  0.95856  0.19871  Biso   1.000  C
  C142     1.0000 0.26007  0.97426  0.06660  Biso   1.000  C
  C143     1.0000 0.19147  0.95852  0.19871  Biso   1.000  C
  C144     1.0000 0.26005  0.97422  0.06660  Biso   1.000  C
  H97      1.0000 0.94947  0.78136  0.16609  Biso   1.000  H
  C145     1.0000 0.96686  0.75423  0.01250  Biso   1.000  C
  H98      1.0000 0.94945  0.78132  0.16609  Biso   1.000  H
  C146     1.0000 0.05906  0.79135  0.98206  Biso   1.000  C
  H99      1.0000 0.10279  0.84706  0.10357  Biso   1.000  H
  H100     1.0000 0.10277  0.84702  0.10357  Biso   1.000  H
  C147     1.0000 0.27298  0.28977  0.33962  Biso   1.000  C
  C148     1.0000 0.20086  0.29783  0.39652  Biso   1.000  C
  C149     1.0000 0.27296  0.28973  0.33962  Biso   1.000  C
  H101     1.0000 0.21869  0.16817  0.16609  Biso   1.000  H
  C150     1.0000 0.24577  0.21264  0.01250  Biso   1.000  C
  H102     1.0000 0.21867  0.16813  0.16609  Biso   1.000  H
  C151     1.0000 0.20868  0.26777  0.98206  Biso   1.000  C
  C152     1.0000 0.20866  0.26773  0.98206  Biso   1.000  C
  H103     1.0000 0.15296  0.25575  0.10357  Biso   1.000  H
  H104     1.0000 0.98108  0.71214  0.32566  Biso   1.000  H
  C153     1.0000 0.03966  0.69735  0.32575  Biso   1.000  C
  C154     1.0000 0.12077  0.76864  0.38084  Biso   1.000  C
  H105     1.0000 0.11677  0.83367  0.42271  Biso   1.000  H
  H106     1.0000 0.11675  0.83363  0.42271  Biso   1.000  H
  C155     1.0000 0.29556  0.11414  0.99076  Biso   1.000  C
  C156     1.0000 0.27137  0.10056  0.19627  Biso   1.000  C
  C157     1.0000 0.27135  0.10052  0.19627  Biso   1.000  C
  H107     1.0000 0.16168  0.96044  0.21675  Biso   1.000  H
  C158     1.0000 0.21056  0.93695  0.28407  Biso   1.000  C
  H108     1.0000 0.27737  0.98635  0.99302  Biso   1.000  H
  H109     1.0000 0.27735  0.98631  0.99302  Biso   1.000  H
  C159     1.0000 0.27880  0.95347  0.15468  Biso   1.000  C
  C160     1.0000 0.27878  0.95343  0.15468  Biso   1.000  C
  H110     1.0000 0.93266  0.73254  0.98596  Biso   1.000  H
  C161     1.0000 0.00776  0.75744  0.95034  Biso   1.000  C
  H111     1.0000 0.08657  0.79307  0.93702  Biso   1.000  H
  H112     1.0000 0.08655  0.79303  0.93702  Biso   1.000  H
  H113     1.0000 0.28786  0.26894  0.32566  Biso   1.000  H
  C162     1.0000 0.30266  0.34235  0.32575  Biso   1.000  C
  C163     1.0000 0.23137  0.35214  0.38084  Biso   1.000  C
  H114     1.0000 0.16636  0.28315  0.42271  Biso   1.000  H
  H115     1.0000 0.26747  0.20015  0.98596  Biso   1.000  H
  C164     1.0000 0.24259  0.25034  0.95034  Biso   1.000  C
  H116     1.0000 0.26745  0.20011  0.98596  Biso   1.000  H
  H117     1.0000 0.20700  0.29357  0.93702  Biso   1.000  H
  H118     1.0000 0.20698  0.29353  0.93702  Biso   1.000  H
  H119     1.0000 0.01938  0.66227  0.30410  Biso   1.000  H
  C165     1.0000 0.09176  0.71813  0.34297  Biso   1.000  C
  H120     1.0000 0.01936  0.66223  0.30410  Biso   1.000  H
  H121     1.0000 0.15626  0.78285  0.39625  Biso   1.000  H
  H122     1.0000 0.28667  0.10647  0.90957  Biso   1.000  H
  H123     1.0000 0.28665  0.10643  0.90957  Biso   1.000  H
  C166     1.0000 0.34766  0.14985  0.02229  Biso   1.000  C
  H124     1.0000 0.24598  0.08313  0.25516  Biso   1.000  H
  C167     1.0000 0.32256  0.13614  0.23260  Biso   1.000  C
  H125     1.0000 0.19308  0.92356  0.35674  Biso   1.000  H
  C168     1.0000 0.25476  0.93605  0.25933  Biso   1.000  C
  H126     1.0000 0.19306  0.92352  0.35674  Biso   1.000  H
  H127     1.0000 0.30899  0.95194  0.13873  Biso   1.000  H
  H128     1.0000 0.00098  0.73587  0.88320  Biso   1.000  H
  H129     1.0000 0.00096  0.73583  0.88320  Biso   1.000  H
  H130     1.0000 0.33776  0.35715  0.30410  Biso   1.000  H
  C169     1.0000 0.28187  0.37367  0.34297  Biso   1.000  C
  C170     1.0000 0.28185  0.37363  0.34297  Biso   1.000  C
  H131     1.0000 0.21716  0.37343  0.39625  Biso   1.000  H
  H132     1.0000 0.26416  0.26514  0.88320  Biso   1.000  H
  H133     1.0000 0.10758  0.69817  0.32901  Biso   1.000  H
  H134     1.0000 0.10756  0.69813  0.32901  Biso   1.000  H
  H135     1.0000 0.37308  0.16727  0.96321  Biso   1.000  H
  H136     1.0000 0.37306  0.16723  0.96321  Biso   1.000  H
  C171     1.0000 0.35957  0.15795  0.13927  Biso   1.000  C
  H137     1.0000 0.33138  0.14476  0.31352  Biso   1.000  H
  H138     1.0000 0.33136  0.14472  0.31352  Biso   1.000  H
  H139     1.0000 0.26850  0.92297  0.31651  Biso   1.000  H
  H140     1.0000 0.26848  0.92293  0.31651  Biso   1.000  H
  H141     1.0000 0.30186  0.40945  0.32901  Biso   1.000  H
  H142     1.0000 0.39456  0.17944  0.16057  Biso   1.000  H
  C172     1.0000 0.83916  0.94027  0.71602  Biso   1.000  C
  C173     1.0000 0.85436  0.99054  0.67941  Biso   1.000  C
  C174     1.0000 0.85434  0.99050  0.67941  Biso   1.000  C
  H143     1.0000 0.82187  0.91275  0.66174  Biso   1.000  H
  C175     1.0000 0.84933  0.93017  0.83309  Biso   1.000  C
  C176     1.0000 0.84931  0.93013  0.83309  Biso   1.000  C
  C177     1.0000 0.83899  0.00104  0.56053  Biso   1.000  C
  C178     1.0000 0.83897  0.00100  0.56053  Biso   1.000  C
  C179     1.0000 0.88026  0.03122  0.76006  Biso   1.000  C
  C180     1.0000 0.87586  0.97210  0.91256  Biso   1.000  C
  C181     1.0000 0.82943  0.87544  0.86906  Biso   1.000  C
  N17      1.0000 0.80812  0.96486  0.49012  Biso   1.000  N
  N18      1.0000 0.80810  0.96482  0.49012  Biso   1.000  N
  H144     1.0000 0.85247  0.03564  0.53625  Biso   1.000  H
  H145     1.0000 0.89066  0.06524  0.73559  Biso   1.000  H
  C182     1.0000 0.89127  0.02218  0.87876  Biso   1.000  C
  C183     1.0000 0.89125  0.02214  0.87876  Biso   1.000  C
  H146     1.0000 0.88327  0.96576  0.99067  Biso   1.000  H
  H147     1.0000 0.88325  0.96572  0.99067  Biso   1.000  H
  N19      1.0000 0.82591  0.86088  0.97852  Biso   1.000  N
  H148     1.0000 0.81898  0.85027  0.80854  Biso   1.000  H
  H149     1.0000 0.81896  0.85023  0.80854  Biso   1.000  H
  C184     1.0000 0.79257  0.98068  0.37767  Biso   1.000  C
  C185     1.0000 0.91558  0.06497  0.96611  Biso   1.000  C
  C186     1.0000 0.91556  0.06493  0.96611  Biso   1.000  C
  C187     1.0000 0.80528  0.80505  0.99909  Biso   1.000  C
  C188     1.0000 0.73339  0.95488  0.37360  Biso   1.000  C
  C189     1.0000 0.81143  0.96204  0.26830  Biso   1.000  C
  H150     1.0000 0.80837  0.01885  0.37532  Biso   1.000  H
  N20      1.0000 0.92500  0.11046  0.94491  Biso   1.000  N
  H151     1.0000 0.92448  0.05796  0.04186  Biso   1.000  H
  H152     1.0000 0.92446  0.05792  0.04186  Biso   1.000  H
  H153     1.0000 0.79186  0.78614  0.92271  Biso   1.000  H
  C190     1.0000 0.85087  0.79816  0.04368  Biso   1.000  C
  C191     1.0000 0.76098  0.78465  0.09215  Biso   1.000  C
  C192     1.0000 0.85085  0.79812  0.04368  Biso   1.000  C
  C193     1.0000 0.70218  0.90304  0.39652  Biso   1.000  C
  C194     1.0000 0.71029  0.98326  0.33962  Biso   1.000  C
  C195     1.0000 0.71027  0.98322  0.33962  Biso   1.000  C
  N21      1.0000 0.86854  0.98906  0.26957  Biso   1.000  N
  H154     1.0000 0.79787  0.92434  0.27582  Biso   1.000  H
  C196     1.0000 0.79088  0.97234  0.15259  Biso   1.000  C
  C197     1.0000 0.94726  0.14914  0.04368  Biso   1.000  C
  N22      1.0000 0.88958  0.81456  0.94491  Biso   1.000  N
  N23      1.0000 0.88956  0.81452  0.94491  Biso   1.000  N
  H155     1.0000 0.86718  0.82075  0.11426  Biso   1.000  H
  C198     1.0000 0.83297  0.74237  0.07756  Biso   1.000  C
  C199     1.0000 0.83295  0.74233  0.07756  Biso   1.000  C
  C200     1.0000 0.76705  0.80853  0.19871  Biso   1.000  C
  C201     1.0000 0.71418  0.73994  0.06660  Biso   1.000  C
  C202     1.0000 0.64787  0.87924  0.38084  Biso   1.000  C
  H156     1.0000 0.71686  0.88323  0.42271  Biso   1.000  H
  C203     1.0000 0.65767  0.96036  0.32575  Biso   1.000  C
  C204     1.0000 0.65765  0.96032  0.32575  Biso   1.000  C
  H157     1.0000 0.73109  0.01897  0.32566  Biso   1.000  H
  H158     1.0000 0.73107  0.01893  0.32566  Biso   1.000  H
  C205     1.0000 0.88951  0.96130  0.27881  Biso   1.000  C
  C206     1.0000 0.88949  0.96126  0.27881  Biso   1.000  C
  C207     1.0000 0.75427  0.93154  0.08264  Biso   1.000  C
  C208     1.0000 0.80747  0.02296  0.11906  Biso   1.000  C
  C209     1.0000 0.80745  0.02292  0.11906  Biso   1.000  C
  C210     1.0000 0.99976  0.19475  0.99909  Biso   1.000  C
  H159     1.0000 0.95359  0.13285  0.11426  Biso   1.000  H
  C211     1.0000 0.90938  0.16703  0.07756  Biso   1.000  C
  H160     1.0000 0.95357  0.13282  0.11426  Biso   1.000  H
  C212     1.0000 0.93507  0.85062  0.96611  Biso   1.000  C
  C213     1.0000 0.81858  0.70443  0.99076  Biso   1.000  C
  C214     1.0000 0.82917  0.72867  0.19627  Biso   1.000  C
  C215     1.0000 0.82915  0.72863  0.19627  Biso   1.000  C
  H161     1.0000 0.79879  0.83837  0.21675  Biso   1.000  H
  C216     1.0000 0.72639  0.78947  0.28407  Biso   1.000  C
  H162     1.0000 0.79877  0.83833  0.21675  Biso   1.000  H
  C217     1.0000 0.72637  0.78943  0.28407  Biso   1.000  C
  H163     1.0000 0.70898  0.72264  0.99302  Biso   1.000  H
  C218     1.0000 0.67470  0.72127  0.15468  Biso   1.000  C
  C219     1.0000 0.67468  0.72123  0.15468  Biso   1.000  C
  C220     1.0000 0.62636  0.90825  0.34297  Biso   1.000  C
  H164     1.0000 0.62657  0.84377  0.39625  Biso   1.000  H
  H165     1.0000 0.62655  0.84373  0.39625  Biso   1.000  H
  H166     1.0000 0.64286  0.98064  0.30410  Biso   1.000  H
  C221     1.0000 0.94600  0.98111  0.27990  Biso   1.000  C
  H167     1.0000 0.86748  0.92524  0.28552  Biso   1.000  H
  H168     1.0000 0.74428  0.89725  0.10357  Biso   1.000  H
  C222     1.0000 0.73229  0.94094  0.98206  Biso   1.000  C
  H169     1.0000 0.83189  0.05056  0.16609  Biso   1.000  H
  C223     1.0000 0.78737  0.03314  0.01250  Biso   1.000  C
  H170     1.0000 0.83187  0.05052  0.16609  Biso   1.000  H
  H171     1.0000 0.99429  0.20814  0.92271  Biso   1.000  H
  N24      1.0000 0.03498  0.17412  0.97852  Biso   1.000  N
  N25      1.0000 0.03496  0.17408  0.97852  Biso   1.000  N
  C224     1.0000 0.02368  0.23907  0.09215  Biso   1.000  C
  C225     1.0000 0.02367  0.23903  0.09215  Biso   1.000  C
  C226     1.0000 0.88586  0.18144  0.99076  Biso   1.000  C
  C227     1.0000 0.89950  0.17087  0.19627  Biso   1.000  C
  C228     1.0000 0.89948  0.17083  0.19627  Biso   1.000  C
  C229     1.0000 0.97787  0.86914  0.87876  Biso   1.000  C
  C230     1.0000 0.97785  0.86910  0.87876  Biso   1.000  C
  H172     1.0000 0.94209  0.86655  0.04186  Biso   1.000  H
  H173     1.0000 0.94207  0.86651  0.04186  Biso   1.000  H
  H174     1.0000 0.81979  0.71336  0.90957  Biso   1.000  H
  H175     1.0000 0.81977  0.71332  0.90957  Biso   1.000  H
  C231     1.0000 0.80218  0.65236  0.02229  Biso   1.000  C
  C232     1.0000 0.80216  0.65232  0.02229  Biso   1.000  C
  H176     1.0000 0.83718  0.75404  0.25516  Biso   1.000  H
  C233     1.0000 0.81357  0.67746  0.23260  Biso   1.000  C
  C234     1.0000 0.81355  0.67742  0.23260  Biso   1.000  C
  H177     1.0000 0.73050  0.80697  0.35674  Biso   1.000  H
  C235     1.0000 0.68127  0.74527  0.25933  Biso   1.000  C
  H178     1.0000 0.73048  0.80693  0.35674  Biso   1.000  H
  C236     1.0000 0.68125  0.74523  0.25933  Biso   1.000  C
  H179     1.0000 0.64297  0.69104  0.13873  Biso   1.000  H
  H180     1.0000 0.59055  0.89243  0.32901  Biso   1.000  H
  C237     1.0000 0.96548  0.94716  0.27972  Biso   1.000  C
  C238     1.0000 0.96546  0.94713  0.27972  Biso   1.000  C
  C239     1.0000 0.98167  0.03455  0.27972  Biso   1.000  C
  C240     1.0000 0.98165  0.03451  0.27972  Biso   1.000  C
  C241     1.0000 0.74968  0.99227  0.95034  Biso   1.000  C
  H181     1.0000 0.70647  0.91346  0.93702  Biso   1.000  H
  C242     1.0000 0.74966  0.99223  0.95034  Biso   1.000  C
  H182     1.0000 0.70645  0.91342  0.93702  Biso   1.000  H
  H183     1.0000 0.79987  0.06736  0.98596  Biso   1.000  H
  H184     1.0000 0.79985  0.06732  0.98596  Biso   1.000  H
  C243     1.0000 0.04600  0.17060  0.86906  Biso   1.000  C
  C244     1.0000 0.04598  0.17056  0.86906  Biso   1.000  C
  C245     1.0000 0.04148  0.23296  0.19871  Biso   1.000  C
  C246     1.0000 0.02578  0.28585  0.06660  Biso   1.000  C
  C247     1.0000 0.04146  0.23292  0.19871  Biso   1.000  C
  C248     1.0000 0.02577  0.28582  0.06660  Biso   1.000  C
  H185     1.0000 0.89358  0.18027  0.90957  Biso   1.000  H
  H186     1.0000 0.89356  0.18023  0.90957  Biso   1.000  H
  C249     1.0000 0.85016  0.19784  0.02229  Biso   1.000  C
  H187     1.0000 0.91688  0.16284  0.25516  Biso   1.000  H
  C250     1.0000 0.86389  0.18645  0.23260  Biso   1.000  C
  C251     1.0000 0.96877  0.84905  0.76006  Biso   1.000  C
  C252     1.0000 0.02791  0.90379  0.91256  Biso   1.000  C
  C253     1.0000 0.02789  0.90375  0.91256  Biso   1.000  C
  H188     1.0000 0.79418  0.62695  0.96321  Biso   1.000  H
  H189     1.0000 0.79417  0.62691  0.96321  Biso   1.000  H
  C254     1.0000 0.79840  0.64046  0.13927  Biso   1.000  C
  C255     1.0000 0.79838  0.64042  0.13927  Biso   1.000  C
  H190     1.0000 0.81337  0.66865  0.31352  Biso   1.000  H
  H191     1.0000 0.65448  0.73156  0.31651  Biso   1.000  H
  H192     1.0000 0.65446  0.73152  0.31651  Biso   1.000  H
  H193     1.0000 0.94207  0.91126  0.27954  Biso   1.000  H
  H194     1.0000 0.94205  0.91122  0.27954  Biso   1.000  H
  C256     1.0000 0.01892  0.96494  0.27990  Biso   1.000  C
  C257     1.0000 0.01890  0.96490  0.27990  Biso   1.000  C
  H195     1.0000 0.96917  0.05796  0.27954  Biso   1.000  H
  H196     1.0000 0.96915  0.05792  0.27954  Biso   1.000  H
  C258     1.0000 0.03511  0.05401  0.27990  Biso   1.000  C
  H197     1.0000 0.73486  0.99904  0.88320  Biso   1.000  H
  C259     1.0000 0.08085  0.15071  0.83309  Biso   1.000  C
  H198     1.0000 0.03126  0.18105  0.80854  Biso   1.000  H
  C260     1.0000 0.08083  0.15067  0.83309  Biso   1.000  C
  H199     1.0000 0.03956  0.20125  0.21675  Biso   1.000  H
  C261     1.0000 0.06308  0.27364  0.28407  Biso   1.000  C
  H200     1.0000 0.01367  0.29106  0.99302  Biso   1.000  H
  H201     1.0000 0.01365  0.29102  0.99302  Biso   1.000  H
  C262     1.0000 0.04659  0.32536  0.15468  Biso   1.000  C
  C263     1.0000 0.04657  0.32532  0.15468  Biso   1.000  C
  H202     1.0000 0.83278  0.20587  0.96321  Biso   1.000  H
  H203     1.0000 0.83276  0.20583  0.96321  Biso   1.000  H
  C264     1.0000 0.84206  0.20164  0.13927  Biso   1.000  C
  H204     1.0000 0.85528  0.18665  0.31352  Biso   1.000  H
  C265     1.0000 0.00950  0.86385  0.67941  Biso   1.000  C
  C266     1.0000 0.00948  0.86381  0.67941  Biso   1.000  C
  H205     1.0000 0.93476  0.82545  0.73559  Biso   1.000  H
  H206     1.0000 0.03429  0.91757  0.99067  Biso   1.000  H
  C267     1.0000 0.06985  0.91917  0.83309  Biso   1.000  C
  H207     1.0000 0.03427  0.91753  0.99067  Biso   1.000  H
  H208     1.0000 0.78490  0.60546  0.16057  Biso   1.000  H
  H209     1.0000 0.78488  0.60542  0.16057  Biso   1.000  H
  C268     1.0000 0.03875  0.92825  0.27881  Biso   1.000  C
  C269     1.0000 0.03873  0.92822  0.27881  Biso   1.000  C
  C270     1.0000 0.05287  0.01834  0.27972  Biso   1.000  C
  C271     1.0000 0.07178  0.11054  0.27881  Biso   1.000  C
  C272     1.0000 0.07176  0.11050  0.27881  Biso   1.000  C
  C273     1.0000 0.09626  0.12416  0.91256  Biso   1.000  C
  C274     1.0000 0.10111  0.16085  0.71602  Biso   1.000  C
  C275     1.0000 0.09624  0.12412  0.91256  Biso   1.000  C
  H210     1.0000 0.07647  0.26957  0.35674  Biso   1.000  H
  C276     1.0000 0.06396  0.31874  0.25933  Biso   1.000  C
  H211     1.0000 0.07645  0.26953  0.35674  Biso   1.000  H
  H212     1.0000 0.04810  0.35707  0.13873  Biso   1.000  H
  H213     1.0000 0.04808  0.35703  0.13873  Biso   1.000  H
  H214     1.0000 0.82057  0.21515  0.16057  Biso   1.000  H
  C277     1.0000 0.99900  0.83797  0.56053  Biso   1.000  C
  C278     1.0000 0.05974  0.89889  0.71602  Biso   1.000  C
  C279     1.0000 0.12456  0.95402  0.86906  Biso   1.000  C
  N26      1.0000 0.01096  0.87951  0.26957  Biso   1.000  N
  H215     1.0000 0.07476  0.94223  0.28552  Biso   1.000  H
  H216     1.0000 0.08877  0.03087  0.27954  Biso   1.000  H
  H217     1.0000 0.08875  0.03083  0.27954  Biso   1.000  H
  N27      1.0000 0.12053  0.13148  0.26957  Biso   1.000  N
  H218     1.0000 0.05776  0.13254  0.28552  Biso   1.000  H
  N28      1.0000 0.12051  0.13145  0.26957  Biso   1.000  N
  C280     1.0000 0.13089  0.10874  0.87876  Biso   1.000  C
  H219     1.0000 0.08249  0.11676  0.99067  Biso   1.000  H
  H220     1.0000 0.08247  0.11672  0.99067  Biso   1.000  H
  C281     1.0000 0.13616  0.14566  0.67941  Biso   1.000  C
  H221     1.0000 0.09087  0.17815  0.66174  Biso   1.000  H
  H222     1.0000 0.07706  0.34556  0.31651  Biso   1.000  H
  H223     1.0000 0.07705  0.34552  0.31651  Biso   1.000  H
  N29      1.0000 0.03516  0.84330  0.49012  Biso   1.000  N
  H224     1.0000 0.96436  0.81683  0.53625  Biso   1.000  H
  H225     1.0000 0.08728  0.90915  0.66174  Biso   1.000  H
  N30      1.0000 0.13914  0.96506  0.97852  Biso   1.000  N
  H226     1.0000 0.14976  0.96874  0.80854  Biso   1.000  H
  C282     1.0000 0.03798  0.84941  0.26830  Biso   1.000  C
  C283     1.0000 0.03796  0.84937  0.26830  Biso   1.000  C
  C284     1.0000 0.15062  0.18860  0.26830  Biso   1.000  C
  C285     1.0000 0.15094  0.11974  0.76006  Biso   1.000  C
  C286     1.0000 0.14941  0.08446  0.96611  Biso   1.000  C
  C287     1.0000 0.16203  0.16104  0.56053  Biso   1.000  C
  C288     1.0000 0.01935  0.81194  0.37767  Biso   1.000  C
  C289     1.0000 0.01933  0.81190  0.37767  Biso   1.000  C
  C290     1.0000 0.19498  0.00025  0.99909  Biso   1.000  C
  H227     1.0000 0.07569  0.87356  0.27582  Biso   1.000  H
  C291     1.0000 0.02767  0.81856  0.15259  Biso   1.000  C
  H228     1.0000 0.07567  0.87352  0.27582  Biso   1.000  H
  C292     1.0000 0.02766  0.81852  0.15259  Biso   1.000  C
  H229     1.0000 0.12647  0.20215  0.27582  Biso   1.000  H
  C293     1.0000 0.18811  0.20744  0.37767  Biso   1.000  C
  C294     1.0000 0.18148  0.20916  0.15259  Biso   1.000  C
  C295     1.0000 0.18146  0.20912  0.15259  Biso   1.000  C
  H230     1.0000 0.17457  0.10936  0.73559  Biso   1.000  H
  H231     1.0000 0.17455  0.10933  0.73559  Biso   1.000  H
  N31      1.0000 0.18548  0.07503  0.94491  Biso   1.000  N
  H232     1.0000 0.13348  0.07554  0.04186  Biso   1.000  H
  N32      1.0000 0.15670  0.19189  0.49012  Biso   1.000  N
  H233     1.0000 0.18318  0.14754  0.53625  Biso   1.000  H
  H234     1.0000 0.98116  0.78955  0.37532  Biso   1.000  H
  C296     1.0000 0.04513  0.77854  0.37360  Biso   1.000  C
  C297     1.0000 0.20187  0.05275  0.04368  Biso   1.000  C
  C298     1.0000 0.20185  0.05271  0.04368  Biso   1.000  C
  C299     1.0000 0.21536  0.97633  0.09215  Biso   1.000  C
  H235     1.0000 0.21386  0.00573  0.92271  Biso   1.000  H
  C300     1.0000 0.97706  0.78453  0.11906  Biso   1.000  C
  C301     1.0000 0.06849  0.82274  0.08264  Biso   1.000  C
  H236     1.0000 0.21046  0.19166  0.37532  Biso   1.000  H
  C302     1.0000 0.22147  0.26663  0.37360  Biso   1.000  C
  H237     1.0000 0.21044  0.19162  0.37532  Biso   1.000  H
  C303     1.0000 0.22145  0.26659  0.37360  Biso   1.000  C
  C304     1.0000 0.21549  0.19256  0.11906  Biso   1.000  C
  C305     1.0000 0.17727  0.24576  0.08264  Biso   1.000  C
  C306     1.0000 0.21547  0.19252  0.11906  Biso   1.000  C
  C307     1.0000 0.17725  0.24573  0.08264  Biso   1.000  C
  C308     1.0000 0.01678  0.72706  0.33962  Biso   1.000  C
  C309     1.0000 0.09696  0.79914  0.39652  Biso   1.000  C
  C310     1.0000 0.01676  0.72702  0.33962  Biso   1.000  C
  H238     1.0000 0.17929  0.04645  0.11426  Biso   1.000  H
  C311     1.0000 0.25767  0.09065  0.07756  Biso   1.000  C
  C312     1.0000 0.19149  0.95856  0.19871  Biso   1.000  C
  C313     1.0000 0.26007  0.97426  0.06660  Biso   1.000  C
  C314     1.0000 0.19147  0.95852  0.19871  Biso   1.000  C
  C315     1.0000 0.26005  0.97422  0.06660  Biso   1.000  C
  C316     1.0000 0.96686  0.75423  0.01250  Biso   1.000  C
  H239     1.0000 0.94947  0.78136  0.16609  Biso   1.000  H
  H240     1.0000 0.94945  0.78132  0.16609  Biso   1.000  H
  C317     1.0000 0.05906  0.79135  0.98206  Biso   1.000  C
  H241     1.0000 0.10279  0.84706  0.10357  Biso   1.000  H
  H242     1.0000 0.10277  0.84702  0.10357  Biso   1.000  H
  C318     1.0000 0.27298  0.28977  0.33962  Biso   1.000  C
  C319     1.0000 0.20086  0.29783  0.39652  Biso   1.000  C
  C320     1.0000 0.27296  0.28973  0.33962  Biso   1.000  C
  H243     1.0000 0.21869  0.16817  0.16609  Biso   1.000  H
  C321     1.0000 0.24577  0.21264  0.01250  Biso   1.000  C
  H244     1.0000 0.21867  0.16813  0.16609  Biso   1.000  H
  C322     1.0000 0.20868  0.26777  0.98206  Biso   1.000  C
  C323     1.0000 0.20866  0.26773  0.98206  Biso   1.000  C
  H245     1.0000 0.15296  0.25575  0.10357  Biso   1.000  H
  H246     1.0000 0.98108  0.71214  0.32566  Biso   1.000  H
  C324     1.0000 0.03966  0.69735  0.32575  Biso   1.000  C
  C325     1.0000 0.12077  0.76864  0.38084  Biso   1.000  C
  H247     1.0000 0.11677  0.83367  0.42271  Biso   1.000  H
  H248     1.0000 0.11675  0.83363  0.42271  Biso   1.000  H
  C326     1.0000 0.29556  0.11414  0.99076  Biso   1.000  C
  C327     1.0000 0.27137  0.10056  0.19627  Biso   1.000  C
  C328     1.0000 0.27135  0.10052  0.19627  Biso   1.000  C
  H249     1.0000 0.16168  0.96044  0.21675  Biso   1.000  H
  C329     1.0000 0.21056  0.93695  0.28407  Biso   1.000  C
  H250     1.0000 0.27737  0.98635  0.99302  Biso   1.000  H
  H251     1.0000 0.27735  0.98631  0.99302  Biso   1.000  H
  C330     1.0000 0.27880  0.95347  0.15468  Biso   1.000  C
  C331     1.0000 0.27878  0.95343  0.15468  Biso   1.000  C
  H252     1.0000 0.93266  0.73254  0.98596  Biso   1.000  H
  C332     1.0000 0.00776  0.75744  0.95034  Biso   1.000  C
  H253     1.0000 0.08657  0.79307  0.93702  Biso   1.000  H
  H254     1.0000 0.08655  0.79303  0.93702  Biso   1.000  H
  H255     1.0000 0.28786  0.26894  0.32566  Biso   1.000  H
  C333     1.0000 0.30266  0.34235  0.32575  Biso   1.000  C
  C334     1.0000 0.23137  0.35214  0.38084  Biso   1.000  C
  H256     1.0000 0.16636  0.28315  0.42271  Biso   1.000  H
  H257     1.0000 0.26747  0.20015  0.98596  Biso   1.000  H
  C335     1.0000 0.24259  0.25034  0.95034  Biso   1.000  C
  H258     1.0000 0.26745  0.20011  0.98596  Biso   1.000  H
  H259     1.0000 0.20700  0.29357  0.93702  Biso   1.000  H
  H260     1.0000 0.20698  0.29353  0.93702  Biso   1.000  H
  H261     1.0000 0.01938  0.66227  0.30410  Biso   1.000  H
  C336     1.0000 0.09176  0.71813  0.34297  Biso   1.000  C
  H262     1.0000 0.01936  0.66223  0.30410  Biso   1.000  H
  H263     1.0000 0.15626  0.78285  0.39625  Biso   1.000  H
  H264     1.0000 0.28667  0.10647  0.90957  Biso   1.000  H
  H265     1.0000 0.28665  0.10643  0.90957  Biso   1.000  H
  C337     1.0000 0.34766  0.14985  0.02229  Biso   1.000  C
  H266     1.0000 0.24598  0.08313  0.25516  Biso   1.000  H
  C338     1.0000 0.32256  0.13614  0.23260  Biso   1.000  C
  H267     1.0000 0.19308  0.92356  0.35674  Biso   1.000  H
  C339     1.0000 0.25476  0.93605  0.25933  Biso   1.000  C
  H268     1.0000 0.19306  0.92352  0.35674  Biso   1.000  H
  H269     1.0000 0.30899  0.95194  0.13873  Biso   1.000  H
  H270     1.0000 0.00098  0.73587  0.88320  Biso   1.000  H
  H271     1.0000 0.00096  0.73583  0.88320  Biso   1.000  H
  H272     1.0000 0.33776  0.35715  0.30410  Biso   1.000  H
  C340     1.0000 0.28187  0.37367  0.34297  Biso   1.000  C
  C341     1.0000 0.28185  0.37363  0.34297  Biso   1.000  C
  H273     1.0000 0.21716  0.37343  0.39625  Biso   1.000  H
  H274     1.0000 0.26416  0.26514  0.88320  Biso   1.000  H
  H275     1.0000 0.10758  0.69817  0.32901  Biso   1.000  H
  H276     1.0000 0.10756  0.69813  0.32901  Biso   1.000  H
  H277     1.0000 0.37308  0.16727  0.96321  Biso   1.000  H
  H278     1.0000 0.37306  0.16723  0.96321  Biso   1.000  H
  C342     1.0000 0.35957  0.15795  0.13927  Biso   1.000  C
  H279     1.0000 0.33138  0.14476  0.31352  Biso   1.000  H
  H280     1.0000 0.33136  0.14472  0.31352  Biso   1.000  H
  H281     1.0000 0.26850  0.92297  0.31651  Biso   1.000  H
  H282     1.0000 0.26848  0.92293  0.31651  Biso   1.000  H
  H283     1.0000 0.30186  0.40945  0.32901  Biso   1.000  H
  H284     1.0000 0.39456  0.17944  0.16057  Biso   1.000  H
  C343     1.0000 0.83916  0.94027  0.71602  Biso   1.000  C
  C344     1.0000 0.85436  0.99054  0.67941  Biso   1.000  C
  C345     1.0000 0.85434  0.99050  0.67941  Biso   1.000  C
  H285     1.0000 0.82187  0.91275  0.66174  Biso   1.000  H
  C346     1.0000 0.84933  0.93017  0.83309  Biso   1.000  C
  C347     1.0000 0.84931  0.93013  0.83309  Biso   1.000  C
  C348     1.0000 0.83899  0.00104  0.56053  Biso   1.000  C
  C349     1.0000 0.83897  0.00100  0.56053  Biso   1.000  C
  C350     1.0000 0.88026  0.03122  0.76006  Biso   1.000  C
  C351     1.0000 0.87586  0.97210  0.91256  Biso   1.000  C
  C352     1.0000 0.82943  0.87544  0.86906  Biso   1.000  C
  N33      1.0000 0.80812  0.96486  0.49012  Biso   1.000  N
  N34      1.0000 0.80810  0.96482  0.49012  Biso   1.000  N
  H286     1.0000 0.85247  0.03564  0.53625  Biso   1.000  H
  H287     1.0000 0.89066  0.06524  0.73559  Biso   1.000  H
  C353     1.0000 0.89127  0.02218  0.87876  Biso   1.000  C
  C354     1.0000 0.89125  0.02214  0.87876  Biso   1.000  C
  H288     1.0000 0.88327  0.96576  0.99067  Biso   1.000  H
  H289     1.0000 0.88325  0.96572  0.99067  Biso   1.000  H
  N35      1.0000 0.82591  0.86088  0.97852  Biso   1.000  N
  H290     1.0000 0.81898  0.85027  0.80854  Biso   1.000  H
  H291     1.0000 0.81896  0.85023  0.80854  Biso   1.000  H
  C355     1.0000 0.79257  0.98068  0.37767  Biso   1.000  C
  C356     1.0000 0.91558  0.06497  0.96611  Biso   1.000  C
  C357     1.0000 0.91556  0.06493  0.96611  Biso   1.000  C
  C358     1.0000 0.80528  0.80505  0.99909  Biso   1.000  C
  C359     1.0000 0.73339  0.95488  0.37360  Biso   1.000  C
  C360     1.0000 0.81143  0.96204  0.26830  Biso   1.000  C
  H292     1.0000 0.80837  0.01885  0.37532  Biso   1.000  H
  N36      1.0000 0.92500  0.11046  0.94491  Biso   1.000  N
  H293     1.0000 0.92448  0.05796  0.04186  Biso   1.000  H
  H294     1.0000 0.92446  0.05792  0.04186  Biso   1.000  H
  H295     1.0000 0.79186  0.78614  0.92271  Biso   1.000  H
  C361     1.0000 0.85087  0.79816  0.04368  Biso   1.000  C
  C362     1.0000 0.76098  0.78465  0.09215  Biso   1.000  C
  C363     1.0000 0.85085  0.79812  0.04368  Biso   1.000  C
  C364     1.0000 0.70218  0.90304  0.39652  Biso   1.000  C
  C365     1.0000 0.71029  0.98326  0.33962  Biso   1.000  C
  C366     1.0000 0.71027  0.98322  0.33962  Biso   1.000  C
  N37      1.0000 0.86854  0.98906  0.26957  Biso   1.000  N
  H296     1.0000 0.79787  0.92434  0.27582  Biso   1.000  H
  C367     1.0000 0.79088  0.97234  0.15259  Biso   1.000  C
  C368     1.0000 0.94726  0.14914  0.04368  Biso   1.000  C
  N38      1.0000 0.88958  0.81456  0.94491  Biso   1.000  N
  N39      1.0000 0.88956  0.81452  0.94491  Biso   1.000  N
  H297     1.0000 0.86718  0.82075  0.11426  Biso   1.000  H
  C369     1.0000 0.83297  0.74237  0.07756  Biso   1.000  C
  C370     1.0000 0.83295  0.74233  0.07756  Biso   1.000  C
  C371     1.0000 0.76705  0.80853  0.19871  Biso   1.000  C
  C372     1.0000 0.71418  0.73994  0.06660  Biso   1.000  C
  C373     1.0000 0.64787  0.87924  0.38084  Biso   1.000  C
  H298     1.0000 0.71686  0.88323  0.42271  Biso   1.000  H
  C374     1.0000 0.65767  0.96036  0.32575  Biso   1.000  C
  C375     1.0000 0.65765  0.96032  0.32575  Biso   1.000  C
  H299     1.0000 0.73109  0.01897  0.32566  Biso   1.000  H
  H300     1.0000 0.73107  0.01893  0.32566  Biso   1.000  H
  C376     1.0000 0.88951  0.96130  0.27881  Biso   1.000  C
  C377     1.0000 0.88949  0.96126  0.27881  Biso   1.000  C
  C378     1.0000 0.75427  0.93154  0.08264  Biso   1.000  C
  C379     1.0000 0.80747  0.02296  0.11906  Biso   1.000  C
  C380     1.0000 0.80745  0.02292  0.11906  Biso   1.000  C
  C381     1.0000 0.99976  0.19475  0.99909  Biso   1.000  C
  H301     1.0000 0.95359  0.13285  0.11426  Biso   1.000  H
  C382     1.0000 0.90938  0.16703  0.07756  Biso   1.000  C
  H302     1.0000 0.95357  0.13282  0.11426  Biso   1.000  H
  C383     1.0000 0.93507  0.85062  0.96611  Biso   1.000  C
  C384     1.0000 0.81858  0.70443  0.99076  Biso   1.000  C
  C385     1.0000 0.82917  0.72867  0.19627  Biso   1.000  C
  C386     1.0000 0.82915  0.72863  0.19627  Biso   1.000  C
  H303     1.0000 0.79879  0.83837  0.21675  Biso   1.000  H
  C387     1.0000 0.72639  0.78947  0.28407  Biso   1.000  C
  H304     1.0000 0.79877  0.83833  0.21675  Biso   1.000  H
  C388     1.0000 0.72637  0.78943  0.28407  Biso   1.000  C
  H305     1.0000 0.70898  0.72264  0.99302  Biso   1.000  H
  C389     1.0000 0.67470  0.72127  0.15468  Biso   1.000  C
  C390     1.0000 0.67468  0.72123  0.15468  Biso   1.000  C
  C391     1.0000 0.62636  0.90825  0.34297  Biso   1.000  C
  H306     1.0000 0.62657  0.84377  0.39625  Biso   1.000  H
  H307     1.0000 0.62655  0.84373  0.39625  Biso   1.000  H
  H308     1.0000 0.64286  0.98064  0.30410  Biso   1.000  H
  C392     1.0000 0.94600  0.98111  0.27990  Biso   1.000  C
  H309     1.0000 0.86748  0.92524  0.28552  Biso   1.000  H
  H310     1.0000 0.74428  0.89725  0.10357  Biso   1.000  H
  C393     1.0000 0.73229  0.94094  0.98206  Biso   1.000  C
  H311     1.0000 0.83189  0.05056  0.16609  Biso   1.000  H
  C394     1.0000 0.78737  0.03314  0.01250  Biso   1.000  C
  H312     1.0000 0.83187  0.05052  0.16609  Biso   1.000  H
  H313     1.0000 0.99429  0.20814  0.92271  Biso   1.000  H
  N40      1.0000 0.03498  0.17412  0.97852  Biso   1.000  N
  N41      1.0000 0.03496  0.17408  0.97852  Biso   1.000  N
  C395     1.0000 0.02368  0.23907  0.09215  Biso   1.000  C
  C396     1.0000 0.02367  0.23903  0.09215  Biso   1.000  C
  C397     1.0000 0.88586  0.18144  0.99076  Biso   1.000  C
  C398     1.0000 0.89950  0.17087  0.19627  Biso   1.000  C
  C399     1.0000 0.89948  0.17083  0.19627  Biso   1.000  C
  C400     1.0000 0.97787  0.86914  0.87876  Biso   1.000  C
  C401     1.0000 0.97785  0.86910  0.87876  Biso   1.000  C
  H314     1.0000 0.94209  0.86655  0.04186  Biso   1.000  H
  H315     1.0000 0.94207  0.86651  0.04186  Biso   1.000  H
  H316     1.0000 0.81979  0.71336  0.90957  Biso   1.000  H
  H317     1.0000 0.81977  0.71332  0.90957  Biso   1.000  H
  C402     1.0000 0.80218  0.65236  0.02229  Biso   1.000  C
  C403     1.0000 0.80216  0.65232  0.02229  Biso   1.000  C
  H318     1.0000 0.83718  0.75404  0.25516  Biso   1.000  H
  C404     1.0000 0.81357  0.67746  0.23260  Biso   1.000  C
  C405     1.0000 0.81355  0.67742  0.23260  Biso   1.000  C
  H319     1.0000 0.73050  0.80697  0.35674  Biso   1.000  H
  C406     1.0000 0.68127  0.74527  0.25933  Biso   1.000  C
  H320     1.0000 0.73048  0.80693  0.35674  Biso   1.000  H
  C407     1.0000 0.68125  0.74523  0.25933  Biso   1.000  C
  H321     1.0000 0.64297  0.69104  0.13873  Biso   1.000  H
  H322     1.0000 0.59055  0.89243  0.32901  Biso   1.000  H
  C408     1.0000 0.96548  0.94716  0.27972  Biso   1.000  C
  C409     1.0000 0.96546  0.94713  0.27972  Biso   1.000  C
  C410     1.0000 0.98167  0.03455  0.27972  Biso   1.000  C
  C411     1.0000 0.98165  0.03451  0.27972  Biso   1.000  C
  C412     1.0000 0.74968  0.99227  0.95034  Biso   1.000  C
  H323     1.0000 0.70647  0.91346  0.93702  Biso   1.000  H
  C413     1.0000 0.74966  0.99223  0.95034  Biso   1.000  C
  H324     1.0000 0.70645  0.91342  0.93702  Biso   1.000  H
  H325     1.0000 0.79987  0.06736  0.98596  Biso   1.000  H
  H326     1.0000 0.79985  0.06732  0.98596  Biso   1.000  H
  C414     1.0000 0.04600  0.17060  0.86906  Biso   1.000  C
  C415     1.0000 0.04598  0.17056  0.86906  Biso   1.000  C
  C416     1.0000 0.04148  0.23296  0.19871  Biso   1.000  C
  C417     1.0000 0.02578  0.28585  0.06660  Biso   1.000  C
  C418     1.0000 0.04146  0.23292  0.19871  Biso   1.000  C
  C419     1.0000 0.02577  0.28582  0.06660  Biso   1.000  C
  H327     1.0000 0.89358  0.18027  0.90957  Biso   1.000  H
  H328     1.0000 0.89356  0.18023  0.90957  Biso   1.000  H
  C420     1.0000 0.85016  0.19784  0.02229  Biso   1.000  C
  H329     1.0000 0.91688  0.16284  0.25516  Biso   1.000  H
  C421     1.0000 0.86389  0.18645  0.23260  Biso   1.000  C
  C422     1.0000 0.96877  0.84905  0.76006  Biso   1.000  C
  C423     1.0000 0.02791  0.90379  0.91256  Biso   1.000  C
  C424     1.0000 0.02789  0.90375  0.91256  Biso   1.000  C
  H330     1.0000 0.79418  0.62695  0.96321  Biso   1.000  H
  H331     1.0000 0.79417  0.62691  0.96321  Biso   1.000  H
  C425     1.0000 0.79840  0.64046  0.13927  Biso   1.000  C
  C426     1.0000 0.79838  0.64042  0.13927  Biso   1.000  C
  H332     1.0000 0.81337  0.66865  0.31352  Biso   1.000  H
  H333     1.0000 0.65448  0.73156  0.31651  Biso   1.000  H
  H334     1.0000 0.65446  0.73152  0.31651  Biso   1.000  H
  H335     1.0000 0.94207  0.91126  0.27954  Biso   1.000  H
  H336     1.0000 0.94205  0.91122  0.27954  Biso   1.000  H
  C427     1.0000 0.01892  0.96494  0.27990  Biso   1.000  C
  C428     1.0000 0.01890  0.96490  0.27990  Biso   1.000  C
  H337     1.0000 0.96917  0.05796  0.27954  Biso   1.000  H
  H338     1.0000 0.96915  0.05792  0.27954  Biso   1.000  H
  C429     1.0000 0.03511  0.05401  0.27990  Biso   1.000  C
  H339     1.0000 0.73486  0.99904  0.88320  Biso   1.000  H
  C430     1.0000 0.08085  0.15071  0.83309  Biso   1.000  C
  H340     1.0000 0.03126  0.18105  0.80854  Biso   1.000  H
  C431     1.0000 0.08083  0.15067  0.83309  Biso   1.000  C
  H341     1.0000 0.03956  0.20125  0.21675  Biso   1.000  H
  C432     1.0000 0.06308  0.27364  0.28407  Biso   1.000  C
  H342     1.0000 0.01367  0.29106  0.99302  Biso   1.000  H
  H343     1.0000 0.01365  0.29102  0.99302  Biso   1.000  H
  C433     1.0000 0.04659  0.32536  0.15468  Biso   1.000  C
  C434     1.0000 0.04657  0.32532  0.15468  Biso   1.000  C
  H344     1.0000 0.83278  0.20587  0.96321  Biso   1.000  H
  H345     1.0000 0.83276  0.20583  0.96321  Biso   1.000  H
  C435     1.0000 0.84206  0.20164  0.13927  Biso   1.000  C
  H346     1.0000 0.85528  0.18665  0.31352  Biso   1.000  H
  C436     1.0000 0.00950  0.86385  0.67941  Biso   1.000  C
  C437     1.0000 0.00948  0.86381  0.67941  Biso   1.000  C
  H347     1.0000 0.93476  0.82545  0.73559  Biso   1.000  H
  H348     1.0000 0.03429  0.91757  0.99067  Biso   1.000  H
  C438     1.0000 0.06985  0.91917  0.83309  Biso   1.000  C
  H349     1.0000 0.03427  0.91753  0.99067  Biso   1.000  H
  H350     1.0000 0.78490  0.60546  0.16057  Biso   1.000  H
  H351     1.0000 0.78488  0.60542  0.16057  Biso   1.000  H
  C439     1.0000 0.03875  0.92825  0.27881  Biso   1.000  C
  C440     1.0000 0.03873  0.92822  0.27881  Biso   1.000  C
  C441     1.0000 0.05287  0.01834  0.27972  Biso   1.000  C
  C442     1.0000 0.07178  0.11054  0.27881  Biso   1.000  C
  C443     1.0000 0.07176  0.11050  0.27881  Biso   1.000  C
  C444     1.0000 0.09626  0.12416  0.91256  Biso   1.000  C
  C445     1.0000 0.10111  0.16085  0.71602  Biso   1.000  C
  C446     1.0000 0.09624  0.12412  0.91256  Biso   1.000  C
  H352     1.0000 0.07647  0.26957  0.35674  Biso   1.000  H
  C447     1.0000 0.06396  0.31874  0.25933  Biso   1.000  C
  H353     1.0000 0.07645  0.26953  0.35674  Biso   1.000  H
  H354     1.0000 0.04810  0.35707  0.13873  Biso   1.000  H
  H355     1.0000 0.04808  0.35703  0.13873  Biso   1.000  H
  H356     1.0000 0.82057  0.21515  0.16057  Biso   1.000  H
  C448     1.0000 0.99900  0.83797  0.56053  Biso   1.000  C
  C449     1.0000 0.05974  0.89889  0.71602  Biso   1.000  C
  C450     1.0000 0.12456  0.95402  0.86906  Biso   1.000  C
  N42      1.0000 0.01096  0.87951  0.26957  Biso   1.000  N
  H357     1.0000 0.07476  0.94223  0.28552  Biso   1.000  H
  H358     1.0000 0.08877  0.03087  0.27954  Biso   1.000  H
  H359     1.0000 0.08875  0.03083  0.27954  Biso   1.000  H
  N43      1.0000 0.12053  0.13148  0.26957  Biso   1.000  N
  H360     1.0000 0.05776  0.13254  0.28552  Biso   1.000  H
  N44      1.0000 0.12051  0.13145  0.26957  Biso   1.000  N
  C451     1.0000 0.13089  0.10874  0.87876  Biso   1.000  C
  H361     1.0000 0.08249  0.11676  0.99067  Biso   1.000  H
  H362     1.0000 0.08247  0.11672  0.99067  Biso   1.000  H
  C452     1.0000 0.13616  0.14566  0.67941  Biso   1.000  C
  H363     1.0000 0.09087  0.17815  0.66174  Biso   1.000  H
  H364     1.0000 0.07706  0.34556  0.31651  Biso   1.000  H
  H365     1.0000 0.07705  0.34552  0.31651  Biso   1.000  H
  N45      1.0000 0.03516  0.84330  0.49012  Biso   1.000  N
  H366     1.0000 0.96436  0.81683  0.53625  Biso   1.000  H
  H367     1.0000 0.08728  0.90915  0.66174  Biso   1.000  H
  N46      1.0000 0.13914  0.96506  0.97852  Biso   1.000  N
  H368     1.0000 0.14976  0.96874  0.80854  Biso   1.000  H
  C453     1.0000 0.03798  0.84941  0.26830  Biso   1.000  C
  C454     1.0000 0.03796  0.84937  0.26830  Biso   1.000  C
  C455     1.0000 0.15062  0.18860  0.26830  Biso   1.000  C
  C456     1.0000 0.15094  0.11974  0.76006  Biso   1.000  C
  C457     1.0000 0.14941  0.08446  0.96611  Biso   1.000  C
  C458     1.0000 0.16203  0.16104  0.56053  Biso   1.000  C
  C459     1.0000 0.01935  0.81194  0.37767  Biso   1.000  C
  C460     1.0000 0.01933  0.81190  0.37767  Biso   1.000  C
  C461     1.0000 0.19498  0.00025  0.99909  Biso   1.000  C
  H369     1.0000 0.07569  0.87356  0.27582  Biso   1.000  H
  C462     1.0000 0.02767  0.81856  0.15259  Biso   1.000  C
  H370     1.0000 0.07567  0.87352  0.27582  Biso   1.000  H
  C463     1.0000 0.02766  0.81852  0.15259  Biso   1.000  C
  H371     1.0000 0.12647  0.20215  0.27582  Biso   1.000  H
  C464     1.0000 0.18811  0.20744  0.37767  Biso   1.000  C
  C465     1.0000 0.18148  0.20916  0.15259  Biso   1.000  C
  C466     1.0000 0.18146  0.20912  0.15259  Biso   1.000  C
  H372     1.0000 0.17457  0.10936  0.73559  Biso   1.000  H
  H373     1.0000 0.17455  0.10933  0.73559  Biso   1.000  H
  N47      1.0000 0.18548  0.07503  0.94491  Biso   1.000  N
  H374     1.0000 0.13348  0.07554  0.04186  Biso   1.000  H
  N48      1.0000 0.15670  0.19189  0.49012  Biso   1.000  N
  H375     1.0000 0.18318  0.14754  0.53625  Biso   1.000  H
  H376     1.0000 0.98116  0.78955  0.37532  Biso   1.000  H
  C467     1.0000 0.04513  0.77854  0.37360  Biso   1.000  C
  C468     1.0000 0.20187  0.05275  0.04368  Biso   1.000  C
  C469     1.0000 0.20185  0.05271  0.04368  Biso   1.000  C
  C470     1.0000 0.21536  0.97633  0.09215  Biso   1.000  C
  H377     1.0000 0.21386  0.00573  0.92271  Biso   1.000  H
  C471     1.0000 0.97706  0.78453  0.11906  Biso   1.000  C
  C472     1.0000 0.06849  0.82274  0.08264  Biso   1.000  C
  H378     1.0000 0.21046  0.19166  0.37532  Biso   1.000  H
  C473     1.0000 0.22147  0.26663  0.37360  Biso   1.000  C
  H379     1.0000 0.21044  0.19162  0.37532  Biso   1.000  H
  C474     1.0000 0.22145  0.26659  0.37360  Biso   1.000  C
  C475     1.0000 0.21549  0.19256  0.11906  Biso   1.000  C
  C476     1.0000 0.17727  0.24576  0.08264  Biso   1.000  C
  C477     1.0000 0.21547  0.19252  0.11906  Biso   1.000  C
  C478     1.0000 0.17725  0.24573  0.08264  Biso   1.000  C
  C479     1.0000 0.01678  0.72706  0.33962  Biso   1.000  C
  C480     1.0000 0.09696  0.79914  0.39652  Biso   1.000  C
  C481     1.0000 0.01676  0.72702  0.33962  Biso   1.000  C
  H380     1.0000 0.17929  0.04645  0.11426  Biso   1.000  H
  C482     1.0000 0.25767  0.09065  0.07756  Biso   1.000  C
  C483     1.0000 0.19149  0.95856  0.19871  Biso   1.000  C
  C484     1.0000 0.26007  0.97426  0.06660  Biso   1.000  C
  C485     1.0000 0.19147  0.95852  0.19871  Biso   1.000  C
  C486     1.0000 0.26005  0.97422  0.06660  Biso   1.000  C
  C487     1.0000 0.96686  0.75423  0.01250  Biso   1.000  C
  H381     1.0000 0.94947  0.78136  0.16609  Biso   1.000  H
  H382     1.0000 0.94945  0.78132  0.16609  Biso   1.000  H
  C488     1.0000 0.05906  0.79135  0.98206  Biso   1.000  C
  H383     1.0000 0.10279  0.84706  0.10357  Biso   1.000  H
  H384     1.0000 0.10277  0.84702  0.10357  Biso   1.000  H
  C489     1.0000 0.27298  0.28977  0.33962  Biso   1.000  C
  C490     1.0000 0.20086  0.29783  0.39652  Biso   1.000  C
  C491     1.0000 0.27296  0.28973  0.33962  Biso   1.000  C
  H385     1.0000 0.21869  0.16817  0.16609  Biso   1.000  H
  C492     1.0000 0.24577  0.21264  0.01250  Biso   1.000  C
  H386     1.0000 0.21867  0.16813  0.16609  Biso   1.000  H
  C493     1.0000 0.20868  0.26777  0.98206  Biso   1.000  C
  C494     1.0000 0.20866  0.26773  0.98206  Biso   1.000  C
  H387     1.0000 0.15296  0.25575  0.10357  Biso   1.000  H
  H388     1.0000 0.98108  0.71214  0.32566  Biso   1.000  H
  C495     1.0000 0.03966  0.69735  0.32575  Biso   1.000  C
  C496     1.0000 0.12077  0.76864  0.38084  Biso   1.000  C
  H389     1.0000 0.11677  0.83367  0.42271  Biso   1.000  H
  H390     1.0000 0.11675  0.83363  0.42271  Biso   1.000  H
  C497     1.0000 0.29556  0.11414  0.99076  Biso   1.000  C
  C498     1.0000 0.27137  0.10056  0.19627  Biso   1.000  C
  C499     1.0000 0.27135  0.10052  0.19627  Biso   1.000  C
  H391     1.0000 0.16168  0.96044  0.21675  Biso   1.000  H
  C500     1.0000 0.21056  0.93695  0.28407  Biso   1.000  C
  H392     1.0000 0.27737  0.98635  0.99302  Biso   1.000  H
  H393     1.0000 0.27735  0.98631  0.99302  Biso   1.000  H
  C501     1.0000 0.27880  0.95347  0.15468  Biso   1.000  C
  C502     1.0000 0.27878  0.95343  0.15468  Biso   1.000  C
  H394     1.0000 0.93266  0.73254  0.98596  Biso   1.000  H
  C503     1.0000 0.00776  0.75744  0.95034  Biso   1.000  C
  H395     1.0000 0.08657  0.79307  0.93702  Biso   1.000  H
  H396     1.0000 0.08655  0.79303  0.93702  Biso   1.000  H
  H397     1.0000 0.28786  0.26894  0.32566  Biso   1.000  H
  C504     1.0000 0.30266  0.34235  0.32575  Biso   1.000  C
  C505     1.0000 0.23137  0.35214  0.38084  Biso   1.000  C
  H398     1.0000 0.16636  0.28315  0.42271  Biso   1.000  H
  H399     1.0000 0.26747  0.20015  0.98596  Biso   1.000  H
  C506     1.0000 0.24259  0.25034  0.95034  Biso   1.000  C
  H400     1.0000 0.26745  0.20011  0.98596  Biso   1.000  H
  H401     1.0000 0.20700  0.29357  0.93702  Biso   1.000  H
  H402     1.0000 0.20698  0.29353  0.93702  Biso   1.000  H
  H403     1.0000 0.01938  0.66227  0.30410  Biso   1.000  H
  C507     1.0000 0.09176  0.71813  0.34297  Biso   1.000  C
  H404     1.0000 0.01936  0.66223  0.30410  Biso   1.000  H
  H405     1.0000 0.15626  0.78285  0.39625  Biso   1.000  H
  H406     1.0000 0.28667  0.10647  0.90957  Biso   1.000  H
  H407     1.0000 0.28665  0.10643  0.90957  Biso   1.000  H
  C508     1.0000 0.34766  0.14985  0.02229  Biso   1.000  C
  H408     1.0000 0.24598  0.08313  0.25516  Biso   1.000  H
  C509     1.0000 0.32256  0.13614  0.23260  Biso   1.000  C
  H409     1.0000 0.19308  0.92356  0.35674  Biso   1.000  H
  C510     1.0000 0.25476  0.93605  0.25933  Biso   1.000  C
  H410     1.0000 0.19306  0.92352  0.35674  Biso   1.000  H
  H411     1.0000 0.30899  0.95194  0.13873  Biso   1.000  H
  H412     1.0000 0.00098  0.73587  0.88320  Biso   1.000  H
  H413     1.0000 0.00096  0.73583  0.88320  Biso   1.000  H
  H414     1.0000 0.33776  0.35715  0.30410  Biso   1.000  H
  C511     1.0000 0.28187  0.37367  0.34297  Biso   1.000  C
  C512     1.0000 0.28185  0.37363  0.34297  Biso   1.000  C
  H415     1.0000 0.21716  0.37343  0.39625  Biso   1.000  H
  H416     1.0000 0.26416  0.26514  0.88320  Biso   1.000  H
  H417     1.0000 0.10758  0.69817  0.32901  Biso   1.000  H
  H418     1.0000 0.10756  0.69813  0.32901  Biso   1.000  H
  H419     1.0000 0.37308  0.16727  0.96321  Biso   1.000  H
  H420     1.0000 0.37306  0.16723  0.96321  Biso   1.000  H
  C513     1.0000 0.35957  0.15795  0.13927  Biso   1.000  C
  H421     1.0000 0.33138  0.14476  0.31352  Biso   1.000  H
  H422     1.0000 0.33136  0.14472  0.31352  Biso   1.000  H
  H423     1.0000 0.26850  0.92297  0.31651  Biso   1.000  H
  H424     1.0000 0.26848  0.92293  0.31651  Biso   1.000  H
  H425     1.0000 0.30186  0.40945  0.32901  Biso   1.000  H
  H426     1.0000 0.39456  0.17944  0.16057  Biso   1.000  H
  C514     1.0000 0.83916  0.94027  0.71602  Biso   1.000  C
  C515     1.0000 0.85436  0.99054  0.67941  Biso   1.000  C
  C516     1.0000 0.85434  0.99050  0.67941  Biso   1.000  C
  H427     1.0000 0.82187  0.91275  0.66174  Biso   1.000  H
  C517     1.0000 0.84933  0.93017  0.83309  Biso   1.000  C
  C518     1.0000 0.84931  0.93013  0.83309  Biso   1.000  C
  C519     1.0000 0.83899  0.00104  0.56053  Biso   1.000  C
  C520     1.0000 0.83897  0.00100  0.56053  Biso   1.000  C
  C521     1.0000 0.88026  0.03122  0.76006  Biso   1.000  C
  C522     1.0000 0.87586  0.97210  0.91256  Biso   1.000  C
  C523     1.0000 0.82943  0.87544  0.86906  Biso   1.000  C
  N49      1.0000 0.80812  0.96486  0.49012  Biso   1.000  N
  N50      1.0000 0.80810  0.96482  0.49012  Biso   1.000  N
  H428     1.0000 0.85247  0.03564  0.53625  Biso   1.000  H
  H429     1.0000 0.89066  0.06524  0.73559  Biso   1.000  H
  C524     1.0000 0.89127  0.02218  0.87876  Biso   1.000  C
  C525     1.0000 0.89125  0.02214  0.87876  Biso   1.000  C
  H430     1.0000 0.88327  0.96576  0.99067  Biso   1.000  H
  H431     1.0000 0.88325  0.96572  0.99067  Biso   1.000  H
  N51      1.0000 0.82591  0.86088  0.97852  Biso   1.000  N
  H432     1.0000 0.81898  0.85027  0.80854  Biso   1.000  H
  H433     1.0000 0.81896  0.85023  0.80854  Biso   1.000  H
  C526     1.0000 0.79257  0.98068  0.37767  Biso   1.000  C
  C527     1.0000 0.91558  0.06497  0.96611  Biso   1.000  C
  C528     1.0000 0.91556  0.06493  0.96611  Biso   1.000  C
  C529     1.0000 0.80528  0.80505  0.99909  Biso   1.000  C
  C530     1.0000 0.73339  0.95488  0.37360  Biso   1.000  C
  C531     1.0000 0.81143  0.96204  0.26830  Biso   1.000  C
  H434     1.0000 0.80837  0.01885  0.37532  Biso   1.000  H
  N52      1.0000 0.92500  0.11046  0.94491  Biso   1.000  N
  H435     1.0000 0.92448  0.05796  0.04186  Biso   1.000  H
  H436     1.0000 0.92446  0.05792  0.04186  Biso   1.000  H
  H437     1.0000 0.79186  0.78614  0.92271  Biso   1.000  H
  C532     1.0000 0.85087  0.79816  0.04368  Biso   1.000  C
  C533     1.0000 0.76098  0.78465  0.09215  Biso   1.000  C
  C534     1.0000 0.85085  0.79812  0.04368  Biso   1.000  C
  C535     1.0000 0.70218  0.90304  0.39652  Biso   1.000  C
  C536     1.0000 0.71029  0.98326  0.33962  Biso   1.000  C
  C537     1.0000 0.71027  0.98322  0.33962  Biso   1.000  C
  N53      1.0000 0.86854  0.98906  0.26957  Biso   1.000  N
  H438     1.0000 0.79787  0.92434  0.27582  Biso   1.000  H
  C538     1.0000 0.79088  0.97234  0.15259  Biso   1.000  C
  C539     1.0000 0.94726  0.14914  0.04368  Biso   1.000  C
  N54      1.0000 0.88958  0.81456  0.94491  Biso   1.000  N
  N55      1.0000 0.88956  0.81452  0.94491  Biso   1.000  N
  H439     1.0000 0.86718  0.82075  0.11426  Biso   1.000  H
  C540     1.0000 0.83297  0.74237  0.07756  Biso   1.000  C
  C541     1.0000 0.83295  0.74233  0.07756  Biso   1.000  C
  C542     1.0000 0.76705  0.80853  0.19871  Biso   1.000  C
  C543     1.0000 0.71418  0.73994  0.06660  Biso   1.000  C
  C544     1.0000 0.64787  0.87924  0.38084  Biso   1.000  C
  H440     1.0000 0.71686  0.88323  0.42271  Biso   1.000  H
  C545     1.0000 0.65767  0.96036  0.32575  Biso   1.000  C
  C546     1.0000 0.65765  0.96032  0.32575  Biso   1.000  C
  H441     1.0000 0.73109  0.01897  0.32566  Biso   1.000  H
  H442     1.0000 0.73107  0.01893  0.32566  Biso   1.000  H
  C547     1.0000 0.88951  0.96130  0.27881  Biso   1.000  C
  C548     1.0000 0.88949  0.96126  0.27881  Biso   1.000  C
  C549     1.0000 0.75427  0.93154  0.08264  Biso   1.000  C
  C550     1.0000 0.80747  0.02296  0.11906  Biso   1.000  C
  C551     1.0000 0.80745  0.02292  0.11906  Biso   1.000  C
  C552     1.0000 0.99976  0.19475  0.99909  Biso   1.000  C
  H443     1.0000 0.95359  0.13285  0.11426  Biso   1.000  H
  C553     1.0000 0.90938  0.16703  0.07756  Biso   1.000  C
  H444     1.0000 0.95357  0.13282  0.11426  Biso   1.000  H
  C554     1.0000 0.93507  0.85062  0.96611  Biso   1.000  C
  C555     1.0000 0.81858  0.70443  0.99076  Biso   1.000  C
  C556     1.0000 0.82917  0.72867  0.19627  Biso   1.000  C
  C557     1.0000 0.82915  0.72863  0.19627  Biso   1.000  C
  H445     1.0000 0.79879  0.83837  0.21675  Biso   1.000  H
  C558     1.0000 0.72639  0.78947  0.28407  Biso   1.000  C
  H446     1.0000 0.79877  0.83833  0.21675  Biso   1.000  H
  C559     1.0000 0.72637  0.78943  0.28407  Biso   1.000  C
  H447     1.0000 0.70898  0.72264  0.99302  Biso   1.000  H
  C560     1.0000 0.67470  0.72127  0.15468  Biso   1.000  C
  C561     1.0000 0.67468  0.72123  0.15468  Biso   1.000  C
  C562     1.0000 0.62636  0.90825  0.34297  Biso   1.000  C
  H448     1.0000 0.62657  0.84377  0.39625  Biso   1.000  H
  H449     1.0000 0.62655  0.84373  0.39625  Biso   1.000  H
  H450     1.0000 0.64286  0.98064  0.30410  Biso   1.000  H
  C563     1.0000 0.94600  0.98111  0.27990  Biso   1.000  C
  H451     1.0000 0.86748  0.92524  0.28552  Biso   1.000  H
  H452     1.0000 0.74428  0.89725  0.10357  Biso   1.000  H
  C564     1.0000 0.73229  0.94094  0.98206  Biso   1.000  C
  H453     1.0000 0.83189  0.05056  0.16609  Biso   1.000  H
  C565     1.0000 0.78737  0.03314  0.01250  Biso   1.000  C
  H454     1.0000 0.83187  0.05052  0.16609  Biso   1.000  H
  H455     1.0000 0.99429  0.20814  0.92271  Biso   1.000  H
  N56      1.0000 0.03498  0.17412  0.97852  Biso   1.000  N
  N57      1.0000 0.03496  0.17408  0.97852  Biso   1.000  N
  C566     1.0000 0.02368  0.23907  0.09215  Biso   1.000  C
  C567     1.0000 0.02367  0.23903  0.09215  Biso   1.000  C
  C568     1.0000 0.88586  0.18144  0.99076  Biso   1.000  C
  C569     1.0000 0.89950  0.17087  0.19627  Biso   1.000  C
  C570     1.0000 0.89948  0.17083  0.19627  Biso   1.000  C
  C571     1.0000 0.97787  0.86914  0.87876  Biso   1.000  C
  C572     1.0000 0.97785  0.86910  0.87876  Biso   1.000  C
  H456     1.0000 0.94209  0.86655  0.04186  Biso   1.000  H
  H457     1.0000 0.94207  0.86651  0.04186  Biso   1.000  H
  H458     1.0000 0.81979  0.71336  0.90957  Biso   1.000  H
  H459     1.0000 0.81977  0.71332  0.90957  Biso   1.000  H
  C573     1.0000 0.80218  0.65236  0.02229  Biso   1.000  C
  C574     1.0000 0.80216  0.65232  0.02229  Biso   1.000  C
  H460     1.0000 0.83718  0.75404  0.25516  Biso   1.000  H
  C575     1.0000 0.81357  0.67746  0.23260  Biso   1.000  C
  C576     1.0000 0.81355  0.67742  0.23260  Biso   1.000  C
  H461     1.0000 0.73050  0.80697  0.35674  Biso   1.000  H
  C577     1.0000 0.68127  0.74527  0.25933  Biso   1.000  C
  H462     1.0000 0.73048  0.80693  0.35674  Biso   1.000  H
  C578     1.0000 0.68125  0.74523  0.25933  Biso   1.000  C
  H463     1.0000 0.64297  0.69104  0.13873  Biso   1.000  H
  H464     1.0000 0.59055  0.89243  0.32901  Biso   1.000  H
  C579     1.0000 0.96548  0.94716  0.27972  Biso   1.000  C
  C580     1.0000 0.96546  0.94713  0.27972  Biso   1.000  C
  C581     1.0000 0.98167  0.03455  0.27972  Biso   1.000  C
  C582     1.0000 0.98165  0.03451  0.27972  Biso   1.000  C
  C583     1.0000 0.74968  0.99227  0.95034  Biso   1.000  C
  H465     1.0000 0.70647  0.91346  0.93702  Biso   1.000  H
  C584     1.0000 0.74966  0.99223  0.95034  Biso   1.000  C
  H466     1.0000 0.70645  0.91342  0.93702  Biso   1.000  H
  H467     1.0000 0.79987  0.06736  0.98596  Biso   1.000  H
  H468     1.0000 0.79985  0.06732  0.98596  Biso   1.000  H
  C585     1.0000 0.04600  0.17060  0.86906  Biso   1.000  C
  C586     1.0000 0.04598  0.17056  0.86906  Biso   1.000  C
  C587     1.0000 0.04148  0.23296  0.19871  Biso   1.000  C
  C588     1.0000 0.02578  0.28585  0.06660  Biso   1.000  C
  C589     1.0000 0.04146  0.23292  0.19871  Biso   1.000  C
  C590     1.0000 0.02577  0.28582  0.06660  Biso   1.000  C
  H469     1.0000 0.89358  0.18027  0.90957  Biso   1.000  H
  H470     1.0000 0.89356  0.18023  0.90957  Biso   1.000  H
  C591     1.0000 0.85016  0.19784  0.02229  Biso   1.000  C
  H471     1.0000 0.91688  0.16284  0.25516  Biso   1.000  H
  C592     1.0000 0.86389  0.18645  0.23260  Biso   1.000  C
  C593     1.0000 0.96877  0.84905  0.76006  Biso   1.000  C
  C594     1.0000 0.02791  0.90379  0.91256  Biso   1.000  C
  C595     1.0000 0.02789  0.90375  0.91256  Biso   1.000  C
  H472     1.0000 0.79418  0.62695  0.96321  Biso   1.000  H
  H473     1.0000 0.79417  0.62691  0.96321  Biso   1.000  H
  C596     1.0000 0.79840  0.64046  0.13927  Biso   1.000  C
  C597     1.0000 0.79838  0.64042  0.13927  Biso   1.000  C
  H474     1.0000 0.81337  0.66865  0.31352  Biso   1.000  H
  H475     1.0000 0.65448  0.73156  0.31651  Biso   1.000  H
  H476     1.0000 0.65446  0.73152  0.31651  Biso   1.000  H
  H477     1.0000 0.94207  0.91126  0.27954  Biso   1.000  H
  H478     1.0000 0.94205  0.91122  0.27954  Biso   1.000  H
  C598     1.0000 0.01892  0.96494  0.27990  Biso   1.000  C
  C599     1.0000 0.01890  0.96490  0.27990  Biso   1.000  C
  H479     1.0000 0.96917  0.05796  0.27954  Biso   1.000  H
  H480     1.0000 0.96915  0.05792  0.27954  Biso   1.000  H
  C600     1.0000 0.03511  0.05401  0.27990  Biso   1.000  C
  H481     1.0000 0.73486  0.99904  0.88320  Biso   1.000  H
  C601     1.0000 0.08085  0.15071  0.83309  Biso   1.000  C
  H482     1.0000 0.03126  0.18105  0.80854  Biso   1.000  H
  C602     1.0000 0.08083  0.15067  0.83309  Biso   1.000  C
  H483     1.0000 0.03956  0.20125  0.21675  Biso   1.000  H
  C603     1.0000 0.06308  0.27364  0.28407  Biso   1.000  C
  H484     1.0000 0.01367  0.29106  0.99302  Biso   1.000  H
  H485     1.0000 0.01365  0.29102  0.99302  Biso   1.000  H
  C604     1.0000 0.04659  0.32536  0.15468  Biso   1.000  C
  C605     1.0000 0.04657  0.32532  0.15468  Biso   1.000  C
  H486     1.0000 0.83278  0.20587  0.96321  Biso   1.000  H
  H487     1.0000 0.83276  0.20583  0.96321  Biso   1.000  H
  C606     1.0000 0.84206  0.20164  0.13927  Biso   1.000  C
  H488     1.0000 0.85528  0.18665  0.31352  Biso   1.000  H
  C607     1.0000 0.00950  0.86385  0.67941  Biso   1.000  C
  C608     1.0000 0.00948  0.86381  0.67941  Biso   1.000  C
  H489     1.0000 0.93476  0.82545  0.73559  Biso   1.000  H
  H490     1.0000 0.03429  0.91757  0.99067  Biso   1.000  H
  C609     1.0000 0.06985  0.91917  0.83309  Biso   1.000  C
  H491     1.0000 0.03427  0.91753  0.99067  Biso   1.000  H
  H492     1.0000 0.78490  0.60546  0.16057  Biso   1.000  H
  H493     1.0000 0.78488  0.60542  0.16057  Biso   1.000  H
  C610     1.0000 0.03875  0.92825  0.27881  Biso   1.000  C
  C611     1.0000 0.03873  0.92822  0.27881  Biso   1.000  C
  C612     1.0000 0.05287  0.01834  0.27972  Biso   1.000  C
  C613     1.0000 0.07178  0.11054  0.27881  Biso   1.000  C
  C614     1.0000 0.07176  0.11050  0.27881  Biso   1.000  C
  C615     1.0000 0.09626  0.12416  0.91256  Biso   1.000  C
  C616     1.0000 0.10111  0.16085  0.71602  Biso   1.000  C
  C617     1.0000 0.09624  0.12412  0.91256  Biso   1.000  C
  H494     1.0000 0.07647  0.26957  0.35674  Biso   1.000  H
  C618     1.0000 0.06396  0.31874  0.25933  Biso   1.000  C
  H495     1.0000 0.07645  0.26953  0.35674  Biso   1.000  H
  H496     1.0000 0.04810  0.35707  0.13873  Biso   1.000  H
  H497     1.0000 0.04808  0.35703  0.13873  Biso   1.000  H
  H498     1.0000 0.82057  0.21515  0.16057  Biso   1.000  H
  C619     1.0000 0.99900  0.83797  0.56053  Biso   1.000  C
  C620     1.0000 0.05974  0.89889  0.71602  Biso   1.000  C
  C621     1.0000 0.12456  0.95402  0.86906  Biso   1.000  C
  N58      1.0000 0.01096  0.87951  0.26957  Biso   1.000  N
  H499     1.0000 0.07476  0.94223  0.28552  Biso   1.000  H
  H500     1.0000 0.08877  0.03087  0.27954  Biso   1.000  H
  H501     1.0000 0.08875  0.03083  0.27954  Biso   1.000  H
  N59      1.0000 0.12053  0.13148  0.26957  Biso   1.000  N
  H502     1.0000 0.05776  0.13254  0.28552  Biso   1.000  H
  N60      1.0000 0.12051  0.13145  0.26957  Biso   1.000  N
  C622     1.0000 0.13089  0.10874  0.87876  Biso   1.000  C
  H503     1.0000 0.08249  0.11676  0.99067  Biso   1.000  H
  H504     1.0000 0.08247  0.11672  0.99067  Biso   1.000  H
  C623     1.0000 0.13616  0.14566  0.67941  Biso   1.000  C
  H505     1.0000 0.09087  0.17815  0.66174  Biso   1.000  H
  H506     1.0000 0.07706  0.34556  0.31651  Biso   1.000  H
  H507     1.0000 0.07705  0.34552  0.31651  Biso   1.000  H
  N61      1.0000 0.03516  0.84330  0.49012  Biso   1.000  N
  H508     1.0000 0.96436  0.81683  0.53625  Biso   1.000  H
  H509     1.0000 0.08728  0.90915  0.66174  Biso   1.000  H
  N62      1.0000 0.13914  0.96506  0.97852  Biso   1.000  N
  H510     1.0000 0.14976  0.96874  0.80854  Biso   1.000  H
  C624     1.0000 0.03798  0.84941  0.26830  Biso   1.000  C
  C625     1.0000 0.03796  0.84937  0.26830  Biso   1.000  C
  C626     1.0000 0.15062  0.18860  0.26830  Biso   1.000  C
  C627     1.0000 0.15094  0.11974  0.76006  Biso   1.000  C
  C628     1.0000 0.14941  0.08446  0.96611  Biso   1.000  C
  C629     1.0000 0.16203  0.16104  0.56053  Biso   1.000  C
  C630     1.0000 0.01935  0.81194  0.37767  Biso   1.000  C
  C631     1.0000 0.01933  0.81190  0.37767  Biso   1.000  C
  C632     1.0000 0.19498  0.00025  0.99909  Biso   1.000  C
  H511     1.0000 0.07569  0.87356  0.27582  Biso   1.000  H
  C633     1.0000 0.02767  0.81856  0.15259  Biso   1.000  C
  H512     1.0000 0.07567  0.87352  0.27582  Biso   1.000  H
  C634     1.0000 0.02766  0.81852  0.15259  Biso   1.000  C
  H513     1.0000 0.12647  0.20215  0.27582  Biso   1.000  H
  C635     1.0000 0.18811  0.20744  0.37767  Biso   1.000  C
  C636     1.0000 0.18148  0.20916  0.15259  Biso   1.000  C
  C637     1.0000 0.18146  0.20912  0.15259  Biso   1.000  C
  H514     1.0000 0.17457  0.10936  0.73559  Biso   1.000  H
  H515     1.0000 0.17455  0.10933  0.73559  Biso   1.000  H
  N63      1.0000 0.18548  0.07503  0.94491  Biso   1.000  N
  H516     1.0000 0.13348  0.07554  0.04186  Biso   1.000  H
  N64      1.0000 0.15670  0.19189  0.49012  Biso   1.000  N
  H517     1.0000 0.18318  0.14754  0.53625  Biso   1.000  H
  H518     1.0000 0.98116  0.78955  0.37532  Biso   1.000  H
  C638     1.0000 0.04513  0.77854  0.37360  Biso   1.000  C
  C639     1.0000 0.20187  0.05275  0.04368  Biso   1.000  C
  C640     1.0000 0.20185  0.05271  0.04368  Biso   1.000  C
  C641     1.0000 0.21536  0.97633  0.09215  Biso   1.000  C
  H519     1.0000 0.21386  0.00573  0.92271  Biso   1.000  H
  C642     1.0000 0.97706  0.78453  0.11906  Biso   1.000  C
  C643     1.0000 0.06849  0.82274  0.08264  Biso   1.000  C
  H520     1.0000 0.21046  0.19166  0.37532  Biso   1.000  H
  C644     1.0000 0.22147  0.26663  0.37360  Biso   1.000  C
  H521     1.0000 0.21044  0.19162  0.37532  Biso   1.000  H
  C645     1.0000 0.22145  0.26659  0.37360  Biso   1.000  C
  C646     1.0000 0.21549  0.19256  0.11906  Biso   1.000  C
  C647     1.0000 0.17727  0.24576  0.08264  Biso   1.000  C
  C648     1.0000 0.21547  0.19252  0.11906  Biso   1.000  C
  C649     1.0000 0.17725  0.24573  0.08264  Biso   1.000  C
  C650     1.0000 0.01678  0.72706  0.33962  Biso   1.000  C
  C651     1.0000 0.09696  0.79914  0.39652  Biso   1.000  C
  C652     1.0000 0.01676  0.72702  0.33962  Biso   1.000  C
  H522     1.0000 0.17929  0.04645  0.11426  Biso   1.000  H
  C653     1.0000 0.25767  0.09065  0.07756  Biso   1.000  C
  C654     1.0000 0.19149  0.95856  0.19871  Biso   1.000  C
  C655     1.0000 0.26007  0.97426  0.06660  Biso   1.000  C
  C656     1.0000 0.19147  0.95852  0.19871  Biso   1.000  C
  C657     1.0000 0.26005  0.97422  0.06660  Biso   1.000  C
  C658     1.0000 0.96686  0.75423  0.01250  Biso   1.000  C
  H523     1.0000 0.94947  0.78136  0.16609  Biso   1.000  H
  H524     1.0000 0.94945  0.78132  0.16609  Biso   1.000  H
  C659     1.0000 0.05906  0.79135  0.98206  Biso   1.000  C
  H525     1.0000 0.10279  0.84706  0.10357  Biso   1.000  H
  H526     1.0000 0.10277  0.84702  0.10357  Biso   1.000  H
  C660     1.0000 0.27298  0.28977  0.33962  Biso   1.000  C
  C661     1.0000 0.20086  0.29783  0.39652  Biso   1.000  C
  C662     1.0000 0.27296  0.28973  0.33962  Biso   1.000  C
  H527     1.0000 0.21869  0.16817  0.16609  Biso   1.000  H
  C663     1.0000 0.24577  0.21264  0.01250  Biso   1.000  C
  H528     1.0000 0.21867  0.16813  0.16609  Biso   1.000  H
  C664     1.0000 0.20868  0.26777  0.98206  Biso   1.000  C
  C665     1.0000 0.20866  0.26773  0.98206  Biso   1.000  C
  H529     1.0000 0.15296  0.25575  0.10357  Biso   1.000  H
  H530     1.0000 0.98108  0.71214  0.32566  Biso   1.000  H
  C666     1.0000 0.03966  0.69735  0.32575  Biso   1.000  C
  C667     1.0000 0.12077  0.76864  0.38084  Biso   1.000  C
  H531     1.0000 0.11677  0.83367  0.42271  Biso   1.000  H
  H532     1.0000 0.11675  0.83363  0.42271  Biso   1.000  H
  C668     1.0000 0.29556  0.11414  0.99076  Biso   1.000  C
  C669     1.0000 0.27137  0.10056  0.19627  Biso   1.000  C
  C670     1.0000 0.27135  0.10052  0.19627  Biso   1.000  C
  H533     1.0000 0.16168  0.96044  0.21675  Biso   1.000  H
  C671     1.0000 0.21056  0.93695  0.28407  Biso   1.000  C
  H534     1.0000 0.27737  0.98635  0.99302  Biso   1.000  H
  H535     1.0000 0.27735  0.98631  0.99302  Biso   1.000  H
  C672     1.0000 0.27880  0.95347  0.15468  Biso   1.000  C
  C673     1.0000 0.27878  0.95343  0.15468  Biso   1.000  C
  H536     1.0000 0.93266  0.73254  0.98596  Biso   1.000  H
  C674     1.0000 0.00776  0.75744  0.95034  Biso   1.000  C
  H537     1.0000 0.08657  0.79307  0.93702  Biso   1.000  H
  H538     1.0000 0.08655  0.79303  0.93702  Biso   1.000  H
  H539     1.0000 0.28786  0.26894  0.32566  Biso   1.000  H
  C675     1.0000 0.30266  0.34235  0.32575  Biso   1.000  C
  C676     1.0000 0.23137  0.35214  0.38084  Biso   1.000  C
  H540     1.0000 0.16636  0.28315  0.42271  Biso   1.000  H
  H541     1.0000 0.26747  0.20015  0.98596  Biso   1.000  H
  C677     1.0000 0.24259  0.25034  0.95034  Biso   1.000  C
  H542     1.0000 0.26745  0.20011  0.98596  Biso   1.000  H
  H543     1.0000 0.20700  0.29357  0.93702  Biso   1.000  H
  H544     1.0000 0.20698  0.29353  0.93702  Biso   1.000  H
  H545     1.0000 0.01938  0.66227  0.30410  Biso   1.000  H
  C678     1.0000 0.09176  0.71813  0.34297  Biso   1.000  C
  H546     1.0000 0.01936  0.66223  0.30410  Biso   1.000  H
  H547     1.0000 0.15626  0.78285  0.39625  Biso   1.000  H
  H548     1.0000 0.28667  0.10647  0.90957  Biso   1.000  H
  H549     1.0000 0.28665  0.10643  0.90957  Biso   1.000  H
  C679     1.0000 0.34766  0.14985  0.02229  Biso   1.000  C
  H550     1.0000 0.24598  0.08313  0.25516  Biso   1.000  H
  C680     1.0000 0.32256  0.13614  0.23260  Biso   1.000  C
  H551     1.0000 0.19308  0.92356  0.35674  Biso   1.000  H
  C681     1.0000 0.25476  0.93605  0.25933  Biso   1.000  C
  H552     1.0000 0.19306  0.92352  0.35674  Biso   1.000  H
  H553     1.0000 0.30899  0.95194  0.13873  Biso   1.000  H
  H554     1.0000 0.00098  0.73587  0.88320  Biso   1.000  H
  H555     1.0000 0.00096  0.73583  0.88320  Biso   1.000  H
  H556     1.0000 0.33776  0.35715  0.30410  Biso   1.000  H
  C682     1.0000 0.28187  0.37367  0.34297  Biso   1.000  C
  C683     1.0000 0.28185  0.37363  0.34297  Biso   1.000  C
  H557     1.0000 0.21716  0.37343  0.39625  Biso   1.000  H
  H558     1.0000 0.26416  0.26514  0.88320  Biso   1.000  H
  H559     1.0000 0.10758  0.69817  0.32901  Biso   1.000  H
  H560     1.0000 0.10756  0.69813  0.32901  Biso   1.000  H
  H561     1.0000 0.37308  0.16727  0.96321  Biso   1.000  H
  H562     1.0000 0.37306  0.16723  0.96321  Biso   1.000  H
  C684     1.0000 0.35957  0.15795  0.13927  Biso   1.000  C
  H563     1.0000 0.33138  0.14476  0.31352  Biso   1.000  H
  H564     1.0000 0.33136  0.14472  0.31352  Biso   1.000  H
  H565     1.0000 0.26850  0.92297  0.31651  Biso   1.000  H
  H566     1.0000 0.26848  0.92293  0.31651  Biso   1.000  H
  H567     1.0000 0.30186  0.40945  0.32901  Biso   1.000  H
  H568     1.0000 0.39456  0.17944  0.16057  Biso   1.000  H
  C685     1.0000 0.68097  0.81648  0.68902  Biso   1.000  C
  C686     1.0000 0.62890  0.78081  0.65739  Biso   1.000  C
  C687     1.0000 0.69289  0.82458  0.80591  Biso   1.000  C
  H569     1.0000 0.70640  0.83390  0.62994  Biso   1.000  H
  C688     1.0000 0.59099  0.75729  0.74420  Biso   1.000  C
  H570     1.0000 0.61999  0.77310  0.57621  Biso   1.000  H
  C689     1.0000 0.65590  0.80282  0.89933  Biso   1.000  C
  H571     1.0000 0.72790  0.84612  0.82720  Biso   1.000  H
  C690     1.0000 0.53519  0.71939  0.71031  Biso   1.000  C
  C691     1.0000 0.60469  0.76719  0.86290  Biso   1.000  C
  H572     1.0000 0.66470  0.81139  0.98016  Biso   1.000  H
  C692     1.0000 0.52830  0.66689  0.66582  Biso   1.000  C
  N65      1.0000 0.51881  0.74170  0.61163  Biso   1.000  N
  H573     1.0000 0.51261  0.71308  0.78090  Biso   1.000  H
  H574     1.0000 0.57932  0.74981  0.92180  Biso   1.000  H
  N66      1.0000 0.47245  0.63169  0.64516  Biso   1.000  N
  H575     1.0000 0.54720  0.67241  0.58943  Biso   1.000  H
  C693     1.0000 0.54870  0.64301  0.75879  Biso   1.000  C
  C694     1.0000 0.48274  0.75114  0.63284  Biso   1.000  C
  C695     1.0000 0.45788  0.62065  0.53570  Biso   1.000  C
  C696     1.0000 0.52481  0.62519  0.86544  Biso   1.000  C
  C697     1.0000 0.59338  0.64089  0.73333  Biso   1.000  C
  C698     1.0000 0.46423  0.77541  0.54540  Biso   1.000  C
  H576     1.0000 0.46682  0.74221  0.70850  Biso   1.000  H
  C699     1.0000 0.40318  0.58585  0.49982  Biso   1.000  C
  H577     1.0000 0.48309  0.63541  0.47517  Biso   1.000  H
  H578     1.0000 0.49502  0.62711  0.88338  Biso   1.000  H
  C700     1.0000 0.54387  0.60358  0.95071  Biso   1.000  C
  C701     1.0000 0.61211  0.62010  0.82131  Biso   1.000  C
  H579     1.0000 0.61069  0.65299  0.65966  Biso   1.000  H
  C702     1.0000 0.48428  0.78641  0.42669  Biso   1.000  C
  C703     1.0000 0.42958  0.79080  0.57920  Biso   1.000  C
  C704     1.0000 0.39308  0.56557  0.38266  Biso   1.000  C
  C705     1.0000 0.36123  0.57042  0.57920  Biso   1.000  C
  C706     1.0000 0.58808  0.60268  0.92597  Biso   1.000  C
  H580     1.0000 0.52640  0.59019  0.02338  Biso   1.000  H
  H581     1.0000 0.64232  0.61861  0.80536  Biso   1.000  H
  C707     1.0000 0.46950  0.81233  0.34614  Biso   1.000  C
  H582     1.0000 0.50789  0.77600  0.40232  Biso   1.000  H
  H583     1.0000 0.41581  0.78340  0.65730  Biso   1.000  H
  C708     1.0000 0.41416  0.81734  0.49982  Biso   1.000  C
  C709     1.0000 0.34282  0.53049  0.34614  Biso   1.000  C
  H584     1.0000 0.42060  0.57578  0.32838  Biso   1.000  H
  C710     1.0000 0.31118  0.53577  0.54540  Biso   1.000  C
  H585     1.0000 0.36761  0.58420  0.65730  Biso   1.000  H
  H586     1.0000 0.60181  0.58960  0.98324  Biso   1.000  H
  C711     1.0000 0.49537  0.82772  0.22717  Biso   1.000  C
  C712     1.0000 0.43444  0.82752  0.38266  Biso   1.000  C
  C713     1.0000 0.37932  0.83723  0.53570  Biso   1.000  C
  C714     1.0000 0.33234  0.50465  0.22717  Biso   1.000  C
  C715     1.0000 0.30211  0.51573  0.42669  Biso   1.000  C
  C716     1.0000 0.26841  0.51729  0.63284  Biso   1.000  C
  N67      1.0000 0.49004  0.85857  0.15676  Biso   1.000  N
  H587     1.0000 0.51652  0.81421  0.20288  Biso   1.000  H
  H588     1.0000 0.42419  0.84479  0.32838  Biso   1.000  H
  N68      1.0000 0.36830  0.84075  0.64516  Biso   1.000  N
  H589     1.0000 0.36458  0.84768  0.47517  Biso   1.000  H
  N69      1.0000 0.36848  0.50993  0.15676  Biso   1.000  N
  H590     1.0000 0.29770  0.48351  0.20288  Biso   1.000  H
  H591     1.0000 0.26808  0.49208  0.40232  Biso   1.000  H
  N70      1.0000 0.22290  0.48120  0.61163  Biso   1.000  N
  H592     1.0000 0.27541  0.53319  0.70850  Biso   1.000  H
  C717     1.0000 0.52145  0.87411  0.04431  Biso   1.000  C
  C718     1.0000 0.33308  0.86139  0.66582  Biso   1.000  C
  C719     1.0000 0.35267  0.47857  0.04431  Biso   1.000  C
  C720     1.0000 0.18418  0.46479  0.71031  Biso   1.000  C
  C721     1.0000 0.48396  0.85528  0.93503  Biso   1.000  C
  H593     1.0000 0.54378  0.85829  0.04204  Biso   1.000  H
  C722     1.0000 0.55479  0.93327  0.04032  Biso   1.000  C
  C723     1.0000 0.28059  0.81582  0.71031  Biso   1.000  C
  H594     1.0000 0.32762  0.87481  0.58943  Biso   1.000  H
  C724     1.0000 0.35700  0.90570  0.75879  Biso   1.000  C
  C725     1.0000 0.37847  0.44522  0.04032  Biso   1.000  C
  H595     1.0000 0.31450  0.45622  0.04204  Biso   1.000  H
  C726     1.0000 0.37130  0.51604  0.93503  Biso   1.000  C
  C727     1.0000 0.13860  0.47168  0.66582  Biso   1.000  C
  H596     1.0000 0.20050  0.48738  0.78090  Biso   1.000  H
  C728     1.0000 0.16629  0.40900  0.74420  Biso   1.000  C
  N71      1.0000 0.45385  0.79812  0.93621  Biso   1.000  N
  H597     1.0000 0.45979  0.86879  0.94246  Biso   1.000  H
  C729     1.0000 0.51479  0.87579  0.81932  Biso   1.000  C
  C730     1.0000 0.60630  0.95640  0.00634  Biso   1.000  C
  C731     1.0000 0.53420  0.96451  0.06316  Biso   1.000  C
  N72      1.0000 0.25832  0.77710  0.61163  Biso   1.000  N
  H598     1.0000 0.28691  0.79949  0.78090  Biso   1.000  H
  C732     1.0000 0.24272  0.83371  0.74420  Biso   1.000  C
  C733     1.0000 0.37480  0.89960  0.86544  Biso   1.000  C
  C734     1.0000 0.35910  0.95249  0.73333  Biso   1.000  C
  C735     1.0000 0.35010  0.39370  0.00634  Biso   1.000  C
  C736     1.0000 0.43030  0.46581  0.06316  Biso   1.000  C
  N73      1.0000 0.34427  0.54615  0.93621  Biso   1.000  N
  H599     1.0000 0.40901  0.54020  0.94246  Biso   1.000  H
  C737     1.0000 0.36099  0.48519  0.81932  Biso   1.000  C
  N74      1.0000 0.15923  0.52751  0.64516  Biso   1.000  N
  H600     1.0000 0.12520  0.45281  0.58943  Biso   1.000  H
  C738     1.0000 0.09429  0.45129  0.75879  Biso   1.000  C
  C739     1.0000 0.16249  0.39530  0.86290  Biso   1.000  C
  C740     1.0000 0.15192  0.37111  0.65739  Biso   1.000  C
  C741     1.0000 0.40510  0.77717  0.94554  Biso   1.000  C
  C742     1.0000 0.54881  0.85919  0.78570  Biso   1.000  C
  C743     1.0000 0.51058  0.91240  0.74928  Biso   1.000  C
  H601     1.0000 0.62119  0.93562  0.99230  Biso   1.000  H
  C744     1.0000 0.63598  0.00898  0.99239  Biso   1.000  C
  H602     1.0000 0.49968  0.94979  0.08943  Biso   1.000  H
  C745     1.0000 0.56470  0.01881  0.04748  Biso   1.000  C
  C746     1.0000 0.24890  0.73160  0.63284  Biso   1.000  C
  C747     1.0000 0.23282  0.83750  0.86290  Biso   1.000  C
  C748     1.0000 0.21920  0.84811  0.65739  Biso   1.000  C
  H603     1.0000 0.37288  0.86789  0.88338  Biso   1.000  H
  C749     1.0000 0.39641  0.94031  0.95071  Biso   1.000  C
  C750     1.0000 0.37990  0.99199  0.82131  Biso   1.000  C
  H604     1.0000 0.34699  0.95770  0.65966  Biso   1.000  H
  H605     1.0000 0.31442  0.37882  0.99230  Biso   1.000  H
  C751     1.0000 0.37298  0.36398  0.99239  Biso   1.000  C
  C752     1.0000 0.45411  0.43531  0.04748  Biso   1.000  C
  H606     1.0000 0.45009  0.50030  0.08943  Biso   1.000  H
  C753     1.0000 0.37207  0.59489  0.94554  Biso   1.000  C
  C754     1.0000 0.31040  0.45121  0.78570  Biso   1.000  C
  C755     1.0000 0.40183  0.48942  0.74928  Biso   1.000  C
  C756     1.0000 0.16276  0.54211  0.53570  Biso   1.000  C
  C757     1.0000 0.10039  0.47521  0.86544  Biso   1.000  C
  C758     1.0000 0.04751  0.40662  0.73333  Biso   1.000  C
  H607     1.0000 0.17052  0.42071  0.92180  Biso   1.000  H
  C759     1.0000 0.14689  0.34409  0.89933  Biso   1.000  C
  C760     1.0000 0.13549  0.31900  0.68902  Biso   1.000  C
  H608     1.0000 0.15311  0.37999  0.57621  Biso   1.000  H
  C761     1.0000 0.36844  0.72068  0.94663  Biso   1.000  C
  H609     1.0000 0.39110  0.79922  0.95216  Biso   1.000  H
  H610     1.0000 0.55201  0.83480  0.83282  Biso   1.000  H
  C762     1.0000 0.57911  0.87932  0.67923  Biso   1.000  C
  C763     1.0000 0.54200  0.93440  0.64870  Biso   1.000  C
  H611     1.0000 0.48628  0.92238  0.77021  Biso   1.000  H
  H612     1.0000 0.67108  0.02378  0.97082  Biso   1.000  H
  C764     1.0000 0.61519  0.04030  0.00960  Biso   1.000  C
  H613     1.0000 0.55050  0.04011  0.06289  Biso   1.000  H
  C765     1.0000 0.22458  0.68881  0.54540  Biso   1.000  C
  H614     1.0000 0.25780  0.72459  0.70850  Biso   1.000  H
  H615     1.0000 0.25022  0.82952  0.92180  Biso   1.000  H
  C766     1.0000 0.19721  0.85309  0.89933  Biso   1.000  C
  C767     1.0000 0.18350  0.86452  0.68902  Biso   1.000  C
  H616     1.0000 0.22690  0.84690  0.57621  Biso   1.000  H
  C768     1.0000 0.39730  0.98541  0.92597  Biso   1.000  C
  H617     1.0000 0.40978  0.93620  0.02338  Biso   1.000  H
  H618     1.0000 0.38142  0.02370  0.80536  Biso   1.000  H
  C769     1.0000 0.42510  0.38481  0.00960  Biso   1.000  C
  H619     1.0000 0.35269  0.32890  0.97082  Biso   1.000  H
  H620     1.0000 0.48958  0.44949  0.06289  Biso   1.000  H
  C770     1.0000 0.35223  0.63157  0.94663  Biso   1.000  C
  H621     1.0000 0.40810  0.60891  0.95216  Biso   1.000  H
  H622     1.0000 0.28279  0.44800  0.83282  Biso   1.000  H
  C771     1.0000 0.30020  0.42091  0.67923  Biso   1.000  C
  C772     1.0000 0.39238  0.45798  0.64870  Biso   1.000  C
  H623     1.0000 0.43610  0.51369  0.77021  Biso   1.000  H
  C773     1.0000 0.18265  0.59681  0.49982  Biso   1.000  C
  H624     1.0000 0.15229  0.51690  0.47517  Biso   1.000  H
  H625     1.0000 0.13210  0.50500  0.88338  Biso   1.000  H
  C774     1.0000 0.05971  0.45610  0.95071  Biso   1.000  C
  C775     1.0000 0.00801  0.38790  0.82131  Biso   1.000  C
  H626     1.0000 0.04232  0.38931  0.65966  Biso   1.000  H
  H627     1.0000 0.14669  0.33528  0.98016  Biso   1.000  H
  C776     1.0000 0.13171  0.30710  0.80591  Biso   1.000  C
  H628     1.0000 0.12750  0.29359  0.62994  Biso   1.000  H
  C777     1.0000 0.38621  0.68501  0.94636  Biso   1.000  C
  C778     1.0000 0.31499  0.70118  0.94636  Biso   1.000  C
  H629     1.0000 0.60078  0.86679  0.65259  Biso   1.000  H
  C779     1.0000 0.57592  0.91702  0.61698  Biso   1.000  C
  H630     1.0000 0.54032  0.96020  0.60366  Biso   1.000  H
  H631     1.0000 0.63518  0.07609  0.99574  Biso   1.000  H
  C780     1.0000 0.20920  0.63878  0.57920  Biso   1.000  C
  C781     1.0000 0.21360  0.69789  0.42669  Biso   1.000  C
  H632     1.0000 0.18859  0.85328  0.98016  Biso   1.000  H
  C782     1.0000 0.17539  0.86832  0.80591  Biso   1.000  C
  H633     1.0000 0.16610  0.87250  0.62994  Biso   1.000  H
  H634     1.0000 0.41038  0.01219  0.98324  Biso   1.000  H
  H635     1.0000 0.44089  0.36480  0.99574  Biso   1.000  H
  C783     1.0000 0.29880  0.61380  0.94636  Biso   1.000  C
  H636     1.0000 0.26599  0.39922  0.65259  Biso   1.000  H
  C784     1.0000 0.34110  0.42412  0.61698  Biso   1.000  C
  H637     1.0000 0.41989  0.45970  0.60366  Biso   1.000  H
  C785     1.0000 0.17250  0.60695  0.38266  Biso   1.000  C
  C786     1.0000 0.01459  0.41190  0.92597  Biso   1.000  C
  H638     1.0000 0.06382  0.47360  0.02338  Biso   1.000  H
  H639     1.0000 0.97631  0.35772  0.80536  Biso   1.000  H
  H640     1.0000 0.11821  0.27209  0.82720  Biso   1.000  H
  H641     1.0000 0.42209  0.69750  0.94618  Biso   1.000  H
  C787     1.0000 0.27932  0.64774  0.94663  Biso   1.000  C
  H642     1.0000 0.30249  0.72459  0.94618  Biso   1.000  H
  H643     1.0000 0.59749  0.93182  0.54993  Biso   1.000  H
  H644     1.0000 0.21658  0.63240  0.65730  Biso   1.000  H
  C788     1.0000 0.18768  0.65718  0.34614  Biso   1.000  C
  H645     1.0000 0.22400  0.73192  0.40232  Biso   1.000  H
  H646     1.0000 0.15388  0.88178  0.82720  Biso   1.000  H
  H647     1.0000 0.27539  0.57790  0.94618  Biso   1.000  H
  H648     1.0000 0.33430  0.40250  0.54993  Biso   1.000  H
  H649     1.0000 0.15519  0.57939  0.32838  Biso   1.000  H
  H650     1.0000 0.98780  0.39820  0.98324  Biso   1.000  H
  C789     1.0000 0.22283  0.62793  0.94554  Biso   1.000  C
  C790     1.0000 0.17231  0.66767  0.22717  Biso   1.000  C
  N75      1.0000 0.20187  0.65573  0.93621  Biso   1.000  N
  H651     1.0000 0.20082  0.59191  0.95216  Biso   1.000  H
  N76      1.0000 0.14144  0.63150  0.15676  Biso   1.000  N
  H652     1.0000 0.18580  0.70232  0.20288  Biso   1.000  H
  C791     1.0000 0.14474  0.62868  0.93503  Biso   1.000  C
  C792     1.0000 0.12589  0.64731  0.04431  Biso   1.000  C
  H653     1.0000 0.13120  0.59101  0.94246  Biso   1.000  H
  C793     1.0000 0.12421  0.63901  0.81932  Biso   1.000  C
  H654     1.0000 0.14168  0.68548  0.04204  Biso   1.000  H
  C794     1.0000 0.06671  0.62151  0.04032  Biso   1.000  C
  C795     1.0000 0.14079  0.68959  0.78570  Biso   1.000  C
  C796     1.0000 0.08761  0.59822  0.74928  Biso   1.000  C
  C797     1.0000 0.04360  0.64990  0.00634  Biso   1.000  C
  C798     1.0000 0.03552  0.56972  0.06316  Biso   1.000  C
  H655     1.0000 0.16520  0.71720  0.83282  Biso   1.000  H
  C799     1.0000 0.12071  0.69981  0.67923  Biso   1.000  C
  C800     1.0000 0.06562  0.60761  0.64870  Biso   1.000  C
  H656     1.0000 0.07759  0.56388  0.77021  Biso   1.000  H
  C801     1.0000 0.99099  0.62699  0.99239  Biso   1.000  C
  H657     1.0000 0.06440  0.68560  0.99230  Biso   1.000  H
  H658     1.0000 0.05020  0.54991  0.08943  Biso   1.000  H
  C802     1.0000 0.98120  0.54591  0.04748  Biso   1.000  C
  H659     1.0000 0.13319  0.73399  0.65259  Biso   1.000  H
  C803     1.0000 0.08299  0.65890  0.61698  Biso   1.000  C
  H660     1.0000 0.03979  0.58009  0.60366  Biso   1.000  H
  H661     1.0000 0.97620  0.64731  0.97082  Biso   1.000  H
  C804     1.0000 0.95968  0.57488  0.00960  Biso   1.000  C
  H662     1.0000 0.95989  0.51040  0.06289  Biso   1.000  H
  H663     1.0000 0.06819  0.66571  0.54993  Biso   1.000  H
  H664     1.0000 0.92389  0.55911  0.99574  Biso   1.000  H
  C805     1.0000 0.71324  0.65867  0.48795  Biso   1.000  C
  C806     1.0000 0.69244  0.61916  0.39996  Biso   1.000  C
  C807     1.0000 0.73062  0.65205  0.59270  Biso   1.000  C
  H665     1.0000 0.71476  0.69038  0.47209  Biso   1.000  H
  C808     1.0000 0.69034  0.57238  0.42543  Biso   1.000  C
  H666     1.0000 0.68033  0.62437  0.32639  Biso   1.000  H
  C809     1.0000 0.72973  0.60695  0.61734  Biso   1.000  C
  H667     1.0000 0.74372  0.67887  0.64987  Biso   1.000  H
  C810     1.0000 0.66642  0.52806  0.33246  Biso   1.000  C
  C811     1.0000 0.70814  0.56627  0.53208  Biso   1.000  C
  H668     1.0000 0.74312  0.60288  0.69011  Biso   1.000  H
  C812     1.0000 0.61391  0.48245  0.37695  Biso   1.000  C
  N77      1.0000 0.70164  0.50743  0.31189  Biso   1.000  N
  H669     1.0000 0.66094  0.54145  0.25607  Biso   1.000  H
  H670     1.0000 0.70622  0.53456  0.55011  Biso   1.000  H
  N78      1.0000 0.59165  0.44377  0.27827  Biso   1.000  N
  H671     1.0000 0.62025  0.46616  0.44754  Biso   1.000  H
  C813     1.0000 0.57605  0.50038  0.41084  Biso   1.000  C
  C814     1.0000 0.71266  0.50390  0.20234  Biso   1.000  C
  C815     1.0000 0.58223  0.39828  0.29947  Biso   1.000  C
  C816     1.0000 0.56615  0.50418  0.52954  Biso   1.000  C
  C817     1.0000 0.55252  0.51475  0.32403  Biso   1.000  C
  C818     1.0000 0.74750  0.48402  0.16646  Biso   1.000  C
  H672     1.0000 0.69791  0.51436  0.14190  Biso   1.000  H
  C819     1.0000 0.55792  0.35549  0.21203  Biso   1.000  C
  H673     1.0000 0.59114  0.39127  0.37514  Biso   1.000  H
  H674     1.0000 0.58353  0.49615  0.58844  Biso   1.000  H
  C820     1.0000 0.53055  0.51976  0.56597  Biso   1.000  C
  C821     1.0000 0.51681  0.53115  0.35565  Biso   1.000  C
  H675     1.0000 0.56024  0.51357  0.24284  Biso   1.000  H
  C822     1.0000 0.76291  0.45747  0.24583  Biso   1.000  C
  C823     1.0000 0.76778  0.49419  0.04938  Biso   1.000  C
  C824     1.0000 0.54691  0.36453  0.09333  Biso   1.000  C
  C825     1.0000 0.54253  0.30545  0.24583  Biso   1.000  C
  H676     1.0000 0.52193  0.51996  0.64688  Biso   1.000  H
  C826     1.0000 0.50871  0.53495  0.47254  Biso   1.000  C
  H677     1.0000 0.49943  0.53918  0.29657  Biso   1.000  H
  C827     1.0000 0.79757  0.44209  0.21203  Biso   1.000  C
  H678     1.0000 0.74914  0.45007  0.32394  Biso   1.000  H
  C828     1.0000 0.80284  0.47900  0.01278  Biso   1.000  C
  H679     1.0000 0.75753  0.51146  0.99511  Biso   1.000  H
  C829     1.0000 0.52102  0.32385  0.01278  Biso   1.000  C
  H680     1.0000 0.55731  0.39855  0.06896  Biso   1.000  H
  C830     1.0000 0.51599  0.26348  0.16646  Biso   1.000  C
  H681     1.0000 0.54992  0.29907  0.32394  Biso   1.000  H
  H682     1.0000 0.48722  0.54846  0.49384  Biso   1.000  H
  C831     1.0000 0.81759  0.45305  0.09333  Biso   1.000  C
  C832     1.0000 0.81606  0.41777  0.29947  Biso   1.000  C
  C833     1.0000 0.82868  0.49435  0.89389  Biso   1.000  C
  C834     1.0000 0.50584  0.27362  0.04938  Biso   1.000  C
  C835     1.0000 0.50565  0.33434  0.89389  Biso   1.000  C
  C836     1.0000 0.49608  0.20875  0.20234  Biso   1.000  C
  H683     1.0000 0.84123  0.44267  0.06896  Biso   1.000  H
  N79      1.0000 0.85213  0.40834  0.27827  Biso   1.000  N
  H684     1.0000 0.80014  0.40885  0.37514  Biso   1.000  H
  N80      1.0000 0.82336  0.52520  0.82349  Biso   1.000  N
  H685     1.0000 0.84985  0.48088  0.86961  Biso   1.000  H
  H686     1.0000 0.48853  0.24606  0.99511  Biso   1.000  H
  N81      1.0000 0.47478  0.29817  0.82349  Biso   1.000  N
  H687     1.0000 0.51912  0.36895  0.86961  Biso   1.000  H
  N82      1.0000 0.49256  0.19419  0.31189  Biso   1.000  N
  H688     1.0000 0.48563  0.18358  0.14190  Biso   1.000  H
  C837     1.0000 0.86852  0.38606  0.37695  Biso   1.000  C
  C838     1.0000 0.85478  0.54078  0.71095  Biso   1.000  C
  C839     1.0000 0.45922  0.31399  0.71095  Biso   1.000  C
  C840     1.0000 0.47194  0.13836  0.33246  Biso   1.000  C
  C841     1.0000 0.86163  0.33356  0.33246  Biso   1.000  C
  H689     1.0000 0.84594  0.37976  0.44754  Biso   1.000  H
  C842     1.0000 0.92433  0.42396  0.41084  Biso   1.000  C
  C843     1.0000 0.81727  0.52191  0.60167  Biso   1.000  C
  H690     1.0000 0.87712  0.52497  0.70868  Biso   1.000  H
  C844     1.0000 0.88812  0.59994  0.70696  Biso   1.000  C
  C845     1.0000 0.47808  0.29535  0.60167  Biso   1.000  C
  H691     1.0000 0.47502  0.35216  0.70868  Biso   1.000  H
  C846     1.0000 0.40004  0.28819  0.70696  Biso   1.000  C
  H692     1.0000 0.45852  0.11945  0.25607  Biso   1.000  H
  C847     1.0000 0.51752  0.13147  0.37695  Biso   1.000  C
  C848     1.0000 0.42763  0.11796  0.42543  Biso   1.000  C
  N83      1.0000 0.80579  0.29836  0.31189  Biso   1.000  N
  H693     1.0000 0.88053  0.33908  0.25607  Biso   1.000  H
  C849     1.0000 0.88204  0.30968  0.42543  Biso   1.000  C
  C850     1.0000 0.93803  0.43386  0.52954  Biso   1.000  C
  C851     1.0000 0.96221  0.44745  0.32403  Biso   1.000  C
  N84      1.0000 0.78719  0.46479  0.60285  Biso   1.000  N
  H694     1.0000 0.79312  0.53546  0.60919  Biso   1.000  H
  C852     1.0000 0.84813  0.54247  0.48596  Biso   1.000  C
  C853     1.0000 0.93963  0.62308  0.67298  Biso   1.000  C
  C854     1.0000 0.86753  0.63118  0.72988  Biso   1.000  C
  N85      1.0000 0.53521  0.32240  0.60285  Biso   1.000  N
  H695     1.0000 0.46452  0.25765  0.60919  Biso   1.000  H
  C855     1.0000 0.45755  0.30569  0.48596  Biso   1.000  C
  C856     1.0000 0.37694  0.31657  0.67298  Biso   1.000  C
  C857     1.0000 0.36884  0.23635  0.72988  Biso   1.000  C
  N86      1.0000 0.55624  0.14787  0.27827  Biso   1.000  N
  H696     1.0000 0.53383  0.15406  0.44754  Biso   1.000  H
  C858     1.0000 0.49963  0.07568  0.41084  Biso   1.000  C
  C859     1.0000 0.43373  0.14188  0.53208  Biso   1.000  C
  C860     1.0000 0.38083  0.07325  0.39996  Biso   1.000  C
  C861     1.0000 0.79122  0.28732  0.20234  Biso   1.000  C
  C862     1.0000 0.85815  0.29187  0.53208  Biso   1.000  C
  C863     1.0000 0.92672  0.30757  0.39996  Biso   1.000  C
  H697     1.0000 0.91266  0.41648  0.58844  Biso   1.000  H
  C864     1.0000 0.98922  0.46945  0.56597  Biso   1.000  C
  H698     1.0000 0.95333  0.43978  0.24284  Biso   1.000  H
  C865     1.0000 0.01431  0.48315  0.35565  Biso   1.000  C
  C866     1.0000 0.73844  0.44385  0.61218  Biso   1.000  C
  C867     1.0000 0.88214  0.52587  0.45234  Biso   1.000  C
  C868     1.0000 0.84392  0.57907  0.41600  Biso   1.000  C
  H699     1.0000 0.95451  0.60225  0.65893  Biso   1.000  H
  C869     1.0000 0.96931  0.67566  0.65903  Biso   1.000  C
  C870     1.0000 0.89804  0.68548  0.71421  Biso   1.000  C
  H700     1.0000 0.83302  0.61646  0.75607  Biso   1.000  H
  C871     1.0000 0.55617  0.29461  0.61218  Biso   1.000  C
  C872     1.0000 0.47413  0.35627  0.45234  Biso   1.000  C
  C873     1.0000 0.42093  0.26485  0.41600  Biso   1.000  C
  H701     1.0000 0.39774  0.35227  0.65893  Biso   1.000  H
  C874     1.0000 0.32433  0.29367  0.65903  Biso   1.000  C
  C875     1.0000 0.31452  0.21255  0.71421  Biso   1.000  C
  H702     1.0000 0.38353  0.21658  0.75607  Biso   1.000  H
  C876     1.0000 0.60173  0.18393  0.29947  Biso   1.000  C
  C877     1.0000 0.49583  0.06198  0.52954  Biso   1.000  C
  C878     1.0000 0.48526  0.03778  0.32403  Biso   1.000  C
  H703     1.0000 0.46544  0.17167  0.55011  Biso   1.000  H
  C879     1.0000 0.39305  0.12278  0.61734  Biso   1.000  C
  C880     1.0000 0.34135  0.05458  0.48795  Biso   1.000  C
  H704     1.0000 0.37566  0.05599  0.32639  Biso   1.000  H
  C881     1.0000 0.73652  0.25252  0.16646  Biso   1.000  C
  H705     1.0000 0.81643  0.30208  0.14190  Biso   1.000  H
  H706     1.0000 0.82835  0.29378  0.55011  Biso   1.000  H
  C882     1.0000 0.87721  0.27025  0.61734  Biso   1.000  C
  C883     1.0000 0.94545  0.28678  0.48795  Biso   1.000  C
  H707     1.0000 0.94402  0.31966  0.32639  Biso   1.000  H
  H708     1.0000 0.99803  0.47806  0.64688  Biso   1.000  H
  C884     1.0000 0.02623  0.49126  0.47254  Biso   1.000  C
  H709     1.0000 0.03974  0.50058  0.29657  Biso   1.000  H
  C885     1.0000 0.70178  0.38735  0.61327  Biso   1.000  C
  H710     1.0000 0.72441  0.46585  0.61888  Biso   1.000  H
  H711     1.0000 0.88534  0.50148  0.49946  Biso   1.000  H
  C886     1.0000 0.91243  0.54595  0.34587  Biso   1.000  C
  C887     1.0000 0.87533  0.60108  0.31533  Biso   1.000  C
  H712     1.0000 0.81962  0.58906  0.43684  Biso   1.000  H
  C888     1.0000 0.94852  0.70698  0.67624  Biso   1.000  C
  H713     1.0000 0.00441  0.69046  0.63746  Biso   1.000  H
  H714     1.0000 0.88384  0.70678  0.72952  Biso   1.000  H
  C889     1.0000 0.61266  0.31442  0.61327  Biso   1.000  C
  H715     1.0000 0.53414  0.25855  0.61888  Biso   1.000  H
  H716     1.0000 0.49854  0.38387  0.49946  Biso   1.000  H
  C890     1.0000 0.45402  0.36645  0.34587  Biso   1.000  C
  C891     1.0000 0.39894  0.27425  0.31533  Biso   1.000  C
  H717     1.0000 0.41093  0.23056  0.43684  Biso   1.000  H
  H718     1.0000 0.30953  0.31399  0.63746  Biso   1.000  H
  C892     1.0000 0.29302  0.24156  0.67624  Biso   1.000  C
  H719     1.0000 0.29322  0.17708  0.72952  Biso   1.000  H
  C893     1.0000 0.64452  0.20245  0.21203  Biso   1.000  C
  H720     1.0000 0.60875  0.19986  0.37514  Biso   1.000  H
  H721     1.0000 0.50385  0.08738  0.58844  Biso   1.000  H
  C894     1.0000 0.48023  0.01077  0.56597  Biso   1.000  C
  H722     1.0000 0.48644  0.04667  0.24284  Biso   1.000  H
  C895     1.0000 0.46883  0.98567  0.35565  Biso   1.000  C
  H723     1.0000 0.39715  0.14028  0.69011  Biso   1.000  H
  C896     1.0000 0.34793  0.07857  0.59270  Biso   1.000  C
  H724     1.0000 0.30963  0.02435  0.47209  Biso   1.000  H
  C897     1.0000 0.69456  0.23709  0.24583  Biso   1.000  C
  C898     1.0000 0.72639  0.23220  0.04938  Biso   1.000  C
  H725     1.0000 0.85973  0.25687  0.69011  Biso   1.000  H
  C899     1.0000 0.92141  0.26935  0.59270  Biso   1.000  C
  H726     1.0000 0.97564  0.28525  0.47209  Biso   1.000  H
  H727     1.0000 0.06122  0.51275  0.49384  Biso   1.000  H
  C900     1.0000 0.64833  0.36786  0.61308  Biso   1.000  C
  C901     1.0000 0.71953  0.35165  0.61308  Biso   1.000  C
  H728     1.0000 0.93412  0.53346  0.31923  Biso   1.000  H
  C902     1.0000 0.90924  0.58365  0.28371  Biso   1.000  C
  H729     1.0000 0.87365  0.62688  0.27039  Biso   1.000  H
  H730     1.0000 0.96852  0.74276  0.66238  Biso   1.000  H
  C903     1.0000 0.63213  0.28047  0.61308  Biso   1.000  C
  H731     1.0000 0.46652  0.40066  0.31923  Biso   1.000  H
  C904     1.0000 0.41633  0.32557  0.28371  Biso   1.000  C
  H732     1.0000 0.37313  0.24676  0.27039  Biso   1.000  H
  H733     1.0000 0.25722  0.22578  0.66238  Biso   1.000  H
  C905     1.0000 0.63545  0.18240  0.09333  Biso   1.000  C
  H734     1.0000 0.48003  0.00196  0.64688  Biso   1.000  H
  C906     1.0000 0.46505  0.97377  0.47254  Biso   1.000  C
  H735     1.0000 0.46084  0.96026  0.29657  Biso   1.000  H
  H736     1.0000 0.32114  0.06487  0.64987  Biso   1.000  H
  H737     1.0000 0.70094  0.25088  0.32394  Biso   1.000  H
  C907     1.0000 0.67616  0.19716  0.01278  Biso   1.000  C
  H738     1.0000 0.75393  0.24246  0.99511  Biso   1.000  H
  H739     1.0000 0.93515  0.25628  0.64987  Biso   1.000  H
  H740     1.0000 0.63583  0.39127  0.61290  Biso   1.000  H
  C908     1.0000 0.68557  0.29825  0.61327  Biso   1.000  C
  H741     1.0000 0.75543  0.36418  0.61290  Biso   1.000  H
  H742     1.0000 0.93081  0.59845  0.21656  Biso   1.000  H
  H743     1.0000 0.60872  0.24457  0.61290  Biso   1.000  H
  H744     1.0000 0.40151  0.33235  0.21656  Biso   1.000  H
  H745     1.0000 0.60142  0.15875  0.06896  Biso   1.000  H
  H746     1.0000 0.45155  0.93877  0.49384  Biso   1.000  H
  C909     1.0000 0.66566  0.17128  0.89389  Biso   1.000  C
  C910     1.0000 0.70541  0.26156  0.61218  Biso   1.000  C
  N87      1.0000 0.70182  0.17661  0.82349  Biso   1.000  N
  H747     1.0000 0.63103  0.15018  0.86961  Biso   1.000  H
  N88      1.0000 0.67761  0.21282  0.60285  Biso   1.000  N
  H748     1.0000 0.74144  0.27558  0.61888  Biso   1.000  H
  C911     1.0000 0.68600  0.14525  0.71095  Biso   1.000  C
  C912     1.0000 0.70463  0.18271  0.60167  Biso   1.000  C
  H749     1.0000 0.64782  0.12285  0.70868  Biso   1.000  H
  C913     1.0000 0.71179  0.11185  0.70696  Biso   1.000  C
  H750     1.0000 0.74234  0.20687  0.60919  Biso   1.000  H
  C914     1.0000 0.69433  0.15186  0.48596  Biso   1.000  C
  C915     1.0000 0.68344  0.06037  0.67298  Biso   1.000  C
  C916     1.0000 0.76364  0.13248  0.72988  Biso   1.000  C
  C917     1.0000 0.64374  0.11788  0.45234  Biso   1.000  C
  C918     1.0000 0.73514  0.15605  0.41600  Biso   1.000  C
  H751     1.0000 0.64774  0.04545  0.65893  Biso   1.000  H
  C919     1.0000 0.70632  0.03065  0.65903  Biso   1.000  C
  C920     1.0000 0.78743  0.10195  0.71421  Biso   1.000  C
  H752     1.0000 0.78343  0.16698  0.75607  Biso   1.000  H
  H753     1.0000 0.61613  0.11467  0.49946  Biso   1.000  H
  C921     1.0000 0.63354  0.08758  0.34587  Biso   1.000  C
  C922     1.0000 0.72572  0.12465  0.31533  Biso   1.000  C
  H754     1.0000 0.76944  0.18037  0.43684  Biso   1.000  H
  H755     1.0000 0.68603  0.99558  0.63746  Biso   1.000  H
  C923     1.0000 0.75843  0.05148  0.67624  Biso   1.000  C
  H756     1.0000 0.82291  0.11616  0.72952  Biso   1.000  H
  H757     1.0000 0.59931  0.06585  0.31923  Biso   1.000  H
  C924     1.0000 0.67442  0.09075  0.28371  Biso   1.000  C
  H758     1.0000 0.75323  0.12638  0.27039  Biso   1.000  H
  H759     1.0000 0.77423  0.03148  0.66238  Biso   1.000  H
  H760     1.0000 0.66763  0.06918  0.21656  Biso   1.000  H
