data_image0
_cell_length_a       43.892
_cell_length_b       20.362
_cell_length_c       25.136
_cell_angle_alpha    90
_cell_angle_beta     121.49
_cell_angle_gamma    90

_symmetry_space_group_name_H-M    "P 1"
_symmetry_int_tables_number       1

loop_
  _symmetry_equiv_pos_as_xyz
  'x, y, z'

loop_
  _atom_site_label
  _atom_site_occupancy
  _atom_site_fract_x
  _atom_site_fract_y
  _atom_site_fract_z
  _atom_site_thermal_displace_type
  _atom_site_B_iso_or_equiv
  _atom_site_type_symbol
  C1       1.0000 0.25151  0.45330  0.55159  Biso   1.000  C
  C2       1.0000 0.25801  0.40659  0.51842  Biso   1.000  C
  C3       1.0000 0.26543  0.38611  0.53932  Biso   1.000  C
  H1       1.0000 0.22951  0.47662  0.53191  Biso   1.000  H
  C4       1.0000 0.27714  0.46592  0.61374  Biso   1.000  C
  H2       1.0000 0.23512  0.46179  0.53984  Biso   1.000  H
  C5       1.0000 0.28003  0.45639  0.62652  Biso   1.000  C
  C6       1.0000 0.29017  0.37241  0.54730  Biso   1.000  C
  H3       1.0000 0.24052  0.39790  0.47601  Biso   1.000  H
  H4       1.0000 0.24952  0.37378  0.49710  Biso   1.000  H
  C7       1.0000 0.25682  0.43841  0.56470  Biso   1.000  C
  C8       1.0000 0.29712  0.35188  0.57571  Biso   1.000  C
  C9       1.0000 0.30933  0.43178  0.64252  Biso   1.000  C
  C10      1.0000 0.31172  0.42211  0.66291  Biso   1.000  C
  C11      1.0000 0.26782  0.51380  0.65022  Biso   1.000  C
  C12      1.0000 0.29582  0.32482  0.50671  Biso   1.000  C
  C13      1.0000 0.30331  0.29501  0.54380  Biso   1.000  C
  C14      1.0000 0.31582  0.38498  0.60931  Biso   1.000  C
  C15      1.0000 0.32032  0.36990  0.63753  Biso   1.000  C
  H5       1.0000 0.32683  0.44043  0.68493  Biso   1.000  H
  H6       1.0000 0.32763  0.43439  0.70523  Biso   1.000  H
  H7       1.0000 0.25183  0.54803  0.62083  Biso   1.000  H
  H8       1.0000 0.25393  0.48929  0.66464  Biso   1.000  H
  C16      1.0000 0.29843  0.54833  0.70653  Biso   1.000  C
  C17      1.0000 0.30433  0.26191  0.51833  Biso   1.000  C
  Br1      1.0000 0.28875  0.36440  0.43001  Biso   1.000  Br
  Br2      1.0000 0.30106  0.36828  0.45133  Biso   1.000  Br
  C18      1.0000 0.30152  0.28971  0.48982  Biso   1.000  C
  Br3      1.0000 0.30846  0.22350  0.59064  Biso   1.000  Br
  Br4      1.0000 0.31551  0.21501  0.59340  Biso   1.000  Br
  H9       1.0000 0.33784  0.36170  0.62913  Biso   1.000  H
  H10      1.0000 0.34202  0.34653  0.66240  Biso   1.000  H
  C19      1.0000 0.31359  0.60441  0.69683  Biso   1.000  C
  C20      1.0000 0.31116  0.52539  0.76714  Biso   1.000  C
  C21      1.0000 0.30822  0.21388  0.47681  Biso   1.000  C
  C22      1.0000 0.30553  0.23200  0.45661  Biso   1.000  C
  C23      1.0000 0.33978  0.63943  0.74843  Biso   1.000  C
  C24      1.0000 0.30107  0.62739  0.63151  Biso   1.000  C
  C25      1.0000 0.33835  0.56001  0.81883  Biso   1.000  C
  C26      1.0000 0.29544  0.46479  0.77833  Biso   1.000  C
  C27      1.0000 0.27892  0.20052  0.41793  Biso   1.000  C
  C28      1.0000 0.27732  0.21211  0.39871  Biso   1.000  C
  C29      1.0000 0.34003  0.17989  0.49822  Biso   1.000  C
  C30      1.0000 0.33823  0.19988  0.48353  Biso   1.000  C
  C31      1.0000 0.35237  0.61733  0.80871  Biso   1.000  C
  C32      1.0000 0.35507  0.70160  0.73760  Biso   1.000  C
  H11      1.0000 0.29334  0.58869  0.60352  Biso   1.000  H
  H12      1.0000 0.32154  0.64773  0.63123  Biso   1.000  H
  C33      1.0000 0.27005  0.67739  0.60543  Biso   1.000  C
  C34      1.0000 0.35341  0.53472  0.88424  Biso   1.000  C
  H13      1.0000 0.31465  0.44053  0.81444  Biso   1.000  H
  H14      1.0000 0.28565  0.43591  0.74134  Biso   1.000  H
  C35      1.0000 0.26570  0.48099  0.79112  Biso   1.000  C
  C36      1.0000 0.28192  0.16010  0.36773  Biso   1.000  C
  C37      1.0000 0.28131  0.15323  0.38051  Biso   1.000  C
  H15      1.0000 0.25712  0.22380  0.40333  Biso   1.000  H
  H16      1.0000 0.25503  0.23411  0.38033  Biso   1.000  H
  C38      1.0000 0.34241  0.13250  0.46080  Biso   1.000  C
  C39      1.0000 0.34271  0.14792  0.45250  Biso   1.000  C
  H17      1.0000 0.36012  0.18898  0.53844  Biso   1.000  H
  H18      1.0000 0.35744  0.21349  0.52313  Biso   1.000  H
  C40      1.0000 0.38111  0.65583  0.86511  Biso   1.000  C
  H19      1.0000 0.33633  0.72242  0.69841  Biso   1.000  H
  H20      1.0000 0.36113  0.73259  0.77213  Biso   1.000  H
  C41      1.0000 0.38796  0.69119  0.73331  Biso   1.000  C
  H21      1.0000 0.26301  0.68942  0.56270  Biso   1.000  H
  H22      1.0000 0.27781  0.71683  0.63161  Biso   1.000  H
  H23      1.0000 0.24963  0.65779  0.60534  Biso   1.000  H
  H24      1.0000 0.33453  0.50933  0.88541  Biso   1.000  H
  H25      1.0000 0.35943  0.57268  0.91251  Biso   1.000  H
  C42      1.0000 0.38563  0.48920  0.90551  Biso   1.000  C
  C43      1.0000 0.38643  0.49141  0.90901  Biso   1.000  C
  H26      1.0000 0.25562  0.44008  0.79611  Biso   1.000  H
  H27      1.0000 0.24685  0.50599  0.75603  Biso   1.000  H
  H28      1.0000 0.27554  0.50722  0.82933  Biso   1.000  H
  C44      1.0000 0.31311  0.11919  0.40193  Biso   1.000  C
  H29      1.0000 0.26121  0.14409  0.34030  Biso   1.000  H
  C45      1.0000 0.31461  0.12798  0.39460  Biso   1.000  C
  H30      1.0000 0.26263  0.14650  0.32812  Biso   1.000  H
  H31      1.0000 0.36421  0.10922  0.47541  Biso   1.000  H
  H32      1.0000 0.36513  0.12592  0.47093  Biso   1.000  H
  H33      1.0000 0.39594  0.68053  0.85275  Biso   1.000  H
  H34      1.0000 0.39695  0.62450  0.89833  Biso   1.000  H
  C46      1.0000 0.36532  0.70401  0.89124  Biso   1.000  C
  C47      1.0000 0.39753  0.74099  0.70630  Biso   1.000  C
  C48      1.0000 0.40984  0.63722  0.75771  Biso   1.000  C
  C49      1.0000 0.39835  0.45929  0.96304  Biso   1.000  C
  C50      1.0000 0.40326  0.47982  0.87351  Biso   1.000  C
  C51      1.0000 0.40896  0.48080  0.97274  Biso   1.000  C
  C52      1.0000 0.39334  0.46081  0.86693  Biso   1.000  C
  C53      1.0000 0.31486  0.06571  0.36040  Biso   1.000  C
  H35      1.0000 0.38454  0.73043  0.92431  Biso   1.000  H
  H36      1.0000 0.35313  0.67940  0.90822  Biso   1.000  H
  H37      1.0000 0.34824  0.73303  0.85774  Biso   1.000  H
  H38      1.0000 0.38273  0.77861  0.68941  Biso   1.000  H
  C54      1.0000 0.42809  0.73593  0.70401  Biso   1.000  C
  C55      1.0000 0.44099  0.63201  0.75622  Biso   1.000  C
  H39      1.0000 0.40352  0.60289  0.77591  Biso   1.000  H
  C56      1.0000 0.42866  0.42000  0.98865  Biso   1.000  C
  H40      1.0000 0.38624  0.46582  0.98492  Biso   1.000  H
  C57      1.0000 0.43834  0.43959  0.99434  Biso   1.000  C
  H41      1.0000 0.40420  0.50182  0.00139  Biso   1.000  H
  H42      1.0000 0.39463  0.50020  0.83413  Biso   1.000  H
  C58      1.0000 0.43357  0.44043  0.89912  Biso   1.000  C
  H43      1.0000 0.37803  0.46803  0.82345  Biso   1.000  H
  C59      1.0000 0.42275  0.41951  0.88853  Biso   1.000  C
  C60      1.0000 0.35199  0.04268  0.37711  Biso   1.000  C
  H44      1.0000 0.30140  0.02701  0.36110  Biso   1.000  H
  H45      1.0000 0.30232  0.08231  0.31702  Biso   1.000  H
  H46      1.0000 0.43393  0.76972  0.68470  Biso   1.000  H
  C61      1.0000 0.45025  0.68240  0.72930  Biso   1.000  C
  H47      1.0000 0.45582  0.59439  0.77320  Biso   1.000  H
  C62      1.0000 0.44627  0.41052  0.95665  Biso   1.000  C
  C63      1.0000 0.44524  0.40890  0.95221  Biso   1.000  C
  H48      1.0000 0.43719  0.39952  0.02789  Biso   1.000  H
  H49      1.0000 0.45368  0.43232  0.03778  Biso   1.000  H
  H50      1.0000 0.44564  0.43390  0.87724  Biso   1.000  H
  H51      1.0000 0.42745  0.39859  0.85984  Biso   1.000  H
  C64      1.0000 0.37102  0.07892  0.35681  Biso   1.000  C
  C65      1.0000 0.36691  0.98581  0.41312  Biso   1.000  C
  C66      1.0000 0.48325  0.67930  0.72711  Biso   1.000  C
  C67      1.0000 0.47964  0.37079  0.99084  Biso   1.000  C
  C68      1.0000 0.47783  0.36691  0.97923  Biso   1.000  C
  C69      1.0000 0.40554  0.05879  0.37351  Biso   1.000  C
  C70      1.0000 0.35415  0.13790  0.31473  Biso   1.000  C
  C71      1.0000 0.40075  0.96459  0.42703  Biso   1.000  C
  C72      1.0000 0.34708  0.94799  0.43762  Biso   1.000  C
  C73      1.0000 0.51680  0.67930  0.77292  Biso   1.000  C
  Br5      1.0000 0.47448  0.68593  0.64341  Biso   1.000  Br
  Br6      1.0000 0.47193  0.66673  0.64341  Biso   1.000  Br
  C74      1.0000 0.48225  0.31048  0.98515  Biso   1.000  C
  C75      1.0000 0.47885  0.30572  0.98604  Biso   1.000  C
  Br7      1.0000 0.52233  0.41690  0.04655  Biso   1.000  Br
  Br8      1.0000 0.52197  0.41180  0.01277  Biso   1.000  Br
  C76      1.0000 0.42044  0.00152  0.40832  Biso   1.000  C
  C77      1.0000 0.42684  0.10068  0.35462  Biso   1.000  C
  H52      1.0000 0.37291  0.17051  0.32359  Biso   1.000  H
  H53      1.0000 0.33701  0.15868  0.32401  Biso   1.000  H
  C78      1.0000 0.33455  0.11949  0.24540  Biso   1.000  C
  C79      1.0000 0.41677  0.90251  0.46360  Biso   1.000  C
  H54      1.0000 0.33252  0.97913  0.44541  Biso   1.000  H
  H55      1.0000 0.36462  0.92751  0.47793  Biso   1.000  H
  C80      1.0000 0.32256  0.89421  0.39283  Biso   1.000  C
  C81      1.0000 0.54979  0.68240  0.77073  Biso   1.000  C
  Br9      1.0000 0.52557  0.68593  0.85662  Biso   1.000  Br
  Br10     1.0000 0.52814  0.66673  0.85662  Biso   1.000  Br
  Br11     1.0000 0.43792  0.26319  0.92264  Biso   1.000  Br
  Br12     1.0000 0.43158  0.26211  0.93323  Biso   1.000  Br
  C82      1.0000 0.51003  0.26039  0.02518  Biso   1.000  C
  C83      1.0000 0.45777  0.97962  0.42623  Biso   1.000  C
  H56      1.0000 0.41041  0.11782  0.31202  Biso   1.000  H
  H57      1.0000 0.44471  0.07249  0.35289  Biso   1.000  H
  C84      1.0000 0.44614  0.15829  0.39740  Biso   1.000  C
  H58      1.0000 0.32331  0.15868  0.22002  Biso   1.000  H
  H59      1.0000 0.31621  0.08658  0.23649  Biso   1.000  H
  H60      1.0000 0.35171  0.10132  0.23551  Biso   1.000  H
  H61      1.0000 0.43023  0.88022  0.44713  Biso   1.000  H
  H62      1.0000 0.39712  0.87280  0.45670  Biso   1.000  H
  C85      1.0000 0.44171  0.91283  0.53363  Biso   1.000  C
  H63      1.0000 0.31061  0.87143  0.41130  Biso   1.000  H
  H64      1.0000 0.33681  0.86283  0.38532  Biso   1.000  H
  H65      1.0000 0.30451  0.91420  0.35322  Biso   1.000  H
  C86      1.0000 0.57196  0.73593  0.79602  Biso   1.000  C
  C87      1.0000 0.55906  0.63201  0.74381  Biso   1.000  C
  C88      1.0000 0.51498  0.20381  0.99999  Biso   1.000  C
  C89      1.0000 0.52895  0.26692  0.08947  Biso   1.000  C
  H66      1.0000 0.47251  0.01901  0.43272  Biso   1.000  H
  H67      1.0000 0.46871  0.95551  0.46631  Biso   1.000  H
  C90      1.0000 0.45813  0.93552  0.37711  Biso   1.000  C
  C91      1.0000 0.46330  0.15421  0.46272  Biso   1.000  C
  C92      1.0000 0.45000  0.21638  0.37239  Biso   1.000  C
  C93      1.0000 0.44477  0.97240  0.56130  Biso   1.000  C
  C94      1.0000 0.46112  0.86111  0.57082  Biso   1.000  C
  C95      1.0000 0.60254  0.74099  0.79373  Biso   1.000  C
  H68      1.0000 0.56614  0.76972  0.81533  Biso   1.000  H
  H69      1.0000 0.54422  0.59439  0.72683  Biso   1.000  H
  C96      1.0000 0.59023  0.63722  0.74232  Biso   1.000  C
  H70      1.0000 0.50304  0.19939  0.95604  Biso   1.000  H
  C97      1.0000 0.53670  0.15421  0.03731  Biso   1.000  C
  H71      1.0000 0.52739  0.30680  0.10757  Biso   1.000  H
  C98      1.0000 0.55001  0.21638  0.12759  Biso   1.000  C
  H72      1.0000 0.48272  0.92152  0.39213  Biso   1.000  H
  H73      1.0000 0.44881  0.96012  0.33810  Biso   1.000  H
  H74      1.0000 0.44313  0.89692  0.36983  Biso   1.000  H
  H75      1.0000 0.45981  0.11649  0.48119  Biso   1.000  H
  C99      1.0000 0.48500  0.20381  0.49999  Biso   1.000  C
  C100     1.0000 0.47104  0.26692  0.41051  Biso   1.000  C
  H76      1.0000 0.43800  0.22139  0.32840  Biso   1.000  H
  H77      1.0000 0.43152  0.00899  0.53643  Biso   1.000  H
  C101     1.0000 0.46742  0.98011  0.62652  Biso   1.000  C
  C102     1.0000 0.48302  0.86843  0.63473  Biso   1.000  C
  H78      1.0000 0.45952  0.81961  0.55243  Biso   1.000  H
  C103     1.0000 0.61209  0.69119  0.76672  Biso   1.000  C
  H79      1.0000 0.61734  0.77861  0.81062  Biso   1.000  H
  H80      1.0000 0.59652  0.60289  0.72412  Biso   1.000  H
  C104     1.0000 0.55387  0.15829  0.10258  Biso   1.000  C
  H81      1.0000 0.54018  0.11649  0.01879  Biso   1.000  H
  H82      1.0000 0.56198  0.22139  0.17158  Biso   1.000  H
  H83      1.0000 0.49702  0.19939  0.54404  Biso   1.000  H
  C105     1.0000 0.48998  0.26039  0.47480  Biso   1.000  C
  H84      1.0000 0.47262  0.30680  0.39241  Biso   1.000  H
  H85      1.0000 0.47002  0.02190  0.64542  Biso   1.000  H
  C106     1.0000 0.48569  0.92643  0.66254  Biso   1.000  C
  H86      1.0000 0.49633  0.83179  0.65941  Biso   1.000  H
  C107     1.0000 0.64500  0.70160  0.76242  Biso   1.000  C
  C108     1.0000 0.57318  0.10068  0.14541  Biso   1.000  C
  C109     1.0000 0.51781  0.31048  0.51492  Biso   1.000  C
  C110     1.0000 0.52122  0.30572  0.51404  Biso   1.000  C
  C111     1.0000 0.50617  0.93070  0.73131  Biso   1.000  C
  C112     1.0000 0.66027  0.63943  0.75160  Biso   1.000  C
  H87      1.0000 0.66372  0.72242  0.80161  Biso   1.000  H
  H88      1.0000 0.63891  0.73259  0.72790  Biso   1.000  H
  C113     1.0000 0.59446  0.05879  0.12651  Biso   1.000  C
  H89      1.0000 0.58959  0.11782  0.18800  Biso   1.000  H
  H90      1.0000 0.55530  0.07249  0.14709  Biso   1.000  H
  Br13     1.0000 0.56214  0.26319  0.57744  Biso   1.000  Br
  C114     1.0000 0.52042  0.37079  0.50923  Biso   1.000  C
  Br14     1.0000 0.56849  0.26211  0.56680  Biso   1.000  Br
  C115     1.0000 0.52221  0.36691  0.52080  Biso   1.000  C
  C116     1.0000 0.49388  0.93070  0.76872  Biso   1.000  C
  Br15     1.0000 0.55727  0.93282  0.77012  Biso   1.000  Br
  Br16     1.0000 0.55633  0.91631  0.76830  Biso   1.000  Br
  C117     1.0000 0.64768  0.61733  0.69132  Biso   1.000  C
  C118     1.0000 0.68649  0.60441  0.80325  Biso   1.000  C
  C119     1.0000 0.57956  0.00152  0.09171  Biso   1.000  C
  C120     1.0000 0.62899  0.07892  0.14317  Biso   1.000  C
  Br17     1.0000 0.47770  0.41690  0.45348  Biso   1.000  Br
  C121     1.0000 0.55382  0.41052  0.54343  Biso   1.000  C
  Br18     1.0000 0.47803  0.41180  0.48726  Biso   1.000  Br
  C122     1.0000 0.55483  0.40890  0.54781  Biso   1.000  C
  C123     1.0000 0.51439  0.92643  0.83754  Biso   1.000  C
  Br19     1.0000 0.44280  0.93282  0.72991  Biso   1.000  Br
  Br20     1.0000 0.44373  0.91631  0.73173  Biso   1.000  Br
  C124     1.0000 0.66169  0.56001  0.68120  Biso   1.000  C
  C125     1.0000 0.61894  0.65583  0.63492  Biso   1.000  C
  C126     1.0000 0.70163  0.54833  0.79354  Biso   1.000  C
  C127     1.0000 0.69898  0.62739  0.86852  Biso   1.000  C
  C128     1.0000 0.59927  0.96459  0.07300  Biso   1.000  C
  C129     1.0000 0.54226  0.97962  0.07380  Biso   1.000  C
  C130     1.0000 0.64800  0.04268  0.12288  Biso   1.000  C
  C131     1.0000 0.64587  0.13790  0.18530  Biso   1.000  C
  C132     1.0000 0.57142  0.42000  0.51142  Biso   1.000  C
  C133     1.0000 0.56650  0.44043  0.60091  Biso   1.000  C
  C134     1.0000 0.56172  0.43959  0.50573  Biso   1.000  C
  C135     1.0000 0.57732  0.41951  0.61150  Biso   1.000  C
  C136     1.0000 0.53262  0.98011  0.87351  Biso   1.000  C
  C137     1.0000 0.51706  0.86843  0.86534  Biso   1.000  C
  C138     1.0000 0.64665  0.53472  0.61584  Biso   1.000  C
  C139     1.0000 0.68893  0.52539  0.73294  Biso   1.000  C
  H91      1.0000 0.60413  0.68053  0.64733  Biso   1.000  H
  H92      1.0000 0.60312  0.62450  0.60170  Biso   1.000  H
  C140     1.0000 0.63476  0.70401  0.60884  Biso   1.000  C
  C141     1.0000 0.73225  0.51380  0.84981  Biso   1.000  C
  H93      1.0000 0.70673  0.58869  0.89651  Biso   1.000  H
  H94      1.0000 0.67855  0.64773  0.86884  Biso   1.000  H
  C142     1.0000 0.73003  0.67739  0.89464  Biso   1.000  C
  C143     1.0000 0.58324  0.90251  0.03638  Biso   1.000  C
  C144     1.0000 0.63310  0.98581  0.08691  Biso   1.000  C
  H95      1.0000 0.53128  0.95551  0.03367  Biso   1.000  H
  C145     1.0000 0.54186  0.93552  0.12288  Biso   1.000  C
  H96      1.0000 0.52749  0.01901  0.06731  Biso   1.000  H
  C146     1.0000 0.68512  0.06571  0.13958  Biso   1.000  C
  H97      1.0000 0.62710  0.17051  0.17639  Biso   1.000  H
  H98      1.0000 0.66301  0.15868  0.17601  Biso   1.000  H
  C147     1.0000 0.66544  0.11949  0.25458  Biso   1.000  C
  H99      1.0000 0.56280  0.39952  0.47209  Biso   1.000  H
  C148     1.0000 0.60173  0.45929  0.53704  Biso   1.000  C
  H100     1.0000 0.54631  0.43232  0.46220  Biso   1.000  H
  C149     1.0000 0.59113  0.48080  0.52733  Biso   1.000  C
  C150     1.0000 0.59678  0.47982  0.62652  Biso   1.000  C
  H101     1.0000 0.55442  0.43390  0.62283  Biso   1.000  H
  C151     1.0000 0.60673  0.46081  0.63310  Biso   1.000  C
  H102     1.0000 0.57264  0.39859  0.64024  Biso   1.000  H
  H103     1.0000 0.53003  0.02190  0.85461  Biso   1.000  H
  C152     1.0000 0.55530  0.97240  0.93873  Biso   1.000  C
  H104     1.0000 0.50374  0.83179  0.84062  Biso   1.000  H
  C153     1.0000 0.53892  0.86111  0.92921  Biso   1.000  C
  C154     1.0000 0.61444  0.48920  0.59452  Biso   1.000  C
  C155     1.0000 0.61362  0.49141  0.59102  Biso   1.000  C
  H105     1.0000 0.66552  0.50933  0.61462  Biso   1.000  H
  H106     1.0000 0.64062  0.57268  0.58752  Biso   1.000  H
  C156     1.0000 0.70465  0.46479  0.72174  Biso   1.000  C
  H107     1.0000 0.61551  0.73043  0.57571  Biso   1.000  H
  H108     1.0000 0.64691  0.67940  0.59181  Biso   1.000  H
  H109     1.0000 0.65182  0.73303  0.64234  Biso   1.000  H
  C157     1.0000 0.72294  0.46592  0.88634  Biso   1.000  C
  H110     1.0000 0.74825  0.54803  0.87925  Biso   1.000  H
  H111     1.0000 0.74613  0.48929  0.83544  Biso   1.000  H
  C158     1.0000 0.72004  0.45639  0.87351  Biso   1.000  C
  H112     1.0000 0.73704  0.68942  0.93733  Biso   1.000  H
  H113     1.0000 0.72223  0.71683  0.86842  Biso   1.000  H
  H114     1.0000 0.75045  0.65779  0.89474  Biso   1.000  H
  C159     1.0000 0.55835  0.91283  0.96644  Biso   1.000  C
  H115     1.0000 0.56979  0.88022  0.05289  Biso   1.000  H
  H116     1.0000 0.60289  0.87280  0.04328  Biso   1.000  H
  C160     1.0000 0.65295  0.94799  0.06241  Biso   1.000  C
  H117     1.0000 0.51730  0.92152  0.10790  Biso   1.000  H
  H118     1.0000 0.55120  0.96012  0.16188  Biso   1.000  H
  H119     1.0000 0.55690  0.89692  0.13020  Biso   1.000  H
  H120     1.0000 0.69858  0.02701  0.13888  Biso   1.000  H
  H121     1.0000 0.69771  0.08231  0.18301  Biso   1.000  H
  C161     1.0000 0.68689  0.11919  0.09810  Biso   1.000  C
  C162     1.0000 0.68540  0.12798  0.10538  Biso   1.000  C
  H122     1.0000 0.67671  0.15868  0.28001  Biso   1.000  H
  H123     1.0000 0.68380  0.08658  0.26349  Biso   1.000  H
  H124     1.0000 0.64832  0.10132  0.26452  Biso   1.000  H
  H125     1.0000 0.61381  0.46582  0.51511  Biso   1.000  H
  H126     1.0000 0.59581  0.50182  0.49859  Biso   1.000  H
  H127     1.0000 0.60543  0.50020  0.66594  Biso   1.000  H
  H128     1.0000 0.62203  0.46803  0.67663  Biso   1.000  H
  H129     1.0000 0.56854  0.00899  0.96364  Biso   1.000  H
  H130     1.0000 0.54054  0.81961  0.94764  Biso   1.000  H
  H131     1.0000 0.68544  0.44053  0.68563  Biso   1.000  H
  H132     1.0000 0.71444  0.43591  0.75874  Biso   1.000  H
  C163     1.0000 0.73437  0.48099  0.70891  Biso   1.000  C
  C164     1.0000 0.74854  0.45330  0.94844  Biso   1.000  C
  C165     1.0000 0.69074  0.43178  0.85751  Biso   1.000  C
  C166     1.0000 0.74325  0.43841  0.93533  Biso   1.000  C
  C167     1.0000 0.68833  0.42211  0.83712  Biso   1.000  C
  H133     1.0000 0.66749  0.97913  0.05457  Biso   1.000  H
  H134     1.0000 0.63540  0.92751  0.02210  Biso   1.000  H
  C168     1.0000 0.67746  0.89421  0.10720  Biso   1.000  C
  C169     1.0000 0.71868  0.15323  0.11947  Biso   1.000  C
  C170     1.0000 0.65760  0.13250  0.03918  Biso   1.000  C
  C171     1.0000 0.71810  0.16010  0.13230  Biso   1.000  C
  C172     1.0000 0.65728  0.14792  0.04748  Biso   1.000  C
  H135     1.0000 0.74443  0.44008  0.70392  Biso   1.000  H
  H136     1.0000 0.75324  0.50599  0.74404  Biso   1.000  H
  H137     1.0000 0.72451  0.50722  0.67070  Biso   1.000  H
  C173     1.0000 0.74207  0.40659  0.98165  Biso   1.000  C
  H138     1.0000 0.77053  0.47662  0.96812  Biso   1.000  H
  C174     1.0000 0.73465  0.38611  0.96075  Biso   1.000  C
  H139     1.0000 0.76494  0.46179  0.96024  Biso   1.000  H
  H140     1.0000 0.67324  0.44043  0.81514  Biso   1.000  H
  C175     1.0000 0.68423  0.38498  0.89072  Biso   1.000  C
  C176     1.0000 0.67974  0.36990  0.86254  Biso   1.000  C
  H141     1.0000 0.67244  0.43439  0.79480  Biso   1.000  H
  H142     1.0000 0.68938  0.87143  0.08868  Biso   1.000  H
  H143     1.0000 0.66319  0.86283  0.11471  Biso   1.000  H
  H144     1.0000 0.69549  0.91420  0.14681  Biso   1.000  H
  H145     1.0000 0.73880  0.14409  0.15969  Biso   1.000  H
  C177     1.0000 0.72108  0.20052  0.08210  Biso   1.000  C
  H146     1.0000 0.73740  0.14650  0.17191  Biso   1.000  H
  C178     1.0000 0.72269  0.21211  0.10127  Biso   1.000  C
  C179     1.0000 0.66000  0.17989  0.00181  Biso   1.000  C
  H147     1.0000 0.63578  0.10922  0.02457  Biso   1.000  H
  C180     1.0000 0.66179  0.19988  0.01650  Biso   1.000  C
  H148     1.0000 0.63490  0.12592  0.02910  Biso   1.000  H
  C181     1.0000 0.70988  0.37241  0.95273  Biso   1.000  C
  H149     1.0000 0.75949  0.39790  0.02397  Biso   1.000  H
  H150     1.0000 0.75049  0.37378  0.00288  Biso   1.000  H
  C182     1.0000 0.70293  0.35188  0.92431  Biso   1.000  C
  H151     1.0000 0.66225  0.36170  0.87094  Biso   1.000  H
  H152     1.0000 0.65805  0.34653  0.83763  Biso   1.000  H
  H153     1.0000 0.74290  0.22380  0.09670  Biso   1.000  H
  C183     1.0000 0.69179  0.21388  0.02318  Biso   1.000  C
  H154     1.0000 0.74500  0.23411  0.11970  Biso   1.000  H
  C184     1.0000 0.69448  0.23200  0.04338  Biso   1.000  C
  H155     1.0000 0.63994  0.18898  0.96164  Biso   1.000  H
  H156     1.0000 0.64265  0.21349  0.97694  Biso   1.000  H
  C185     1.0000 0.70423  0.32482  0.99332  Biso   1.000  C
  C186     1.0000 0.69673  0.29501  0.95623  Biso   1.000  C
  C187     1.0000 0.69576  0.26191  0.98175  Biso   1.000  C
  C188     1.0000 0.69848  0.28971  0.01021  Biso   1.000  C
  Br21     1.0000 0.71126  0.36440  0.06997  Biso   1.000  Br
  Br22     1.0000 0.69895  0.36828  0.04870  Biso   1.000  Br
  Br23     1.0000 0.69158  0.22350  0.90939  Biso   1.000  Br
  Br24     1.0000 0.68454  0.21501  0.90663  Biso   1.000  Br
  C189     1.0000 0.21872  0.34682  0.61952  Biso   1.000  C
  C190     1.0000 0.22113  0.29953  0.58211  Biso   1.000  C
  C191     1.0000 0.22274  0.28789  0.60133  Biso   1.000  C
  C192     1.0000 0.18691  0.38081  0.59811  Biso   1.000  C
  H157     1.0000 0.23884  0.35591  0.65974  Biso   1.000  H
  C193     1.0000 0.18544  0.37202  0.60543  Biso   1.000  C
  H158     1.0000 0.23743  0.35350  0.67192  Biso   1.000  H
  C194     1.0000 0.19183  0.28612  0.52323  Biso   1.000  C
  C195     1.0000 0.19453  0.26800  0.54343  Biso   1.000  C
  H159     1.0000 0.24293  0.27620  0.59671  Biso   1.000  H
  C196     1.0000 0.21813  0.33990  0.63231  Biso   1.000  C
  H160     1.0000 0.24503  0.26589  0.61971  Biso   1.000  H
  C197     1.0000 0.15764  0.36750  0.53923  Biso   1.000  C
  C198     1.0000 0.15734  0.35213  0.54753  Biso   1.000  C
  C199     1.0000 0.18516  0.43429  0.63963  Biso   1.000  C
  C200     1.0000 0.19572  0.23809  0.48171  Biso   1.000  C
  C201     1.0000 0.19853  0.21029  0.51021  Biso   1.000  C
  C202     1.0000 0.16002  0.32011  0.50181  Biso   1.000  C
  C203     1.0000 0.16182  0.30012  0.51651  Biso   1.000  C
  H161     1.0000 0.13582  0.39083  0.52463  Biso   1.000  H
  H162     1.0000 0.13492  0.37413  0.52911  Biso   1.000  H
  C204     1.0000 0.14804  0.45732  0.62293  Biso   1.000  C
  H163     1.0000 0.19862  0.47299  0.63893  Biso   1.000  H
  H164     1.0000 0.19773  0.41769  0.68302  Biso   1.000  H
  C205     1.0000 0.20423  0.17518  0.49332  Biso   1.000  C
  Br25     1.0000 0.19157  0.27650  0.40939  Biso   1.000  Br
  Br26     1.0000 0.18453  0.28499  0.40659  Biso   1.000  Br
  C206     1.0000 0.19672  0.20499  0.45623  Biso   1.000  C
  Br27     1.0000 0.21130  0.13560  0.57002  Biso   1.000  Br
  Br28     1.0000 0.19897  0.13172  0.54870  Biso   1.000  Br
  H165     1.0000 0.13993  0.31102  0.46160  Biso   1.000  H
  H166     1.0000 0.14261  0.28651  0.47690  Biso   1.000  H
  C207     1.0000 0.13315  0.51419  0.58691  Biso   1.000  C
  C208     1.0000 0.12903  0.42113  0.64322  Biso   1.000  C
  C209     1.0000 0.20989  0.12759  0.45273  Biso   1.000  C
  C210     1.0000 0.20291  0.14812  0.42432  Biso   1.000  C
  C211     1.0000 0.09930  0.53541  0.57301  Biso   1.000  C
  C212     1.0000 0.15298  0.55201  0.56242  Biso   1.000  C
  C213     1.0000 0.09448  0.44121  0.62652  Biso   1.000  C
  C214     1.0000 0.14590  0.36210  0.68530  Biso   1.000  C
  C215     1.0000 0.24204  0.09341  0.48161  Biso   1.000  C
  C216     1.0000 0.23462  0.11389  0.46071  Biso   1.000  C
  C217     1.0000 0.18421  0.11502  0.39073  Biso   1.000  C
  C218     1.0000 0.17970  0.13010  0.36250  Biso   1.000  C
  C219     1.0000 0.07961  0.49853  0.59172  Biso   1.000  C
  C220     1.0000 0.08328  0.59749  0.53643  Biso   1.000  C
  H167     1.0000 0.16753  0.52092  0.55463  Biso   1.000  H
  H168     1.0000 0.13543  0.57249  0.52211  Biso   1.000  H
  C221     1.0000 0.17749  0.60579  0.60721  Biso   1.000  C
  C222     1.0000 0.07321  0.39932  0.64542  Biso   1.000  C
  H169     1.0000 0.12714  0.32949  0.67644  Biso   1.000  H
  H170     1.0000 0.16304  0.34132  0.67602  Biso   1.000  H
  C223     1.0000 0.16548  0.38051  0.75463  Biso   1.000  C
  C224     1.0000 0.24850  0.04670  0.44839  Biso   1.000  C
  C225     1.0000 0.24323  0.06159  0.43533  Biso   1.000  C
  H171     1.0000 0.25953  0.10210  0.52402  Biso   1.000  H
  H172     1.0000 0.25053  0.12622  0.50293  Biso   1.000  H
  C226     1.0000 0.19072  0.06822  0.35751  Biso   1.000  C
  C227     1.0000 0.18831  0.07789  0.33712  Biso   1.000  C
  H173     1.0000 0.16221  0.13830  0.37090  Biso   1.000  H
  H174     1.0000 0.15801  0.15352  0.33759  Biso   1.000  H
  C228     1.0000 0.04228  0.52043  0.57380  Biso   1.000  C
  H175     1.0000 0.06982  0.61983  0.55290  Biso   1.000  H
  H176     1.0000 0.10293  0.62720  0.54334  Biso   1.000  H
  C229     1.0000 0.05832  0.58722  0.46640  Biso   1.000  C
  H177     1.0000 0.18944  0.62862  0.58873  Biso   1.000  H
  H178     1.0000 0.16322  0.63722  0.61472  Biso   1.000  H
  H179     1.0000 0.19554  0.58580  0.64682  Biso   1.000  H
  H180     1.0000 0.08964  0.38218  0.68801  Biso   1.000  H
  H181     1.0000 0.05534  0.42751  0.64714  Biso   1.000  H
  C230     1.0000 0.05392  0.34171  0.60263  Biso   1.000  C
  H182     1.0000 0.17674  0.34132  0.78001  Biso   1.000  H
  H183     1.0000 0.18384  0.41342  0.76354  Biso   1.000  H
  H184     1.0000 0.14834  0.39868  0.76452  Biso   1.000  H
  C231     1.0000 0.22291  0.03408  0.38630  Biso   1.000  C
  C232     1.0000 0.22002  0.04361  0.37351  Biso   1.000  C
  H185     1.0000 0.27051  0.02338  0.46813  Biso   1.000  H
  H186     1.0000 0.26491  0.03821  0.46020  Biso   1.000  H
  H187     1.0000 0.17320  0.05962  0.31510  Biso   1.000  H
  H188     1.0000 0.17242  0.06561  0.29481  Biso   1.000  H
  H189     1.0000 0.03132  0.54449  0.53373  Biso   1.000  H
  H190     1.0000 0.02752  0.48099  0.56732  Biso   1.000  H
  C233     1.0000 0.04190  0.56453  0.62293  Biso   1.000  C
  C234     1.0000 0.05527  0.52760  0.43869  Biso   1.000  C
  C235     1.0000 0.03890  0.63889  0.42922  Biso   1.000  C
  C236     1.0000 0.03675  0.34579  0.53732  Biso   1.000  C
  C237     1.0000 0.05005  0.28362  0.62764  Biso   1.000  C
  C238     1.0000 0.23223  0.98620  0.34981  Biso   1.000  C
  H191     1.0000 0.01733  0.57853  0.60791  Biso   1.000  H
  H192     1.0000 0.05124  0.53993  0.66193  Biso   1.000  H
  H193     1.0000 0.05692  0.60313  0.63021  Biso   1.000  H
  H194     1.0000 0.06851  0.49101  0.46360  Biso   1.000  H
  C239     1.0000 0.03263  0.51989  0.37351  Biso   1.000  C
  C240     1.0000 0.01703  0.63162  0.36530  Biso   1.000  C
  H195     1.0000 0.04051  0.68043  0.44760  Biso   1.000  H
  H196     1.0000 0.04023  0.38351  0.51880  Biso   1.000  H
  C241     1.0000 0.01501  0.29619  0.49999  Biso   1.000  C
  C242     1.0000 0.02901  0.23308  0.58952  Biso   1.000  C
  H197     1.0000 0.06203  0.27861  0.67164  Biso   1.000  H
  C243     1.0000 0.20160  0.95172  0.29350  Biso   1.000  C
  H198     1.0000 0.24612  0.01071  0.33540  Biso   1.000  H
  H199     1.0000 0.24822  0.95202  0.37921  Biso   1.000  H
  H200     1.0000 0.03003  0.47810  0.35462  Biso   1.000  H
  C244     1.0000 0.01436  0.57362  0.33750  Biso   1.000  C
  H201     1.0000 0.00372  0.66821  0.34062  Biso   1.000  H
  H202     1.0000 0.00301  0.30061  0.45600  Biso   1.000  H
  C245     1.0000 0.01007  0.23961  0.52523  Biso   1.000  C
  H203     1.0000 0.02743  0.19320  0.60763  Biso   1.000  H
  C246     1.0000 0.18889  0.97461  0.23290  Biso   1.000  C
  C247     1.0000 0.18646  0.89559  0.30321  Biso   1.000  C
  C248     1.0000 0.99386  0.56930  0.26873  Biso   1.000  C
  C249     1.0000 0.98222  0.18952  0.48511  Biso   1.000  C
  C250     1.0000 0.97881  0.19428  0.48600  Biso   1.000  C
  C251     1.0000 0.20461  0.03521  0.22170  Biso   1.000  C
  C252     1.0000 0.16170  0.94004  0.18121  Biso   1.000  C
  C253     1.0000 0.16027  0.86062  0.25161  Biso   1.000  C
  C254     1.0000 0.19898  0.87261  0.36852  Biso   1.000  C
  C255     1.0000 0.00615  0.56930  0.23131  Biso   1.000  C
  Br29     1.0000 0.94278  0.56718  0.22991  Biso   1.000  Br
  Br30     1.0000 0.94370  0.58369  0.23169  Biso   1.000  Br
  Br31     1.0000 0.93788  0.23681  0.42259  Biso   1.000  Br
  C256     1.0000 0.97961  0.12921  0.49080  Biso   1.000  C
  Br32     1.0000 0.93156  0.23789  0.43323  Biso   1.000  Br
  C257     1.0000 0.97781  0.13309  0.47923  Biso   1.000  C
  C258     1.0000 0.23435  0.01901  0.20892  Biso   1.000  C
  H204     1.0000 0.18540  0.05952  0.18559  Biso   1.000  H
  H205     1.0000 0.21440  0.06409  0.25870  Biso   1.000  H
  C259     1.0000 0.14664  0.96533  0.11580  Biso   1.000  C
  C260     1.0000 0.14767  0.88272  0.19128  Biso   1.000  C
  C261     1.0000 0.14498  0.79840  0.26243  Biso   1.000  C
  H206     1.0000 0.20672  0.91131  0.39651  Biso   1.000  H
  H207     1.0000 0.17851  0.85232  0.36880  Biso   1.000  H
  C262     1.0000 0.23000  0.82261  0.39460  Biso   1.000  C
  C263     1.0000 0.98566  0.57362  0.16250  Biso   1.000  C
  Br33     1.0000 0.05725  0.56718  0.27013  Biso   1.000  Br
  Br34     1.0000 0.05632  0.58369  0.26831  Biso   1.000  Br
  C264     1.0000 0.94621  0.08948  0.45661  Biso   1.000  C
  C265     1.0000 0.94522  0.09110  0.45222  Biso   1.000  C
  Br35     1.0000 0.02235  0.08315  0.54656  Biso   1.000  Br
  Br36     1.0000 0.02200  0.08825  0.51278  Biso   1.000  Br
  H208     1.0000 0.24441  0.05992  0.20393  Biso   1.000  H
  H209     1.0000 0.25321  0.99401  0.24400  Biso   1.000  H
  H210     1.0000 0.22451  0.99283  0.17071  Biso   1.000  H
  C266     1.0000 0.11442  0.01080  0.09452  Biso   1.000  C
  C267     1.0000 0.11360  0.00859  0.09102  Biso   1.000  C
  H211     1.0000 0.16551  0.99072  0.11458  Biso   1.000  H
  H212     1.0000 0.14060  0.92732  0.08752  Biso   1.000  H
  C268     1.0000 0.11894  0.84422  0.13492  Biso   1.000  C
  H213     1.0000 0.16372  0.77762  0.30162  Biso   1.000  H
  H214     1.0000 0.13892  0.76741  0.22791  Biso   1.000  H
  C269     1.0000 0.11207  0.80881  0.26672  Biso   1.000  C
  H215     1.0000 0.23700  0.81063  0.43729  Biso   1.000  H
  H216     1.0000 0.22221  0.78322  0.36843  Biso   1.000  H
  H217     1.0000 0.25042  0.84221  0.39470  Biso   1.000  H
  C270     1.0000 0.96740  0.51989  0.12653  Biso   1.000  C
  C271     1.0000 0.98299  0.63162  0.13469  Biso   1.000  C
  C272     1.0000 0.92861  0.08000  0.48861  Biso   1.000  C
  C273     1.0000 0.93830  0.06041  0.49430  Biso   1.000  C
  C274     1.0000 0.93355  0.05962  0.39913  Biso   1.000  C
  C275     1.0000 0.92271  0.08049  0.38849  Biso   1.000  C
  C276     1.0000 0.10170  0.04071  0.03700  Biso   1.000  C
  C277     1.0000 0.09679  0.02018  0.12653  Biso   1.000  C
  C278     1.0000 0.09110  0.01920  0.02729  Biso   1.000  C
  C279     1.0000 0.10671  0.03919  0.13310  Biso   1.000  C
  H218     1.0000 0.10409  0.81952  0.14729  Biso   1.000  H
  H219     1.0000 0.10310  0.87550  0.10171  Biso   1.000  H
  C280     1.0000 0.13473  0.79599  0.10880  Biso   1.000  C
  C281     1.0000 0.10250  0.75901  0.29369  Biso   1.000  C
  C282     1.0000 0.09021  0.86283  0.24232  Biso   1.000  C
  C283     1.0000 0.94473  0.52760  0.06130  Biso   1.000  C
  H220     1.0000 0.97000  0.47810  0.14542  Biso   1.000  H
  C284     1.0000 0.96111  0.63889  0.07082  Biso   1.000  C
  H221     1.0000 0.99631  0.66821  0.15942  Biso   1.000  H
  C285     1.0000 0.89832  0.04071  0.46300  Biso   1.000  C
  C286     1.0000 0.90890  0.01920  0.47270  Biso   1.000  C
  H222     1.0000 0.93721  0.10048  0.52789  Biso   1.000  H
  H223     1.0000 0.95372  0.06772  0.53783  Biso   1.000  H
  C287     1.0000 0.90324  0.02018  0.37351  Biso   1.000  C
  C288     1.0000 0.89331  0.03919  0.36689  Biso   1.000  C
  H224     1.0000 0.94561  0.06610  0.37720  Biso   1.000  H
  H225     1.0000 0.92741  0.10141  0.35980  Biso   1.000  H
  C289     1.0000 0.07139  0.08000  0.01138  Biso   1.000  C
  H226     1.0000 0.11381  0.03418  0.01512  Biso   1.000  H
  C290     1.0000 0.06169  0.06041  0.00569  Biso   1.000  C
  H227     1.0000 0.09585  0.99823  0.99865  Biso   1.000  H
  C291     1.0000 0.06648  0.05962  0.10091  Biso   1.000  C
  H228     1.0000 0.12199  0.03202  0.17659  Biso   1.000  H
  C292     1.0000 0.07730  0.08049  0.11150  Biso   1.000  C
  H229     1.0000 0.10540  0.99980  0.16590  Biso   1.000  H
  H230     1.0000 0.11552  0.76962  0.07572  Biso   1.000  H
  H231     1.0000 0.14692  0.82060  0.09182  Biso   1.000  H
  H232     1.0000 0.15181  0.76702  0.14230  Biso   1.000  H
  H233     1.0000 0.11732  0.72139  0.31062  Biso   1.000  H
  C293     1.0000 0.07197  0.76412  0.29602  Biso   1.000  C
  C294     1.0000 0.05904  0.86799  0.24382  Biso   1.000  C
  H234     1.0000 0.09653  0.89711  0.22413  Biso   1.000  H
  C295     1.0000 0.94168  0.58722  0.03359  Biso   1.000  C
  H235     1.0000 0.93149  0.49101  0.03639  Biso   1.000  H
  H236     1.0000 0.95949  0.68043  0.05239  Biso   1.000  H
  C296     1.0000 0.88561  0.01080  0.40552  Biso   1.000  C
  C297     1.0000 0.88641  0.00859  0.40902  Biso   1.000  C
  H237     1.0000 0.90420  0.99823  0.50139  Biso   1.000  H
  H238     1.0000 0.88622  0.03418  0.48492  Biso   1.000  H
  H239     1.0000 0.89459  0.99980  0.33409  Biso   1.000  H
  H240     1.0000 0.87800  0.03202  0.32341  Biso   1.000  H
  C298     1.0000 0.05378  0.08948  0.04339  Biso   1.000  C
  C299     1.0000 0.05481  0.09110  0.04782  Biso   1.000  C
  H241     1.0000 0.06287  0.10048  0.97215  Biso   1.000  H
  H242     1.0000 0.04635  0.06772  0.96226  Biso   1.000  H
  H243     1.0000 0.05441  0.06610  0.12279  Biso   1.000  H
  H244     1.0000 0.07260  0.10141  0.14020  Biso   1.000  H
  H245     1.0000 0.06611  0.73033  0.31529  Biso   1.000  H
  C300     1.0000 0.04978  0.81760  0.27069  Biso   1.000  C
  H246     1.0000 0.04421  0.90561  0.22679  Biso   1.000  H
  C301     1.0000 0.91679  0.59749  0.96366  Biso   1.000  C
  C302     1.0000 0.85338  0.96533  0.38420  Biso   1.000  C
  C303     1.0000 0.02041  0.12921  0.00919  Biso   1.000  C
  C304     1.0000 0.02220  0.13309  0.02081  Biso   1.000  C
  C305     1.0000 0.01678  0.82070  0.27293  Biso   1.000  C
  C306     1.0000 0.90078  0.53541  0.92703  Biso   1.000  C
  H247     1.0000 0.93024  0.61983  0.94714  Biso   1.000  H
  H248     1.0000 0.89716  0.62720  0.95675  Biso   1.000  H
  C307     1.0000 0.83832  0.94004  0.31879  Biso   1.000  C
  H249     1.0000 0.83451  0.99072  0.38541  Biso   1.000  H
  H250     1.0000 0.85941  0.92732  0.41252  Biso   1.000  H
  C308     1.0000 0.01780  0.18952  0.01488  Biso   1.000  C
  C309     1.0000 0.02121  0.19428  0.01400  Biso   1.000  C
  Br37     1.0000 0.97772  0.08315  0.95349  Biso   1.000  Br
  Br38     1.0000 0.97805  0.08825  0.98726  Biso   1.000  Br
  C310     1.0000 0.98323  0.82070  0.22711  Biso   1.000  C
  Br39     1.0000 0.02555  0.81411  0.35663  Biso   1.000  Br
  Br40     1.0000 0.02812  0.83332  0.35663  Biso   1.000  Br
  C311     1.0000 0.92047  0.49853  0.90832  Biso   1.000  C
  C312     1.0000 0.86693  0.51419  0.91313  Biso   1.000  C
  C313     1.0000 0.85235  0.88272  0.30871  Biso   1.000  C
  C314     1.0000 0.81110  0.97461  0.26710  Biso   1.000  C
  Br41     1.0000 0.06211  0.23681  0.07740  Biso   1.000  Br
  Br42     1.0000 0.06847  0.23789  0.06681  Biso   1.000  Br
  C315     1.0000 0.98999  0.23961  0.97485  Biso   1.000  C
  C316     1.0000 0.95024  0.81760  0.22931  Biso   1.000  C
  Br43     1.0000 0.97446  0.81411  0.14342  Biso   1.000  Br
  Br44     1.0000 0.97191  0.83332  0.14342  Biso   1.000  Br
  C317     1.0000 0.90557  0.44121  0.87352  Biso   1.000  C
  C318     1.0000 0.95780  0.52043  0.92624  Biso   1.000  C
  C319     1.0000 0.85203  0.45732  0.87716  Biso   1.000  C
  C320     1.0000 0.84710  0.55201  0.93762  Biso   1.000  C
  C321     1.0000 0.83975  0.86062  0.24839  Biso   1.000  C
  C322     1.0000 0.88109  0.84422  0.36512  Biso   1.000  C
  C323     1.0000 0.79840  0.95172  0.20649  Biso   1.000  C
  C324     1.0000 0.79538  0.03521  0.27829  Biso   1.000  C
  C325     1.0000 0.97107  0.23308  0.91052  Biso   1.000  C
  C326     1.0000 0.98499  0.29619  0.00000  Biso   1.000  C
  C327     1.0000 0.92807  0.76412  0.20402  Biso   1.000  C
  C328     1.0000 0.94097  0.86799  0.25623  Biso   1.000  C
  C329     1.0000 0.92687  0.39932  0.85463  Biso   1.000  C
  C330     1.0000 0.87103  0.42113  0.85682  Biso   1.000  C
  H251     1.0000 0.96875  0.54449  0.96636  Biso   1.000  H
  H252     1.0000 0.97254  0.48099  0.93272  Biso   1.000  H
  C331     1.0000 0.95817  0.56453  0.87716  Biso   1.000  C
  C332     1.0000 0.81491  0.43429  0.86046  Biso   1.000  C
  H253     1.0000 0.83256  0.52092  0.94546  Biso   1.000  H
  H254     1.0000 0.86465  0.57249  0.97793  Biso   1.000  H
  C333     1.0000 0.82259  0.60579  0.89284  Biso   1.000  C
  C334     1.0000 0.85503  0.79840  0.23761  Biso   1.000  C
  C335     1.0000 0.81356  0.89559  0.19679  Biso   1.000  C
  H255     1.0000 0.89590  0.81952  0.35271  Biso   1.000  H
  H256     1.0000 0.89693  0.87550  0.39833  Biso   1.000  H
  C336     1.0000 0.86529  0.79599  0.39120  Biso   1.000  C
  C337     1.0000 0.76780  0.98620  0.15023  Biso   1.000  C
  H257     1.0000 0.81461  0.05952  0.31440  Biso   1.000  H
  H258     1.0000 0.78561  0.06409  0.24130  Biso   1.000  H
  C338     1.0000 0.76568  0.01901  0.29112  Biso   1.000  C
  H259     1.0000 0.97266  0.19320  0.89246  Biso   1.000  H
  C339     1.0000 0.95004  0.28362  0.87245  Biso   1.000  C
  C340     1.0000 0.96333  0.34579  0.96272  Biso   1.000  C
  H260     1.0000 0.99698  0.30061  0.04399  Biso   1.000  H
  C341     1.0000 0.89749  0.75901  0.20631  Biso   1.000  C
  H261     1.0000 0.93391  0.73033  0.18470  Biso   1.000  H
  H262     1.0000 0.95580  0.90561  0.27321  Biso   1.000  H
  C342     1.0000 0.90982  0.86283  0.25772  Biso   1.000  C
  C343     1.0000 0.94618  0.34171  0.89745  Biso   1.000  C
  H263     1.0000 0.91044  0.38218  0.81203  Biso   1.000  H
  H264     1.0000 0.94476  0.42751  0.85295  Biso   1.000  H
  C344     1.0000 0.85415  0.36210  0.81474  Biso   1.000  C
  H265     1.0000 0.98275  0.57853  0.89214  Biso   1.000  H
  H266     1.0000 0.94885  0.53993  0.83816  Biso   1.000  H
  H267     1.0000 0.94313  0.60313  0.86983  Biso   1.000  H
  H268     1.0000 0.80144  0.47299  0.86116  Biso   1.000  H
  H269     1.0000 0.80235  0.41769  0.81702  Biso   1.000  H
  C345     1.0000 0.81314  0.38081  0.90193  Biso   1.000  C
  C346     1.0000 0.81466  0.37202  0.89465  Biso   1.000  C
  H270     1.0000 0.81065  0.62862  0.91136  Biso   1.000  H
  H271     1.0000 0.83683  0.63722  0.88532  Biso   1.000  H
  H272     1.0000 0.80454  0.58580  0.85323  Biso   1.000  H
  C347     1.0000 0.88794  0.80881  0.23332  Biso   1.000  C
  H273     1.0000 0.83631  0.77762  0.19842  Biso   1.000  H
  H274     1.0000 0.86110  0.76741  0.27209  Biso   1.000  H
  C348     1.0000 0.80105  0.87261  0.13152  Biso   1.000  C
  H275     1.0000 0.88452  0.76962  0.42432  Biso   1.000  H
  H276     1.0000 0.85311  0.82060  0.40823  Biso   1.000  H
  H277     1.0000 0.84821  0.76702  0.35770  Biso   1.000  H
  H278     1.0000 0.75180  0.95202  0.12079  Biso   1.000  H
  C349     1.0000 0.77711  0.03408  0.11370  Biso   1.000  C
  H279     1.0000 0.75390  0.01071  0.16460  Biso   1.000  H
  C350     1.0000 0.78001  0.04361  0.12653  Biso   1.000  C
  H280     1.0000 0.74681  0.99401  0.25599  Biso   1.000  H
  H281     1.0000 0.77552  0.99283  0.32933  Biso   1.000  H
  H282     1.0000 0.75560  0.05992  0.29611  Biso   1.000  H
  H283     1.0000 0.93804  0.27861  0.82845  Biso   1.000  H
  H284     1.0000 0.95985  0.38351  0.98124  Biso   1.000  H
  H285     1.0000 0.88271  0.72139  0.18942  Biso   1.000  H
  H286     1.0000 0.90351  0.89711  0.27591  Biso   1.000  H
  H287     1.0000 0.87295  0.32949  0.82365  Biso   1.000  H
  H288     1.0000 0.83704  0.34132  0.82402  Biso   1.000  H
  C351     1.0000 0.83459  0.38051  0.74545  Biso   1.000  C
  C352     1.0000 0.78133  0.34682  0.88052  Biso   1.000  C
  C353     1.0000 0.84246  0.36750  0.96086  Biso   1.000  C
  C354     1.0000 0.78195  0.33990  0.86774  Biso   1.000  C
  C355     1.0000 0.84275  0.35213  0.95255  Biso   1.000  C
  H289     1.0000 0.79332  0.91131  0.10353  Biso   1.000  H
  H290     1.0000 0.82151  0.85232  0.13119  Biso   1.000  H
  C356     1.0000 0.77002  0.82261  0.10539  Biso   1.000  C
  C357     1.0000 0.75149  0.04670  0.05160  Biso   1.000  C
  C358     1.0000 0.80930  0.06822  0.14248  Biso   1.000  C
  C359     1.0000 0.75680  0.06159  0.06471  Biso   1.000  C
  C360     1.0000 0.81170  0.07789  0.16292  Biso   1.000  C
  H291     1.0000 0.82334  0.34132  0.72003  Biso   1.000  H
  H292     1.0000 0.81625  0.41342  0.73654  Biso   1.000  H
  H293     1.0000 0.85174  0.39868  0.73552  Biso   1.000  H
  H294     1.0000 0.76125  0.35591  0.84035  Biso   1.000  H
  C361     1.0000 0.77895  0.29953  0.91794  Biso   1.000  C
  H295     1.0000 0.76263  0.35350  0.82813  Biso   1.000  H
  C362     1.0000 0.77736  0.28789  0.89876  Biso   1.000  C
  C363     1.0000 0.84006  0.32011  0.99823  Biso   1.000  C
  H296     1.0000 0.86425  0.39083  0.97546  Biso   1.000  H
  C364     1.0000 0.83826  0.30012  0.98353  Biso   1.000  C
  H297     1.0000 0.86515  0.37413  0.97093  Biso   1.000  H
  H298     1.0000 0.76299  0.81063  0.06270  Biso   1.000  H
  H299     1.0000 0.77780  0.78322  0.13161  Biso   1.000  H
  H300     1.0000 0.74960  0.84221  0.10530  Biso   1.000  H
  C365     1.0000 0.75798  0.09341  0.01838  Biso   1.000  C
  H301     1.0000 0.72949  0.02338  0.03191  Biso   1.000  H
  C366     1.0000 0.76540  0.11389  0.03928  Biso   1.000  C
  H302     1.0000 0.73509  0.03821  0.03980  Biso   1.000  H
  H303     1.0000 0.82679  0.05962  0.18489  Biso   1.000  H
  C367     1.0000 0.81580  0.11502  0.10931  Biso   1.000  C
  C368     1.0000 0.82029  0.13010  0.13749  Biso   1.000  C
  H304     1.0000 0.82760  0.06561  0.20519  Biso   1.000  H
  H305     1.0000 0.75715  0.27620  0.90333  Biso   1.000  H
  C369     1.0000 0.80826  0.28612  0.97686  Biso   1.000  C
  H306     1.0000 0.75505  0.26589  0.88033  Biso   1.000  H
  C370     1.0000 0.80554  0.26800  0.95666  Biso   1.000  C
  H307     1.0000 0.86009  0.31102  0.03840  Biso   1.000  H
  H308     1.0000 0.85738  0.28651  0.02309  Biso   1.000  H
  H309     1.0000 0.74055  0.10210  0.97602  Biso   1.000  H
  H310     1.0000 0.74956  0.12622  0.99715  Biso   1.000  H
  C371     1.0000 0.79015  0.12759  0.04731  Biso   1.000  C
  C372     1.0000 0.79710  0.14812  0.07572  Biso   1.000  C
  H311     1.0000 0.83781  0.13830  0.12909  Biso   1.000  H
  H312     1.0000 0.84201  0.15352  0.16240  Biso   1.000  H
  C373     1.0000 0.80155  0.21029  0.98983  Biso   1.000  C
  C374     1.0000 0.80430  0.23809  0.01829  Biso   1.000  C
  C375     1.0000 0.80329  0.20499  0.04381  Biso   1.000  C
  C376     1.0000 0.79580  0.17518  0.00672  Biso   1.000  C
  Br45     1.0000 0.78879  0.13560  0.93007  Biso   1.000  Br
  Br46     1.0000 0.80108  0.13172  0.95134  Biso   1.000  Br
  Br47     1.0000 0.80844  0.27650  0.09065  Biso   1.000  Br
  Br48     1.0000 0.81549  0.28499  0.09340  Biso   1.000  Br
  C377     1.0000 0.26568  0.51901  0.29112  Biso   1.000  C
  C378     1.0000 0.29541  0.53521  0.27829  Biso   1.000  C
  H313     1.0000 0.25560  0.55992  0.29611  Biso   1.000  H
  H314     1.0000 0.24681  0.49401  0.25599  Biso   1.000  H
  H315     1.0000 0.27552  0.49283  0.32933  Biso   1.000  H
  C379     1.0000 0.31113  0.47461  0.26710  Biso   1.000  C
  H316     1.0000 0.31461  0.55952  0.31440  Biso   1.000  H
  H317     1.0000 0.28561  0.56409  0.24130  Biso   1.000  H
  C380     1.0000 0.29840  0.45172  0.20649  Biso   1.000  C
  C381     1.0000 0.33832  0.43999  0.31879  Biso   1.000  C
  C382     1.0000 0.31356  0.39559  0.19679  Biso   1.000  C
  C383     1.0000 0.26780  0.48620  0.15023  Biso   1.000  C
  C384     1.0000 0.35235  0.38272  0.30871  Biso   1.000  C
  C385     1.0000 0.35338  0.46533  0.38420  Biso   1.000  C
  C386     1.0000 0.30105  0.37261  0.13152  Biso   1.000  C
  C387     1.0000 0.33975  0.36062  0.24839  Biso   1.000  C
  C388     1.0000 0.27711  0.53413  0.11370  Biso   1.000  C
  H318     1.0000 0.25180  0.45202  0.12079  Biso   1.000  H
  H319     1.0000 0.25390  0.51071  0.16460  Biso   1.000  H
  C389     1.0000 0.28001  0.54361  0.12653  Biso   1.000  C
  C390     1.0000 0.38109  0.34422  0.36512  Biso   1.000  C
  H320     1.0000 0.33451  0.49072  0.38541  Biso   1.000  H
  H321     1.0000 0.35941  0.42732  0.41252  Biso   1.000  H
  C391     1.0000 0.38561  0.51080  0.40552  Biso   1.000  C
  C392     1.0000 0.38641  0.50859  0.40902  Biso   1.000  C
  C393     1.0000 0.27002  0.32261  0.10539  Biso   1.000  C
  H322     1.0000 0.29332  0.41131  0.10353  Biso   1.000  H
  H323     1.0000 0.32151  0.35232  0.13119  Biso   1.000  H
  C394     1.0000 0.35505  0.29840  0.23761  Biso   1.000  C
  C395     1.0000 0.25149  0.54670  0.05160  Biso   1.000  C
  C396     1.0000 0.30930  0.56822  0.14248  Biso   1.000  C
  C397     1.0000 0.25680  0.56159  0.06471  Biso   1.000  C
  C398     1.0000 0.31170  0.57789  0.16292  Biso   1.000  C
  H324     1.0000 0.39590  0.31952  0.35271  Biso   1.000  H
  H325     1.0000 0.39693  0.37550  0.39833  Biso   1.000  H
  C399     1.0000 0.36529  0.29599  0.39120  Biso   1.000  C
  C400     1.0000 0.39832  0.54071  0.46300  Biso   1.000  C
  C401     1.0000 0.40324  0.52018  0.37351  Biso   1.000  C
  C402     1.0000 0.40892  0.51920  0.47270  Biso   1.000  C
  C403     1.0000 0.39331  0.53919  0.36689  Biso   1.000  C
  H326     1.0000 0.26299  0.31063  0.06270  Biso   1.000  H
  H327     1.0000 0.27780  0.28322  0.13161  Biso   1.000  H
  H328     1.0000 0.24960  0.34221  0.10530  Biso   1.000  H
  H329     1.0000 0.33631  0.27762  0.19842  Biso   1.000  H
  H330     1.0000 0.36110  0.26741  0.27209  Biso   1.000  H
  C404     1.0000 0.38796  0.30881  0.23332  Biso   1.000  C
  C405     1.0000 0.25798  0.59341  0.01838  Biso   1.000  C
  H331     1.0000 0.22949  0.52343  0.03191  Biso   1.000  H
  C406     1.0000 0.26540  0.61389  0.03928  Biso   1.000  C
  H332     1.0000 0.23509  0.53821  0.03980  Biso   1.000  H
  H333     1.0000 0.32679  0.55962  0.18489  Biso   1.000  H
  C407     1.0000 0.31583  0.61502  0.10931  Biso   1.000  C
  C408     1.0000 0.32029  0.63010  0.13749  Biso   1.000  C
  H334     1.0000 0.32760  0.56561  0.20519  Biso   1.000  H
  H335     1.0000 0.38452  0.26962  0.42432  Biso   1.000  H
  H336     1.0000 0.35311  0.32060  0.40823  Biso   1.000  H
  H337     1.0000 0.34821  0.26702  0.35770  Biso   1.000  H
  C409     1.0000 0.42863  0.58000  0.48861  Biso   1.000  C
  H338     1.0000 0.38622  0.53423  0.48492  Biso   1.000  H
  C410     1.0000 0.43830  0.56041  0.49430  Biso   1.000  C
  H339     1.0000 0.40422  0.49818  0.50139  Biso   1.000  H
  H340     1.0000 0.39462  0.49980  0.33409  Biso   1.000  H
  C411     1.0000 0.43355  0.55962  0.39913  Biso   1.000  C
  H341     1.0000 0.37800  0.53202  0.32341  Biso   1.000  H
  C412     1.0000 0.42271  0.58049  0.38849  Biso   1.000  C
  C413     1.0000 0.39752  0.25901  0.20631  Biso   1.000  C
  C414     1.0000 0.40982  0.36278  0.25772  Biso   1.000  C
  C415     1.0000 0.29015  0.62759  0.04731  Biso   1.000  C
  H342     1.0000 0.24055  0.60210  0.97602  Biso   1.000  H
  H343     1.0000 0.24956  0.62622  0.99715  Biso   1.000  H
  C416     1.0000 0.29710  0.64812  0.07572  Biso   1.000  C
  H344     1.0000 0.33781  0.63830  0.12909  Biso   1.000  H
  H345     1.0000 0.34201  0.65352  0.16240  Biso   1.000  H
  C417     1.0000 0.44623  0.58953  0.45661  Biso   1.000  C
  H346     1.0000 0.43721  0.60053  0.52789  Biso   1.000  H
  C418     1.0000 0.44522  0.59110  0.45222  Biso   1.000  C
  H347     1.0000 0.45372  0.56772  0.53783  Biso   1.000  H
  H348     1.0000 0.44561  0.56610  0.37720  Biso   1.000  H
  H349     1.0000 0.42741  0.60141  0.35980  Biso   1.000  H
  H350     1.0000 0.38271  0.22139  0.18942  Biso   1.000  H
  C419     1.0000 0.42807  0.26412  0.20402  Biso   1.000  C
  C420     1.0000 0.44097  0.36799  0.25623  Biso   1.000  C
  H351     1.0000 0.40351  0.39711  0.27591  Biso   1.000  H
  C421     1.0000 0.29580  0.67523  0.00672  Biso   1.000  C
  C422     1.0000 0.30329  0.70499  0.04381  Biso   1.000  C
  C423     1.0000 0.47961  0.62921  0.49080  Biso   1.000  C
  C424     1.0000 0.47781  0.63309  0.47923  Biso   1.000  C
  H352     1.0000 0.43391  0.23028  0.18470  Biso   1.000  H
  C425     1.0000 0.45024  0.31760  0.22931  Biso   1.000  C
  H353     1.0000 0.45580  0.40561  0.27321  Biso   1.000  H
  C426     1.0000 0.30430  0.73809  0.01829  Biso   1.000  C
  Br49     1.0000 0.28879  0.63560  0.93007  Biso   1.000  Br
  Br50     1.0000 0.30108  0.63172  0.95134  Biso   1.000  Br
  Br51     1.0000 0.30844  0.77654  0.09065  Biso   1.000  Br
  Br52     1.0000 0.31549  0.78499  0.09340  Biso   1.000  Br
  C427     1.0000 0.30155  0.71029  0.98983  Biso   1.000  C
  Br53     1.0000 0.52235  0.58315  0.54656  Biso   1.000  Br
  C428     1.0000 0.48222  0.68952  0.48511  Biso   1.000  C
  Br54     1.0000 0.52200  0.58825  0.51278  Biso   1.000  Br
  C429     1.0000 0.47881  0.69433  0.48600  Biso   1.000  C
  C430     1.0000 0.48323  0.32070  0.22711  Biso   1.000  C
  C431     1.0000 0.30826  0.78612  0.97686  Biso   1.000  C
  C432     1.0000 0.30557  0.76800  0.95666  Biso   1.000  C
  C433     1.0000 0.51007  0.73961  0.52523  Biso   1.000  C
  Br55     1.0000 0.43788  0.73681  0.42259  Biso   1.000  Br
  Br56     1.0000 0.43156  0.73789  0.43323  Biso   1.000  Br
  C434     1.0000 0.51678  0.32070  0.27293  Biso   1.000  C
  Br57     1.0000 0.47446  0.31411  0.14342  Biso   1.000  Br
  Br58     1.0000 0.47191  0.33332  0.14342  Biso   1.000  Br
  C435     1.0000 0.27895  0.79953  0.91794  Biso   1.000  C
  C436     1.0000 0.34006  0.82011  0.99823  Biso   1.000  C
  C437     1.0000 0.27736  0.78789  0.89876  Biso   1.000  C
  C438     1.0000 0.33826  0.80012  0.98353  Biso   1.000  C
  C439     1.0000 0.51501  0.79619  0.49999  Biso   1.000  C
  C440     1.0000 0.52899  0.73313  0.58952  Biso   1.000  C
  C441     1.0000 0.54978  0.31760  0.27069  Biso   1.000  C
  Br59     1.0000 0.52555  0.31411  0.35663  Biso   1.000  Br
  Br60     1.0000 0.52812  0.33332  0.35663  Biso   1.000  Br
  C442     1.0000 0.28133  0.84682  0.88052  Biso   1.000  C
  H354     1.0000 0.25715  0.77620  0.90333  Biso   1.000  H
  C443     1.0000 0.28195  0.83990  0.86774  Biso   1.000  C
  H355     1.0000 0.25505  0.76589  0.88033  Biso   1.000  H
  H356     1.0000 0.36009  0.81102  0.03840  Biso   1.000  H
  H357     1.0000 0.35740  0.78651  0.02309  Biso   1.000  H
  C444     1.0000 0.34246  0.86750  0.96086  Biso   1.000  C
  C445     1.0000 0.34275  0.85213  0.95255  Biso   1.000  C
  C446     1.0000 0.53672  0.84579  0.53732  Biso   1.000  C
  H358     1.0000 0.50301  0.80061  0.45600  Biso   1.000  H
  H359     1.0000 0.52743  0.69320  0.60763  Biso   1.000  H
  C447     1.0000 0.55005  0.78362  0.62764  Biso   1.000  C
  C448     1.0000 0.57194  0.26412  0.29602  Biso   1.000  C
  C449     1.0000 0.55904  0.36799  0.24382  Biso   1.000  C
  C450     1.0000 0.31314  0.88081  0.90193  Biso   1.000  C
  H360     1.0000 0.26125  0.85591  0.84035  Biso   1.000  H
  C451     1.0000 0.31466  0.87202  0.89465  Biso   1.000  C
  H361     1.0000 0.26265  0.85350  0.82813  Biso   1.000  H
  H362     1.0000 0.36425  0.89083  0.97546  Biso   1.000  H
  H363     1.0000 0.36515  0.87413  0.97093  Biso   1.000  H
  C452     1.0000 0.55392  0.84171  0.60263  Biso   1.000  C
  H364     1.0000 0.54020  0.88351  0.51880  Biso   1.000  H
  H365     1.0000 0.56203  0.77861  0.67164  Biso   1.000  H
  C453     1.0000 0.60250  0.25901  0.29369  Biso   1.000  C
  H366     1.0000 0.56611  0.23028  0.31529  Biso   1.000  H
  H367     1.0000 0.54419  0.40561  0.22679  Biso   1.000  H
  C454     1.0000 0.59021  0.36278  0.24232  Biso   1.000  C
  C455     1.0000 0.31491  0.93429  0.86046  Biso   1.000  C
  C456     1.0000 0.57321  0.89932  0.64542  Biso   1.000  C
  C457     1.0000 0.61207  0.30881  0.26672  Biso   1.000  C
  H368     1.0000 0.61732  0.22139  0.31062  Biso   1.000  H
  H369     1.0000 0.59650  0.39711  0.22413  Biso   1.000  H
  C458     1.0000 0.35203  0.95732  0.87716  Biso   1.000  C
  H370     1.0000 0.30144  0.97304  0.86116  Biso   1.000  H
  H371     1.0000 0.30235  0.91769  0.81702  Biso   1.000  H
  C459     1.0000 0.59448  0.94121  0.62652  Biso   1.000  C
  H372     1.0000 0.58962  0.88223  0.68801  Biso   1.000  H
  H373     1.0000 0.55534  0.92751  0.64714  Biso   1.000  H
  C460     1.0000 0.64498  0.29840  0.26243  Biso   1.000  C
  C461     1.0000 0.37105  0.92113  0.85682  Biso   1.000  C
  C462     1.0000 0.36693  0.01419  0.91313  Biso   1.000  C
  C463     1.0000 0.57958  0.99853  0.59172  Biso   1.000  C
  C464     1.0000 0.62903  0.92113  0.64322  Biso   1.000  C
  C465     1.0000 0.66025  0.36062  0.25161  Biso   1.000  C
  H374     1.0000 0.66370  0.27762  0.30162  Biso   1.000  H
  H375     1.0000 0.63892  0.26741  0.22791  Biso   1.000  H
  C466     1.0000 0.40557  0.94121  0.87352  Biso   1.000  C
  C467     1.0000 0.35415  0.86210  0.81474  Biso   1.000  C
  C468     1.0000 0.40078  0.03541  0.92703  Biso   1.000  C
  C469     1.0000 0.34710  0.05201  0.93762  Biso   1.000  C
  C470     1.0000 0.59930  0.03541  0.57301  Biso   1.000  C
  C471     1.0000 0.54228  0.02038  0.57380  Biso   1.000  C
  C472     1.0000 0.64804  0.95732  0.62293  Biso   1.000  C
  C473     1.0000 0.64590  0.86210  0.68530  Biso   1.000  C
  C474     1.0000 0.68646  0.39559  0.30321  Biso   1.000  C
  C475     1.0000 0.64765  0.38272  0.19128  Biso   1.000  C
  C476     1.0000 0.42047  0.99853  0.90832  Biso   1.000  C
  C477     1.0000 0.42687  0.89932  0.85463  Biso   1.000  C
  H376     1.0000 0.37295  0.82954  0.82365  Biso   1.000  H
  H377     1.0000 0.33704  0.84132  0.82402  Biso   1.000  H
  C478     1.0000 0.33459  0.88051  0.74545  Biso   1.000  C
  C479     1.0000 0.41681  0.09749  0.96366  Biso   1.000  C
  H378     1.0000 0.33256  0.02092  0.94546  Biso   1.000  H
  H379     1.0000 0.36465  0.07249  0.97793  Biso   1.000  H
  C480     1.0000 0.32259  0.10579  0.89284  Biso   1.000  C
  C481     1.0000 0.63312  0.01419  0.58691  Biso   1.000  C
  C482     1.0000 0.58328  0.09749  0.53643  Biso   1.000  C
  H380     1.0000 0.52752  0.98099  0.56732  Biso   1.000  H
  H381     1.0000 0.53132  0.04449  0.53373  Biso   1.000  H
  C483     1.0000 0.54190  0.06448  0.62293  Biso   1.000  C
  C484     1.0000 0.68516  0.93429  0.63963  Biso   1.000  C
  H382     1.0000 0.62714  0.82954  0.67644  Biso   1.000  H
  H383     1.0000 0.66304  0.84132  0.67602  Biso   1.000  H
  C485     1.0000 0.66548  0.88051  0.75463  Biso   1.000  C
  C486     1.0000 0.70160  0.45172  0.29350  Biso   1.000  C
  C487     1.0000 0.69896  0.37261  0.36852  Biso   1.000  C
  C488     1.0000 0.66167  0.43999  0.18121  Biso   1.000  C
  C489     1.0000 0.61892  0.34422  0.13492  Biso   1.000  C
  C490     1.0000 0.45780  0.02038  0.92624  Biso   1.000  C
  H384     1.0000 0.41044  0.88223  0.81203  Biso   1.000  H
  H385     1.0000 0.44476  0.92751  0.85295  Biso   1.000  H
  C491     1.0000 0.44618  0.84171  0.89745  Biso   1.000  C
  H386     1.0000 0.32334  0.84132  0.72003  Biso   1.000  H
  H387     1.0000 0.31625  0.91342  0.73654  Biso   1.000  H
  H388     1.0000 0.35174  0.89873  0.73552  Biso   1.000  H
  H389     1.0000 0.43026  0.11978  0.94714  Biso   1.000  H
  H390     1.0000 0.39716  0.12720  0.95675  Biso   1.000  H
  C492     1.0000 0.44168  0.08722  0.03359  Biso   1.000  C
  H391     1.0000 0.31065  0.12862  0.91136  Biso   1.000  H
  H392     1.0000 0.33683  0.13722  0.88532  Biso   1.000  H
  H393     1.0000 0.30454  0.08580  0.85323  Biso   1.000  H
  C493     1.0000 0.65298  0.05201  0.56242  Biso   1.000  C
  H394     1.0000 0.56982  0.11978  0.55290  Biso   1.000  H
  H395     1.0000 0.60293  0.12720  0.54334  Biso   1.000  H
  C494     1.0000 0.55832  0.08722  0.46640  Biso   1.000  C
  H396     1.0000 0.51733  0.07848  0.60791  Biso   1.000  H
  H397     1.0000 0.55124  0.03988  0.66193  Biso   1.000  H
  H398     1.0000 0.55692  0.10308  0.63021  Biso   1.000  H
  H399     1.0000 0.69862  0.97304  0.63893  Biso   1.000  H
  H400     1.0000 0.69773  0.91769  0.68302  Biso   1.000  H
  C495     1.0000 0.68691  0.88081  0.59811  Biso   1.000  C
  C496     1.0000 0.68544  0.87202  0.60543  Biso   1.000  C
  H401     1.0000 0.67674  0.84132  0.78001  Biso   1.000  H
  H402     1.0000 0.68384  0.91342  0.76354  Biso   1.000  H
  H403     1.0000 0.64834  0.89873  0.76452  Biso   1.000  H
  C497     1.0000 0.73223  0.48620  0.34981  Biso   1.000  C
  C498     1.0000 0.68889  0.47461  0.23290  Biso   1.000  C
  H404     1.0000 0.70672  0.41131  0.39651  Biso   1.000  H
  H405     1.0000 0.67851  0.35232  0.36880  Biso   1.000  H
  C499     1.0000 0.73000  0.32261  0.39460  Biso   1.000  C
  C500     1.0000 0.64662  0.46533  0.11580  Biso   1.000  C
  H406     1.0000 0.60409  0.31952  0.14729  Biso   1.000  H
  H407     1.0000 0.60310  0.37550  0.10171  Biso   1.000  H
  C501     1.0000 0.63473  0.29599  0.10880  Biso   1.000  C
  H408     1.0000 0.47254  0.98099  0.93272  Biso   1.000  H
  H409     1.0000 0.46875  0.04449  0.96636  Biso   1.000  H
  C502     1.0000 0.45817  0.06448  0.87716  Biso   1.000  C
  C503     1.0000 0.46333  0.84579  0.96272  Biso   1.000  C
  C504     1.0000 0.45004  0.78362  0.87245  Biso   1.000  C
  C505     1.0000 0.44475  0.02760  0.06130  Biso   1.000  C
  C506     1.0000 0.46111  0.13889  0.07082  Biso   1.000  C
  H410     1.0000 0.66753  0.02092  0.55463  Biso   1.000  H
  H411     1.0000 0.63543  0.07249  0.52211  Biso   1.000  H
  C507     1.0000 0.67747  0.10579  0.60721  Biso   1.000  C
  C508     1.0000 0.55527  0.02760  0.43869  Biso   1.000  C
  C509     1.0000 0.53890  0.13889  0.42922  Biso   1.000  C
  C510     1.0000 0.71872  0.84682  0.61952  Biso   1.000  C
  C511     1.0000 0.65761  0.86750  0.53923  Biso   1.000  C
  C512     1.0000 0.71813  0.83990  0.63231  Biso   1.000  C
  C513     1.0000 0.65732  0.85213  0.54753  Biso   1.000  C
  C514     1.0000 0.72291  0.53413  0.38630  Biso   1.000  C
  H412     1.0000 0.74822  0.45202  0.37921  Biso   1.000  H
  H413     1.0000 0.74610  0.51071  0.33540  Biso   1.000  H
  C515     1.0000 0.72002  0.54361  0.37351  Biso   1.000  C
  C516     1.0000 0.70461  0.53521  0.22170  Biso   1.000  C
  H414     1.0000 0.73700  0.31063  0.43729  Biso   1.000  H
  H415     1.0000 0.72221  0.28322  0.36843  Biso   1.000  H
  H416     1.0000 0.75042  0.34221  0.39470  Biso   1.000  H
  H417     1.0000 0.66548  0.49072  0.11458  Biso   1.000  H
  H418     1.0000 0.64060  0.42732  0.08752  Biso   1.000  H
  C517     1.0000 0.61442  0.51080  0.09452  Biso   1.000  C
  C518     1.0000 0.61360  0.50859  0.09102  Biso   1.000  C
  H419     1.0000 0.61552  0.26962  0.07572  Biso   1.000  H
  H420     1.0000 0.64690  0.32060  0.09182  Biso   1.000  H
  H421     1.0000 0.65179  0.26702  0.14230  Biso   1.000  H
  H422     1.0000 0.48275  0.07848  0.89214  Biso   1.000  H
  H423     1.0000 0.44885  0.03988  0.83816  Biso   1.000  H
  H424     1.0000 0.44315  0.10308  0.86983  Biso   1.000  H
  C519     1.0000 0.48499  0.79619  0.00000  Biso   1.000  C
  H425     1.0000 0.45985  0.88351  0.98124  Biso   1.000  H
  C520     1.0000 0.47107  0.73313  0.91052  Biso   1.000  C
  H426     1.0000 0.43804  0.77861  0.82845  Biso   1.000  H
  H427     1.0000 0.43149  0.99101  0.03639  Biso   1.000  H
  C521     1.0000 0.46740  0.01989  0.12653  Biso   1.000  C
  C522     1.0000 0.48299  0.13162  0.13469  Biso   1.000  C
  H428     1.0000 0.45949  0.18039  0.05239  Biso   1.000  H
  H429     1.0000 0.68942  0.12862  0.58873  Biso   1.000  H
  H430     1.0000 0.66322  0.13722  0.61472  Biso   1.000  H
  H431     1.0000 0.69551  0.08580  0.64682  Biso   1.000  H
  H432     1.0000 0.56851  0.99101  0.46360  Biso   1.000  H
  C523     1.0000 0.53261  0.01989  0.37351  Biso   1.000  C
  C524     1.0000 0.51703  0.13162  0.36530  Biso   1.000  C
  H433     1.0000 0.54051  0.18039  0.44760  Biso   1.000  H
  H434     1.0000 0.73884  0.85591  0.65974  Biso   1.000  H
  C525     1.0000 0.72111  0.79953  0.58211  Biso   1.000  C
  H435     1.0000 0.73743  0.85350  0.67192  Biso   1.000  H
  C526     1.0000 0.72274  0.78789  0.60133  Biso   1.000  C
  C527     1.0000 0.66002  0.82011  0.50181  Biso   1.000  C
  H436     1.0000 0.63582  0.89083  0.52463  Biso   1.000  H
  C528     1.0000 0.66182  0.80012  0.51651  Biso   1.000  C
  H437     1.0000 0.63492  0.87413  0.52911  Biso   1.000  H
  C529     1.0000 0.74850  0.54670  0.44839  Biso   1.000  C
  C530     1.0000 0.69072  0.56822  0.35751  Biso   1.000  C
  C531     1.0000 0.74323  0.56159  0.43533  Biso   1.000  C
  C532     1.0000 0.68831  0.57789  0.33712  Biso   1.000  C
  H438     1.0000 0.68540  0.55952  0.18559  Biso   1.000  H
  H439     1.0000 0.71440  0.56409  0.25870  Biso   1.000  H
  C533     1.0000 0.73435  0.51901  0.20892  Biso   1.000  C
  C534     1.0000 0.60170  0.54071  0.03700  Biso   1.000  C
  C535     1.0000 0.59679  0.52018  0.12653  Biso   1.000  C
  C536     1.0000 0.59110  0.51920  0.02729  Biso   1.000  C
  C537     1.0000 0.60671  0.53919  0.13310  Biso   1.000  C
  H440     1.0000 0.49701  0.80061  0.04399  Biso   1.000  H
  C538     1.0000 0.48999  0.73961  0.97485  Biso   1.000  C
  H441     1.0000 0.47266  0.69320  0.89246  Biso   1.000  H
  H442     1.0000 0.47000  0.97810  0.14542  Biso   1.000  H
  C539     1.0000 0.48566  0.07362  0.16250  Biso   1.000  C
  H443     1.0000 0.49631  0.16821  0.15942  Biso   1.000  H
  H444     1.0000 0.53001  0.97810  0.35462  Biso   1.000  H
  C540     1.0000 0.51436  0.07362  0.33750  Biso   1.000  C
  H445     1.0000 0.50372  0.16821  0.34062  Biso   1.000  H
  H446     1.0000 0.74293  0.77620  0.59671  Biso   1.000  H
  C541     1.0000 0.69183  0.78612  0.52323  Biso   1.000  C
  H447     1.0000 0.74503  0.76589  0.61971  Biso   1.000  H
  C542     1.0000 0.69453  0.76800  0.54343  Biso   1.000  C
  H448     1.0000 0.63990  0.81102  0.46160  Biso   1.000  H
  H449     1.0000 0.64261  0.78651  0.47690  Biso   1.000  H
  C543     1.0000 0.74204  0.59341  0.48161  Biso   1.000  C
  H450     1.0000 0.77051  0.52343  0.46813  Biso   1.000  H
  C544     1.0000 0.73462  0.61389  0.46071  Biso   1.000  C
  H451     1.0000 0.76491  0.53821  0.46020  Biso   1.000  H
  H452     1.0000 0.67320  0.55962  0.31510  Biso   1.000  H
  C545     1.0000 0.68421  0.61502  0.39073  Biso   1.000  C
  C546     1.0000 0.67970  0.63010  0.36250  Biso   1.000  C
  H453     1.0000 0.67242  0.56561  0.29481  Biso   1.000  H
  H454     1.0000 0.74441  0.55992  0.20393  Biso   1.000  H
  H455     1.0000 0.75321  0.49401  0.24400  Biso   1.000  H
  H456     1.0000 0.72451  0.49283  0.17071  Biso   1.000  H
  C547     1.0000 0.57139  0.58000  0.01138  Biso   1.000  C
  H457     1.0000 0.61379  0.53423  0.01512  Biso   1.000  H
  C548     1.0000 0.56169  0.56041  0.00569  Biso   1.000  C
  H458     1.0000 0.59585  0.49818  0.99865  Biso   1.000  H
  H459     1.0000 0.60540  0.49980  0.16590  Biso   1.000  H
  C549     1.0000 0.56648  0.55962  0.10091  Biso   1.000  C
  H460     1.0000 0.62199  0.53202  0.17659  Biso   1.000  H
  C550     1.0000 0.57730  0.58049  0.11150  Biso   1.000  C
  C551     1.0000 0.51780  0.68952  0.01488  Biso   1.000  C
  C552     1.0000 0.52121  0.69433  0.01400  Biso   1.000  C
  C553     1.0000 0.50615  0.06930  0.23131  Biso   1.000  C
  C554     1.0000 0.49386  0.06930  0.26873  Biso   1.000  C
  C555     1.0000 0.69572  0.73809  0.48171  Biso   1.000  C
  C556     1.0000 0.69851  0.71029  0.51021  Biso   1.000  C
  C557     1.0000 0.70986  0.62759  0.45273  Biso   1.000  C
  H461     1.0000 0.75953  0.60210  0.52402  Biso   1.000  H
  H462     1.0000 0.75053  0.62622  0.50293  Biso   1.000  H
  C558     1.0000 0.70291  0.64812  0.42432  Biso   1.000  C
  H463     1.0000 0.66221  0.63830  0.37090  Biso   1.000  H
  H464     1.0000 0.65801  0.65352  0.33759  Biso   1.000  H
  C559     1.0000 0.55378  0.58953  0.04339  Biso   1.000  C
  C560     1.0000 0.55481  0.59110  0.04782  Biso   1.000  C
  H465     1.0000 0.56284  0.60053  0.97215  Biso   1.000  H
  H466     1.0000 0.54635  0.56772  0.96226  Biso   1.000  H
  H467     1.0000 0.55439  0.56610  0.12279  Biso   1.000  H
  H468     1.0000 0.57260  0.60141  0.14020  Biso   1.000  H
  C561     1.0000 0.52038  0.62921  0.00919  Biso   1.000  C
  C562     1.0000 0.52220  0.63309  0.02081  Biso   1.000  C
  Br61     1.0000 0.56211  0.73681  0.07740  Biso   1.000  Br
  Br62     1.0000 0.56847  0.73789  0.06681  Biso   1.000  Br
  Br63     1.0000 0.55725  0.06718  0.27013  Biso   1.000  Br
  Br64     1.0000 0.55632  0.08369  0.26831  Biso   1.000  Br
  Br65     1.0000 0.44278  0.06718  0.22991  Biso   1.000  Br
  Br66     1.0000 0.44370  0.08369  0.23169  Biso   1.000  Br
  C563     1.0000 0.70421  0.67523  0.49332  Biso   1.000  C
  Br67     1.0000 0.69157  0.77654  0.40939  Biso   1.000  Br
  Br68     1.0000 0.68451  0.78499  0.40659  Biso   1.000  Br
  C564     1.0000 0.69672  0.70499  0.45623  Biso   1.000  C
  Br69     1.0000 0.71130  0.63560  0.57002  Biso   1.000  Br
  Br70     1.0000 0.69897  0.63172  0.54870  Biso   1.000  Br
  Br71     1.0000 0.47772  0.58315  0.95349  Biso   1.000  Br
  Br72     1.0000 0.47805  0.58825  0.98726  Biso   1.000  Br
  C565     1.0000 0.23437  0.98099  0.70891  Biso   1.000  C
  C566     1.0000 0.20465  0.96484  0.72174  Biso   1.000  C
  H469     1.0000 0.24443  0.94013  0.70392  Biso   1.000  H
  H470     1.0000 0.25324  0.00599  0.74404  Biso   1.000  H
  H471     1.0000 0.22453  0.00722  0.67070  Biso   1.000  H
  C567     1.0000 0.18893  0.02539  0.73294  Biso   1.000  C
  H472     1.0000 0.18544  0.94053  0.68563  Biso   1.000  H
  H473     1.0000 0.21444  0.93591  0.75874  Biso   1.000  H
  C568     1.0000 0.16172  0.06001  0.68120  Biso   1.000  C
  C569     1.0000 0.20163  0.04828  0.79354  Biso   1.000  C
  C570     1.0000 0.14667  0.03472  0.61584  Biso   1.000  C
  C571     1.0000 0.14770  0.11728  0.69132  Biso   1.000  C
  C572     1.0000 0.18649  0.10441  0.80325  Biso   1.000  C
  C573     1.0000 0.23225  0.01380  0.84981  Biso   1.000  C
  C574     1.0000 0.11444  0.98920  0.59452  Biso   1.000  C
  C575     1.0000 0.11362  0.99141  0.59102  Biso   1.000  C
  H474     1.0000 0.16554  0.00928  0.61462  Biso   1.000  H
  H475     1.0000 0.14062  0.07268  0.58752  Biso   1.000  H
  C576     1.0000 0.16029  0.13943  0.75160  Biso   1.000  C
  C577     1.0000 0.11896  0.15578  0.63492  Biso   1.000  C
  C578     1.0000 0.19898  0.12739  0.86852  Biso   1.000  C
  C579     1.0000 0.22294  0.96592  0.88634  Biso   1.000  C
  H476     1.0000 0.24615  0.98929  0.83544  Biso   1.000  H
  C580     1.0000 0.22004  0.95644  0.87351  Biso   1.000  C
  H477     1.0000 0.24825  0.04798  0.87925  Biso   1.000  H
  C581     1.0000 0.10173  0.95934  0.53704  Biso   1.000  C
  C582     1.0000 0.09113  0.98080  0.52733  Biso   1.000  C
  C583     1.0000 0.09681  0.97982  0.62652  Biso   1.000  C
  C584     1.0000 0.10673  0.96081  0.63310  Biso   1.000  C
  C585     1.0000 0.14500  0.20160  0.76242  Biso   1.000  C
  H478     1.0000 0.10413  0.18048  0.64733  Biso   1.000  H
  H479     1.0000 0.10312  0.12450  0.60170  Biso   1.000  H
  C586     1.0000 0.13476  0.20401  0.60884  Biso   1.000  C
  H480     1.0000 0.20673  0.08869  0.89651  Biso   1.000  H
  H481     1.0000 0.17855  0.14773  0.86884  Biso   1.000  H
  C587     1.0000 0.23003  0.17739  0.89464  Biso   1.000  C
  C588     1.0000 0.24854  0.95330  0.94844  Biso   1.000  C
  C589     1.0000 0.19074  0.93183  0.85751  Biso   1.000  C
  C590     1.0000 0.24325  0.93841  0.93533  Biso   1.000  C
  C591     1.0000 0.18833  0.92211  0.83712  Biso   1.000  C
  C592     1.0000 0.07142  0.92000  0.51142  Biso   1.000  C
  C593     1.0000 0.06172  0.93959  0.50573  Biso   1.000  C
  H482     1.0000 0.11383  0.96582  0.51511  Biso   1.000  H
  H483     1.0000 0.09581  0.00182  0.49859  Biso   1.000  H
  C594     1.0000 0.06650  0.94043  0.60091  Biso   1.000  C
  C595     1.0000 0.07732  0.91951  0.61150  Biso   1.000  C
  H484     1.0000 0.12203  0.96803  0.67663  Biso   1.000  H
  H485     1.0000 0.10543  0.00020  0.66594  Biso   1.000  H
  H486     1.0000 0.16374  0.22242  0.80161  Biso   1.000  H
  H487     1.0000 0.13894  0.23259  0.72790  Biso   1.000  H
  C596     1.0000 0.11209  0.19119  0.76672  Biso   1.000  C
  H488     1.0000 0.11553  0.23038  0.57571  Biso   1.000  H
  H489     1.0000 0.14691  0.17940  0.59181  Biso   1.000  H
  H490     1.0000 0.15184  0.23298  0.64234  Biso   1.000  H
  H491     1.0000 0.23704  0.18942  0.93733  Biso   1.000  H
  H492     1.0000 0.22223  0.21683  0.86842  Biso   1.000  H
  H493     1.0000 0.25045  0.15779  0.89474  Biso   1.000  H
  C597     1.0000 0.24207  0.90659  0.98165  Biso   1.000  C
  H494     1.0000 0.27053  0.97662  0.96812  Biso   1.000  H
  C598     1.0000 0.23465  0.88611  0.96075  Biso   1.000  C
  H495     1.0000 0.26494  0.96179  0.96024  Biso   1.000  H
  H496     1.0000 0.17324  0.94043  0.81514  Biso   1.000  H
  C599     1.0000 0.18423  0.88503  0.89072  Biso   1.000  C
  C600     1.0000 0.17974  0.86990  0.86254  Biso   1.000  C
  H497     1.0000 0.17244  0.93444  0.79480  Biso   1.000  H
  C601     1.0000 0.05382  0.91052  0.54343  Biso   1.000  C
  C602     1.0000 0.05483  0.90890  0.54781  Biso   1.000  C
  H498     1.0000 0.06282  0.89952  0.47209  Biso   1.000  H
  H499     1.0000 0.04631  0.93232  0.46220  Biso   1.000  H
  H500     1.0000 0.05444  0.93390  0.62283  Biso   1.000  H
  H501     1.0000 0.07264  0.89863  0.64024  Biso   1.000  H
  C603     1.0000 0.10254  0.24099  0.79373  Biso   1.000  C
  C604     1.0000 0.09023  0.13722  0.74232  Biso   1.000  C
  C605     1.0000 0.20990  0.87241  0.95273  Biso   1.000  C
  H502     1.0000 0.25949  0.89790  0.02397  Biso   1.000  H
  H503     1.0000 0.25049  0.87383  0.00288  Biso   1.000  H
  C606     1.0000 0.20293  0.85193  0.92431  Biso   1.000  C
  H504     1.0000 0.16225  0.86170  0.87094  Biso   1.000  H
  H505     1.0000 0.15805  0.84653  0.83763  Biso   1.000  H
  C607     1.0000 0.02044  0.87079  0.50923  Biso   1.000  C
  C608     1.0000 0.02221  0.86691  0.52080  Biso   1.000  C
  H506     1.0000 0.11734  0.27861  0.81062  Biso   1.000  H
  C609     1.0000 0.07198  0.23588  0.79602  Biso   1.000  C
  C610     1.0000 0.05906  0.13201  0.74381  Biso   1.000  C
  H507     1.0000 0.09652  0.10289  0.72412  Biso   1.000  H
  C611     1.0000 0.20425  0.82482  0.99332  Biso   1.000  C
  C612     1.0000 0.19673  0.79501  0.95623  Biso   1.000  C
  C613     1.0000 0.02124  0.80572  0.51404  Biso   1.000  C
  C614     1.0000 0.01784  0.81053  0.51492  Biso   1.000  C
  Br73     1.0000 0.97770  0.91690  0.45348  Biso   1.000  Br
  Br74     1.0000 0.97803  0.91180  0.48726  Biso   1.000  Br
  H508     1.0000 0.06614  0.26972  0.81533  Biso   1.000  H
  C615     1.0000 0.04982  0.18240  0.77073  Biso   1.000  C
  H509     1.0000 0.04422  0.09439  0.72683  Biso   1.000  H
  C616     1.0000 0.19576  0.76191  0.98175  Biso   1.000  C
  Br75     1.0000 0.21126  0.86440  0.06997  Biso   1.000  Br
  Br76     1.0000 0.19895  0.86833  0.04870  Biso   1.000  Br
  Br77     1.0000 0.19158  0.72350  0.90939  Biso   1.000  Br
  Br78     1.0000 0.18454  0.71501  0.90663  Biso   1.000  Br
  C617     1.0000 0.19850  0.78971  0.01021  Biso   1.000  C
  Br79     1.0000 0.06214  0.76324  0.57744  Biso   1.000  Br
  Br80     1.0000 0.06849  0.76211  0.56680  Biso   1.000  Br
  C618     1.0000 0.98995  0.76039  0.47480  Biso   1.000  C
  C619     1.0000 0.01680  0.17930  0.77292  Biso   1.000  C
  C620     1.0000 0.19179  0.71393  0.02318  Biso   1.000  C
  C621     1.0000 0.19448  0.73200  0.04338  Biso   1.000  C
  C622     1.0000 0.98500  0.70381  0.49999  Biso   1.000  C
  C623     1.0000 0.97104  0.76692  0.41051  Biso   1.000  C
  C624     1.0000 0.98325  0.17930  0.72711  Biso   1.000  C
  Br81     1.0000 0.02557  0.18589  0.85662  Biso   1.000  Br
  Br82     1.0000 0.02814  0.16668  0.85662  Biso   1.000  Br
  C625     1.0000 0.22110  0.70052  0.08210  Biso   1.000  C
  C626     1.0000 0.16000  0.67989  0.00181  Biso   1.000  C
  C627     1.0000 0.22269  0.71211  0.10127  Biso   1.000  C
  C628     1.0000 0.16179  0.69993  0.01650  Biso   1.000  C
  C629     1.0000 0.96330  0.65421  0.46272  Biso   1.000  C
  H510     1.0000 0.99702  0.69939  0.54404  Biso   1.000  H
  H511     1.0000 0.97262  0.80680  0.39241  Biso   1.000  H
  C630     1.0000 0.95000  0.71643  0.37239  Biso   1.000  C
  C631     1.0000 0.95025  0.18240  0.72930  Biso   1.000  C
  Br83     1.0000 0.97448  0.18589  0.64341  Biso   1.000  Br
  Br84     1.0000 0.97193  0.16668  0.64341  Biso   1.000  Br
  C632     1.0000 0.21868  0.65323  0.11947  Biso   1.000  C
  H512     1.0000 0.24290  0.72380  0.09670  Biso   1.000  H
  C633     1.0000 0.21810  0.66010  0.13230  Biso   1.000  C
  H513     1.0000 0.24500  0.73411  0.11970  Biso   1.000  H
  H514     1.0000 0.13994  0.68903  0.96164  Biso   1.000  H
  H515     1.0000 0.14265  0.71354  0.97694  Biso   1.000  H
  C634     1.0000 0.15760  0.63250  0.03918  Biso   1.000  C
  C635     1.0000 0.15730  0.64792  0.04748  Biso   1.000  C
  C636     1.0000 0.94614  0.65833  0.39740  Biso   1.000  C
  H516     1.0000 0.95981  0.61649  0.48119  Biso   1.000  H
  H517     1.0000 0.93800  0.72139  0.32840  Biso   1.000  H
  C637     1.0000 0.92809  0.23588  0.70401  Biso   1.000  C
  C638     1.0000 0.94099  0.13201  0.75622  Biso   1.000  C
  C639     1.0000 0.18689  0.61919  0.09810  Biso   1.000  C
  H518     1.0000 0.23880  0.64409  0.15969  Biso   1.000  H
  C640     1.0000 0.18540  0.62803  0.10538  Biso   1.000  C
  H519     1.0000 0.23740  0.64650  0.17191  Biso   1.000  H
  H520     1.0000 0.13580  0.60922  0.02457  Biso   1.000  H
  H521     1.0000 0.13490  0.62592  0.02910  Biso   1.000  H
  C641     1.0000 0.92684  0.60073  0.35462  Biso   1.000  C
  C642     1.0000 0.89751  0.24099  0.70630  Biso   1.000  C
  H522     1.0000 0.93393  0.26972  0.68470  Biso   1.000  H
  H523     1.0000 0.95582  0.09439  0.77320  Biso   1.000  H
  C643     1.0000 0.90981  0.13722  0.75771  Biso   1.000  C
  C644     1.0000 0.18512  0.56571  0.13958  Biso   1.000  C
  C645     1.0000 0.90554  0.55879  0.37351  Biso   1.000  C
  H524     1.0000 0.91041  0.61782  0.31202  Biso   1.000  H
  H525     1.0000 0.94471  0.57249  0.35289  Biso   1.000  H
  C646     1.0000 0.88796  0.19119  0.73331  Biso   1.000  C
  H526     1.0000 0.88273  0.27861  0.68941  Biso   1.000  H
  H527     1.0000 0.90352  0.10289  0.77591  Biso   1.000  H
  C647     1.0000 0.14800  0.54273  0.12288  Biso   1.000  C
  H528     1.0000 0.19858  0.52701  0.13888  Biso   1.000  H
  H529     1.0000 0.19771  0.58231  0.18301  Biso   1.000  H
  C648     1.0000 0.92044  0.50152  0.40832  Biso   1.000  C
  C649     1.0000 0.87102  0.57892  0.35681  Biso   1.000  C
  C650     1.0000 0.85504  0.20160  0.73760  Biso   1.000  C
  C651     1.0000 0.13312  0.48581  0.08691  Biso   1.000  C
  C652     1.0000 0.12899  0.57892  0.14317  Biso   1.000  C
  C653     1.0000 0.90075  0.46459  0.42703  Biso   1.000  C
  C654     1.0000 0.95777  0.47962  0.42623  Biso   1.000  C
  C655     1.0000 0.85199  0.54273  0.37711  Biso   1.000  C
  C656     1.0000 0.85413  0.63790  0.31473  Biso   1.000  C
  C657     1.0000 0.83978  0.13943  0.74843  Biso   1.000  C
  H530     1.0000 0.83633  0.22242  0.69841  Biso   1.000  H
  H531     1.0000 0.86113  0.23259  0.77213  Biso   1.000  H
  C658     1.0000 0.09927  0.46459  0.07300  Biso   1.000  C
  C659     1.0000 0.15295  0.44799  0.06241  Biso   1.000  C
  C660     1.0000 0.09446  0.55879  0.12651  Biso   1.000  C
  C661     1.0000 0.14587  0.63790  0.18530  Biso   1.000  C
  C662     1.0000 0.86691  0.48581  0.41312  Biso   1.000  C
  C663     1.0000 0.91677  0.40251  0.46360  Biso   1.000  C
  H532     1.0000 0.96871  0.45551  0.46631  Biso   1.000  H
  H533     1.0000 0.97251  0.51901  0.43272  Biso   1.000  H
  C664     1.0000 0.95813  0.43552  0.37711  Biso   1.000  C
  C665     1.0000 0.81486  0.56571  0.36040  Biso   1.000  C
  H534     1.0000 0.87291  0.67051  0.32359  Biso   1.000  H
  H535     1.0000 0.83701  0.65873  0.32401  Biso   1.000  H
  C666     1.0000 0.83455  0.61949  0.24540  Biso   1.000  C
  C667     1.0000 0.81359  0.10441  0.69683  Biso   1.000  C
  C668     1.0000 0.85237  0.11728  0.80871  Biso   1.000  C
  C669     1.0000 0.08324  0.40251  0.03638  Biso   1.000  C
  C670     1.0000 0.07958  0.50152  0.09171  Biso   1.000  C
  H536     1.0000 0.16749  0.47913  0.05457  Biso   1.000  H
  H537     1.0000 0.13540  0.42751  0.02210  Biso   1.000  H
  C671     1.0000 0.17746  0.39421  0.10720  Biso   1.000  C
  C672     1.0000 0.07318  0.60073  0.14541  Biso   1.000  C
  H538     1.0000 0.12710  0.67051  0.17639  Biso   1.000  H
  H539     1.0000 0.16301  0.65873  0.17601  Biso   1.000  H
  C673     1.0000 0.16544  0.61949  0.25458  Biso   1.000  C
  C674     1.0000 0.84708  0.44799  0.43762  Biso   1.000  C
  H540     1.0000 0.93021  0.38022  0.44713  Biso   1.000  H
  H541     1.0000 0.89712  0.37280  0.45670  Biso   1.000  H
  C675     1.0000 0.94171  0.41283  0.53363  Biso   1.000  C
  H542     1.0000 0.98272  0.42152  0.39213  Biso   1.000  H
  H543     1.0000 0.94881  0.46012  0.33810  Biso   1.000  H
  H544     1.0000 0.94311  0.39692  0.36983  Biso   1.000  H
  H545     1.0000 0.80140  0.52701  0.36110  Biso   1.000  H
  H546     1.0000 0.80232  0.58231  0.31702  Biso   1.000  H
  C676     1.0000 0.81311  0.61919  0.40193  Biso   1.000  C
  C677     1.0000 0.81461  0.62803  0.39460  Biso   1.000  C
  H547     1.0000 0.82331  0.65873  0.22002  Biso   1.000  H
  H548     1.0000 0.81621  0.58663  0.23649  Biso   1.000  H
  H549     1.0000 0.85171  0.60132  0.23551  Biso   1.000  H
  C678     1.0000 0.79843  0.04828  0.70653  Biso   1.000  C
  C679     1.0000 0.80107  0.12739  0.63151  Biso   1.000  C
  C680     1.0000 0.83835  0.06001  0.81883  Biso   1.000  C
  C681     1.0000 0.88111  0.15578  0.86511  Biso   1.000  C
  C682     1.0000 0.05835  0.41283  0.96644  Biso   1.000  C
  H550     1.0000 0.06979  0.38022  0.05289  Biso   1.000  H
  H551     1.0000 0.10289  0.37280  0.04328  Biso   1.000  H
  C683     1.0000 0.04226  0.47962  0.07380  Biso   1.000  C
  H552     1.0000 0.18940  0.37143  0.08868  Biso   1.000  H
  H553     1.0000 0.16319  0.36278  0.11471  Biso   1.000  H
  H554     1.0000 0.19551  0.41420  0.14681  Biso   1.000  H
  H555     1.0000 0.08961  0.61782  0.18800  Biso   1.000  H
  H556     1.0000 0.05530  0.57249  0.14709  Biso   1.000  H
  C684     1.0000 0.05387  0.65833  0.10258  Biso   1.000  C
  H557     1.0000 0.17671  0.65873  0.28001  Biso   1.000  H
  H558     1.0000 0.18380  0.58663  0.26349  Biso   1.000  H
  H559     1.0000 0.14832  0.60132  0.26452  Biso   1.000  H
  H560     1.0000 0.83252  0.47913  0.44541  Biso   1.000  H
  H561     1.0000 0.86462  0.42751  0.47793  Biso   1.000  H
  C685     1.0000 0.82256  0.39421  0.39283  Biso   1.000  C
  C686     1.0000 0.94474  0.47240  0.56130  Biso   1.000  C
  C687     1.0000 0.96112  0.36111  0.57082  Biso   1.000  C
  C688     1.0000 0.78131  0.65323  0.38051  Biso   1.000  C
  C689     1.0000 0.84241  0.63250  0.46080  Biso   1.000  C
  C690     1.0000 0.78192  0.66010  0.36773  Biso   1.000  C
  C691     1.0000 0.84271  0.64792  0.45250  Biso   1.000  C
  C692     1.0000 0.76782  0.01380  0.65022  Biso   1.000  C
  C693     1.0000 0.81113  0.02539  0.76714  Biso   1.000  C
  H562     1.0000 0.79331  0.08869  0.60352  Biso   1.000  H
  H563     1.0000 0.82154  0.14773  0.63123  Biso   1.000  H
  C694     1.0000 0.77005  0.17739  0.60543  Biso   1.000  C
  C695     1.0000 0.85341  0.03472  0.88424  Biso   1.000  C
  H564     1.0000 0.89594  0.18048  0.85275  Biso   1.000  H
  H565     1.0000 0.89693  0.12450  0.89833  Biso   1.000  H
  C696     1.0000 0.86532  0.20401  0.89124  Biso   1.000  C
  C697     1.0000 0.05530  0.47240  0.93873  Biso   1.000  C
  C698     1.0000 0.03892  0.36111  0.92921  Biso   1.000  C
  H566     1.0000 0.03128  0.45551  0.03367  Biso   1.000  H
  H567     1.0000 0.02749  0.51901  0.06731  Biso   1.000  H
  C699     1.0000 0.04186  0.43552  0.12288  Biso   1.000  C
  C700     1.0000 0.03672  0.65421  0.03731  Biso   1.000  C
  C701     1.0000 0.05001  0.71643  0.12759  Biso   1.000  C
  H568     1.0000 0.81061  0.37143  0.41130  Biso   1.000  H
  H569     1.0000 0.83681  0.36278  0.38532  Biso   1.000  H
  H570     1.0000 0.80451  0.41420  0.35322  Biso   1.000  H
  H571     1.0000 0.93152  0.50899  0.53643  Biso   1.000  H
  C702     1.0000 0.96742  0.48011  0.62652  Biso   1.000  C
  C703     1.0000 0.98302  0.36838  0.63473  Biso   1.000  C
  H572     1.0000 0.95952  0.31961  0.55243  Biso   1.000  H
  H573     1.0000 0.76121  0.64409  0.34030  Biso   1.000  H
  C704     1.0000 0.77892  0.70052  0.41793  Biso   1.000  C
  H574     1.0000 0.76260  0.64650  0.32812  Biso   1.000  H
  C705     1.0000 0.77732  0.71211  0.39871  Biso   1.000  C
  C706     1.0000 0.84003  0.67989  0.49822  Biso   1.000  C
  H575     1.0000 0.86421  0.60922  0.47541  Biso   1.000  H
  C707     1.0000 0.83823  0.69993  0.48353  Biso   1.000  C
  H576     1.0000 0.86513  0.62592  0.47093  Biso   1.000  H
  C708     1.0000 0.77714  0.96592  0.61374  Biso   1.000  C
  C709     1.0000 0.78003  0.95644  0.62652  Biso   1.000  C
  H577     1.0000 0.75393  0.98929  0.66464  Biso   1.000  H
  H578     1.0000 0.75183  0.04798  0.62083  Biso   1.000  H
  C710     1.0000 0.79541  0.96484  0.77833  Biso   1.000  C
  H579     1.0000 0.76301  0.18942  0.56270  Biso   1.000  H
  H580     1.0000 0.77781  0.21683  0.63161  Biso   1.000  H
  H581     1.0000 0.74963  0.15779  0.60534  Biso   1.000  H
  C711     1.0000 0.88563  0.98920  0.90551  Biso   1.000  C
  C712     1.0000 0.88643  0.99141  0.90901  Biso   1.000  C
  H582     1.0000 0.83453  0.00928  0.88541  Biso   1.000  H
  H583     1.0000 0.85943  0.07268  0.91251  Biso   1.000  H
  H584     1.0000 0.88454  0.23038  0.92431  Biso   1.000  H
  H585     1.0000 0.85313  0.17940  0.90822  Biso   1.000  H
  H586     1.0000 0.84824  0.23298  0.85774  Biso   1.000  H
  C713     1.0000 0.03262  0.48011  0.87351  Biso   1.000  C
  H587     1.0000 0.06854  0.50899  0.96364  Biso   1.000  H
  C714     1.0000 0.01706  0.36838  0.86534  Biso   1.000  C
  H588     1.0000 0.04054  0.31961  0.94764  Biso   1.000  H
  H589     1.0000 0.01730  0.42152  0.10790  Biso   1.000  H
  H590     1.0000 0.05120  0.46012  0.16188  Biso   1.000  H
  H591     1.0000 0.05690  0.39692  0.13020  Biso   1.000  H
  H592     1.0000 0.04020  0.61649  0.01879  Biso   1.000  H
  C715     1.0000 0.01498  0.70381  0.99999  Biso   1.000  C
  C716     1.0000 0.02897  0.76692  0.08947  Biso   1.000  C
  H593     1.0000 0.06198  0.72139  0.17158  Biso   1.000  H
  H594     1.0000 0.97002  0.52190  0.64542  Biso   1.000  H
  C717     1.0000 0.98567  0.42638  0.66254  Biso   1.000  C
  H595     1.0000 0.99633  0.33179  0.65941  Biso   1.000  H
  H596     1.0000 0.75712  0.72380  0.40333  Biso   1.000  H
  C718     1.0000 0.80822  0.71393  0.47681  Biso   1.000  C
  H597     1.0000 0.75503  0.73411  0.38033  Biso   1.000  H
  C719     1.0000 0.80550  0.73200  0.45661  Biso   1.000  C
  H598     1.0000 0.86012  0.68903  0.53844  Biso   1.000  H
  H599     1.0000 0.85741  0.71354  0.52313  Biso   1.000  H
  C720     1.0000 0.75151  0.95330  0.55159  Biso   1.000  C
  C721     1.0000 0.75682  0.93841  0.56470  Biso   1.000  C
  C722     1.0000 0.80933  0.93183  0.64252  Biso   1.000  C
  C723     1.0000 0.81172  0.92211  0.66291  Biso   1.000  C
  H600     1.0000 0.81465  0.94053  0.81444  Biso   1.000  H
  H601     1.0000 0.78562  0.93591  0.74134  Biso   1.000  H
  C724     1.0000 0.76568  0.98099  0.79112  Biso   1.000  C
  C725     1.0000 0.89835  0.95934  0.96304  Biso   1.000  C
  C726     1.0000 0.90326  0.97982  0.87351  Biso   1.000  C
  C727     1.0000 0.90893  0.98080  0.97274  Biso   1.000  C
  C728     1.0000 0.89334  0.96081  0.86693  Biso   1.000  C
  C729     1.0000 0.01439  0.42638  0.83754  Biso   1.000  C
  H602     1.0000 0.03003  0.52190  0.85461  Biso   1.000  H
  H603     1.0000 0.00374  0.33179  0.84062  Biso   1.000  H
  H604     1.0000 0.00304  0.69939  0.95604  Biso   1.000  H
  C730     1.0000 0.01003  0.76039  0.02518  Biso   1.000  C
  H605     1.0000 0.02739  0.80680  0.10757  Biso   1.000  H
  C731     1.0000 0.00617  0.43070  0.73131  Biso   1.000  C
  C732     1.0000 0.80433  0.76191  0.51833  Biso   1.000  C
  C733     1.0000 0.80152  0.78971  0.48982  Biso   1.000  C
  C734     1.0000 0.75801  0.90659  0.51842  Biso   1.000  C
  C735     1.0000 0.76543  0.88611  0.53932  Biso   1.000  C
  H606     1.0000 0.72951  0.97662  0.53191  Biso   1.000  H
  H607     1.0000 0.73512  0.96179  0.53984  Biso   1.000  H
  C736     1.0000 0.81582  0.88503  0.60931  Biso   1.000  C
  C737     1.0000 0.82032  0.86990  0.63753  Biso   1.000  C
  H608     1.0000 0.82683  0.94043  0.68493  Biso   1.000  H
  H609     1.0000 0.82763  0.93444  0.70523  Biso   1.000  H
  H610     1.0000 0.75562  0.94013  0.79611  Biso   1.000  H
  H611     1.0000 0.74682  0.00599  0.75603  Biso   1.000  H
  H612     1.0000 0.77554  0.00722  0.82933  Biso   1.000  H
  C738     1.0000 0.92864  0.92000  0.98865  Biso   1.000  C
  H613     1.0000 0.88624  0.96582  0.98492  Biso   1.000  H
  C739     1.0000 0.93834  0.93959  0.99434  Biso   1.000  C
  H614     1.0000 0.90417  0.00182  0.00139  Biso   1.000  H
  C740     1.0000 0.93357  0.94043  0.89912  Biso   1.000  C
  H615     1.0000 0.87803  0.96803  0.82345  Biso   1.000  H
  C741     1.0000 0.92275  0.91951  0.88853  Biso   1.000  C
  H616     1.0000 0.89463  0.00020  0.83413  Biso   1.000  H
  C742     1.0000 0.99388  0.43070  0.76872  Biso   1.000  C
  C743     1.0000 0.98225  0.81053  0.98515  Biso   1.000  C
  C744     1.0000 0.97885  0.80572  0.98604  Biso   1.000  C
  Br85     1.0000 0.05727  0.43282  0.77012  Biso   1.000  Br
  Br86     1.0000 0.05633  0.41631  0.76830  Biso   1.000  Br
  C745     1.0000 0.79582  0.82482  0.50671  Biso   1.000  C
  Br87     1.0000 0.80846  0.72350  0.59064  Biso   1.000  Br
  Br88     1.0000 0.81551  0.71501  0.59340  Biso   1.000  Br
  Br89     1.0000 0.78875  0.86440  0.43001  Biso   1.000  Br
  C746     1.0000 0.80331  0.79501  0.54380  Biso   1.000  C
  Br90     1.0000 0.80106  0.86833  0.45133  Biso   1.000  Br
  C747     1.0000 0.79017  0.87241  0.54730  Biso   1.000  C
  H617     1.0000 0.74052  0.89790  0.47601  Biso   1.000  H
  H618     1.0000 0.74952  0.87383  0.49710  Biso   1.000  H
  C748     1.0000 0.79712  0.85193  0.57571  Biso   1.000  C
  H619     1.0000 0.83784  0.86170  0.62913  Biso   1.000  H
  H620     1.0000 0.84202  0.84653  0.66240  Biso   1.000  H
  C749     1.0000 0.94624  0.91052  0.95665  Biso   1.000  C
  C750     1.0000 0.94524  0.90890  0.95221  Biso   1.000  C
  H621     1.0000 0.93719  0.89952  0.02789  Biso   1.000  H
  H622     1.0000 0.95368  0.93232  0.03778  Biso   1.000  H
  H623     1.0000 0.94564  0.93390  0.87724  Biso   1.000  H
  H624     1.0000 0.92745  0.89863  0.85984  Biso   1.000  H
  Br91     1.0000 0.94280  0.43282  0.72991  Biso   1.000  Br
  Br92     1.0000 0.94373  0.41631  0.73173  Biso   1.000  Br
  C751     1.0000 0.97964  0.87079  0.99084  Biso   1.000  C
  C752     1.0000 0.97783  0.86691  0.97923  Biso   1.000  C
  Br93     1.0000 0.93792  0.76324  0.92264  Biso   1.000  Br
  Br94     1.0000 0.93158  0.76211  0.93323  Biso   1.000  Br
  Br95     1.0000 0.02233  0.91690  0.04655  Biso   1.000  Br
  Br96     1.0000 0.02200  0.91180  0.01277  Biso   1.000  Br
  Ne1      1.0000 0.50002  0.31243  0.75002  Biso   1.000  Ne
  He1      1.0000 0.60318  0.50345  0.97552  Biso   1.000  He
  He2      1.0000 0.38758  0.09837  0.77482  Biso   1.000  He
  He3      1.0000 0.57512  0.14935  0.74516  Biso   1.000  He
  He4      1.0000 0.38049  0.52282  0.57594  Biso   1.000  He
  Ar1      1.0000 0.49926  0.30741  0.74863  Biso   1.000  Ar
  Ne2      1.0000 0.50002  0.68758  0.25002  Biso   1.000  Ne
  He5      1.0000 0.58510  0.54013  0.41243  Biso   1.000  He
  He6      1.0000 0.42539  0.85000  0.25461  Biso   1.000  He
  He7      1.0000 0.61339  0.90292  0.22468  Biso   1.000  He
  He8      1.0000 0.35859  0.40428  0.89093  Biso   1.000  He
  Ar2      1.0000 0.49994  0.69296  0.24987  Biso   1.000  Ar
  Ne3      1.0000 0.00002  0.18758  0.25002  Biso   1.000  Ne
  He9      1.0000 0.08513  0.04015  0.41243  Biso   1.000  He
  He10     1.0000 0.92539  0.35000  0.25462  Biso   1.000  He
  He11     1.0000 0.09729  0.38094  0.23328  Biso   1.000  He
  He12     1.0000 0.85859  0.90428  0.89093  Biso   1.000  He
  Ar3      1.0000 0.99956  0.19270  0.24918  Biso   1.000  Ar
  Ne4      1.0000 0.00002  0.81243  0.75002  Biso   1.000  Ne
  He13     1.0000 0.10317  0.00343  0.97548  Biso   1.000  He
  He14     1.0000 0.88758  0.59838  0.77484  Biso   1.000  He
  He15     1.0000 0.07511  0.64938  0.74515  Biso   1.000  He
  He16     1.0000 0.88051  0.02279  0.57595  Biso   1.000  He
  Ar4      1.0000 0.00009  0.80697  0.75013  Biso   1.000  Ar
