data_image0
_cell_length_a       25.001
_cell_length_b       25.001
_cell_length_c       48.793
_cell_angle_alpha    90
_cell_angle_beta     90
_cell_angle_gamma    120

_symmetry_space_group_name_H-M    "P 1"
_symmetry_int_tables_number       1

loop_
  _symmetry_equiv_pos_as_xyz
  'x, y, z'

loop_
  _atom_site_label
  _atom_site_occupancy
  _atom_site_fract_x
  _atom_site_fract_y
  _atom_site_fract_z
  _atom_site_thermal_displace_type
  _atom_site_B_iso_or_equiv
  _atom_site_type_symbol
  C1       1.0000 0.42260  0.43706  0.49626  Biso   1.000  C
  C2       1.0000 0.40749  0.41212  0.47005  Biso   1.000  C
  C3       1.0000 0.42742  0.38861  0.47216  Biso   1.000  C
  H1       1.0000 0.43990  0.48029  0.49890  Biso   1.000  H
  C4       1.0000 0.41238  0.39877  0.51866  Biso   1.000  C
  C5       1.0000 0.38418  0.39637  0.52362  Biso   1.000  C
  C6       1.0000 0.41920  0.45609  0.44570  Biso   1.000  C
  C7       1.0000 0.41848  0.47978  0.45449  Biso   1.000  C
  C8       1.0000 0.38218  0.34894  0.46621  Biso   1.000  C
  C9       1.0000 0.41502  0.43581  0.47783  Biso   1.000  C
  C10      1.0000 0.41807  0.34529  0.49218  Biso   1.000  C
  H2       1.0000 0.44217  0.38589  0.45459  Biso   1.000  H
  C11      1.0000 0.39341  0.43978  0.50358  Biso   1.000  C
  C12      1.0000 0.38704  0.33554  0.51485  Biso   1.000  C
  C13      1.0000 0.39652  0.34921  0.51792  Biso   1.000  C
  H3       1.0000 0.42270  0.41581  0.53659  Biso   1.000  H
  H4       1.0000 0.36938  0.39909  0.54120  Biso   1.000  H
  C14      1.0000 0.35921  0.45530  0.43851  Biso   1.000  C
  C15      1.0000 0.36020  0.45050  0.43701  Biso   1.000  C
  H5       1.0000 0.45148  0.49858  0.45060  Biso   1.000  H
  H6       1.0000 0.43390  0.44279  0.42959  Biso   1.000  H
  H7       1.0000 0.45471  0.49031  0.44281  Biso   1.000  H
  H8       1.0000 0.42420  0.51858  0.46261  Biso   1.000  H
  C16      1.0000 0.37200  0.31065  0.48862  Biso   1.000  C
  H9       1.0000 0.37190  0.33189  0.44830  Biso   1.000  H
  H10      1.0000 0.42661  0.31300  0.48831  Biso   1.000  H
  H11      1.0000 0.38498  0.47198  0.50749  Biso   1.000  H
  C17      1.0000 0.38117  0.29379  0.53848  Biso   1.000  C
  C18      1.0000 0.35980  0.48440  0.41129  Biso   1.000  C
  H12      1.0000 0.32509  0.41180  0.43830  Biso   1.000  H
  H13      1.0000 0.35019  0.47710  0.45310  Biso   1.000  H
  H14      1.0000 0.35180  0.40889  0.43150  Biso   1.000  H
  H15      1.0000 0.32530  0.44468  0.44869  Biso   1.000  H
  H16      1.0000 0.35471  0.26751  0.48599  Biso   1.000  H
  C19      1.0000 0.36601  0.30852  0.56656  Biso   1.000  C
  H17      1.0000 0.42051  0.29361  0.54000  Biso   1.000  H
  H18      1.0000 0.34868  0.25130  0.53370  Biso   1.000  H
  H19      1.0000 0.34558  0.25518  0.53149  Biso   1.000  H
  H20      1.0000 0.41710  0.28742  0.53979  Biso   1.000  H
  C20      1.0000 0.38264  0.47281  0.38713  Biso   1.000  C
  C21      1.0000 0.33463  0.52278  0.40953  Biso   1.000  C
  C22      1.0000 0.30388  0.28465  0.57430  Biso   1.000  C
  C23      1.0000 0.41361  0.34492  0.58496  Biso   1.000  C
  C24      1.0000 0.37769  0.49692  0.36224  Biso   1.000  C
  H21      1.0000 0.40169  0.44819  0.38780  Biso   1.000  H
  C25      1.0000 0.32975  0.54703  0.38477  Biso   1.000  C
  H22      1.0000 0.32039  0.53271  0.42580  Biso   1.000  H
  C26      1.0000 0.28970  0.29301  0.60115  Biso   1.000  C
  C27      1.0000 0.25230  0.25028  0.55352  Biso   1.000  C
  C28      1.0000 0.39923  0.35633  0.61130  Biso   1.000  C
  C29      1.0000 0.48066  0.37175  0.57650  Biso   1.000  C
  H23      1.0000 0.39330  0.48837  0.34609  Biso   1.000  H
  C30      1.0000 0.35014  0.53340  0.36063  Biso   1.000  C
  H24      1.0000 0.31230  0.57317  0.38419  Biso   1.000  H
  C31      1.0000 0.33730  0.32917  0.61972  Biso   1.000  C
  C32      1.0000 0.22302  0.26382  0.61025  Biso   1.000  C
  H25      1.0000 0.26829  0.26691  0.53499  Biso   1.000  H
  H26      1.0000 0.21838  0.25869  0.55760  Biso   1.000  H
  C33      1.0000 0.22593  0.18026  0.55315  Biso   1.000  C
  C34      1.0000 0.44960  0.40067  0.63054  Biso   1.000  C
  H27      1.0000 0.50576  0.41267  0.58531  Biso   1.000  H
  H28      1.0000 0.48410  0.37799  0.55639  Biso   1.000  H
  C35      1.0000 0.50683  0.33009  0.58451  Biso   1.000  C
  C36      1.0000 0.34021  0.55354  0.33257  Biso   1.000  C
  C37      1.0000 0.32288  0.33818  0.64911  Biso   1.000  C
  H29      1.0000 0.22021  0.25019  0.62950  Biso   1.000  H
  H30      1.0000 0.19801  0.22650  0.59900  Biso   1.000  H
  C38      1.0000 0.19487  0.30543  0.60830  Biso   1.000  C
  H31      1.0000 0.19228  0.16137  0.53971  Biso   1.000  H
  H32      1.0000 0.21001  0.16331  0.57139  Biso   1.000  H
  H33      1.0000 0.25861  0.17130  0.54809  Biso   1.000  H
  C39      1.0000 0.46098  0.46630  0.62872  Biso   1.000  C
  H34      1.0000 0.48840  0.40099  0.62620  Biso   1.000  H
  H35      1.0000 0.43800  0.38570  0.64960  Biso   1.000  H
  H36      1.0000 0.55008  0.34931  0.57871  Biso   1.000  H
  H37      1.0000 0.48290  0.28991  0.57549  Biso   1.000  H
  H38      1.0000 0.50416  0.32427  0.60439  Biso   1.000  H
  H39      1.0000 0.37457  0.55987  0.32039  Biso   1.000  H
  H40      1.0000 0.30160  0.51969  0.32460  Biso   1.000  H
  C40      1.0000 0.33621  0.61211  0.33271  Biso   1.000  C
  H41      1.0000 0.28090  0.33277  0.64991  Biso   1.000  H
  H42      1.0000 0.35260  0.38081  0.65499  Biso   1.000  H
  C41      1.0000 0.32644  0.29240  0.66889  Biso   1.000  C
  C42      1.0000 0.13141  0.27915  0.60958  Biso   1.000  C
  C43      1.0000 0.23006  0.36949  0.60687  Biso   1.000  C
  C44      1.0000 0.48320  0.50514  0.65163  Biso   1.000  C
  C45      1.0000 0.45301  0.49059  0.60433  Biso   1.000  C
  C46      1.0000 0.39088  0.66951  0.33306  Biso   1.000  C
  C47      1.0000 0.27863  0.60910  0.33306  Biso   1.000  C
  H43      1.0000 0.31988  0.30178  0.68770  Biso   1.000  H
  H44      1.0000 0.36719  0.29601  0.66749  Biso   1.000  H
  H45      1.0000 0.29449  0.25028  0.66409  Biso   1.000  H
  H46      1.0000 0.10639  0.23550  0.61070  Biso   1.000  H
  C48      1.0000 0.10349  0.31490  0.60927  Biso   1.000  C
  C49      1.0000 0.20201  0.40570  0.60642  Biso   1.000  C
  H47      1.0000 0.27380  0.38889  0.60619  Biso   1.000  H
  C50      1.0000 0.50058  0.56726  0.64950  Biso   1.000  C
  H48      1.0000 0.48639  0.48888  0.66880  Biso   1.000  H
  H49      1.0000 0.43499  0.46440  0.58890  Biso   1.000  H
  C51      1.0000 0.47118  0.55285  0.60234  Biso   1.000  C
  C52      1.0000 0.45253  0.67187  0.33318  Biso   1.000  C
  C53      1.0000 0.38789  0.72411  0.33271  Biso   1.000  C
  C54      1.0000 0.27587  0.66374  0.33271  Biso   1.000  C
  C55      1.0000 0.21936  0.54744  0.33318  Biso   1.000  C
  H50      1.0000 0.05982  0.29531  0.61039  Biso   1.000  H
  C56      1.0000 0.13720  0.37776  0.60728  Biso   1.000  C
  H51      1.0000 0.22670  0.44939  0.60550  Biso   1.000  H
  C57      1.0000 0.49632  0.59234  0.62476  Biso   1.000  C
  H52      1.0000 0.51560  0.59298  0.66530  Biso   1.000  H
  H53      1.0000 0.46638  0.56878  0.58539  Biso   1.000  H
  H54      1.0000 0.44828  0.63529  0.34300  Biso   1.000  H
  H55      1.0000 0.48299  0.70919  0.34320  Biso   1.000  H
  C58      1.0000 0.47637  0.67330  0.30406  Biso   1.000  C
  C59      1.0000 0.44644  0.78664  0.33257  Biso   1.000  C
  C60      1.0000 0.33047  0.72134  0.33306  Biso   1.000  C
  C61      1.0000 0.21333  0.65977  0.33257  Biso   1.000  C
  H56      1.0000 0.18701  0.55169  0.34300  Biso   1.000  H
  H57      1.0000 0.22619  0.51701  0.34320  Biso   1.000  H
  C62      1.0000 0.19693  0.52361  0.30406  Biso   1.000  C
  C63      1.0000 0.10494  0.41540  0.60720  Biso   1.000  C
  C64      1.0000 0.52288  0.66129  0.62191  Biso   1.000  C
  H58      1.0000 0.51549  0.67316  0.30500  Biso   1.000  H
  H59      1.0000 0.48292  0.71081  0.29469  Biso   1.000  H
  H60      1.0000 0.44589  0.63691  0.29389  Biso   1.000  H
  C65      1.0000 0.46659  0.81671  0.36063  Biso   1.000  C
  H61      1.0000 0.44010  0.81468  0.32039  Biso   1.000  H
  H62      1.0000 0.48030  0.78189  0.32460  Biso   1.000  H
  C66      1.0000 0.32810  0.78059  0.33318  Biso   1.000  C
  C67      1.0000 0.18325  0.64984  0.36063  Biso   1.000  C
  H63      1.0000 0.18531  0.62541  0.32039  Biso   1.000  H
  H64      1.0000 0.21808  0.69838  0.32460  Biso   1.000  H
  H65      1.0000 0.15769  0.48449  0.30500  Biso   1.000  H
  H66      1.0000 0.22791  0.51710  0.29469  Biso   1.000  H
  H67      1.0000 0.19101  0.55410  0.29389  Biso   1.000  H
  H68      1.0000 0.06378  0.39027  0.61570  Biso   1.000  H
  H69      1.0000 0.09829  0.42297  0.58789  Biso   1.000  H
  C68      1.0000 0.13840  0.47710  0.62191  Biso   1.000  C
  C69      1.0000 0.58459  0.68951  0.60720  Biso   1.000  C
  H70      1.0000 0.52848  0.68018  0.64030  Biso   1.000  H
  H71      1.0000 0.49392  0.66961  0.61140  Biso   1.000  H
  C70      1.0000 0.50306  0.88077  0.36224  Biso   1.000  C
  C71      1.0000 0.45296  0.78272  0.38477  Biso   1.000  C
  H72      1.0000 0.36469  0.81297  0.34300  Biso   1.000  H
  H73      1.0000 0.29079  0.77380  0.34320  Biso   1.000  H
  C72      1.0000 0.32668  0.80304  0.30406  Biso   1.000  C
  C73      1.0000 0.11924  0.62231  0.36224  Biso   1.000  C
  C74      1.0000 0.21729  0.67025  0.38477  Biso   1.000  C
  H74      1.0000 0.15170  0.47147  0.64030  Biso   1.000  H
  H75      1.0000 0.17570  0.50611  0.61140  Biso   1.000  H
  C75      1.0000 0.09600  0.50366  0.62476  Biso   1.000  C
  C76      1.0000 0.62221  0.75939  0.60728  Biso   1.000  C
  H76      1.0000 0.60969  0.67349  0.61570  Biso   1.000  H
  H77      1.0000 0.57699  0.67529  0.58789  Biso   1.000  H
  C77      1.0000 0.52716  0.90978  0.38713  Biso   1.000  C
  H78      1.0000 0.51160  0.90488  0.34609  Biso   1.000  H
  H79      1.0000 0.42677  0.73907  0.38419  Biso   1.000  H
  C78      1.0000 0.47718  0.81181  0.40953  Biso   1.000  C
  H80      1.0000 0.32679  0.84230  0.30500  Biso   1.000  H
  H81      1.0000 0.28921  0.77209  0.29469  Biso   1.000  H
  H82      1.0000 0.36310  0.80900  0.29389  Biso   1.000  H
  C79      1.0000 0.09021  0.61737  0.38713  Biso   1.000  C
  H83      1.0000 0.09512  0.60670  0.34609  Biso   1.000  H
  H84      1.0000 0.26088  0.68767  0.38419  Biso   1.000  H
  C80      1.0000 0.18816  0.66536  0.40953  Biso   1.000  C
  C81      1.0000 0.06667  0.49941  0.64950  Biso   1.000  C
  C82      1.0000 0.08168  0.52879  0.60234  Biso   1.000  C
  C83      1.0000 0.68508  0.78858  0.60927  Biso   1.000  C
  C84      1.0000 0.59424  0.79625  0.60642  Biso   1.000  C
  C85      1.0000 0.51562  0.87541  0.41129  Biso   1.000  C
  H85      1.0000 0.55177  0.95347  0.38780  Biso   1.000  H
  H86      1.0000 0.46729  0.78771  0.42580  Biso   1.000  H
  C86      1.0000 0.12458  0.64019  0.41129  Biso   1.000  C
  H87      1.0000 0.04652  0.59830  0.38780  Biso   1.000  H
  H88      1.0000 0.21228  0.67958  0.42580  Biso   1.000  H
  H89      1.0000 0.07741  0.48440  0.66530  Biso   1.000  H
  C87      1.0000 0.02196  0.51678  0.65163  Biso   1.000  C
  C88      1.0000 0.03762  0.54698  0.60433  Biso   1.000  C
  H90      1.0000 0.10240  0.53359  0.58539  Biso   1.000  H
  C89      1.0000 0.72082  0.85223  0.60958  Biso   1.000  C
  H91      1.0000 0.70466  0.76447  0.61039  Biso   1.000  H
  H92      1.0000 0.55059  0.77727  0.60550  Biso   1.000  H
  C90      1.0000 0.63046  0.86054  0.60687  Biso   1.000  C
  C91      1.0000 0.54469  0.90386  0.43851  Biso   1.000  C
  C92      1.0000 0.54948  0.90968  0.43701  Biso   1.000  C
  C93      1.0000 0.09608  0.64079  0.43851  Biso   1.000  C
  C94      1.0000 0.09029  0.63977  0.43701  Biso   1.000  C
  C95      1.0000 0.00531  0.53899  0.62872  Biso   1.000  C
  H93      1.0000 0.00249  0.51359  0.66880  Biso   1.000  H
  H94      1.0000 0.02939  0.56500  0.58890  Biso   1.000  H
  C96      1.0000 0.69457  0.88941  0.60830  Biso   1.000  C
  H95      1.0000 0.76447  0.87089  0.61070  Biso   1.000  H
  H96      1.0000 0.61107  0.88488  0.60619  Biso   1.000  H
  C97      1.0000 0.54389  0.96307  0.44570  Biso   1.000  C
  H97      1.0000 0.58820  0.91329  0.43830  Biso   1.000  H
  H98      1.0000 0.52291  0.87310  0.45310  Biso   1.000  H
  C98      1.0000 0.52018  0.93869  0.45449  Biso   1.000  C
  H99      1.0000 0.59108  0.94289  0.43150  Biso   1.000  H
  H100     1.0000 0.55529  0.88059  0.44869  Biso   1.000  H
  C99      1.0000 0.03689  0.58079  0.44570  Biso   1.000  C
  H101     1.0000 0.08669  0.67487  0.43830  Biso   1.000  H
  H102     1.0000 0.12690  0.64979  0.45310  Biso   1.000  H
  C100     1.0000 0.06131  0.58148  0.45449  Biso   1.000  C
  H103     1.0000 0.05710  0.64818  0.43150  Biso   1.000  H
  H104     1.0000 0.11939  0.67469  0.44869  Biso   1.000  H
  C101     1.0000 0.95109  0.55040  0.63054  Biso   1.000  C
  C102     1.0000 0.73615  0.95919  0.61025  Biso   1.000  C
  C103     1.0000 0.58781  0.99531  0.47005  Biso   1.000  C
  H105     1.0000 0.50139  0.95287  0.45060  Biso   1.000  H
  H106     1.0000 0.55717  0.99106  0.42959  Biso   1.000  H
  C104     1.0000 0.56419  0.97919  0.47783  Biso   1.000  C
  H107     1.0000 0.50970  0.96437  0.44281  Biso   1.000  H
  H108     1.0000 0.48139  0.90557  0.46261  Biso   1.000  H
  C105     1.0000 0.00465  0.59248  0.47005  Biso   1.000  C
  H109     1.0000 0.04710  0.54851  0.45060  Biso   1.000  H
  H110     1.0000 0.00890  0.56610  0.42959  Biso   1.000  H
  C106     1.0000 0.02079  0.58499  0.47783  Biso   1.000  C
  H111     1.0000 0.03561  0.54527  0.44281  Biso   1.000  H
  H112     1.0000 0.09439  0.57580  0.46261  Biso   1.000  H
  C107     1.0000 0.95707  0.60074  0.61130  Biso   1.000  C
  H113     1.0000 0.91262  0.51160  0.62620  Biso   1.000  H
  H114     1.0000 0.94769  0.56199  0.64960  Biso   1.000  H
  C108     1.0000 0.70700  0.99665  0.60115  Biso   1.000  C
  H115     1.0000 0.74979  0.97000  0.62950  Biso   1.000  H
  H116     1.0000 0.77349  0.97148  0.59900  Biso   1.000  H
  C109     1.0000 0.56292  0.98552  0.49626  Biso   1.000  C
  C110     1.0000 0.65107  0.03328  0.46621  Biso   1.000  C
  C111     1.0000 0.56018  0.95356  0.50358  Biso   1.000  C
  C112     1.0000 0.61141  0.03882  0.47216  Biso   1.000  C
  C113     1.0000 0.01446  0.57737  0.49626  Biso   1.000  C
  C114     1.0000 0.96675  0.61779  0.46621  Biso   1.000  C
  C115     1.0000 0.04639  0.60661  0.50358  Biso   1.000  C
  C116     1.0000 0.96118  0.57257  0.47216  Biso   1.000  C
  C117     1.0000 0.93130  0.58633  0.58496  Biso   1.000  C
  C118     1.0000 0.99187  0.66268  0.61972  Biso   1.000  C
  C119     1.0000 0.71537  0.01924  0.57430  Biso   1.000  C
  C120     1.0000 0.67079  0.00815  0.61972  Biso   1.000  C
  H117     1.0000 0.51970  0.95956  0.49890  Biso   1.000  H
  C121     1.0000 0.60361  0.98778  0.52362  Biso   1.000  C
  C122     1.0000 0.60126  0.01365  0.51866  Biso   1.000  C
  C123     1.0000 0.68931  0.06136  0.48862  Biso   1.000  C
  H118     1.0000 0.66812  0.04002  0.44830  Biso   1.000  H
  C124     1.0000 0.65472  0.07281  0.49218  Biso   1.000  C
  H119     1.0000 0.52800  0.91296  0.50749  Biso   1.000  H
  H120     1.0000 0.61408  0.05632  0.45459  Biso   1.000  H
  H121     1.0000 0.04042  0.56010  0.49890  Biso   1.000  H
  C125     1.0000 0.01219  0.61580  0.52362  Biso   1.000  C
  C126     1.0000 0.98636  0.58758  0.51866  Biso   1.000  C
  C127     1.0000 0.93865  0.62799  0.48862  Biso   1.000  C
  H122     1.0000 0.96002  0.62809  0.44830  Biso   1.000  H
  C128     1.0000 0.92720  0.58190  0.49218  Biso   1.000  C
  H123     1.0000 0.08697  0.61497  0.50749  Biso   1.000  H
  H124     1.0000 0.94371  0.55779  0.45459  Biso   1.000  H
  C129     1.0000 0.94251  0.63395  0.56656  Biso   1.000  C
  C130     1.0000 0.89109  0.51927  0.57650  Biso   1.000  C
  C131     1.0000 0.00332  0.71030  0.60115  Biso   1.000  C
  C132     1.0000 0.01528  0.67709  0.64911  Biso   1.000  C
  C133     1.0000 0.69144  0.05752  0.56656  Biso   1.000  C
  C134     1.0000 0.74966  0.00206  0.55352  Biso   1.000  C
  C135     1.0000 0.64366  0.04293  0.61130  Biso   1.000  C
  C136     1.0000 0.66182  0.98469  0.64911  Biso   1.000  C
  H125     1.0000 0.60089  0.97028  0.54120  Biso   1.000  H
  C137     1.0000 0.66439  0.05152  0.51485  Biso   1.000  C
  H126     1.0000 0.58417  0.00690  0.53659  Biso   1.000  H
  C138     1.0000 0.65081  0.04732  0.51792  Biso   1.000  C
  H127     1.0000 0.73252  0.08722  0.48599  Biso   1.000  H
  H128     1.0000 0.68702  0.11364  0.48831  Biso   1.000  H
  H129     1.0000 0.02970  0.63058  0.54120  Biso   1.000  H
  C139     1.0000 0.94852  0.61294  0.51485  Biso   1.000  C
  H130     1.0000 0.99309  0.57728  0.53659  Biso   1.000  H
  C140     1.0000 0.95271  0.60347  0.51792  Biso   1.000  C
  H131     1.0000 0.91281  0.64527  0.48599  Biso   1.000  H
  H132     1.0000 0.88640  0.57340  0.48831  Biso   1.000  H
  C141     1.0000 0.91264  0.61885  0.53848  Biso   1.000  C
  C142     1.0000 0.98079  0.69612  0.57430  Biso   1.000  C
  H133     1.0000 0.90691  0.49419  0.58531  Biso   1.000  H
  H134     1.0000 0.89392  0.51590  0.55639  Biso   1.000  H
  C143     1.0000 0.82328  0.49318  0.58451  Biso   1.000  C
  C144     1.0000 0.04081  0.77694  0.61025  Biso   1.000  C
  H135     1.0000 0.05191  0.71907  0.64991  Biso   1.000  H
  H136     1.0000 0.02819  0.64739  0.65499  Biso   1.000  H
  C145     1.0000 0.96598  0.67353  0.66889  Biso   1.000  C
  C146     1.0000 0.70618  0.08741  0.53848  Biso   1.000  C
  C147     1.0000 0.65507  0.06870  0.58496  Biso   1.000  C
  H137     1.0000 0.74128  0.95970  0.55760  Biso   1.000  H
  H138     1.0000 0.73306  0.00141  0.53499  Biso   1.000  H
  C148     1.0000 0.81968  0.04570  0.55315  Biso   1.000  C
  C149     1.0000 0.59930  0.04893  0.63054  Biso   1.000  C
  H139     1.0000 0.66718  0.94806  0.64991  Biso   1.000  H
  H140     1.0000 0.61922  0.97180  0.65499  Biso   1.000  H
  C150     1.0000 0.70754  0.03406  0.66889  Biso   1.000  C
  H141     1.0000 0.87313  0.57950  0.54000  Biso   1.000  H
  H142     1.0000 0.90261  0.65127  0.53370  Biso   1.000  H
  H143     1.0000 0.90960  0.65437  0.53149  Biso   1.000  H
  H144     1.0000 0.87029  0.58287  0.53979  Biso   1.000  H
  C151     1.0000 0.99797  0.74766  0.55352  Biso   1.000  C
  H145     1.0000 0.79921  0.44990  0.57871  Biso   1.000  H
  H146     1.0000 0.80701  0.51710  0.57549  Biso   1.000  H
  H147     1.0000 0.82012  0.49581  0.60439  Biso   1.000  H
  H148     1.0000 0.03000  0.77981  0.62950  Biso   1.000  H
  H149     1.0000 0.02848  0.80198  0.59900  Biso   1.000  H
  C152     1.0000 0.11057  0.80512  0.60830  Biso   1.000  C
  H150     1.0000 0.98190  0.68009  0.68770  Biso   1.000  H
  H151     1.0000 0.92881  0.63280  0.66749  Biso   1.000  H
  H152     1.0000 0.95580  0.70549  0.66409  Biso   1.000  H
  H153     1.0000 0.70643  0.12694  0.54000  Biso   1.000  H
  H154     1.0000 0.74871  0.09743  0.53370  Biso   1.000  H
  H155     1.0000 0.74476  0.09041  0.53149  Biso   1.000  H
  H156     1.0000 0.71257  0.12971  0.53979  Biso   1.000  H
  C153     1.0000 0.62818  0.10893  0.57650  Biso   1.000  C
  H157     1.0000 0.83861  0.03092  0.53971  Biso   1.000  H
  H158     1.0000 0.83667  0.04672  0.57139  Biso   1.000  H
  H159     1.0000 0.82865  0.08731  0.54809  Biso   1.000  H
  C154     1.0000 0.53369  0.99467  0.62872  Biso   1.000  C
  H160     1.0000 0.59902  0.08741  0.62620  Biso   1.000  H
  H161     1.0000 0.61431  0.05231  0.64960  Biso   1.000  H
  H162     1.0000 0.69822  0.01813  0.68770  Biso   1.000  H
  H163     1.0000 0.70401  0.07124  0.66749  Biso   1.000  H
  H164     1.0000 0.74966  0.04422  0.66409  Biso   1.000  H
  H165     1.0000 0.04028  0.78156  0.55760  Biso   1.000  H
  H166     1.0000 0.99862  0.73168  0.53499  Biso   1.000  H
  C155     1.0000 0.95435  0.77403  0.55315  Biso   1.000  C
  C156     1.0000 0.14774  0.86858  0.60958  Biso   1.000  C
  C157     1.0000 0.13943  0.76988  0.60687  Biso   1.000  C
  H167     1.0000 0.58729  0.09313  0.58531  Biso   1.000  H
  H168     1.0000 0.62201  0.10611  0.55639  Biso   1.000  H
  C158     1.0000 0.66991  0.17678  0.58451  Biso   1.000  C
  C159     1.0000 0.49482  0.97804  0.65163  Biso   1.000  C
  C160     1.0000 0.50939  0.96238  0.60433  Biso   1.000  C
  H169     1.0000 0.96911  0.80770  0.53971  Biso   1.000  H
  H170     1.0000 0.95328  0.78997  0.57139  Biso   1.000  H
  H171     1.0000 0.91271  0.74138  0.54809  Biso   1.000  H
  H172     1.0000 0.12907  0.89356  0.61070  Biso   1.000  H
  C161     1.0000 0.21141  0.89647  0.60927  Biso   1.000  C
  C162     1.0000 0.20371  0.79796  0.60642  Biso   1.000  C
  H173     1.0000 0.11510  0.72619  0.60619  Biso   1.000  H
  H174     1.0000 0.65074  0.20084  0.57871  Biso   1.000  H
  H175     1.0000 0.71011  0.19304  0.57549  Biso   1.000  H
  H176     1.0000 0.67568  0.17992  0.60439  Biso   1.000  H
  C163     1.0000 0.43272  0.93328  0.64950  Biso   1.000  C
  H177     1.0000 0.51110  0.99748  0.66880  Biso   1.000  H
  H178     1.0000 0.53562  0.97060  0.58890  Biso   1.000  H
  C164     1.0000 0.44710  0.91827  0.60234  Biso   1.000  C
  H179     1.0000 0.23549  0.94017  0.61039  Biso   1.000  H
  C165     1.0000 0.24055  0.86276  0.60728  Biso   1.000  C
  H180     1.0000 0.22269  0.77330  0.60550  Biso   1.000  H
  C166     1.0000 0.40764  0.90400  0.62476  Biso   1.000  C
  H181     1.0000 0.40697  0.92257  0.66530  Biso   1.000  H
  H182     1.0000 0.43119  0.89758  0.58539  Biso   1.000  H
  C167     1.0000 0.31045  0.89504  0.60720  Biso   1.000  C
  C168     1.0000 0.33870  0.86156  0.62191  Biso   1.000  C
  H183     1.0000 0.32650  0.93619  0.61570  Biso   1.000  H
  H184     1.0000 0.32469  0.90169  0.58789  Biso   1.000  H
  H185     1.0000 0.31979  0.84830  0.64030  Biso   1.000  H
  H186     1.0000 0.33039  0.82428  0.61140  Biso   1.000  H
  C169     1.0000 0.57737  0.56292  0.50374  Biso   1.000  C
  C170     1.0000 0.58759  0.60121  0.48134  Biso   1.000  C
  C171     1.0000 0.61579  0.60361  0.47638  Biso   1.000  C
  C172     1.0000 0.57259  0.61137  0.52784  Biso   1.000  C
  C173     1.0000 0.59252  0.58786  0.52995  Biso   1.000  C
  H187     1.0000 0.56007  0.51969  0.50110  Biso   1.000  H
  C174     1.0000 0.61293  0.66443  0.48515  Biso   1.000  C
  C175     1.0000 0.60351  0.65081  0.48208  Biso   1.000  C
  H188     1.0000 0.57729  0.58421  0.46341  Biso   1.000  H
  C176     1.0000 0.60660  0.56019  0.49642  Biso   1.000  C
  H189     1.0000 0.63059  0.60088  0.45880  Biso   1.000  H
  C177     1.0000 0.58189  0.65469  0.50782  Biso   1.000  C
  C178     1.0000 0.61779  0.65104  0.53379  Biso   1.000  C
  C179     1.0000 0.58501  0.56421  0.52217  Biso   1.000  C
  H190     1.0000 0.55780  0.61409  0.54541  Biso   1.000  H
  C180     1.0000 0.58077  0.54389  0.55430  Biso   1.000  C
  C181     1.0000 0.58148  0.52019  0.54551  Biso   1.000  C
  C182     1.0000 0.61884  0.70619  0.46152  Biso   1.000  C
  C183     1.0000 0.62797  0.68933  0.51138  Biso   1.000  C
  H191     1.0000 0.61499  0.52800  0.49251  Biso   1.000  H
  H192     1.0000 0.57340  0.68697  0.51169  Biso   1.000  H
  H193     1.0000 0.62807  0.66808  0.55170  Biso   1.000  H
  H194     1.0000 0.54849  0.50140  0.54940  Biso   1.000  H
  H195     1.0000 0.56610  0.55719  0.57041  Biso   1.000  H
  C184     1.0000 0.64076  0.54467  0.56149  Biso   1.000  C
  H196     1.0000 0.54528  0.50971  0.55719  Biso   1.000  H
  C185     1.0000 0.63976  0.54948  0.56299  Biso   1.000  C
  H197     1.0000 0.57581  0.48140  0.53739  Biso   1.000  H
  C186     1.0000 0.63396  0.69145  0.43344  Biso   1.000  C
  H198     1.0000 0.57950  0.70637  0.46000  Biso   1.000  H
  H199     1.0000 0.65129  0.74868  0.46630  Biso   1.000  H
  H200     1.0000 0.65439  0.74480  0.46851  Biso   1.000  H
  H201     1.0000 0.58289  0.71261  0.46021  Biso   1.000  H
  H202     1.0000 0.64526  0.73247  0.51401  Biso   1.000  H
  H203     1.0000 0.67488  0.58818  0.56170  Biso   1.000  H
  H204     1.0000 0.64978  0.52287  0.54690  Biso   1.000  H
  C187     1.0000 0.64020  0.51562  0.58871  Biso   1.000  C
  H205     1.0000 0.64817  0.59109  0.56850  Biso   1.000  H
  H206     1.0000 0.67467  0.55530  0.55131  Biso   1.000  H
  C188     1.0000 0.58636  0.65506  0.41504  Biso   1.000  C
  C189     1.0000 0.69613  0.71533  0.42570  Biso   1.000  C
  C190     1.0000 0.61737  0.52717  0.61287  Biso   1.000  C
  C191     1.0000 0.66538  0.47720  0.59047  Biso   1.000  C
  C192     1.0000 0.60073  0.64365  0.38870  Biso   1.000  C
  C193     1.0000 0.51930  0.62822  0.42350  Biso   1.000  C
  C194     1.0000 0.71031  0.70697  0.39885  Biso   1.000  C
  C195     1.0000 0.74767  0.74969  0.44648  Biso   1.000  C
  H207     1.0000 0.59828  0.55179  0.61220  Biso   1.000  H
  C196     1.0000 0.62228  0.50306  0.63776  Biso   1.000  C
  C197     1.0000 0.67026  0.45295  0.61523  Biso   1.000  C
  H208     1.0000 0.67960  0.46731  0.57420  Biso   1.000  H
  C198     1.0000 0.55041  0.59931  0.36946  Biso   1.000  C
  C199     1.0000 0.66267  0.67081  0.38028  Biso   1.000  C
  H209     1.0000 0.49420  0.58730  0.41469  Biso   1.000  H
  H210     1.0000 0.51591  0.62199  0.44361  Biso   1.000  H
  C200     1.0000 0.49318  0.66988  0.41549  Biso   1.000  C
  C201     1.0000 0.77694  0.73616  0.38975  Biso   1.000  C
  H211     1.0000 0.73168  0.73307  0.46501  Biso   1.000  H
  H212     1.0000 0.78159  0.74129  0.44240  Biso   1.000  H
  C202     1.0000 0.77404  0.81971  0.44685  Biso   1.000  C
  H213     1.0000 0.60671  0.51160  0.65391  Biso   1.000  H
  C203     1.0000 0.64983  0.46657  0.63937  Biso   1.000  C
  H214     1.0000 0.68770  0.42681  0.61581  Biso   1.000  H
  C204     1.0000 0.53899  0.53368  0.37128  Biso   1.000  C
  H215     1.0000 0.51161  0.59899  0.37380  Biso   1.000  H
  H216     1.0000 0.56197  0.61428  0.35040  Biso   1.000  H
  C205     1.0000 0.67709  0.66180  0.35089  Biso   1.000  C
  H217     1.0000 0.44989  0.65067  0.42129  Biso   1.000  H
  H218     1.0000 0.51707  0.71007  0.42451  Biso   1.000  H
  H219     1.0000 0.49581  0.67570  0.39561  Biso   1.000  H
  H220     1.0000 0.77980  0.74979  0.37050  Biso   1.000  H
  H221     1.0000 0.80196  0.77348  0.40100  Biso   1.000  H
  C206     1.0000 0.80514  0.69455  0.39170  Biso   1.000  C
  H222     1.0000 0.80769  0.83860  0.46029  Biso   1.000  H
  H223     1.0000 0.78996  0.83666  0.42861  Biso   1.000  H
  H224     1.0000 0.74136  0.82867  0.45191  Biso   1.000  H
  C207     1.0000 0.65976  0.44644  0.66743  Biso   1.000  C
  C208     1.0000 0.51681  0.49484  0.34837  Biso   1.000  C
  C209     1.0000 0.54700  0.50939  0.39567  Biso   1.000  C
  H225     1.0000 0.71911  0.66721  0.35009  Biso   1.000  H
  H226     1.0000 0.64737  0.61917  0.34501  Biso   1.000  H
  C210     1.0000 0.67353  0.70757  0.33111  Biso   1.000  C
  C211     1.0000 0.86859  0.72083  0.39042  Biso   1.000  C
  C212     1.0000 0.76991  0.63049  0.39313  Biso   1.000  C
  C213     1.0000 0.66376  0.38787  0.66729  Biso   1.000  C
  H227     1.0000 0.62540  0.44011  0.67961  Biso   1.000  H
  H228     1.0000 0.69837  0.48029  0.67540  Biso   1.000  H
  C214     1.0000 0.49943  0.43272  0.35050  Biso   1.000  C
  H229     1.0000 0.51358  0.51110  0.33120  Biso   1.000  H
  C215     1.0000 0.52879  0.44713  0.39766  Biso   1.000  C
  H230     1.0000 0.56498  0.53557  0.41110  Biso   1.000  H
  H231     1.0000 0.68008  0.69820  0.31230  Biso   1.000  H
  H232     1.0000 0.63277  0.70397  0.33251  Biso   1.000  H
  H233     1.0000 0.70547  0.74969  0.33591  Biso   1.000  H
  H234     1.0000 0.89358  0.76447  0.38930  Biso   1.000  H
  C216     1.0000 0.89648  0.68508  0.39073  Biso   1.000  C
  C217     1.0000 0.79800  0.59428  0.39358  Biso   1.000  C
  H235     1.0000 0.72617  0.61109  0.39381  Biso   1.000  H
  C218     1.0000 0.60909  0.33046  0.66694  Biso   1.000  C
  C219     1.0000 0.72134  0.39087  0.66694  Biso   1.000  C
  C220     1.0000 0.50365  0.40764  0.37524  Biso   1.000  C
  H236     1.0000 0.48441  0.40699  0.33470  Biso   1.000  H
  H237     1.0000 0.53358  0.43119  0.41461  Biso   1.000  H
  H238     1.0000 0.94021  0.70471  0.38961  Biso   1.000  H
  C221     1.0000 0.86277  0.62222  0.39272  Biso   1.000  C
  H239     1.0000 0.77327  0.55059  0.39450  Biso   1.000  H
  C222     1.0000 0.61214  0.27592  0.66729  Biso   1.000  C
  C223     1.0000 0.54748  0.32811  0.66682  Biso   1.000  C
  C224     1.0000 0.72410  0.33624  0.66729  Biso   1.000  C
  C225     1.0000 0.78060  0.45253  0.66682  Biso   1.000  C
  C226     1.0000 0.47709  0.33868  0.37809  Biso   1.000  C
  C227     1.0000 0.89507  0.58458  0.39280  Biso   1.000  C
  C228     1.0000 0.55353  0.21333  0.66743  Biso   1.000  C
  C229     1.0000 0.66954  0.27864  0.66694  Biso   1.000  C
  H240     1.0000 0.55169  0.36469  0.65700  Biso   1.000  H
  H241     1.0000 0.51698  0.29079  0.65680  Biso   1.000  H
  C230     1.0000 0.52364  0.32667  0.69594  Biso   1.000  C
  C231     1.0000 0.78664  0.34021  0.66743  Biso   1.000  C
  H242     1.0000 0.81300  0.44828  0.65700  Biso   1.000  H
  H243     1.0000 0.77378  0.48297  0.65680  Biso   1.000  H
  C232     1.0000 0.80304  0.47636  0.69594  Biso   1.000  C
  C233     1.0000 0.41538  0.31046  0.39280  Biso   1.000  C
  H244     1.0000 0.47148  0.31979  0.35970  Biso   1.000  H
  H245     1.0000 0.50611  0.33042  0.38860  Biso   1.000  H
  H246     1.0000 0.93619  0.60970  0.38430  Biso   1.000  H
  H247     1.0000 0.90168  0.57700  0.41211  Biso   1.000  H
  C234     1.0000 0.86157  0.52287  0.37809  Biso   1.000  C
  C235     1.0000 0.53338  0.18327  0.63937  Biso   1.000  C
  H248     1.0000 0.55987  0.18530  0.67961  Biso   1.000  H
  H249     1.0000 0.51967  0.21809  0.67540  Biso   1.000  H
  C236     1.0000 0.67191  0.21938  0.66682  Biso   1.000  C
  H250     1.0000 0.48451  0.32681  0.69500  Biso   1.000  H
  H251     1.0000 0.51709  0.28917  0.70531  Biso   1.000  H
  H252     1.0000 0.55410  0.36312  0.70611  Biso   1.000  H
  C237     1.0000 0.81672  0.35014  0.63937  Biso   1.000  C
  H253     1.0000 0.81466  0.37457  0.67961  Biso   1.000  H
  H254     1.0000 0.78189  0.30160  0.67540  Biso   1.000  H
  H255     1.0000 0.84228  0.51548  0.69500  Biso   1.000  H
  H256     1.0000 0.77210  0.48288  0.70531  Biso   1.000  H
  H257     1.0000 0.80900  0.44588  0.70611  Biso   1.000  H
  C238     1.0000 0.37780  0.24058  0.39272  Biso   1.000  C
  H258     1.0000 0.39028  0.32649  0.38430  Biso   1.000  H
  H259     1.0000 0.42297  0.32469  0.41211  Biso   1.000  H
  H260     1.0000 0.84831  0.52851  0.35970  Biso   1.000  H
  H261     1.0000 0.82427  0.49387  0.38860  Biso   1.000  H
  C239     1.0000 0.90397  0.49632  0.37524  Biso   1.000  C
  C240     1.0000 0.49691  0.11921  0.63776  Biso   1.000  C
  C241     1.0000 0.54704  0.21731  0.61523  Biso   1.000  C
  H262     1.0000 0.63528  0.18701  0.65700  Biso   1.000  H
  H263     1.0000 0.70918  0.22617  0.65680  Biso   1.000  H
  C242     1.0000 0.67329  0.19694  0.69594  Biso   1.000  C
  C243     1.0000 0.88072  0.37766  0.63776  Biso   1.000  C
  C244     1.0000 0.78268  0.32972  0.61523  Biso   1.000  C
  C245     1.0000 0.31489  0.21139  0.39073  Biso   1.000  C
  C246     1.0000 0.40573  0.20373  0.39358  Biso   1.000  C
  C247     1.0000 0.93330  0.50057  0.35050  Biso   1.000  C
  C248     1.0000 0.91829  0.47119  0.39766  Biso   1.000  C
  C249     1.0000 0.47280  0.09020  0.61287  Biso   1.000  C
  H264     1.0000 0.48837  0.09510  0.65391  Biso   1.000  H
  C250     1.0000 0.52278  0.18816  0.59047  Biso   1.000  C
  H265     1.0000 0.57320  0.26091  0.61581  Biso   1.000  H
  H266     1.0000 0.67318  0.15768  0.69500  Biso   1.000  H
  H267     1.0000 0.71080  0.22788  0.70531  Biso   1.000  H
  H268     1.0000 0.63687  0.19098  0.70611  Biso   1.000  H
  C251     1.0000 0.90979  0.38261  0.61287  Biso   1.000  C
  H269     1.0000 0.90489  0.39328  0.65391  Biso   1.000  H
  H270     1.0000 0.73909  0.31231  0.61581  Biso   1.000  H
  C252     1.0000 0.81180  0.33462  0.59047  Biso   1.000  C
  C253     1.0000 0.27915  0.14775  0.39042  Biso   1.000  C
  H271     1.0000 0.29530  0.23550  0.38961  Biso   1.000  H
  C254     1.0000 0.36951  0.13944  0.39313  Biso   1.000  C
  H272     1.0000 0.44938  0.22271  0.39450  Biso   1.000  H
  H273     1.0000 0.92256  0.51558  0.33470  Biso   1.000  H
  C255     1.0000 0.97801  0.48320  0.34837  Biso   1.000  C
  C256     1.0000 0.96239  0.45299  0.39567  Biso   1.000  C
  H274     1.0000 0.89757  0.46639  0.41461  Biso   1.000  H
  C257     1.0000 0.48441  0.12461  0.58871  Biso   1.000  C
  H275     1.0000 0.44820  0.04651  0.61220  Biso   1.000  H
  H276     1.0000 0.53270  0.21232  0.57420  Biso   1.000  H
  C258     1.0000 0.87539  0.35979  0.58871  Biso   1.000  C
  H277     1.0000 0.95349  0.40168  0.61220  Biso   1.000  H
  H278     1.0000 0.78769  0.32039  0.57420  Biso   1.000  H
  C259     1.0000 0.30543  0.11057  0.39170  Biso   1.000  C
  H279     1.0000 0.23550  0.12909  0.38930  Biso   1.000  H
  H280     1.0000 0.38889  0.11510  0.39381  Biso   1.000  H
  H281     1.0000 0.99748  0.48639  0.33120  Biso   1.000  H
  C260     1.0000 0.99470  0.46098  0.37128  Biso   1.000  C
  H282     1.0000 0.97058  0.43498  0.41110  Biso   1.000  H
  C261     1.0000 0.45528  0.09611  0.56149  Biso   1.000  C
  C262     1.0000 0.45049  0.09029  0.56299  Biso   1.000  C
  C263     1.0000 0.90389  0.35919  0.56149  Biso   1.000  C
  C264     1.0000 0.90967  0.36021  0.56299  Biso   1.000  C
  C265     1.0000 0.26382  0.04078  0.38975  Biso   1.000  C
  C266     1.0000 0.04894  0.44962  0.36946  Biso   1.000  C
  C267     1.0000 0.45607  0.03690  0.55430  Biso   1.000  C
  C268     1.0000 0.47979  0.06129  0.54551  Biso   1.000  C
  H283     1.0000 0.41177  0.08669  0.56170  Biso   1.000  H
  H284     1.0000 0.47708  0.12692  0.54690  Biso   1.000  H
  H285     1.0000 0.40889  0.05709  0.56850  Biso   1.000  H
  H286     1.0000 0.44468  0.11939  0.55131  Biso   1.000  H
  C269     1.0000 0.96308  0.41919  0.55430  Biso   1.000  C
  C270     1.0000 0.93870  0.41849  0.54551  Biso   1.000  C
  H287     1.0000 0.91328  0.32510  0.56170  Biso   1.000  H
  H288     1.0000 0.87306  0.35018  0.54690  Biso   1.000  H
  H289     1.0000 0.94287  0.35180  0.56850  Biso   1.000  H
  H290     1.0000 0.88058  0.32529  0.55131  Biso   1.000  H
  C271     1.0000 0.29301  0.00333  0.39885  Biso   1.000  C
  H291     1.0000 0.25020  0.03002  0.37050  Biso   1.000  H
  H292     1.0000 0.22648  0.02850  0.40100  Biso   1.000  H
  C272     1.0000 0.04290  0.39923  0.38870  Biso   1.000  C
  H293     1.0000 0.08739  0.48837  0.37380  Biso   1.000  H
  H294     1.0000 0.05232  0.43798  0.35040  Biso   1.000  H
  C273     1.0000 0.41216  0.00466  0.52995  Biso   1.000  C
  C274     1.0000 0.43577  0.02078  0.52217  Biso   1.000  C
  H295     1.0000 0.49858  0.04711  0.54940  Biso   1.000  H
  H296     1.0000 0.44280  0.00891  0.57041  Biso   1.000  H
  H297     1.0000 0.49031  0.03561  0.55719  Biso   1.000  H
  H298     1.0000 0.51858  0.09440  0.53739  Biso   1.000  H
  C275     1.0000 0.99532  0.40750  0.52995  Biso   1.000  C
  C276     1.0000 0.97918  0.41498  0.52217  Biso   1.000  C
  H299     1.0000 0.95287  0.45147  0.54940  Biso   1.000  H
  H300     1.0000 0.99107  0.43387  0.57041  Biso   1.000  H
  H301     1.0000 0.96440  0.45470  0.55719  Biso   1.000  H
  H302     1.0000 0.90558  0.42417  0.53739  Biso   1.000  H
  C277     1.0000 0.28464  0.98074  0.42570  Biso   1.000  C
  C278     1.0000 0.32918  0.99183  0.38028  Biso   1.000  C
  C279     1.0000 0.00810  0.33730  0.38028  Biso   1.000  C
  C280     1.0000 0.06867  0.41364  0.41504  Biso   1.000  C
  C281     1.0000 0.43705  0.01446  0.50374  Biso   1.000  C
  C282     1.0000 0.34894  0.96670  0.53379  Biso   1.000  C
  C283     1.0000 0.43979  0.04642  0.49642  Biso   1.000  C
  C284     1.0000 0.38856  0.96116  0.52784  Biso   1.000  C
  C285     1.0000 0.98551  0.42260  0.50374  Biso   1.000  C
  C286     1.0000 0.03322  0.38219  0.53379  Biso   1.000  C
  C287     1.0000 0.95360  0.39341  0.49642  Biso   1.000  C
  C288     1.0000 0.03883  0.42741  0.52784  Biso   1.000  C
  C289     1.0000 0.30849  0.94245  0.43344  Biso   1.000  C
  C290     1.0000 0.25031  0.99792  0.44648  Biso   1.000  C
  C291     1.0000 0.33819  0.01529  0.35089  Biso   1.000  C
  C292     1.0000 0.35631  0.95705  0.38870  Biso   1.000  C
  C293     1.0000 0.99665  0.28968  0.39885  Biso   1.000  C
  C294     1.0000 0.98469  0.32289  0.35089  Biso   1.000  C
  C295     1.0000 0.05750  0.36603  0.43344  Biso   1.000  C
  C296     1.0000 0.10896  0.48071  0.42350  Biso   1.000  C
  C297     1.0000 0.39640  0.01219  0.47638  Biso   1.000  C
  C298     1.0000 0.39875  0.98633  0.48134  Biso   1.000  C
  H303     1.0000 0.48031  0.04041  0.50110  Biso   1.000  H
  C299     1.0000 0.31066  0.93862  0.51138  Biso   1.000  C
  C300     1.0000 0.34529  0.92716  0.50782  Biso   1.000  C
  H304     1.0000 0.33192  0.95996  0.55170  Biso   1.000  H
  H305     1.0000 0.47201  0.08701  0.49251  Biso   1.000  H
  H306     1.0000 0.38585  0.94365  0.54541  Biso   1.000  H
  C301     1.0000 0.98778  0.38418  0.47638  Biso   1.000  C
  C302     1.0000 0.01365  0.41240  0.48134  Biso   1.000  C
  H307     1.0000 0.95959  0.43988  0.50110  Biso   1.000  H
  C303     1.0000 0.06136  0.37198  0.51138  Biso   1.000  C
  C304     1.0000 0.07280  0.41808  0.50782  Biso   1.000  C
  H308     1.0000 0.04003  0.37189  0.55170  Biso   1.000  H
  H309     1.0000 0.91300  0.38501  0.49251  Biso   1.000  H
  H310     1.0000 0.05630  0.44219  0.54541  Biso   1.000  H
  C305     1.0000 0.34490  0.93127  0.41504  Biso   1.000  C
  C306     1.0000 0.29379  0.91257  0.46152  Biso   1.000  C
  H311     1.0000 0.25871  0.04032  0.44240  Biso   1.000  H
  H312     1.0000 0.26691  0.99857  0.46501  Biso   1.000  H
  C307     1.0000 0.18029  0.95428  0.44685  Biso   1.000  C
  H313     1.0000 0.33278  0.05191  0.35009  Biso   1.000  H
  H314     1.0000 0.38082  0.02822  0.34501  Biso   1.000  H
  C308     1.0000 0.29242  0.96591  0.33111  Biso   1.000  C
  C309     1.0000 0.40070  0.95104  0.36946  Biso   1.000  C
  C310     1.0000 0.95920  0.22303  0.38975  Biso   1.000  C
  C311     1.0000 0.01925  0.30386  0.42570  Biso   1.000  C
  H315     1.0000 0.94810  0.28090  0.35009  Biso   1.000  H
  H316     1.0000 0.97178  0.35259  0.34501  Biso   1.000  H
  C312     1.0000 0.03399  0.32644  0.33111  Biso   1.000  C
  C313     1.0000 0.08737  0.38113  0.46152  Biso   1.000  C
  H317     1.0000 0.09310  0.50578  0.41469  Biso   1.000  H
  H318     1.0000 0.10608  0.48408  0.44361  Biso   1.000  H
  C314     1.0000 0.17676  0.50680  0.41549  Biso   1.000  C
  C315     1.0000 0.33557  0.94846  0.48515  Biso   1.000  C
  C316     1.0000 0.34919  0.95266  0.48208  Biso   1.000  C
  H319     1.0000 0.39907  0.02970  0.45880  Biso   1.000  H
  H320     1.0000 0.41580  0.99307  0.46341  Biso   1.000  H
  H321     1.0000 0.26752  0.91275  0.51401  Biso   1.000  H
  H322     1.0000 0.31295  0.88634  0.51169  Biso   1.000  H
  C317     1.0000 0.05153  0.38704  0.48515  Biso   1.000  C
  C318     1.0000 0.04730  0.39651  0.48208  Biso   1.000  C
  H323     1.0000 0.97027  0.36940  0.45880  Biso   1.000  H
  H324     1.0000 0.00688  0.42270  0.46341  Biso   1.000  H
  H325     1.0000 0.08724  0.35471  0.51401  Biso   1.000  H
  H326     1.0000 0.11361  0.42658  0.51169  Biso   1.000  H
  C319     1.0000 0.37175  0.89105  0.42350  Biso   1.000  C
  H327     1.0000 0.29358  0.87303  0.46000  Biso   1.000  H
  H328     1.0000 0.25126  0.90255  0.46630  Biso   1.000  H
  H329     1.0000 0.25521  0.90957  0.46851  Biso   1.000  H
  H330     1.0000 0.28736  0.87026  0.46021  Biso   1.000  H
  H331     1.0000 0.16136  0.96906  0.46029  Biso   1.000  H
  H332     1.0000 0.16330  0.95326  0.42861  Biso   1.000  H
  H333     1.0000 0.17132  0.91266  0.45191  Biso   1.000  H
  H334     1.0000 0.30175  0.98185  0.31230  Biso   1.000  H
  H335     1.0000 0.29595  0.92873  0.33251  Biso   1.000  H
  H336     1.0000 0.25031  0.95575  0.33591  Biso   1.000  H
  C320     1.0000 0.46628  0.00531  0.37128  Biso   1.000  C
  H337     1.0000 0.40099  0.91257  0.37380  Biso   1.000  H
  H338     1.0000 0.38566  0.94767  0.35040  Biso   1.000  H
  C321     1.0000 0.88944  0.19486  0.39170  Biso   1.000  C
  H339     1.0000 0.96999  0.22022  0.37050  Biso   1.000  H
  H340     1.0000 0.97149  0.19800  0.40100  Biso   1.000  H
  C322     1.0000 0.00200  0.25232  0.44648  Biso   1.000  C
  H341     1.0000 0.01811  0.31989  0.31230  Biso   1.000  H
  H342     1.0000 0.07119  0.36718  0.33251  Biso   1.000  H
  H343     1.0000 0.04417  0.29448  0.33591  Biso   1.000  H
  H344     1.0000 0.12692  0.42048  0.46000  Biso   1.000  H
  H345     1.0000 0.09744  0.34871  0.46630  Biso   1.000  H
  H346     1.0000 0.09041  0.34561  0.46851  Biso   1.000  H
  H347     1.0000 0.12972  0.41711  0.46021  Biso   1.000  H
  H348     1.0000 0.20080  0.55008  0.42129  Biso   1.000  H
  H349     1.0000 0.19296  0.48288  0.42451  Biso   1.000  H
  H350     1.0000 0.17989  0.50417  0.39561  Biso   1.000  H
  H351     1.0000 0.41268  0.90684  0.41469  Biso   1.000  H
  H352     1.0000 0.37799  0.89386  0.44361  Biso   1.000  H
  C323     1.0000 0.33002  0.82320  0.41549  Biso   1.000  C
  C324     1.0000 0.50515  0.02194  0.34837  Biso   1.000  C
  C325     1.0000 0.49058  0.03760  0.39567  Biso   1.000  C
  C326     1.0000 0.85223  0.13140  0.39042  Biso   1.000  C
  C327     1.0000 0.86058  0.23010  0.39313  Biso   1.000  C
  H353     1.0000 0.95969  0.21841  0.44240  Biso   1.000  H
  H354     1.0000 0.00143  0.26830  0.46501  Biso   1.000  H
  C328     1.0000 0.04569  0.22594  0.44685  Biso   1.000  C
  H355     1.0000 0.34927  0.79914  0.42129  Biso   1.000  H
  H356     1.0000 0.28990  0.80694  0.42451  Biso   1.000  H
  H357     1.0000 0.32429  0.82006  0.39561  Biso   1.000  H
  C329     1.0000 0.56725  0.06669  0.35050  Biso   1.000  C
  H358     1.0000 0.48887  0.00249  0.33120  Biso   1.000  H
  H359     1.0000 0.46441  0.02942  0.41110  Biso   1.000  H
  C330     1.0000 0.55287  0.08170  0.39766  Biso   1.000  C
  C331     1.0000 0.78856  0.10350  0.39073  Biso   1.000  C
  H360     1.0000 0.87089  0.10641  0.38930  Biso   1.000  H
  C332     1.0000 0.79626  0.20202  0.39358  Biso   1.000  C
  H361     1.0000 0.88487  0.27379  0.39381  Biso   1.000  H
  H362     1.0000 0.03092  0.19232  0.46029  Biso   1.000  H
  H363     1.0000 0.04669  0.21001  0.42861  Biso   1.000  H
  H364     1.0000 0.08730  0.25860  0.45191  Biso   1.000  H
  C333     1.0000 0.59235  0.09602  0.37524  Biso   1.000  C
  H365     1.0000 0.59300  0.07741  0.33470  Biso   1.000  H
  H366     1.0000 0.56878  0.10239  0.41461  Biso   1.000  H
  C334     1.0000 0.75942  0.13722  0.39272  Biso   1.000  C
  H367     1.0000 0.76448  0.05981  0.38961  Biso   1.000  H
  H368     1.0000 0.77727  0.22668  0.39450  Biso   1.000  H
  C335     1.0000 0.66131  0.13842  0.37809  Biso   1.000  C
  C336     1.0000 0.68952  0.10493  0.39280  Biso   1.000  C
  H369     1.0000 0.68017  0.15168  0.35970  Biso   1.000  H
  H370     1.0000 0.66958  0.17569  0.38860  Biso   1.000  H
  H371     1.0000 0.67347  0.06378  0.38430  Biso   1.000  H
  H372     1.0000 0.67528  0.09828  0.41211  Biso   1.000  H
  C337     1.0000 0.70067  0.65977  0.66446  Biso   1.000  C
  C338     1.0000 0.65137  0.65621  0.68422  Biso   1.000  C
  H373     1.0000 0.68475  0.65321  0.64563  Biso   1.000  H
  H374     1.0000 0.73784  0.70051  0.66583  Biso   1.000  H
  H375     1.0000 0.71085  0.62781  0.66924  Biso   1.000  H
  C339     1.0000 0.67478  0.67062  0.71361  Biso   1.000  C
  H376     1.0000 0.61474  0.61423  0.68344  Biso   1.000  H
  H377     1.0000 0.63846  0.68591  0.67834  Biso   1.000  H
  C340     1.0000 0.66333  0.62301  0.73217  Biso   1.000  C
  C341     1.0000 0.70959  0.73256  0.72205  Biso   1.000  C
  C342     1.0000 0.62585  0.55636  0.72308  Biso   1.000  C
  C343     1.0000 0.68586  0.63718  0.75902  Biso   1.000  C
  C344     1.0000 0.73535  0.74697  0.74837  Biso   1.000  C
  C345     1.0000 0.71558  0.78295  0.70279  Biso   1.000  C
  C346     1.0000 0.55608  0.52819  0.72504  Biso   1.000  C
  H378     1.0000 0.63668  0.55354  0.70383  Biso   1.000  H
  H379     1.0000 0.63817  0.53133  0.73433  Biso   1.000  H
  C347     1.0000 0.72414  0.69935  0.76679  Biso   1.000  C
  C348     1.0000 0.66869  0.58564  0.77980  Biso   1.000  C
  C349     1.0000 0.77556  0.81403  0.75685  Biso   1.000  C
  C350     1.0000 0.66134  0.79431  0.70463  Biso   1.000  C
  H380     1.0000 0.75404  0.82170  0.70713  Biso   1.000  H
  H381     1.0000 0.71896  0.77131  0.68373  Biso   1.000  H
  C351     1.0000 0.51891  0.46473  0.72377  Biso   1.000  C
  C352     1.0000 0.52722  0.56343  0.72646  Biso   1.000  C
  C353     1.0000 0.75401  0.71445  0.79485  Biso   1.000  C
  H382     1.0000 0.66804  0.60162  0.79833  Biso   1.000  H
  H383     1.0000 0.62638  0.55174  0.77573  Biso   1.000  H
  C354     1.0000 0.71230  0.55927  0.78017  Biso   1.000  C
  H384     1.0000 0.75974  0.83911  0.74804  Biso   1.000  H
  H385     1.0000 0.77273  0.81740  0.77694  Biso   1.000  H
  C355     1.0000 0.84337  0.84013  0.74882  Biso   1.000  C
  C356     1.0000 0.64469  0.81653  0.68170  Biso   1.000  C
  C357     1.0000 0.62903  0.78632  0.72900  Biso   1.000  C
  C358     1.0000 0.45524  0.43683  0.72408  Biso   1.000  C
  H386     1.0000 0.53758  0.43974  0.72262  Biso   1.000  H
  C359     1.0000 0.46294  0.53534  0.72693  Biso   1.000  C
  H387     1.0000 0.55155  0.60712  0.72713  Biso   1.000  H
  H388     1.0000 0.79353  0.75380  0.79333  Biso   1.000  H
  H389     1.0000 0.76404  0.68203  0.79964  Biso   1.000  H
  C360     1.0000 0.71815  0.72041  0.81850  Biso   1.000  C
  H390     1.0000 0.75705  0.67894  0.80184  Biso   1.000  H
  H391     1.0000 0.79636  0.75043  0.79354  Biso   1.000  H
  C361     1.0000 0.71394  0.72983  0.81540  Biso   1.000  C
  H392     1.0000 0.69757  0.52564  0.79364  Biso   1.000  H
  H393     1.0000 0.71337  0.54333  0.76193  Biso   1.000  H
  H394     1.0000 0.75394  0.59192  0.78524  Biso   1.000  H
  H395     1.0000 0.86744  0.88340  0.75464  Biso   1.000  H
  H396     1.0000 0.85964  0.81620  0.75783  Biso   1.000  H
  H397     1.0000 0.84653  0.83749  0.72894  Biso   1.000  H
  C362     1.0000 0.59998  0.83389  0.68383  Biso   1.000  C
  H398     1.0000 0.66417  0.81971  0.66454  Biso   1.000  H
  H399     1.0000 0.63726  0.76831  0.74443  Biso   1.000  H
  C363     1.0000 0.58497  0.80452  0.73099  Biso   1.000  C
  C364     1.0000 0.42610  0.47054  0.72605  Biso   1.000  C
  H400     1.0000 0.43116  0.39314  0.72293  Biso   1.000  H
  H401     1.0000 0.44396  0.56001  0.72783  Biso   1.000  H
  C365     1.0000 0.72800  0.70531  0.84471  Biso   1.000  C
  C366     1.0000 0.68029  0.74572  0.81467  Biso   1.000  C
  C367     1.0000 0.73945  0.75140  0.84115  Biso   1.000  C
  C368     1.0000 0.65446  0.71750  0.80971  Biso   1.000  C
  C369     1.0000 0.57065  0.82964  0.70856  Biso   1.000  C
  H402     1.0000 0.58924  0.84890  0.66803  Biso   1.000  H
  H403     1.0000 0.56425  0.79971  0.74794  Biso   1.000  H
  C370     1.0000 0.35620  0.43826  0.72613  Biso   1.000  C
  H404     1.0000 0.75384  0.68804  0.84733  Biso   1.000  H
  C371     1.0000 0.69990  0.71552  0.86711  Biso   1.000  C
  C372     1.0000 0.65219  0.75593  0.83707  Biso   1.000  C
  H405     1.0000 0.67356  0.75602  0.79673  Biso   1.000  H
  C373     1.0000 0.62028  0.72674  0.82975  Biso   1.000  C
  H406     1.0000 0.78025  0.75990  0.84504  Biso   1.000  H
  C374     1.0000 0.70547  0.76073  0.86119  Biso   1.000  C
  H407     1.0000 0.63695  0.70272  0.79214  Biso   1.000  H
  C375     1.0000 0.52826  0.85620  0.71141  Biso   1.000  C
  C376     1.0000 0.32795  0.47175  0.71141  Biso   1.000  C
  H408     1.0000 0.34015  0.39711  0.71762  Biso   1.000  H
  H409     1.0000 0.34196  0.43161  0.74543  Biso   1.000  H
  H410     1.0000 0.70663  0.70522  0.88502  Biso   1.000  H
  C377     1.0000 0.66200  0.74083  0.86330  Biso   1.000  C
  H411     1.0000 0.62623  0.77320  0.83444  Biso   1.000  H
  C378     1.0000 0.64586  0.74831  0.85549  Biso   1.000  C
  H412     1.0000 0.57968  0.71833  0.82584  Biso   1.000  H
  H413     1.0000 0.72294  0.77551  0.87873  Biso   1.000  H
  C379     1.0000 0.56171  0.91790  0.72613  Biso   1.000  C
  H414     1.0000 0.51495  0.86183  0.69303  Biso   1.000  H
  H415     1.0000 0.49095  0.82719  0.72193  Biso   1.000  H
  C380     1.0000 0.25903  0.42935  0.70856  Biso   1.000  C
  H416     1.0000 0.34686  0.48500  0.69303  Biso   1.000  H
  H417     1.0000 0.33627  0.50902  0.72193  Biso   1.000  H
  C381     1.0000 0.62977  0.75251  0.88765  Biso   1.000  C
  C382     1.0000 0.60534  0.75182  0.87884  Biso   1.000  C
  C383     1.0000 0.52945  0.95555  0.72605  Biso   1.000  C
  H418     1.0000 0.60287  0.94303  0.71762  Biso   1.000  H
  H419     1.0000 0.56836  0.91033  0.74543  Biso   1.000  H
  C384     1.0000 0.23393  0.40002  0.68383  Biso   1.000  C
  C385     1.0000 0.21955  0.41503  0.73099  Biso   1.000  C
  H420     1.0000 0.61955  0.78480  0.88273  Biso   1.000  H
  H421     1.0000 0.65775  0.76720  0.90374  Biso   1.000  H
  C386     1.0000 0.57057  0.69252  0.89484  Biso   1.000  C
  H422     1.0000 0.63104  0.78803  0.89054  Biso   1.000  H
  C387     1.0000 0.57636  0.69353  0.89634  Biso   1.000  C
  H423     1.0000 0.57226  0.75750  0.87074  Biso   1.000  H
  C388     1.0000 0.46464  0.92760  0.72693  Biso   1.000  C
  C389     1.0000 0.56318  0.01845  0.72408  Biso   1.000  C
  C390     1.0000 0.17183  0.35526  0.68170  Biso   1.000  C
  H424     1.0000 0.25968  0.41073  0.66803  Biso   1.000  H
  C391     1.0000 0.15726  0.37092  0.72900  Biso   1.000  C
  H425     1.0000 0.23546  0.43572  0.74794  Biso   1.000  H
  H426     1.0000 0.57997  0.65843  0.89503  Biso   1.000  H
  H427     1.0000 0.53975  0.68351  0.88023  Biso   1.000  H
  C392     1.0000 0.54207  0.69312  0.92206  Biso   1.000  C
  H428     1.0000 0.60955  0.68513  0.90183  Biso   1.000  H
  H429     1.0000 0.54726  0.65861  0.88464  Biso   1.000  H
  H430     1.0000 0.43996  0.88391  0.72783  Biso   1.000  H
  C393     1.0000 0.43659  0.96381  0.72646  Biso   1.000  C
  C394     1.0000 0.53522  0.05420  0.72377  Biso   1.000  C
  H431     1.0000 0.60688  0.03808  0.72293  Biso   1.000  H
  H432     1.0000 0.15555  0.33582  0.66454  Biso   1.000  H
  C395     1.0000 0.13296  0.33864  0.70463  Biso   1.000  C
  H433     1.0000 0.13106  0.36275  0.74443  Biso   1.000  H
  C396     1.0000 0.57644  0.71593  0.94620  Biso   1.000  C
  C397     1.0000 0.47849  0.66794  0.92380  Biso   1.000  C
  C398     1.0000 0.47180  0.02792  0.72504  Biso   1.000  C
  H434     1.0000 0.39285  0.94441  0.72713  Biso   1.000  H
  H435     1.0000 0.56024  0.09785  0.72262  Biso   1.000  H
  C399     1.0000 0.06737  0.28441  0.70279  Biso   1.000  C
  H436     1.0000 0.62013  0.73501  0.94552  Biso   1.000  H
  C400     1.0000 0.54741  0.71099  0.97108  Biso   1.000  C
  C401     1.0000 0.44936  0.66305  0.94858  Biso   1.000  C
  H437     1.0000 0.45437  0.65372  0.90753  Biso   1.000  H
  C402     1.0000 0.44361  0.06953  0.72308  Biso   1.000  C
  C403     1.0000 0.02297  0.29042  0.72205  Biso   1.000  C
  H438     1.0000 0.06765  0.24594  0.70713  Biso   1.000  H
  H439     1.0000 0.05236  0.28104  0.68373  Biso   1.000  H
  C404     1.0000 0.48341  0.68346  0.97270  Biso   1.000  C
  H440     1.0000 0.57153  0.72660  0.98723  Biso   1.000  H
  H441     1.0000 0.40577  0.64564  0.94913  Biso   1.000  H
  C405     1.0000 0.37698  0.04034  0.73217  Biso   1.000  C
  H442     1.0000 0.44646  0.08316  0.70383  Biso   1.000  H
  H443     1.0000 0.46867  0.10685  0.73433  Biso   1.000  H
  C406     1.0000 0.01161  0.26465  0.74837  Biso   1.000  C
  C407     1.0000 0.99585  0.32520  0.71361  Biso   1.000  C
  C408     1.0000 0.45332  0.67353  0.00078  Biso   1.000  C
  C409     1.0000 0.32934  0.00418  0.71361  Biso   1.000  C
  C410     1.0000 0.36276  0.04870  0.75902  Biso   1.000  C
  C411     1.0000 0.03845  0.22442  0.75685  Biso   1.000  C
  C412     1.0000 0.97520  0.27582  0.76679  Biso   1.000  C
  C413     1.0000 0.00483  0.34861  0.68422  Biso   1.000  C
  C414     1.0000 0.95965  0.33665  0.73217  Biso   1.000  C
  C415     1.0000 0.39078  0.66956  0.00061  Biso   1.000  C
  H444     1.0000 0.48137  0.70794  0.01293  Biso   1.000  H
  H445     1.0000 0.44858  0.63492  0.00873  Biso   1.000  H
  C416     1.0000 0.26742  0.97698  0.72205  Biso   1.000  C
  C417     1.0000 0.34377  0.99513  0.68422  Biso   1.000  C
  C418     1.0000 0.30062  0.02483  0.76679  Biso   1.000  C
  C419     1.0000 0.41438  0.08307  0.77980  Biso   1.000  C
  H446     1.0000 0.07935  0.24021  0.74804  Biso   1.000  H
  H447     1.0000 0.04466  0.22724  0.77694  Biso   1.000  H
  C420     1.0000 0.99673  0.15657  0.74882  Biso   1.000  C
  C421     1.0000 0.95130  0.31411  0.75902  Biso   1.000  C
  C422     1.0000 0.96046  0.24594  0.79485  Biso   1.000  C
  H448     1.0000 0.04746  0.36155  0.67834  Biso   1.000  H
  H449     1.0000 0.99947  0.38524  0.68344  Biso   1.000  H
  C423     1.0000 0.95909  0.29929  0.66446  Biso   1.000  C
  C424     1.0000 0.93050  0.37411  0.72308  Biso   1.000  C
  C425     1.0000 0.33618  0.61197  0.00027  Biso   1.000  C
  C426     1.0000 0.38802  0.72420  0.00027  Biso   1.000  C
  C427     1.0000 0.21705  0.93264  0.70279  Biso   1.000  C
  C428     1.0000 0.25304  0.98838  0.74837  Biso   1.000  C
  H450     1.0000 0.31406  0.95250  0.67834  Biso   1.000  H
  H451     1.0000 0.38573  0.00058  0.68344  Biso   1.000  H
  C429     1.0000 0.34024  0.04094  0.66446  Biso   1.000  C
  C430     1.0000 0.28551  0.03956  0.79485  Biso   1.000  C
  H452     1.0000 0.39834  0.06644  0.79833  Biso   1.000  H
  H453     1.0000 0.44825  0.07466  0.77573  Biso   1.000  H
  C431     1.0000 0.44071  0.15308  0.78017  Biso   1.000  C
  H454     1.0000 0.01594  0.13251  0.75464  Biso   1.000  H
  H455     1.0000 0.95656  0.14031  0.75783  Biso   1.000  H
  H456     1.0000 0.99096  0.15343  0.72894  Biso   1.000  H
  C432     1.0000 0.91698  0.33129  0.77980  Biso   1.000  C
  C433     1.0000 0.00224  0.28183  0.81850  Biso   1.000  C
  C434     1.0000 0.01586  0.28603  0.81540  Biso   1.000  C
  H457     1.0000 0.96027  0.20645  0.79333  Biso   1.000  H
  H458     1.0000 0.91797  0.23592  0.79964  Biso   1.000  H
  H459     1.0000 0.92188  0.24294  0.80184  Biso   1.000  H
  H460     1.0000 0.95406  0.20363  0.79354  Biso   1.000  H
  H461     1.0000 0.96846  0.31522  0.64563  Biso   1.000  H
  H462     1.0000 0.96266  0.26211  0.66583  Biso   1.000  H
  H463     1.0000 0.91697  0.28913  0.66924  Biso   1.000  H
  H464     1.0000 0.91688  0.36335  0.70383  Biso   1.000  H
  H465     1.0000 0.89316  0.36182  0.73433  Biso   1.000  H
  C435     1.0000 0.97208  0.44390  0.72504  Biso   1.000  C
  C436     1.0000 0.27878  0.60924  0.00061  Biso   1.000  C
  C437     1.0000 0.33855  0.55271  0.00014  Biso   1.000  C
  C438     1.0000 0.33044  0.72120  0.00061  Biso   1.000  C
  C439     1.0000 0.44729  0.78586  0.00014  Biso   1.000  C
  C440     1.0000 0.20567  0.86701  0.70463  Biso   1.000  C
  H466     1.0000 0.17825  0.93231  0.70713  Biso   1.000  H
  H467     1.0000 0.22865  0.94760  0.68373  Biso   1.000  H
  C441     1.0000 0.18599  0.96155  0.75685  Biso   1.000  C
  H468     1.0000 0.34675  0.03157  0.64563  Biso   1.000  H
  H469     1.0000 0.29944  0.03734  0.66583  Biso   1.000  H
  H470     1.0000 0.37218  0.08307  0.66924  Biso   1.000  H
  C442     1.0000 0.27961  0.99776  0.81850  Biso   1.000  C
  C443     1.0000 0.27016  0.98413  0.81540  Biso   1.000  C
  H471     1.0000 0.24616  0.03974  0.79333  Biso   1.000  H
  H472     1.0000 0.31795  0.08205  0.79964  Biso   1.000  H
  H473     1.0000 0.32109  0.07817  0.80184  Biso   1.000  H
  H474     1.0000 0.24960  0.04598  0.79354  Biso   1.000  H
  H475     1.0000 0.47435  0.17197  0.79364  Biso   1.000  H
  H476     1.0000 0.45666  0.17003  0.76193  Biso   1.000  H
  H477     1.0000 0.40807  0.16204  0.78524  Biso   1.000  H
  H478     1.0000 0.93358  0.33194  0.79833  Biso   1.000  H
  H479     1.0000 0.92539  0.37365  0.77573  Biso   1.000  H
  C444     1.0000 0.84696  0.28765  0.78017  Biso   1.000  C
  C445     1.0000 0.06541  0.31970  0.81467  Biso   1.000  C
  C446     1.0000 0.01195  0.26054  0.84115  Biso   1.000  C
  C447     1.0000 0.06304  0.34552  0.80971  Biso   1.000  C
  C448     1.0000 0.97732  0.27199  0.84471  Biso   1.000  C
  C449     1.0000 0.03619  0.47276  0.72646  Biso   1.000  C
  C450     1.0000 0.94583  0.48108  0.72377  Biso   1.000  C
  C451     1.0000 0.22021  0.54666  0.00078  Biso   1.000  C
  C452     1.0000 0.27578  0.66379  0.00027  Biso   1.000  C
  H480     1.0000 0.30197  0.52033  0.99033  Biso   1.000  H
  H481     1.0000 0.37587  0.55950  0.99014  Biso   1.000  H
  C453     1.0000 0.33997  0.53026  0.02927  Biso   1.000  C
  C454     1.0000 0.32644  0.77976  0.00078  Biso   1.000  C
  H482     1.0000 0.47964  0.78161  0.99033  Biso   1.000  H
  H483     1.0000 0.44047  0.81629  0.99014  Biso   1.000  H
  C455     1.0000 0.46972  0.80969  0.02927  Biso   1.000  C
  C456     1.0000 0.18345  0.82816  0.68170  Biso   1.000  C
  C457     1.0000 0.21364  0.84271  0.72900  Biso   1.000  C
  H484     1.0000 0.16089  0.92063  0.74804  Biso   1.000  H
  H485     1.0000 0.18255  0.95531  0.77694  Biso   1.000  H
  C458     1.0000 0.15982  0.00330  0.74882  Biso   1.000  C
  C459     1.0000 0.25427  0.93453  0.81467  Biso   1.000  C
  C460     1.0000 0.24858  0.98801  0.84115  Biso   1.000  C
  C461     1.0000 0.28247  0.93693  0.80971  Biso   1.000  C
  C462     1.0000 0.29464  0.02270  0.84471  Biso   1.000  C
  H486     1.0000 0.82807  0.30243  0.79364  Biso   1.000  H
  H487     1.0000 0.82997  0.28663  0.76193  Biso   1.000  H
  H488     1.0000 0.83799  0.24603  0.78524  Biso   1.000  H
  C463     1.0000 0.10373  0.34778  0.83707  Biso   1.000  C
  H489     1.0000 0.08247  0.32644  0.79673  Biso   1.000  H
  C464     1.0000 0.10647  0.37974  0.82975  Biso   1.000  C
  C465     1.0000 0.01560  0.30007  0.86711  Biso   1.000  C
  C466     1.0000 0.05527  0.29453  0.86119  Biso   1.000  C
  H490     1.0000 0.97966  0.21971  0.84504  Biso   1.000  H
  H491     1.0000 0.06576  0.36302  0.79214  Biso   1.000  H
  H492     1.0000 0.93415  0.24613  0.84733  Biso   1.000  H
  C467     1.0000 0.07241  0.53705  0.72693  Biso   1.000  C
  H493     1.0000 0.05558  0.44842  0.72713  Biso   1.000  H
  H494     1.0000 0.90218  0.46242  0.72262  Biso   1.000  H
  C468     1.0000 0.98157  0.54472  0.72408  Biso   1.000  C
  C469     1.0000 0.20006  0.51659  0.97270  Biso   1.000  C
  H495     1.0000 0.22655  0.51862  0.01293  Biso   1.000  H
  H496     1.0000 0.18635  0.55142  0.00873  Biso   1.000  H
  C470     1.0000 0.21412  0.66143  0.00014  Biso   1.000  C
  H497     1.0000 0.33986  0.49101  0.02832  Biso   1.000  H
  H498     1.0000 0.37744  0.56121  0.03863  Biso   1.000  H
  H499     1.0000 0.30355  0.52431  0.03943  Biso   1.000  H
  C471     1.0000 0.31651  0.79990  0.97270  Biso   1.000  C
  H500     1.0000 0.29208  0.77343  0.01293  Biso   1.000  H
  H501     1.0000 0.36505  0.81362  0.00873  Biso   1.000  H
  H502     1.0000 0.50896  0.84881  0.02832  Biso   1.000  H
  H503     1.0000 0.43874  0.81620  0.03863  Biso   1.000  H
  H504     1.0000 0.47564  0.77921  0.03943  Biso   1.000  H
  C472     1.0000 0.16609  0.76609  0.68383  Biso   1.000  C
  H505     1.0000 0.18026  0.84442  0.66454  Biso   1.000  H
  C473     1.0000 0.19547  0.78045  0.73099  Biso   1.000  C
  H506     1.0000 0.23166  0.86890  0.74443  Biso   1.000  H
  H507     1.0000 0.11657  0.98400  0.75464  Biso   1.000  H
  H508     1.0000 0.18373  0.04344  0.75783  Biso   1.000  H
  H509     1.0000 0.16247  0.00908  0.72894  Biso   1.000  H
  C474     1.0000 0.24405  0.89624  0.83707  Biso   1.000  C
  H510     1.0000 0.24398  0.91753  0.79673  Biso   1.000  H
  C475     1.0000 0.27325  0.89352  0.82975  Biso   1.000  C
  C476     1.0000 0.28447  0.98437  0.86711  Biso   1.000  C
  C477     1.0000 0.23924  0.94469  0.86119  Biso   1.000  C
  H511     1.0000 0.24006  0.02034  0.84504  Biso   1.000  H
  H512     1.0000 0.29727  0.93421  0.79214  Biso   1.000  H
  H513     1.0000 0.31197  0.06584  0.84733  Biso   1.000  H
  C478     1.0000 0.07884  0.33799  0.86330  Biso   1.000  C
  H514     1.0000 0.14695  0.37374  0.83444  Biso   1.000  H
  C479     1.0000 0.10246  0.35411  0.85549  Biso   1.000  C
  H515     1.0000 0.13865  0.42034  0.82584  Biso   1.000  H
  H516     1.0000 0.99855  0.29333  0.88502  Biso   1.000  H
  H517     1.0000 0.05256  0.27702  0.87873  Biso   1.000  H
  C480     1.0000 0.04444  0.57391  0.72605  Biso   1.000  C
  H518     1.0000 0.11606  0.55604  0.72783  Biso   1.000  H
  H519     1.0000 0.96199  0.56883  0.72293  Biso   1.000  H
  C481     1.0000 0.16359  0.45253  0.97108  Biso   1.000  C
  C482     1.0000 0.21372  0.55063  0.94858  Biso   1.000  C
  H520     1.0000 0.21837  0.69801  0.99033  Biso   1.000  H
  H521     1.0000 0.18366  0.62411  0.99014  Biso   1.000  H
  C483     1.0000 0.19029  0.66000  0.02927  Biso   1.000  C
  C484     1.0000 0.28896  0.83639  0.97108  Biso   1.000  C
  C485     1.0000 0.33690  0.78627  0.94858  Biso   1.000  C
  C486     1.0000 0.17033  0.74096  0.70856  Biso   1.000  C
  H522     1.0000 0.15105  0.74032  0.66803  Biso   1.000  H
  H523     1.0000 0.20027  0.76452  0.74794  Biso   1.000  H
  C487     1.0000 0.25916  0.92118  0.86330  Biso   1.000  C
  H524     1.0000 0.22675  0.85301  0.83444  Biso   1.000  H
  C488     1.0000 0.25166  0.89754  0.85549  Biso   1.000  C
  H525     1.0000 0.28167  0.86133  0.82584  Biso   1.000  H
  H526     1.0000 0.29478  0.00145  0.88502  Biso   1.000  H
  H527     1.0000 0.22448  0.94742  0.87873  Biso   1.000  H
  C489     1.0000 0.12276  0.37023  0.88765  Biso   1.000  C
  C490     1.0000 0.14647  0.39461  0.87884  Biso   1.000  C
  C491     1.0000 0.08206  0.64379  0.72613  Biso   1.000  C
  C492     1.0000 0.13949  0.42353  0.94620  Biso   1.000  C
  H528     1.0000 0.15505  0.42842  0.98723  Biso   1.000  H
  C493     1.0000 0.18947  0.52149  0.92380  Biso   1.000  C
  H529     1.0000 0.23988  0.59423  0.94913  Biso   1.000  H
  H530     1.0000 0.15116  0.66014  0.02832  Biso   1.000  H
  H531     1.0000 0.18376  0.62254  0.03863  Biso   1.000  H
  H532     1.0000 0.22079  0.69644  0.03943  Biso   1.000  H
  C494     1.0000 0.28401  0.86049  0.94620  Biso   1.000  C
  H533     1.0000 0.27335  0.84493  0.98723  Biso   1.000  H
  H534     1.0000 0.35435  0.76013  0.94913  Biso   1.000  H
  C495     1.0000 0.33202  0.81052  0.92380  Biso   1.000  C
  C496     1.0000 0.14377  0.67201  0.71141  Biso   1.000  C
  C497     1.0000 0.24745  0.87721  0.88765  Biso   1.000  C
  C498     1.0000 0.24817  0.85352  0.87884  Biso   1.000  C
  H535     1.0000 0.16526  0.38044  0.88273  Biso   1.000  H
  H536     1.0000 0.10948  0.34224  0.90374  Biso   1.000  H
  C499     1.0000 0.12196  0.42944  0.89484  Biso   1.000  C
  H537     1.0000 0.15695  0.36894  0.89054  Biso   1.000  H
  C500     1.0000 0.11717  0.42362  0.89634  Biso   1.000  C
  H538     1.0000 0.18527  0.42773  0.87074  Biso   1.000  H
  H539     1.0000 0.05696  0.65982  0.71762  Biso   1.000  H
  H540     1.0000 0.08966  0.65801  0.74543  Biso   1.000  H
  C501     1.0000 0.15105  0.45794  0.92206  Biso   1.000  C
  H541     1.0000 0.11488  0.37984  0.94552  Biso   1.000  H
  H542     1.0000 0.19938  0.54564  0.90753  Biso   1.000  H
  C502     1.0000 0.30688  0.84895  0.92206  Biso   1.000  C
  H543     1.0000 0.26496  0.88511  0.94552  Biso   1.000  H
  H544     1.0000 0.34628  0.80064  0.90753  Biso   1.000  H
  H545     1.0000 0.13817  0.65312  0.69303  Biso   1.000  H
  H546     1.0000 0.17276  0.66374  0.72193  Biso   1.000  H
  C503     1.0000 0.30744  0.87800  0.89484  Biso   1.000  C
  C504     1.0000 0.30645  0.88280  0.89634  Biso   1.000  C
  H547     1.0000 0.21517  0.83472  0.88273  Biso   1.000  H
  H548     1.0000 0.23275  0.89052  0.90374  Biso   1.000  H
  H549     1.0000 0.21197  0.84304  0.89054  Biso   1.000  H
  H550     1.0000 0.24245  0.81472  0.87074  Biso   1.000  H
  H551     1.0000 0.07845  0.42002  0.89503  Biso   1.000  H
  H552     1.0000 0.14377  0.46025  0.88023  Biso   1.000  H
  H553     1.0000 0.07557  0.39041  0.90183  Biso   1.000  H
  H554     1.0000 0.11136  0.45272  0.88464  Biso   1.000  H
  H555     1.0000 0.34156  0.92151  0.89503  Biso   1.000  H
  H556     1.0000 0.31646  0.85620  0.88023  Biso   1.000  H
  H557     1.0000 0.31485  0.92442  0.90183  Biso   1.000  H
  H558     1.0000 0.34136  0.88862  0.88464  Biso   1.000  H
  C505     1.0000 0.29930  0.34021  0.33554  Biso   1.000  C
  C506     1.0000 0.34859  0.34376  0.31578  Biso   1.000  C
  H559     1.0000 0.31522  0.34677  0.35437  Biso   1.000  H
  H560     1.0000 0.26213  0.29947  0.33417  Biso   1.000  H
  H561     1.0000 0.28912  0.37217  0.33076  Biso   1.000  H
  C507     1.0000 0.32519  0.32935  0.28639  Biso   1.000  C
  H562     1.0000 0.38523  0.38575  0.31656  Biso   1.000  H
  H563     1.0000 0.36154  0.31407  0.32166  Biso   1.000  H
  C508     1.0000 0.29042  0.26742  0.27795  Biso   1.000  C
  C509     1.0000 0.33664  0.37697  0.26783  Biso   1.000  C
  C510     1.0000 0.26462  0.25301  0.25163  Biso   1.000  C
  C511     1.0000 0.28441  0.21708  0.29721  Biso   1.000  C
  C512     1.0000 0.31411  0.36279  0.24098  Biso   1.000  C
  C513     1.0000 0.37412  0.44362  0.27692  Biso   1.000  C
  C514     1.0000 0.27583  0.30063  0.23321  Biso   1.000  C
  C515     1.0000 0.22441  0.18595  0.24315  Biso   1.000  C
  C516     1.0000 0.33862  0.20567  0.29537  Biso   1.000  C
  H564     1.0000 0.24593  0.17828  0.29287  Biso   1.000  H
  H565     1.0000 0.28105  0.22867  0.31627  Biso   1.000  H
  C517     1.0000 0.33132  0.41434  0.22020  Biso   1.000  C
  H566     1.0000 0.36333  0.44644  0.29617  Biso   1.000  H
  H567     1.0000 0.36184  0.46865  0.26567  Biso   1.000  H
  C518     1.0000 0.44389  0.47179  0.27496  Biso   1.000  C
  C519     1.0000 0.24596  0.28552  0.20515  Biso   1.000  C
  H568     1.0000 0.24023  0.16087  0.25196  Biso   1.000  H
  H569     1.0000 0.22724  0.18257  0.22306  Biso   1.000  H
  C520     1.0000 0.15660  0.15985  0.25118  Biso   1.000  C
  C521     1.0000 0.35528  0.18345  0.31830  Biso   1.000  C
  C522     1.0000 0.37094  0.21366  0.27100  Biso   1.000  C
  H570     1.0000 0.33193  0.39836  0.20167  Biso   1.000  H
  H571     1.0000 0.37363  0.44824  0.22427  Biso   1.000  H
  C523     1.0000 0.28767  0.44071  0.21983  Biso   1.000  C
  C524     1.0000 0.48106  0.53525  0.27623  Biso   1.000  C
  C525     1.0000 0.47275  0.43655  0.27354  Biso   1.000  C
  H572     1.0000 0.20644  0.24617  0.20667  Biso   1.000  H
  H573     1.0000 0.23593  0.31795  0.20036  Biso   1.000  H
  C526     1.0000 0.28184  0.27961  0.18150  Biso   1.000  C
  H574     1.0000 0.24292  0.32104  0.19816  Biso   1.000  H
  H575     1.0000 0.20361  0.24954  0.20646  Biso   1.000  H
  C527     1.0000 0.28603  0.27014  0.18460  Biso   1.000  C
  H576     1.0000 0.13252  0.11657  0.24536  Biso   1.000  H
  H577     1.0000 0.14033  0.18377  0.24217  Biso   1.000  H
  H578     1.0000 0.15344  0.16248  0.27106  Biso   1.000  H
  C528     1.0000 0.39999  0.16609  0.31617  Biso   1.000  C
  H579     1.0000 0.33584  0.18026  0.33546  Biso   1.000  H
  H580     1.0000 0.36275  0.23167  0.25557  Biso   1.000  H
  C529     1.0000 0.41500  0.19546  0.26901  Biso   1.000  C
  H581     1.0000 0.30243  0.47438  0.20636  Biso   1.000  H
  H582     1.0000 0.28664  0.45664  0.23807  Biso   1.000  H
  H583     1.0000 0.24603  0.40805  0.21476  Biso   1.000  H
  H584     1.0000 0.46243  0.56024  0.27738  Biso   1.000  H
  C530     1.0000 0.54472  0.56315  0.27592  Biso   1.000  C
  C531     1.0000 0.53702  0.46463  0.27307  Biso   1.000  C
  H585     1.0000 0.44842  0.39286  0.27287  Biso   1.000  H
  C532     1.0000 0.27197  0.29467  0.15529  Biso   1.000  C
  C533     1.0000 0.31968  0.25425  0.18533  Biso   1.000  C
  C534     1.0000 0.26052  0.24857  0.15885  Biso   1.000  C
  C535     1.0000 0.34555  0.28247  0.19029  Biso   1.000  C
  C536     1.0000 0.42931  0.17033  0.29144  Biso   1.000  C
  H586     1.0000 0.41072  0.15107  0.33197  Biso   1.000  H
  H587     1.0000 0.43572  0.20026  0.25206  Biso   1.000  H
  H588     1.0000 0.56881  0.60684  0.27707  Biso   1.000  H
  C537     1.0000 0.57390  0.52943  0.27395  Biso   1.000  C
  H589     1.0000 0.55601  0.43997  0.27217  Biso   1.000  H
  H590     1.0000 0.24613  0.31194  0.15267  Biso   1.000  H
  C538     1.0000 0.30006  0.28446  0.13289  Biso   1.000  C
  C539     1.0000 0.34777  0.24405  0.16293  Biso   1.000  C
  H591     1.0000 0.32641  0.24396  0.20327  Biso   1.000  H
  C540     1.0000 0.37975  0.27328  0.17025  Biso   1.000  C
  H592     1.0000 0.21975  0.24008  0.15496  Biso   1.000  H
  C541     1.0000 0.29454  0.23924  0.13881  Biso   1.000  C
  H593     1.0000 0.36302  0.29725  0.20786  Biso   1.000  H
  C542     1.0000 0.47175  0.14378  0.28859  Biso   1.000  C
  C543     1.0000 0.64380  0.56172  0.27387  Biso   1.000  C
  H594     1.0000 0.29333  0.29476  0.11498  Biso   1.000  H
  C544     1.0000 0.33797  0.25915  0.13670  Biso   1.000  C
  H595     1.0000 0.37374  0.22677  0.16556  Biso   1.000  H
  C545     1.0000 0.35415  0.25167  0.14451  Biso   1.000  C
  H596     1.0000 0.42033  0.28164  0.17416  Biso   1.000  H
  H597     1.0000 0.27703  0.22446  0.12127  Biso   1.000  H
  C546     1.0000 0.43826  0.08207  0.27387  Biso   1.000  C
  H598     1.0000 0.48501  0.13814  0.30697  Biso   1.000  H
  H599     1.0000 0.50901  0.17278  0.27807  Biso   1.000  H
  H600     1.0000 0.65982  0.60287  0.28238  Biso   1.000  H
  H601     1.0000 0.65801  0.56837  0.25457  Biso   1.000  H
  C547     1.0000 0.67202  0.52823  0.28859  Biso   1.000  C
  C548     1.0000 0.37024  0.24747  0.11235  Biso   1.000  C
  C549     1.0000 0.39463  0.24816  0.12116  Biso   1.000  C
  C550     1.0000 0.47052  0.04443  0.27395  Biso   1.000  C
  H602     1.0000 0.39710  0.05695  0.28238  Biso   1.000  H
  H603     1.0000 0.43161  0.08965  0.25457  Biso   1.000  H
  H604     1.0000 0.65311  0.51498  0.30697  Biso   1.000  H
  H605     1.0000 0.66370  0.49096  0.27807  Biso   1.000  H
  C551     1.0000 0.74100  0.57068  0.29144  Biso   1.000  C
  H606     1.0000 0.38042  0.21518  0.11727  Biso   1.000  H
  H607     1.0000 0.34222  0.23278  0.09626  Biso   1.000  H
  C552     1.0000 0.42944  0.30746  0.10516  Biso   1.000  C
  H608     1.0000 0.36892  0.21195  0.10946  Biso   1.000  H
  C553     1.0000 0.42361  0.30645  0.10366  Biso   1.000  C
  H609     1.0000 0.42775  0.24248  0.12926  Biso   1.000  H
  C554     1.0000 0.53533  0.07237  0.27307  Biso   1.000  C
  C555     1.0000 0.43682  0.98153  0.27592  Biso   1.000  C
  C556     1.0000 0.76604  0.59996  0.31617  Biso   1.000  C
  C557     1.0000 0.78041  0.58495  0.26901  Biso   1.000  C
  H610     1.0000 0.42000  0.34155  0.10497  Biso   1.000  H
  H611     1.0000 0.46022  0.31647  0.11977  Biso   1.000  H
  C558     1.0000 0.45790  0.30686  0.07794  Biso   1.000  C
  H612     1.0000 0.39042  0.31485  0.09817  Biso   1.000  H
  H613     1.0000 0.45271  0.34136  0.11536  Biso   1.000  H
  H614     1.0000 0.56001  0.11607  0.27217  Biso   1.000  H
  C559     1.0000 0.56342  0.03616  0.27354  Biso   1.000  C
  C560     1.0000 0.46471  0.94578  0.27623  Biso   1.000  C
  H615     1.0000 0.39315  0.96194  0.27707  Biso   1.000  H
  H616     1.0000 0.74032  0.58924  0.33197  Biso   1.000  H
  C561     1.0000 0.82818  0.64471  0.31830  Biso   1.000  C
  C562     1.0000 0.84271  0.62906  0.27100  Biso   1.000  C
  H617     1.0000 0.76451  0.56426  0.25206  Biso   1.000  H
  C563     1.0000 0.42353  0.28404  0.05380  Biso   1.000  C
  C564     1.0000 0.52148  0.33203  0.07620  Biso   1.000  C
  H618     1.0000 0.60712  0.05556  0.27287  Biso   1.000  H
  C565     1.0000 0.52821  0.97206  0.27496  Biso   1.000  C
  H619     1.0000 0.43969  0.90213  0.27738  Biso   1.000  H
  H620     1.0000 0.84442  0.66416  0.33546  Biso   1.000  H
  C566     1.0000 0.86701  0.66134  0.29537  Biso   1.000  C
  H621     1.0000 0.86894  0.63728  0.25557  Biso   1.000  H
  H622     1.0000 0.37984  0.26497  0.05448  Biso   1.000  H
  C567     1.0000 0.45256  0.28899  0.02892  Biso   1.000  C
  C568     1.0000 0.55061  0.33693  0.05142  Biso   1.000  C
  H623     1.0000 0.54563  0.34626  0.09247  Biso   1.000  H
  C569     1.0000 0.55632  0.93044  0.27692  Biso   1.000  C
  C570     1.0000 0.93264  0.71556  0.29721  Biso   1.000  C
  H624     1.0000 0.42844  0.27338  0.01277  Biso   1.000  H
  C571     1.0000 0.51656  0.31651  0.02730  Biso   1.000  C
  H625     1.0000 0.59419  0.35434  0.05087  Biso   1.000  H
  C572     1.0000 0.62303  0.95963  0.26783  Biso   1.000  C
  H626     1.0000 0.55355  0.91682  0.29617  Biso   1.000  H
  H627     1.0000 0.53134  0.89313  0.26567  Biso   1.000  H
  C573     1.0000 0.97699  0.70956  0.27795  Biso   1.000  C
  H628     1.0000 0.93232  0.75404  0.29287  Biso   1.000  H
  H629     1.0000 0.94760  0.71893  0.31627  Biso   1.000  H
  C574     1.0000 0.54665  0.32644  0.99922  Biso   1.000  C
  C575     1.0000 0.63721  0.95127  0.24098  Biso   1.000  C
  C576     1.0000 0.67063  0.99580  0.28639  Biso   1.000  C
  C577     1.0000 0.98836  0.73533  0.25163  Biso   1.000  C
  C578     1.0000 0.00416  0.67478  0.28639  Biso   1.000  C
  H630     1.0000 0.51863  0.29208  0.98707  Biso   1.000  H
  H631     1.0000 0.55143  0.36506  0.99127  Biso   1.000  H
  C579     1.0000 0.60923  0.33042  0.99939  Biso   1.000  C
  C580     1.0000 0.69939  0.97515  0.23321  Biso   1.000  C
  C581     1.0000 0.58567  0.91691  0.22020  Biso   1.000  C
  C582     1.0000 0.73255  0.02300  0.27795  Biso   1.000  C
  C583     1.0000 0.65624  0.00485  0.31578  Biso   1.000  C
  C584     1.0000 0.96152  0.77556  0.24315  Biso   1.000  C
  C585     1.0000 0.02481  0.72415  0.23321  Biso   1.000  C
  C586     1.0000 0.99514  0.65136  0.31578  Biso   1.000  C
  C587     1.0000 0.04035  0.66333  0.26783  Biso   1.000  C
  C588     1.0000 0.66379  0.38801  0.99973  Biso   1.000  C
  C589     1.0000 0.61195  0.27578  0.99973  Biso   1.000  C
  C590     1.0000 0.74697  0.01159  0.25163  Biso   1.000  C
  C591     1.0000 0.71450  0.96042  0.20515  Biso   1.000  C
  H632     1.0000 0.60166  0.93354  0.20167  Biso   1.000  H
  H633     1.0000 0.55171  0.92532  0.22427  Biso   1.000  H
  C592     1.0000 0.55926  0.84689  0.21983  Biso   1.000  C
  C593     1.0000 0.78292  0.06734  0.29721  Biso   1.000  C
  H634     1.0000 0.68591  0.04748  0.32166  Biso   1.000  H
  H635     1.0000 0.61424  0.99940  0.31656  Biso   1.000  H
  C594     1.0000 0.65973  0.95903  0.33554  Biso   1.000  C
  H636     1.0000 0.92062  0.75976  0.25196  Biso   1.000  H
  H637     1.0000 0.95531  0.77274  0.22306  Biso   1.000  H
  C595     1.0000 0.00328  0.84341  0.25118  Biso   1.000  C
  C596     1.0000 0.04866  0.68586  0.24098  Biso   1.000  C
  C597     1.0000 0.03959  0.75404  0.20515  Biso   1.000  C
  H638     1.0000 0.95251  0.63843  0.32166  Biso   1.000  H
  H639     1.0000 0.00054  0.61474  0.31656  Biso   1.000  H
  C598     1.0000 0.04092  0.70069  0.33554  Biso   1.000  C
  C599     1.0000 0.06950  0.62587  0.27692  Biso   1.000  C
  C600     1.0000 0.72121  0.39078  0.99939  Biso   1.000  C
  C601     1.0000 0.66142  0.44727  0.99986  Biso   1.000  C
  C602     1.0000 0.66953  0.27878  0.99939  Biso   1.000  C
  C603     1.0000 0.55268  0.21412  0.99986  Biso   1.000  C
  C604     1.0000 0.81402  0.03843  0.24315  Biso   1.000  C
  C605     1.0000 0.72036  0.00222  0.18150  Biso   1.000  C
  C606     1.0000 0.72984  0.01589  0.18460  Biso   1.000  C
  H640     1.0000 0.75381  0.96023  0.20667  Biso   1.000  H
  H641     1.0000 0.68205  0.91793  0.20036  Biso   1.000  H
  H642     1.0000 0.67891  0.92181  0.19816  Biso   1.000  H
  H643     1.0000 0.75037  0.95400  0.20646  Biso   1.000  H
  H644     1.0000 0.52558  0.82800  0.20636  Biso   1.000  H
  H645     1.0000 0.54335  0.82994  0.23807  Biso   1.000  H
  H646     1.0000 0.59194  0.83793  0.21476  Biso   1.000  H
  C607     1.0000 0.79430  0.13297  0.29537  Biso   1.000  C
  H647     1.0000 0.82172  0.06766  0.29287  Biso   1.000  H
  H648     1.0000 0.77132  0.05238  0.31627  Biso   1.000  H
  H649     1.0000 0.65322  0.96841  0.35437  Biso   1.000  H
  H650     1.0000 0.70049  0.96264  0.33417  Biso   1.000  H
  H651     1.0000 0.62783  0.91691  0.33076  Biso   1.000  H
  H652     1.0000 0.98403  0.86747  0.24536  Biso   1.000  H
  H653     1.0000 0.04345  0.85966  0.24217  Biso   1.000  H
  H654     1.0000 0.00905  0.84655  0.27106  Biso   1.000  H
  C608     1.0000 0.08307  0.66868  0.22020  Biso   1.000  C
  C609     1.0000 0.99773  0.71815  0.18150  Biso   1.000  C
  C610     1.0000 0.98411  0.71395  0.18460  Biso   1.000  C
  H655     1.0000 0.03976  0.79357  0.20667  Biso   1.000  H
  H656     1.0000 0.08200  0.76406  0.20036  Biso   1.000  H
  H657     1.0000 0.07809  0.75704  0.19816  Biso   1.000  H
  H658     1.0000 0.04595  0.79634  0.20646  Biso   1.000  H
  H659     1.0000 0.03151  0.68476  0.35437  Biso   1.000  H
  H660     1.0000 0.03735  0.73787  0.33417  Biso   1.000  H
  H661     1.0000 0.08304  0.71085  0.33076  Biso   1.000  H
  H662     1.0000 0.08315  0.63668  0.29617  Biso   1.000  H
  H663     1.0000 0.10685  0.63815  0.26567  Biso   1.000  H
  C611     1.0000 0.02789  0.55608  0.27496  Biso   1.000  C
  C612     1.0000 0.72423  0.33619  0.99973  Biso   1.000  C
  C613     1.0000 0.77980  0.45332  0.99922  Biso   1.000  C
  H664     1.0000 0.69800  0.47964  0.00967  Biso   1.000  H
  H665     1.0000 0.62414  0.44048  0.00986  Biso   1.000  H
  C614     1.0000 0.66000  0.46971  0.97073  Biso   1.000  C
  C615     1.0000 0.67353  0.22022  0.99922  Biso   1.000  C
  H666     1.0000 0.52033  0.21837  0.00967  Biso   1.000  H
  H667     1.0000 0.55954  0.18368  0.00986  Biso   1.000  H
  C616     1.0000 0.53029  0.19029  0.97073  Biso   1.000  C
  H668     1.0000 0.83912  0.07935  0.25196  Biso   1.000  H
  H669     1.0000 0.81742  0.04466  0.22306  Biso   1.000  H
  C617     1.0000 0.84017  0.99672  0.25118  Biso   1.000  C
  C618     1.0000 0.74569  0.06545  0.18533  Biso   1.000  C
  C619     1.0000 0.75143  0.01196  0.15885  Biso   1.000  C
  C620     1.0000 0.71749  0.06304  0.19029  Biso   1.000  C
  C621     1.0000 0.70533  0.97728  0.15529  Biso   1.000  C
  C622     1.0000 0.81652  0.17181  0.31830  Biso   1.000  C
  C623     1.0000 0.78632  0.15726  0.27100  Biso   1.000  C
  H670     1.0000 0.06639  0.66804  0.20167  Biso   1.000  H
  H671     1.0000 0.07468  0.62638  0.22427  Biso   1.000  H
  C624     1.0000 0.15309  0.71233  0.21983  Biso   1.000  C
  C625     1.0000 0.93455  0.68028  0.18533  Biso   1.000  C
  C626     1.0000 0.98802  0.73944  0.15885  Biso   1.000  C
  C627     1.0000 0.93692  0.65446  0.19029  Biso   1.000  C
  C628     1.0000 0.02269  0.72799  0.15529  Biso   1.000  C
  C629     1.0000 0.96378  0.52722  0.27354  Biso   1.000  C
  C630     1.0000 0.05422  0.51890  0.27623  Biso   1.000  C
  C631     1.0000 0.78585  0.33854  0.99986  Biso   1.000  C
  C632     1.0000 0.79991  0.48338  0.02730  Biso   1.000  C
  H672     1.0000 0.77341  0.48135  0.98707  Biso   1.000  H
  H673     1.0000 0.81362  0.44856  0.99127  Biso   1.000  H
  H674     1.0000 0.66011  0.50897  0.97168  Biso   1.000  H
  H675     1.0000 0.62253  0.43877  0.96137  Biso   1.000  H
  H676     1.0000 0.69642  0.47567  0.96057  Biso   1.000  H
  C633     1.0000 0.68346  0.20008  0.02730  Biso   1.000  C
  H677     1.0000 0.70793  0.22654  0.98707  Biso   1.000  H
  H678     1.0000 0.63492  0.18636  0.99127  Biso   1.000  H
  H679     1.0000 0.49101  0.15117  0.97168  Biso   1.000  H
  H680     1.0000 0.56123  0.18377  0.96137  Biso   1.000  H
  H681     1.0000 0.52433  0.22077  0.96057  Biso   1.000  H
  H682     1.0000 0.88344  0.01598  0.24536  Biso   1.000  H
  H683     1.0000 0.81624  0.95654  0.24217  Biso   1.000  H
  H684     1.0000 0.83750  0.99090  0.27106  Biso   1.000  H
  C634     1.0000 0.75592  0.10373  0.16293  Biso   1.000  C
  H685     1.0000 0.75599  0.08244  0.20327  Biso   1.000  H
  C635     1.0000 0.72672  0.10646  0.17025  Biso   1.000  C
  C636     1.0000 0.71550  0.01561  0.13289  Biso   1.000  C
  C637     1.0000 0.76073  0.05528  0.13881  Biso   1.000  C
  H686     1.0000 0.75991  0.97963  0.15496  Biso   1.000  H
  H687     1.0000 0.70274  0.06577  0.20786  Biso   1.000  H
  H688     1.0000 0.68800  0.93414  0.15267  Biso   1.000  H
  C638     1.0000 0.83390  0.23393  0.31617  Biso   1.000  C
  H689     1.0000 0.81971  0.15556  0.33546  Biso   1.000  H
  H690     1.0000 0.76831  0.13108  0.25557  Biso   1.000  H
  C639     1.0000 0.80449  0.21952  0.26901  Biso   1.000  C
  H691     1.0000 0.17194  0.69755  0.20636  Biso   1.000  H
  H692     1.0000 0.17004  0.71335  0.23807  Biso   1.000  H
  H693     1.0000 0.16206  0.75394  0.21476  Biso   1.000  H
  C640     1.0000 0.89623  0.65219  0.16293  Biso   1.000  C
  H694     1.0000 0.91750  0.67353  0.20327  Biso   1.000  H
  C641     1.0000 0.89349  0.62023  0.17025  Biso   1.000  C
  C642     1.0000 0.98437  0.69991  0.13289  Biso   1.000  C
  C643     1.0000 0.94470  0.70545  0.13881  Biso   1.000  C
  H695     1.0000 0.02035  0.78027  0.15496  Biso   1.000  H
  H696     1.0000 0.93421  0.63695  0.20786  Biso   1.000  H
  H697     1.0000 0.06586  0.75385  0.15267  Biso   1.000  H
  C644     1.0000 0.92759  0.46292  0.27307  Biso   1.000  C
  H698     1.0000 0.94443  0.55156  0.27287  Biso   1.000  H
  H699     1.0000 0.09787  0.53756  0.27738  Biso   1.000  H
  C645     1.0000 0.01840  0.45526  0.27592  Biso   1.000  C
  H700     1.0000 0.78164  0.30197  0.00967  Biso   1.000  H
  H701     1.0000 0.81631  0.37586  0.00986  Biso   1.000  H
  C646     1.0000 0.80968  0.33998  0.97073  Biso   1.000  C
  C647     1.0000 0.83642  0.54744  0.02892  Biso   1.000  C
  C648     1.0000 0.78629  0.44935  0.05142  Biso   1.000  C
  C649     1.0000 0.71101  0.16359  0.02892  Biso   1.000  C
  C650     1.0000 0.66307  0.21370  0.05142  Biso   1.000  C
  C651     1.0000 0.74081  0.07879  0.13670  Biso   1.000  C
  H702     1.0000 0.77321  0.14696  0.16556  Biso   1.000  H
  C652     1.0000 0.74834  0.10249  0.14451  Biso   1.000  C
  H703     1.0000 0.71830  0.13865  0.17416  Biso   1.000  H
  H704     1.0000 0.70519  0.99852  0.11498  Biso   1.000  H
  H705     1.0000 0.77553  0.05256  0.12127  Biso   1.000  H
  C653     1.0000 0.82968  0.25901  0.29144  Biso   1.000  C
  H706     1.0000 0.84892  0.25966  0.33197  Biso   1.000  H
  H707     1.0000 0.79970  0.23546  0.25206  Biso   1.000  H
  C654     1.0000 0.92117  0.66199  0.13670  Biso   1.000  C
  H708     1.0000 0.85302  0.62624  0.16556  Biso   1.000  H
  C655     1.0000 0.89751  0.64587  0.14451  Biso   1.000  C
  H709     1.0000 0.86132  0.57964  0.17416  Biso   1.000  H
  H710     1.0000 0.00146  0.70665  0.11498  Biso   1.000  H
  H711     1.0000 0.94741  0.72295  0.12127  Biso   1.000  H
  C656     1.0000 0.95552  0.42607  0.27395  Biso   1.000  C
  H712     1.0000 0.88390  0.44394  0.27217  Biso   1.000  H
  H713     1.0000 0.03806  0.43115  0.27707  Biso   1.000  H
  H714     1.0000 0.84881  0.33984  0.97168  Biso   1.000  H
  H715     1.0000 0.81623  0.37748  0.96137  Biso   1.000  H
  H716     1.0000 0.77925  0.30358  0.96057  Biso   1.000  H
  C657     1.0000 0.86048  0.57645  0.05380  Biso   1.000  C
  H717     1.0000 0.84491  0.57155  0.01277  Biso   1.000  H
  H718     1.0000 0.76013  0.40575  0.05087  Biso   1.000  H
  C658     1.0000 0.81054  0.47849  0.07620  Biso   1.000  C
  C659     1.0000 0.71596  0.13948  0.05380  Biso   1.000  C
  H719     1.0000 0.72662  0.15505  0.01277  Biso   1.000  H
  H720     1.0000 0.64562  0.23984  0.05087  Biso   1.000  H
  C660     1.0000 0.66794  0.18946  0.07620  Biso   1.000  C
  C661     1.0000 0.75251  0.12276  0.11235  Biso   1.000  C
  C662     1.0000 0.75180  0.14646  0.12116  Biso   1.000  C
  C663     1.0000 0.85620  0.32797  0.28859  Biso   1.000  C
  C664     1.0000 0.87721  0.62975  0.11235  Biso   1.000  C
  C665     1.0000 0.85354  0.60536  0.12116  Biso   1.000  C
  C666     1.0000 0.91790  0.35619  0.27387  Biso   1.000  C
  C667     1.0000 0.84894  0.54209  0.07794  Biso   1.000  C
  H721     1.0000 0.88513  0.62014  0.05448  Biso   1.000  H
  H722     1.0000 0.80065  0.45438  0.09247  Biso   1.000  H
  C668     1.0000 0.69311  0.15107  0.07794  Biso   1.000  C
  H723     1.0000 0.73501  0.11487  0.05448  Biso   1.000  H
  H724     1.0000 0.65375  0.19939  0.09247  Biso   1.000  H
  C669     1.0000 0.69252  0.12198  0.10516  Biso   1.000  C
  C670     1.0000 0.69352  0.11717  0.10366  Biso   1.000  C
  H725     1.0000 0.78480  0.16525  0.11727  Biso   1.000  H
  H726     1.0000 0.76722  0.10946  0.09626  Biso   1.000  H
  H727     1.0000 0.78800  0.15694  0.10946  Biso   1.000  H
  H728     1.0000 0.75752  0.18525  0.12926  Biso   1.000  H
  H729     1.0000 0.86180  0.34686  0.30697  Biso   1.000  H
  H730     1.0000 0.82723  0.33628  0.27807  Biso   1.000  H
  C671     1.0000 0.87801  0.57054  0.10516  Biso   1.000  C
  C672     1.0000 0.88283  0.57636  0.10366  Biso   1.000  C
  H731     1.0000 0.83471  0.61954  0.11727  Biso   1.000  H
  H732     1.0000 0.89053  0.65774  0.09626  Biso   1.000  H
  H733     1.0000 0.84302  0.63104  0.10946  Biso   1.000  H
  H734     1.0000 0.81470  0.57225  0.12926  Biso   1.000  H
  H735     1.0000 0.94301  0.34016  0.28238  Biso   1.000  H
  H736     1.0000 0.91031  0.34196  0.25457  Biso   1.000  H
  H737     1.0000 0.65841  0.07847  0.10497  Biso   1.000  H
  H738     1.0000 0.68354  0.14378  0.11977  Biso   1.000  H
  H739     1.0000 0.68511  0.07556  0.09817  Biso   1.000  H
  H740     1.0000 0.65861  0.11135  0.11536  Biso   1.000  H
  H741     1.0000 0.92151  0.57996  0.10497  Biso   1.000  H
  H742     1.0000 0.85623  0.53978  0.11977  Biso   1.000  H
  H743     1.0000 0.92444  0.60957  0.09817  Biso   1.000  H
  H744     1.0000 0.88861  0.54726  0.11536  Biso   1.000  H
  C673     1.0000 0.16978  0.21412  0.69559  Biso   1.000  C
  C674     1.0000 0.13327  0.15006  0.69397  Biso   1.000  C
  H745     1.0000 0.17827  0.23823  0.67944  Biso   1.000  H
  C675     1.0000 0.19380  0.24312  0.72047  Biso   1.000  C
  H746     1.0000 0.17823  0.23823  0.67944  Biso   1.000  H
  C676     1.0000 0.16974  0.21412  0.69559  Biso   1.000  C
  C677     1.0000 0.11315  0.11999  0.66589  Biso   1.000  C
  C678     1.0000 0.11967  0.11607  0.71809  Biso   1.000  C
  H747     1.0000 0.21845  0.28682  0.72113  Biso   1.000  H
  C679     1.0000 0.18226  0.20876  0.74462  Biso   1.000  C
  H748     1.0000 0.21849  0.28682  0.72113  Biso   1.000  H
  C680     1.0000 0.14390  0.14516  0.74287  Biso   1.000  C
  H749     1.0000 0.09349  0.07242  0.71754  Biso   1.000  H
  H750     1.0000 0.14697  0.11523  0.65794  Biso   1.000  H
  H751     1.0000 0.10677  0.14803  0.65374  Biso   1.000  H
  C681     1.0000 0.05453  0.05746  0.66606  Biso   1.000  C
  H752     1.0000 0.10673  0.14803  0.65374  Biso   1.000  H
  C682     1.0000 0.05457  0.05746  0.66606  Biso   1.000  C
  C683     1.0000 0.21132  0.23721  0.77183  Biso   1.000  C
  C684     1.0000 0.21615  0.24303  0.77034  Biso   1.000  C
  H753     1.0000 0.13400  0.12105  0.75913  Biso   1.000  H
  C685     1.0000 0.99714  0.05468  0.66639  Biso   1.000  C
  C686     1.0000 0.99710  0.05468  0.66639  Biso   1.000  C
  C687     1.0000 0.05759  0.00286  0.66639  Biso   1.000  C
  C688     1.0000 0.21057  0.29642  0.77903  Biso   1.000  C
  H754     1.0000 0.25487  0.24663  0.77163  Biso   1.000  H
  H755     1.0000 0.18954  0.20645  0.78642  Biso   1.000  H
  C689     1.0000 0.18686  0.27204  0.78784  Biso   1.000  C
  H756     1.0000 0.25775  0.27624  0.76484  Biso   1.000  H
  H757     1.0000 0.22196  0.21393  0.78204  Biso   1.000  H
  C690     1.0000 0.94248  0.99704  0.66606  Biso   1.000  C
  C691     1.0000 0.94256  0.99704  0.66606  Biso   1.000  C
  C692     1.0000 0.99477  0.11394  0.66653  Biso   1.000  C
  C693     1.0000 0.99473  0.11394  0.66653  Biso   1.000  C
  C694     1.0000 0.00286  0.94541  0.66606  Biso   1.000  C
  C695     1.0000 0.11916  0.00522  0.66653  Biso   1.000  C
  H758     1.0000 0.16807  0.28622  0.78392  Biso   1.000  H
  H759     1.0000 0.22384  0.32441  0.76294  Biso   1.000  H
  H760     1.0000 0.22388  0.32441  0.76294  Biso   1.000  H
  C696     1.0000 0.25453  0.32866  0.80337  Biso   1.000  C
  C697     1.0000 0.23087  0.31254  0.81118  Biso   1.000  C
  H761     1.0000 0.17638  0.29772  0.77614  Biso   1.000  H
  H762     1.0000 0.14806  0.23892  0.79593  Biso   1.000  H
  C698     1.0000 0.87998  0.99307  0.66589  Biso   1.000  C
  C699     1.0000 0.94528  0.94241  0.66639  Biso   1.000  C
  C700     1.0000 0.88002  0.99307  0.66589  Biso   1.000  C
  C701     1.0000 0.94532  0.94241  0.66639  Biso   1.000  C
  H763     1.0000 0.95746  0.10715  0.67653  Biso   1.000  H
  C702     1.0000 0.99336  0.13639  0.63739  Biso   1.000  C
  C703     1.0000 0.99332  0.13639  0.63739  Biso   1.000  C
  H764     1.0000 0.03136  0.14632  0.67633  Biso   1.000  H
  H765     1.0000 0.03132  0.14632  0.67633  Biso   1.000  H
  C704     1.0000 0.00690  0.88684  0.66589  Biso   1.000  C
  C705     1.0000 0.00682  0.88684  0.66589  Biso   1.000  C
  H766     1.0000 0.11501  0.96859  0.67633  Biso   1.000  H
  C706     1.0000 0.14300  0.00665  0.63739  Biso   1.000  C
  H767     1.0000 0.14970  0.04254  0.67653  Biso   1.000  H
  C707     1.0000 0.31772  0.36658  0.79956  Biso   1.000  C
  C708     1.0000 0.31768  0.36658  0.79956  Biso   1.000  C
  C709     1.0000 0.22963  0.31887  0.82959  Biso   1.000  C
  C710     1.0000 0.27806  0.37212  0.80548  Biso   1.000  C
  C711     1.0000 0.22685  0.28691  0.83692  Biso   1.000  C
  C712     1.0000 0.84990  0.98314  0.69397  Biso   1.000  C
  H768     1.0000 0.85192  0.95871  0.65374  Biso   1.000  H
  H769     1.0000 0.85200  0.95871  0.65374  Biso   1.000  H
  H770     1.0000 0.88475  0.03173  0.65794  Biso   1.000  H
  C713     1.0000 0.88602  0.88075  0.66653  Biso   1.000  C
  H771     1.0000 0.02977  0.14235  0.62724  Biso   1.000  H
  H772     1.0000 0.95589  0.10544  0.62804  Biso   1.000  H
  H773     1.0000 0.95585  0.10544  0.62804  Biso   1.000  H
  H774     1.0000 0.99343  0.17565  0.63833  Biso   1.000  H
  H775     1.0000 0.96825  0.85299  0.65794  Biso   1.000  H
  C714     1.0000 0.01683  0.86671  0.69397  Biso   1.000  C
  H776     1.0000 0.04122  0.89317  0.65374  Biso   1.000  H
  H777     1.0000 0.04130  0.89317  0.65374  Biso   1.000  H
  H778     1.0000 0.11258  0.97021  0.62724  Biso   1.000  H
  H779     1.0000 0.11262  0.97021  0.62724  Biso   1.000  H
  H780     1.0000 0.18217  0.00651  0.63833  Biso   1.000  H
  H781     1.0000 0.14959  0.04415  0.62804  Biso   1.000  H
  H782     1.0000 0.14955  0.04415  0.62804  Biso   1.000  H
  H783     1.0000 0.18219  0.00656  0.63833  Biso   1.000  H
  H784     1.0000 0.33474  0.37332  0.78163  Biso   1.000  H
  C715     1.0000 0.35596  0.39466  0.82196  Biso   1.000  C
  C716     1.0000 0.32137  0.40612  0.82553  Biso   1.000  C
  H785     1.0000 0.18637  0.29291  0.83223  Biso   1.000  H
  C717     1.0000 0.26791  0.34695  0.85199  Biso   1.000  C
  H786     1.0000 0.18633  0.29291  0.83223  Biso   1.000  H
  C718     1.0000 0.26787  0.34695  0.85199  Biso   1.000  C
  C719     1.0000 0.27028  0.32113  0.85697  Biso   1.000  C
  H787     1.0000 0.28077  0.38963  0.78794  Biso   1.000  H
  H788     1.0000 0.19467  0.24631  0.84084  Biso   1.000  H
  C720     1.0000 0.78590  0.95562  0.69559  Biso   1.000  C
  C721     1.0000 0.88393  0.00360  0.71809  Biso   1.000  C
  H789     1.0000 0.85366  0.88500  0.67633  Biso   1.000  H
  H790     1.0000 0.89284  0.85031  0.67653  Biso   1.000  H
  C722     1.0000 0.86354  0.85692  0.63739  Biso   1.000  C
  H791     1.0000 0.89288  0.85031  0.67653  Biso   1.000  H
  C723     1.0000 0.86362  0.85692  0.63739  Biso   1.000  C
  C724     1.0000 0.99636  0.88033  0.71809  Biso   1.000  C
  C725     1.0000 0.04438  0.83022  0.69559  Biso   1.000  C
  C726     1.0000 0.04434  0.83022  0.69559  Biso   1.000  C
  H792     1.0000 0.39914  0.42053  0.81934  Biso   1.000  H
  C727     1.0000 0.33113  0.38482  0.84817  Biso   1.000  C
  C728     1.0000 0.31747  0.38062  0.85127  Biso   1.000  C
  H793     1.0000 0.35367  0.44694  0.82163  Biso   1.000  H
  H794     1.0000 0.25086  0.34021  0.86994  Biso   1.000  H
  H795     1.0000 0.26757  0.30363  0.87453  Biso   1.000  H
  C729     1.0000 0.75683  0.95067  0.72047  Biso   1.000  C
  H796     1.0000 0.76173  0.94000  0.67944  Biso   1.000  H
  C730     1.0000 0.85478  0.99866  0.74287  Biso   1.000  C
  C731     1.0000 0.85486  0.99866  0.74287  Biso   1.000  C
  H797     1.0000 0.92755  0.02101  0.71754  Biso   1.000  H
  H798     1.0000 0.92751  0.02101  0.71754  Biso   1.000  H
  H799     1.0000 0.82430  0.81780  0.63833  Biso   1.000  H
  H800     1.0000 0.89456  0.85040  0.62804  Biso   1.000  H
  H801     1.0000 0.85766  0.88740  0.62724  Biso   1.000  H
  H802     1.0000 0.82434  0.81780  0.63833  Biso   1.000  H
  C732     1.0000 0.00128  0.85608  0.74287  Biso   1.000  C
  H803     1.0000 0.97892  0.90647  0.71754  Biso   1.000  H
  H804     1.0000 0.05995  0.82168  0.67944  Biso   1.000  H
  C733     1.0000 0.04929  0.80611  0.72047  Biso   1.000  C
  C734     1.0000 0.04925  0.80611  0.72047  Biso   1.000  C
  C735     1.0000 0.37287  0.42071  0.87181  Biso   1.000  C
  C736     1.0000 0.37291  0.42071  0.87181  Biso   1.000  C
  C737     1.0000 0.79123  0.97349  0.74462  Biso   1.000  C
  H805     1.0000 0.71317  0.93160  0.72113  Biso   1.000  H
  H806     1.0000 0.87895  0.01293  0.75913  Biso   1.000  H
  H807     1.0000 0.98702  0.86597  0.75913  Biso   1.000  H
  H808     1.0000 0.98704  0.86601  0.75913  Biso   1.000  H
  C738     1.0000 0.02649  0.81770  0.74462  Biso   1.000  C
  H809     1.0000 0.06838  0.78149  0.72113  Biso   1.000  H
  C739     1.0000 0.35813  0.39083  0.89988  Biso   1.000  C
  H810     1.0000 0.37308  0.46025  0.87334  Biso   1.000  H
  H811     1.0000 0.41536  0.43073  0.86703  Biso   1.000  H
  H812     1.0000 0.41540  0.43073  0.86703  Biso   1.000  H
  H813     1.0000 0.41145  0.42371  0.86484  Biso   1.000  H
  H814     1.0000 0.37926  0.46302  0.87314  Biso   1.000  H
  C740     1.0000 0.76269  0.97409  0.77183  Biso   1.000  C
  C741     1.0000 0.76277  0.97409  0.77183  Biso   1.000  C
  C742     1.0000 0.75695  0.97307  0.77034  Biso   1.000  C
  C743     1.0000 0.02586  0.78861  0.77183  Biso   1.000  C
  C744     1.0000 0.02582  0.78861  0.77183  Biso   1.000  C
  C745     1.0000 0.02686  0.78380  0.77034  Biso   1.000  C
  C746     1.0000 0.38202  0.35254  0.90765  Biso   1.000  C
  C747     1.0000 0.38198  0.35254  0.90765  Biso   1.000  C
  C748     1.0000 0.32174  0.40205  0.91829  Biso   1.000  C
  C749     1.0000 0.70354  0.91409  0.77903  Biso   1.000  C
  H815     1.0000 0.79356  0.98310  0.78642  Biso   1.000  H
  H816     1.0000 0.79360  0.98310  0.78642  Biso   1.000  H
  C750     1.0000 0.72792  0.91479  0.78784  Biso   1.000  C
  H817     1.0000 0.72371  0.98148  0.76484  Biso   1.000  H
  H818     1.0000 0.75332  0.00822  0.77163  Biso   1.000  H
  H819     1.0000 0.78603  0.00804  0.78204  Biso   1.000  H
  C751     1.0000 0.08585  0.78939  0.77903  Biso   1.000  C
  H820     1.0000 0.01688  0.81041  0.78642  Biso   1.000  H
  H821     1.0000 0.99170  0.74510  0.77163  Biso   1.000  H
  H822     1.0000 0.99178  0.74510  0.77163  Biso   1.000  H
  H823     1.0000 0.99199  0.77798  0.78204  Biso   1.000  H
  C752     1.0000 0.08514  0.81308  0.78784  Biso   1.000  C
  H824     1.0000 0.01845  0.74219  0.76484  Biso   1.000  H
  C753     1.0000 0.41635  0.33536  0.88685  Biso   1.000  C
  C754     1.0000 0.37363  0.33000  0.93450  Biso   1.000  C
  C755     1.0000 0.41639  0.33536  0.88685  Biso   1.000  C
  C756     1.0000 0.31031  0.37623  0.94462  Biso   1.000  C
  C757     1.0000 0.29491  0.44223  0.90982  Biso   1.000  C
  C758     1.0000 0.67130  0.92578  0.80337  Biso   1.000  C
  H825     1.0000 0.67555  0.89941  0.76294  Biso   1.000  H
  H826     1.0000 0.71375  0.88181  0.78392  Biso   1.000  H
  H827     1.0000 0.71379  0.88181  0.78392  Biso   1.000  H
  C759     1.0000 0.68744  0.91830  0.81118  Biso   1.000  C
  H828     1.0000 0.70226  0.87858  0.77614  Biso   1.000  H
  H829     1.0000 0.76104  0.90911  0.79593  Biso   1.000  H
  H830     1.0000 0.11817  0.83188  0.78392  Biso   1.000  H
  H831     1.0000 0.10060  0.77609  0.76294  Biso   1.000  H
  H832     1.0000 0.10052  0.77609  0.76294  Biso   1.000  H
  C760     1.0000 0.07410  0.74542  0.80337  Biso   1.000  C
  C761     1.0000 0.07421  0.74547  0.80337  Biso   1.000  C
  C762     1.0000 0.08167  0.76912  0.81118  Biso   1.000  C
  H833     1.0000 0.12136  0.82362  0.77614  Biso   1.000  H
  H834     1.0000 0.09081  0.85188  0.79593  Biso   1.000  H
  C763     1.0000 0.33748  0.34145  0.95307  Biso   1.000  C
  C764     1.0000 0.40282  0.29254  0.94360  Biso   1.000  C
  C765     1.0000 0.33752  0.34145  0.95307  Biso   1.000  C
  C766     1.0000 0.40286  0.29254  0.94360  Biso   1.000  C
  H835     1.0000 0.39975  0.33471  0.86834  Biso   1.000  H
  C767     1.0000 0.48637  0.37900  0.88648  Biso   1.000  C
  H836     1.0000 0.40796  0.29305  0.89093  Biso   1.000  H
  H837     1.0000 0.39979  0.33471  0.86834  Biso   1.000  H
  C768     1.0000 0.48641  0.37900  0.88648  Biso   1.000  C
  H838     1.0000 0.40800  0.29305  0.89093  Biso   1.000  H
  C769     1.0000 0.26596  0.38224  0.96387  Biso   1.000  C
  C770     1.0000 0.26600  0.38224  0.96387  Biso   1.000  C
  H839     1.0000 0.25398  0.42644  0.91864  Biso   1.000  H
  H840     1.0000 0.28866  0.43942  0.88974  Biso   1.000  H
  C771     1.0000 0.33660  0.51008  0.91784  Biso   1.000  C
  C772     1.0000 0.68111  0.91068  0.82959  Biso   1.000  C
  C773     1.0000 0.63336  0.95109  0.79956  Biso   1.000  C
  C774     1.0000 0.63344  0.95109  0.79956  Biso   1.000  C
  C775     1.0000 0.62787  0.90587  0.80548  Biso   1.000  C
  C776     1.0000 0.71305  0.93991  0.83692  Biso   1.000  C
  C777     1.0000 0.04887  0.68224  0.79956  Biso   1.000  C
  C778     1.0000 0.08929  0.77036  0.82959  Biso   1.000  C
  C779     1.0000 0.08921  0.77036  0.82959  Biso   1.000  C
  C780     1.0000 0.09403  0.72191  0.80548  Biso   1.000  C
  C781     1.0000 0.06006  0.77309  0.83692  Biso   1.000  C
  C782     1.0000 0.32849  0.31804  0.98244  Biso   1.000  C
  C783     1.0000 0.32845  0.31804  0.98244  Biso   1.000  C
  H841     1.0000 0.44016  0.30483  0.93233  Biso   1.000  H
  H842     1.0000 0.41646  0.30335  0.96284  Biso   1.000  H
  C784     1.0000 0.36121  0.22276  0.94163  Biso   1.000  C
  H843     1.0000 0.50526  0.36422  0.87304  Biso   1.000  H
  H844     1.0000 0.50336  0.38002  0.90474  Biso   1.000  H
  H845     1.0000 0.49538  0.42062  0.88144  Biso   1.000  H
  H846     1.0000 0.28096  0.38561  0.98293  Biso   1.000  H
  C785     1.0000 0.20037  0.32801  0.96204  Biso   1.000  C
  H847     1.0000 0.26567  0.42071  0.95954  Biso   1.000  H
  H848     1.0000 0.26563  0.42071  0.95954  Biso   1.000  H
  C786     1.0000 0.20041  0.32801  0.96204  Biso   1.000  C
  H849     1.0000 0.34237  0.51322  0.93774  Biso   1.000  H
  H850     1.0000 0.31739  0.53414  0.91204  Biso   1.000  H
  H851     1.0000 0.37676  0.52634  0.90884  Biso   1.000  H
  H852     1.0000 0.31735  0.53414  0.91204  Biso   1.000  H
  H853     1.0000 0.37680  0.52634  0.90884  Biso   1.000  H
  C787     1.0000 0.65301  0.92088  0.85199  Biso   1.000  C
  H854     1.0000 0.70703  0.89340  0.83223  Biso   1.000  H
  C788     1.0000 0.67884  0.94910  0.85697  Biso   1.000  C
  C789     1.0000 0.60530  0.96130  0.82196  Biso   1.000  C
  H855     1.0000 0.62667  0.96139  0.78163  Biso   1.000  H
  C790     1.0000 0.60534  0.96130  0.82196  Biso   1.000  C
  C791     1.0000 0.59382  0.91520  0.82553  Biso   1.000  C
  H856     1.0000 0.61036  0.89109  0.78794  Biso   1.000  H
  H857     1.0000 0.75362  0.94827  0.84084  Biso   1.000  H
  H858     1.0000 0.03855  0.66520  0.78163  Biso   1.000  H
  C792     1.0000 0.03869  0.64395  0.82196  Biso   1.000  C
  C793     1.0000 0.03865  0.64395  0.82196  Biso   1.000  C
  C794     1.0000 0.08473  0.67859  0.82553  Biso   1.000  C
  H859     1.0000 0.10659  0.81359  0.83223  Biso   1.000  H
  C795     1.0000 0.07903  0.73207  0.85199  Biso   1.000  C
  H860     1.0000 0.10655  0.81359  0.83223  Biso   1.000  H
  C796     1.0000 0.07899  0.73207  0.85199  Biso   1.000  C
  C797     1.0000 0.05089  0.72972  0.85697  Biso   1.000  C
  H861     1.0000 0.10882  0.71919  0.78794  Biso   1.000  H
  H862     1.0000 0.05163  0.80528  0.84084  Biso   1.000  H
  H863     1.0000 0.33386  0.28141  0.98324  Biso   1.000  H
  H864     1.0000 0.28587  0.30511  0.98834  Biso   1.000  H
  H865     1.0000 0.28585  0.30515  0.98834  Biso   1.000  H
  H866     1.0000 0.28589  0.30515  0.98834  Biso   1.000  H
  C798     1.0000 0.37423  0.36736  0.00221  Biso   1.000  C
  C799     1.0000 0.29714  0.19389  0.94020  Biso   1.000  C
  C800     1.0000 0.38754  0.18558  0.94290  Biso   1.000  C
  C801     1.0000 0.29718  0.19389  0.94020  Biso   1.000  C
  C802     1.0000 0.17606  0.29573  0.93765  Biso   1.000  C
  C803     1.0000 0.16149  0.31139  0.98496  Biso   1.000  C
  C804     1.0000 0.16153  0.31139  0.98496  Biso   1.000  C
  C805     1.0000 0.61513  0.94624  0.84817  Biso   1.000  C
  C806     1.0000 0.61936  0.93677  0.85127  Biso   1.000  C
  H867     1.0000 0.65974  0.91058  0.86994  Biso   1.000  H
  H868     1.0000 0.65978  0.91058  0.86994  Biso   1.000  H
  H869     1.0000 0.69631  0.96388  0.87453  Biso   1.000  H
  H870     1.0000 0.57946  0.97857  0.81934  Biso   1.000  H
  H871     1.0000 0.55305  0.90670  0.82163  Biso   1.000  H
  H872     1.0000 0.02136  0.60081  0.81934  Biso   1.000  H
  C807     1.0000 0.05369  0.66885  0.84817  Biso   1.000  C
  C808     1.0000 0.05365  0.66885  0.84817  Biso   1.000  C
  C809     1.0000 0.06317  0.68252  0.85127  Biso   1.000  C
  H873     1.0000 0.09326  0.64631  0.82163  Biso   1.000  H
  H874     1.0000 0.08935  0.74912  0.86994  Biso   1.000  H
  H875     1.0000 0.03607  0.73240  0.87453  Biso   1.000  H
  H876     1.0000 0.41639  0.37753  0.99744  Biso   1.000  H
  H877     1.0000 0.36487  0.35143  0.02103  Biso   1.000  H
  H878     1.0000 0.37067  0.40454  0.00084  Biso   1.000  H
  H879     1.0000 0.36483  0.35143  0.02103  Biso   1.000  H
  H880     1.0000 0.37071  0.40454  0.00084  Biso   1.000  H
  C810     1.0000 0.35175  0.12193  0.94259  Biso   1.000  C
  C811     1.0000 0.35179  0.12193  0.94259  Biso   1.000  C
  H881     1.0000 0.43118  0.20424  0.94403  Biso   1.000  H
  C812     1.0000 0.26091  0.12960  0.93975  Biso   1.000  C
  C813     1.0000 0.26095  0.12960  0.93975  Biso   1.000  C
  H882     1.0000 0.27779  0.21823  0.93954  Biso   1.000  H
  H883     1.0000 0.20227  0.30391  0.92224  Biso   1.000  H
  C814     1.0000 0.11377  0.25162  0.93567  Biso   1.000  C
  H884     1.0000 0.20225  0.30395  0.92224  Biso   1.000  H
  C815     1.0000 0.11381  0.25162  0.93567  Biso   1.000  C
  H885     1.0000 0.20229  0.30395  0.92224  Biso   1.000  H
  C816     1.0000 0.09940  0.26663  0.98283  Biso   1.000  C
  C817     1.0000 0.09944  0.26663  0.98283  Biso   1.000  C
  H886     1.0000 0.17778  0.33083  0.00213  Biso   1.000  H
  C818     1.0000 0.57925  0.95215  0.87181  Biso   1.000  C
  C819     1.0000 0.57933  0.95215  0.87181  Biso   1.000  C
  C820     1.0000 0.04782  0.62709  0.87181  Biso   1.000  C
  C821     1.0000 0.04778  0.62709  0.87181  Biso   1.000  C
  C822     1.0000 0.28884  0.09274  0.94061  Biso   1.000  C
  H887     1.0000 0.37138  0.09782  0.94374  Biso   1.000  H
  H888     1.0000 0.21726  0.11062  0.93882  Biso   1.000  H
  H889     1.0000 0.09787  0.23093  0.91874  Biso   1.000  H
  C823     1.0000 0.07436  0.23735  0.95811  Biso   1.000  C
  H890     1.0000 0.07364  0.25592  0.99863  Biso   1.000  H
  H891     1.0000 0.07368  0.25592  0.99863  Biso   1.000  H
  C824     1.0000 0.60912  0.96725  0.89988  Biso   1.000  C
  H892     1.0000 0.53978  0.91280  0.87334  Biso   1.000  H
  H893     1.0000 0.56926  0.98457  0.86703  Biso   1.000  H
  H894     1.0000 0.57621  0.98767  0.86484  Biso   1.000  H
  H895     1.0000 0.53690  0.91617  0.87314  Biso   1.000  H
  H896     1.0000 0.08716  0.62691  0.87334  Biso   1.000  H
  C825     1.0000 0.03270  0.64183  0.89988  Biso   1.000  C
  H897     1.0000 0.01537  0.58460  0.86703  Biso   1.000  H
  H898     1.0000 0.01223  0.58848  0.86484  Biso   1.000  H
  H899     1.0000 0.08375  0.62072  0.87314  Biso   1.000  H
  C826     1.0000 0.25126  0.02286  0.94052  Biso   1.000  C
  C827     1.0000 0.00534  0.19491  0.95526  Biso   1.000  C
  C828     1.0000 0.59795  0.91964  0.91829  Biso   1.000  C
  C829     1.0000 0.59799  0.91964  0.91829  Biso   1.000  C
  C830     1.0000 0.64743  0.02947  0.90765  Biso   1.000  C
  C831     1.0000 0.97049  0.61795  0.90765  Biso   1.000  C
  C832     1.0000 0.08026  0.67822  0.91829  Biso   1.000  C
  C833     1.0000 0.08030  0.67822  0.91829  Biso   1.000  C
  H900     1.0000 0.27637  0.00684  0.94903  Biso   1.000  H
  H901     1.0000 0.24367  0.00864  0.92124  Biso   1.000  H
  C834     1.0000 0.18953  0.99460  0.95526  Biso   1.000  C
  C835     1.0000 0.97712  0.22839  0.94052  Biso   1.000  C
  H902     1.0000 0.98643  0.18165  0.97362  Biso   1.000  H
  H903     1.0000 0.99702  0.15763  0.94473  Biso   1.000  H
  C836     1.0000 0.62368  0.93405  0.94462  Biso   1.000  C
  C837     1.0000 0.55774  0.85257  0.90982  Biso   1.000  C
  C838     1.0000 0.62376  0.93405  0.94462  Biso   1.000  C
  C839     1.0000 0.66996  0.04365  0.93450  Biso   1.000  C
  C840     1.0000 0.66464  0.08101  0.88685  Biso   1.000  C
  C841     1.0000 0.67000  0.04365  0.93450  Biso   1.000  C
  C842     1.0000 0.91895  0.58359  0.88685  Biso   1.000  C
  C843     1.0000 0.95631  0.62631  0.93450  Biso   1.000  C
  C844     1.0000 0.06589  0.68963  0.94462  Biso   1.000  C
  C845     1.0000 0.14732  0.70506  0.90982  Biso   1.000  C
  C846     1.0000 0.14740  0.70506  0.90982  Biso   1.000  C
  C847     1.0000 0.16301  0.92564  0.95811  Biso   1.000  C
  H904     1.0000 0.19516  0.01353  0.97362  Biso   1.000  H
  H905     1.0000 0.16059  0.00296  0.94473  Biso   1.000  H
  H906     1.0000 0.16055  0.00296  0.94473  Biso   1.000  H
  H907     1.0000 0.19520  0.01353  0.97362  Biso   1.000  H
  C848     1.0000 0.90722  0.19611  0.94061  Biso   1.000  C
  H908     1.0000 0.99314  0.26954  0.94903  Biso   1.000  H
  H909     1.0000 0.99133  0.23504  0.92124  Biso   1.000  H
  C849     1.0000 0.61768  0.88366  0.96387  Biso   1.000  C
  C850     1.0000 0.65848  0.99598  0.95307  Biso   1.000  C
  C851     1.0000 0.61778  0.88370  0.96387  Biso   1.000  C
  C852     1.0000 0.65856  0.99598  0.95307  Biso   1.000  C
  C853     1.0000 0.61770  0.88370  0.96387  Biso   1.000  C
  H910     1.0000 0.57356  0.82749  0.91864  Biso   1.000  H
  H911     1.0000 0.56058  0.84920  0.88974  Biso   1.000  H
  C854     1.0000 0.48990  0.82648  0.91784  Biso   1.000  C
  C855     1.0000 0.70744  0.11029  0.94360  Biso   1.000  C
  H912     1.0000 0.66529  0.06503  0.86834  Biso   1.000  H
  H913     1.0000 0.70695  0.11491  0.89093  Biso   1.000  H
  H914     1.0000 0.66525  0.06503  0.86834  Biso   1.000  H
  C856     1.0000 0.62099  0.10738  0.88648  Biso   1.000  C
  H915     1.0000 0.93490  0.60021  0.86834  Biso   1.000  H
  H916     1.0000 0.88499  0.59199  0.89093  Biso   1.000  H
  C857     1.0000 0.89254  0.51357  0.88648  Biso   1.000  C
  H917     1.0000 0.93498  0.60021  0.86834  Biso   1.000  H
  H918     1.0000 0.88507  0.59199  0.89093  Biso   1.000  H
  C858     1.0000 0.89262  0.51357  0.88648  Biso   1.000  C
  C859     1.0000 0.88964  0.59712  0.94360  Biso   1.000  C
  C860     1.0000 0.88972  0.59712  0.94360  Biso   1.000  C
  C861     1.0000 0.00399  0.66247  0.95307  Biso   1.000  C
  C862     1.0000 0.00391  0.66247  0.95307  Biso   1.000  C
  C863     1.0000 0.11625  0.73397  0.96387  Biso   1.000  C
  C864     1.0000 0.11621  0.73397  0.96387  Biso   1.000  C
  H919     1.0000 0.15075  0.71129  0.88974  Biso   1.000  H
  H920     1.0000 0.17246  0.74598  0.91864  Biso   1.000  H
  C865     1.0000 0.17352  0.66340  0.91784  Biso   1.000  C
  C866     1.0000 0.17344  0.66340  0.91784  Biso   1.000  C
  C867     1.0000 0.16727  0.90056  0.98283  Biso   1.000  C
  C868     1.0000 0.13787  0.88615  0.93567  Biso   1.000  C
  C869     1.0000 0.16719  0.90056  0.98283  Biso   1.000  C
  C870     1.0000 0.13783  0.88615  0.93567  Biso   1.000  C
  C871     1.0000 0.87038  0.13131  0.93975  Biso   1.000  C
  C872     1.0000 0.87804  0.22982  0.94259  Biso   1.000  C
  C873     1.0000 0.87034  0.13131  0.93975  Biso   1.000  C
  C874     1.0000 0.67192  0.87230  0.96204  Biso   1.000  C
  H921     1.0000 0.57923  0.84491  0.95954  Biso   1.000  H
  H922     1.0000 0.61430  0.89530  0.98293  Biso   1.000  H
  H923     1.0000 0.57931  0.84491  0.95954  Biso   1.000  H
  H924     1.0000 0.61438  0.89530  0.98293  Biso   1.000  H
  C875     1.0000 0.68191  0.01044  0.98244  Biso   1.000  C
  H925     1.0000 0.46582  0.78320  0.91204  Biso   1.000  H
  H926     1.0000 0.48677  0.82911  0.93774  Biso   1.000  H
  H927     1.0000 0.46590  0.78320  0.91204  Biso   1.000  H
  H928     1.0000 0.47366  0.85040  0.90884  Biso   1.000  H
  H929     1.0000 0.69665  0.11311  0.96284  Biso   1.000  H
  H930     1.0000 0.69516  0.13533  0.93233  Biso   1.000  H
  C876     1.0000 0.77724  0.13847  0.94163  Biso   1.000  C
  H931     1.0000 0.69667  0.11316  0.96284  Biso   1.000  H
  C877     1.0000 0.77720  0.13847  0.94163  Biso   1.000  C
  H932     1.0000 0.61996  0.12332  0.90474  Biso   1.000  H
  H933     1.0000 0.57938  0.07473  0.88144  Biso   1.000  H
  H934     1.0000 0.57934  0.07473  0.88144  Biso   1.000  H
  H935     1.0000 0.63574  0.14105  0.87304  Biso   1.000  H
  H936     1.0000 0.92526  0.50461  0.88144  Biso   1.000  H
  H937     1.0000 0.85889  0.49468  0.87304  Biso   1.000  H
  H938     1.0000 0.85900  0.49472  0.87304  Biso   1.000  H
  H939     1.0000 0.87666  0.49662  0.90474  Biso   1.000  H
  H940     1.0000 0.85897  0.49468  0.87304  Biso   1.000  H
  H941     1.0000 0.85892  0.49472  0.87304  Biso   1.000  H
  H942     1.0000 0.86466  0.55980  0.93233  Biso   1.000  H
  H943     1.0000 0.88682  0.58349  0.96284  Biso   1.000  H
  C878     1.0000 0.86152  0.63873  0.94163  Biso   1.000  C
  C879     1.0000 0.98953  0.67148  0.98244  Biso   1.000  C
  C880     1.0000 0.12767  0.79960  0.96204  Biso   1.000  C
  H944     1.0000 0.15509  0.73429  0.95954  Biso   1.000  H
  H945     1.0000 0.10469  0.71900  0.98293  Biso   1.000  H
  H946     1.0000 0.15501  0.73429  0.95954  Biso   1.000  H
  H947     1.0000 0.10461  0.71900  0.98293  Biso   1.000  H
  H948     1.0000 0.21673  0.68261  0.91204  Biso   1.000  H
  H949     1.0000 0.14959  0.62321  0.90884  Biso   1.000  H
  H950     1.0000 0.17085  0.65758  0.93774  Biso   1.000  H
  H951     1.0000 0.14951  0.62321  0.90884  Biso   1.000  H
  H952     1.0000 0.21677  0.68261  0.91204  Biso   1.000  H
  H953     1.0000 0.17089  0.65758  0.93774  Biso   1.000  H
  C881     1.0000 0.14985  0.83844  0.98496  Biso   1.000  C
  H954     1.0000 0.18229  0.92629  0.99863  Biso   1.000  H
  H955     1.0000 0.18225  0.92629  0.99863  Biso   1.000  H
  C882     1.0000 0.11970  0.82389  0.93765  Biso   1.000  C
  C883     1.0000 0.11962  0.82389  0.93765  Biso   1.000  C
  H956     1.0000 0.13308  0.90209  0.91874  Biso   1.000  H
  C884     1.0000 0.81441  0.20193  0.94290  Biso   1.000  C
  C885     1.0000 0.81437  0.20193  0.94290  Biso   1.000  C
  H957     1.0000 0.90213  0.27351  0.94374  Biso   1.000  H
  C886     1.0000 0.80610  0.10323  0.94020  Biso   1.000  C
  C887     1.0000 0.80606  0.10323  0.94020  Biso   1.000  C
  H958     1.0000 0.88933  0.10664  0.93882  Biso   1.000  H
  C888     1.0000 0.68857  0.85008  0.98496  Biso   1.000  C
  C889     1.0000 0.70427  0.88029  0.93765  Biso   1.000  C
  C890     1.0000 0.68865  0.85008  0.98496  Biso   1.000  C
  H959     1.0000 0.69484  0.98069  0.98834  Biso   1.000  H
  H960     1.0000 0.71858  0.05242  0.98324  Biso   1.000  H
  H961     1.0000 0.71854  0.05242  0.98324  Biso   1.000  H
  C891     1.0000 0.63266  0.00688  0.00221  Biso   1.000  C
  C892     1.0000 0.63262  0.00688  0.00221  Biso   1.000  C
  C893     1.0000 0.89671  0.70279  0.94020  Biso   1.000  C
  C894     1.0000 0.79807  0.61245  0.94290  Biso   1.000  C
  H962     1.0000 0.94751  0.66607  0.98324  Biso   1.000  H
  C895     1.0000 0.99305  0.62571  0.00221  Biso   1.000  C
  C896     1.0000 0.99309  0.62571  0.00221  Biso   1.000  C
  H963     1.0000 0.01929  0.71411  0.98834  Biso   1.000  H
  H964     1.0000 0.15308  0.82218  0.00213  Biso   1.000  H
  H965     1.0000 0.15300  0.82218  0.00213  Biso   1.000  H
  H966     1.0000 0.10168  0.79770  0.92224  Biso   1.000  H
  H967     1.0000 0.79575  0.22691  0.94403  Biso   1.000  H
  H968     1.0000 0.78178  0.05953  0.93954  Biso   1.000  H
  C897     1.0000 0.73328  0.83271  0.98283  Biso   1.000  C
  C898     1.0000 0.73336  0.83271  0.98283  Biso   1.000  C
  H969     1.0000 0.66910  0.84689  0.00213  Biso   1.000  H
  H970     1.0000 0.66918  0.84689  0.00213  Biso   1.000  H
  H971     1.0000 0.69600  0.89830  0.92224  Biso   1.000  H
  C899     1.0000 0.74829  0.86209  0.93567  Biso   1.000  C
  H972     1.0000 0.69608  0.89830  0.92224  Biso   1.000  H
  C900     1.0000 0.74837  0.86209  0.93567  Biso   1.000  C
  H973     1.0000 0.59543  0.96610  0.00084  Biso   1.000  H
  H974     1.0000 0.59547  0.96610  0.00084  Biso   1.000  H
  H975     1.0000 0.62248  0.03884  0.99744  Biso   1.000  H
  H976     1.0000 0.62244  0.03884  0.99744  Biso   1.000  H
  H977     1.0000 0.64853  0.01344  0.02103  Biso   1.000  H
  H978     1.0000 0.94045  0.72219  0.93954  Biso   1.000  H
  C901     1.0000 0.86868  0.73905  0.93975  Biso   1.000  C
  C902     1.0000 0.77014  0.64820  0.94259  Biso   1.000  C
  H979     1.0000 0.77304  0.56881  0.94403  Biso   1.000  H
  H980     1.0000 0.77308  0.56881  0.94403  Biso   1.000  H
  H981     1.0000 0.96115  0.58359  0.99744  Biso   1.000  H
  H982     1.0000 0.98649  0.63508  0.02103  Biso   1.000  H
  H983     1.0000 0.98657  0.63508  0.02103  Biso   1.000  H
  H984     1.0000 0.03389  0.62931  0.00084  Biso   1.000  H
  H985     1.0000 0.74406  0.81770  0.99863  Biso   1.000  H
  C903     1.0000 0.76265  0.83696  0.95811  Biso   1.000  C
  H986     1.0000 0.76901  0.86689  0.91874  Biso   1.000  H
  H987     1.0000 0.76909  0.86689  0.91874  Biso   1.000  H
  C904     1.0000 0.80385  0.71106  0.94061  Biso   1.000  C
  H988     1.0000 0.89339  0.78269  0.93882  Biso   1.000  H
  H989     1.0000 0.72647  0.62862  0.94374  Biso   1.000  H
  C905     1.0000 0.80501  0.81041  0.95526  Biso   1.000  C
  C906     1.0000 0.80509  0.81041  0.95526  Biso   1.000  C
  C907     1.0000 0.77155  0.74870  0.94052  Biso   1.000  C
  H990     1.0000 0.81831  0.80477  0.97362  Biso   1.000  H
  H991     1.0000 0.84231  0.83941  0.94473  Biso   1.000  H
  H992     1.0000 0.81833  0.80482  0.97362  Biso   1.000  H
  H993     1.0000 0.84239  0.83941  0.94473  Biso   1.000  H
  H994     1.0000 0.73043  0.72358  0.94903  Biso   1.000  H
  H995     1.0000 0.76498  0.75628  0.92124  Biso   1.000  H
  C908     1.0000 0.80613  0.75685  0.27953  Biso   1.000  C
  C909     1.0000 0.80617  0.75685  0.27953  Biso   1.000  C
  C910     1.0000 0.86674  0.84992  0.30603  Biso   1.000  C
  H996     1.0000 0.82174  0.76175  0.32056  Biso   1.000  H
  C911     1.0000 0.81767  0.79122  0.25538  Biso   1.000  C
  C912     1.0000 0.81773  0.79126  0.25538  Biso   1.000  C
  C913     1.0000 0.81771  0.79122  0.25538  Biso   1.000  C
  H997     1.0000 0.78152  0.71316  0.27887  Biso   1.000  H
  C914     1.0000 0.83025  0.78590  0.30441  Biso   1.000  C
  C915     1.0000 0.88036  0.88396  0.28191  Biso   1.000  C
  C916     1.0000 0.88685  0.87999  0.33411  Biso   1.000  C
  C917     1.0000 0.78861  0.76276  0.22817  Biso   1.000  C
  C918     1.0000 0.78865  0.76276  0.22817  Biso   1.000  C
  C919     1.0000 0.78382  0.75695  0.22966  Biso   1.000  C
  C920     1.0000 0.85611  0.85481  0.25713  Biso   1.000  C
  H998     1.0000 0.90652  0.92756  0.28246  Biso   1.000  H
  H999     1.0000 0.89320  0.85195  0.34626  Biso   1.000  H
  C921     1.0000 0.94542  0.94257  0.33394  Biso   1.000  C
  H1000    1.0000 0.89324  0.85195  0.34626  Biso   1.000  H
  H1001    1.0000 0.85303  0.88474  0.34206  Biso   1.000  H
  C922     1.0000 0.94546  0.94257  0.33394  Biso   1.000  C
  C923     1.0000 0.78944  0.70355  0.22097  Biso   1.000  C
  C924     1.0000 0.81311  0.72794  0.21216  Biso   1.000  C
  H1002    1.0000 0.74514  0.75334  0.22837  Biso   1.000  H
  H1003    1.0000 0.81043  0.79352  0.21358  Biso   1.000  H
  H1004    1.0000 0.81041  0.79357  0.21358  Biso   1.000  H
  H1005    1.0000 0.74221  0.72374  0.23516  Biso   1.000  H
  H1006    1.0000 0.77801  0.78604  0.21796  Biso   1.000  H
  H1007    1.0000 0.86603  0.87897  0.24087  Biso   1.000  H
  C925     1.0000 0.94242  0.99711  0.33361  Biso   1.000  C
  C926     1.0000 0.00287  0.94529  0.33361  Biso   1.000  C
  C927     1.0000 0.74548  0.67132  0.19663  Biso   1.000  C
  C928     1.0000 0.76910  0.68744  0.18882  Biso   1.000  C
  H1008    1.0000 0.77613  0.67557  0.23706  Biso   1.000  H
  H1009    1.0000 0.83190  0.71376  0.21608  Biso   1.000  H
  H1010    1.0000 0.83194  0.71376  0.21608  Biso   1.000  H
  H1011    1.0000 0.82363  0.70226  0.22386  Biso   1.000  H
  H1012    1.0000 0.85191  0.76106  0.20407  Biso   1.000  H
  C929     1.0000 0.88080  0.99476  0.33347  Biso   1.000  C
  C930     1.0000 0.99711  0.05457  0.33394  Biso   1.000  C
  C931     1.0000 0.99707  0.05457  0.33394  Biso   1.000  C
  C932     1.0000 0.00524  0.88604  0.33347  Biso   1.000  C
  C933     1.0000 0.05744  0.00293  0.33394  Biso   1.000  C
  C934     1.0000 0.05740  0.00293  0.33394  Biso   1.000  C
  C935     1.0000 0.68224  0.63340  0.20044  Biso   1.000  C
  C936     1.0000 0.68228  0.63340  0.20044  Biso   1.000  C
  C937     1.0000 0.77042  0.68111  0.17041  Biso   1.000  C
  C938     1.0000 0.77312  0.71307  0.16308  Biso   1.000  C
  C939     1.0000 0.72191  0.62785  0.19452  Biso   1.000  C
  H1013    1.0000 0.85030  0.95744  0.32347  Biso   1.000  H
  H1014    1.0000 0.85034  0.95744  0.32347  Biso   1.000  H
  C940     1.0000 0.85697  0.99333  0.36261  Biso   1.000  C
  H1015    1.0000 0.88508  0.03138  0.32367  Biso   1.000  H
  H1016    1.0000 0.88500  0.03138  0.32367  Biso   1.000  H
  C941     1.0000 0.05472  0.05757  0.33361  Biso   1.000  C
  C942     1.0000 0.99311  0.11313  0.33411  Biso   1.000  C
  H1017    1.0000 0.96865  0.85366  0.32367  Biso   1.000  H
  H1018    1.0000 0.04251  0.89282  0.32347  Biso   1.000  H
  H1019    1.0000 0.04257  0.89287  0.32347  Biso   1.000  H
  C943     1.0000 0.00661  0.86359  0.36261  Biso   1.000  C
  C944     1.0000 0.12003  0.00690  0.33411  Biso   1.000  C
  C945     1.0000 0.64396  0.60532  0.17804  Biso   1.000  C
  C946     1.0000 0.64400  0.60532  0.17804  Biso   1.000  C
  C947     1.0000 0.67864  0.59386  0.17447  Biso   1.000  C
  H1020    1.0000 0.66523  0.62665  0.21837  Biso   1.000  H
  C948     1.0000 0.73206  0.65303  0.14801  Biso   1.000  C
  C949     1.0000 0.73210  0.65303  0.14801  Biso   1.000  C
  C950     1.0000 0.72973  0.67884  0.14303  Biso   1.000  C
  H1021    1.0000 0.81363  0.70706  0.16777  Biso   1.000  H
  H1022    1.0000 0.80534  0.75367  0.15916  Biso   1.000  H
  H1023    1.0000 0.71920  0.61035  0.21206  Biso   1.000  H
  H1024    1.0000 0.81780  0.99346  0.36167  Biso   1.000  H
  H1025    1.0000 0.85038  0.95582  0.37196  Biso   1.000  H
  H1026    1.0000 0.81784  0.99346  0.36167  Biso   1.000  H
  H1027    1.0000 0.85044  0.95587  0.37196  Biso   1.000  H
  H1028    1.0000 0.85042  0.95582  0.37196  Biso   1.000  H
  H1029    1.0000 0.88747  0.02977  0.37276  Biso   1.000  H
  H1030    1.0000 0.88741  0.02981  0.37276  Biso   1.000  H
  H1031    1.0000 0.88739  0.02977  0.37276  Biso   1.000  H
  C951     1.0000 0.11399  0.11923  0.33347  Biso   1.000  C
  H1032    1.0000 0.03176  0.14699  0.34206  Biso   1.000  H
  H1033    1.0000 0.95875  0.10681  0.34626  Biso   1.000  H
  H1034    1.0000 0.95871  0.10681  0.34626  Biso   1.000  H
  C952     1.0000 0.98318  0.13327  0.30603  Biso   1.000  C
  H1035    1.0000 0.97023  0.85763  0.37276  Biso   1.000  H
  H1036    1.0000 0.00650  0.82433  0.36167  Biso   1.000  H
  H1037    1.0000 0.04416  0.89453  0.37196  Biso   1.000  H
  H1038    1.0000 0.11522  0.96825  0.34206  Biso   1.000  H
  C953     1.0000 0.15011  0.01683  0.30603  Biso   1.000  C
  H1039    1.0000 0.14803  0.04131  0.34626  Biso   1.000  H
  H1040    1.0000 0.14809  0.04127  0.34626  Biso   1.000  H
  C954     1.0000 0.66888  0.61515  0.15183  Biso   1.000  C
  C955     1.0000 0.66892  0.61515  0.15183  Biso   1.000  C
  C956     1.0000 0.68250  0.61936  0.14873  Biso   1.000  C
  H1041    1.0000 0.60083  0.57945  0.18066  Biso   1.000  H
  H1042    1.0000 0.64630  0.55303  0.17837  Biso   1.000  H
  H1043    1.0000 0.74915  0.65977  0.13006  Biso   1.000  H
  H1044    1.0000 0.73240  0.69635  0.12547  Biso   1.000  H
  H1045    1.0000 0.14635  0.11498  0.32367  Biso   1.000  H
  H1046    1.0000 0.10717  0.14967  0.32347  Biso   1.000  H
  C957     1.0000 0.13643  0.14306  0.36261  Biso   1.000  C
  H1047    1.0000 0.10711  0.14971  0.32347  Biso   1.000  H
  C958     1.0000 0.13635  0.14306  0.36261  Biso   1.000  C
  H1048    1.0000 0.14639  0.11498  0.32367  Biso   1.000  H
  H1049    1.0000 0.10709  0.14967  0.32347  Biso   1.000  H
  H1050    1.0000 0.10719  0.14971  0.32347  Biso   1.000  H
  C959     1.0000 0.00360  0.11965  0.28191  Biso   1.000  C
  C960     1.0000 0.95566  0.16976  0.30441  Biso   1.000  C
  C961     1.0000 0.95558  0.16976  0.30441  Biso   1.000  C
  C962     1.0000 0.21411  0.04436  0.30441  Biso   1.000  C
  C963     1.0000 0.11600  0.99637  0.28191  Biso   1.000  C
  C964     1.0000 0.62710  0.57927  0.12819  Biso   1.000  C
  H1051    1.0000 0.14235  0.11258  0.37276  Biso   1.000  H
  H1052    1.0000 0.17563  0.18218  0.36167  Biso   1.000  H
  H1053    1.0000 0.10545  0.14957  0.37196  Biso   1.000  H
  H1054    1.0000 0.10549  0.14957  0.37196  Biso   1.000  H
  C965     1.0000 0.99869  0.14389  0.25713  Biso   1.000  C
  H1055    1.0000 0.02101  0.09350  0.28246  Biso   1.000  H
  H1056    1.0000 0.02105  0.09350  0.28246  Biso   1.000  H
  C966     1.0000 0.95072  0.19387  0.27953  Biso   1.000  C
  H1057    1.0000 0.94006  0.17830  0.32056  Biso   1.000  H
  C967     1.0000 0.24310  0.04930  0.27953  Biso   1.000  C
  H1058    1.0000 0.23820  0.05997  0.32056  Biso   1.000  H
  C968     1.0000 0.24314  0.04930  0.27953  Biso   1.000  C
  H1059    1.0000 0.23824  0.05997  0.32056  Biso   1.000  H
  H1060    1.0000 0.07242  0.97896  0.28246  Biso   1.000  H
  C969     1.0000 0.14515  0.00132  0.25713  Biso   1.000  C
  C970     1.0000 0.64188  0.60915  0.10012  Biso   1.000  C
  H1061    1.0000 0.58461  0.56924  0.13297  Biso   1.000  H
  H1062    1.0000 0.58465  0.56924  0.13297  Biso   1.000  H
  H1063    1.0000 0.62693  0.53973  0.12666  Biso   1.000  H
  H1064    1.0000 0.62691  0.53978  0.12666  Biso   1.000  H
  H1065    1.0000 0.58852  0.57626  0.13516  Biso   1.000  H
  H1066    1.0000 0.62071  0.53696  0.12686  Biso   1.000  H
  H1067    1.0000 0.01295  0.13401  0.24087  Biso   1.000  H
  C971     1.0000 0.97352  0.18227  0.25538  Biso   1.000  C
  C972     1.0000 0.97354  0.18232  0.25538  Biso   1.000  C
  C973     1.0000 0.97348  0.18227  0.25538  Biso   1.000  C
  C974     1.0000 0.97350  0.18232  0.25538  Biso   1.000  C
  H1068    1.0000 0.93163  0.21848  0.27887  Biso   1.000  H
  H1069    1.0000 0.93159  0.21848  0.27887  Biso   1.000  H
  H1070    1.0000 0.28684  0.06838  0.27887  Biso   1.000  H
  C975     1.0000 0.20878  0.02649  0.25538  Biso   1.000  C
  H1071    1.0000 0.12102  0.98704  0.24087  Biso   1.000  H
  C976     1.0000 0.61795  0.64744  0.09235  Biso   1.000  C
  C977     1.0000 0.61799  0.64744  0.09235  Biso   1.000  C
  C978     1.0000 0.67825  0.59797  0.08171  Biso   1.000  C
  C979     1.0000 0.67829  0.59797  0.08171  Biso   1.000  C
  C980     1.0000 0.97407  0.21137  0.22817  Biso   1.000  C
  C981     1.0000 0.97315  0.21617  0.22966  Biso   1.000  C
  C982     1.0000 0.23723  0.02589  0.22817  Biso   1.000  C
  C983     1.0000 0.24306  0.02690  0.22966  Biso   1.000  C
  C984     1.0000 0.58362  0.66462  0.11315  Biso   1.000  C
  C985     1.0000 0.62634  0.66998  0.06550  Biso   1.000  C
  C986     1.0000 0.68966  0.62374  0.05538  Biso   1.000  C
  C987     1.0000 0.70514  0.55774  0.09018  Biso   1.000  C
  C988     1.0000 0.91412  0.21059  0.22097  Biso   1.000  C
  C989     1.0000 0.91479  0.18689  0.21216  Biso   1.000  C
  H1072    1.0000 0.98317  0.18957  0.21358  Biso   1.000  H
  H1073    1.0000 0.98313  0.18957  0.21358  Biso   1.000  H
  H1074    1.0000 0.98152  0.25779  0.23516  Biso   1.000  H
  H1075    1.0000 0.00826  0.25488  0.22837  Biso   1.000  H
  H1076    1.0000 0.00806  0.22199  0.21796  Biso   1.000  H
  H1077    1.0000 0.24665  0.99176  0.22837  Biso   1.000  H
  H1078    1.0000 0.24661  0.99176  0.22837  Biso   1.000  H
  H1079    1.0000 0.21394  0.99194  0.21796  Biso   1.000  H
  C990     1.0000 0.29643  0.08588  0.22097  Biso   1.000  C
  H1080    1.0000 0.20645  0.01688  0.21358  Biso   1.000  H
  C991     1.0000 0.29639  0.08588  0.22097  Biso   1.000  C
  C992     1.0000 0.27201  0.08519  0.21216  Biso   1.000  C
  H1081    1.0000 0.27622  0.01850  0.23516  Biso   1.000  H
  C993     1.0000 0.51360  0.62097  0.11352  Biso   1.000  C
  H1082    1.0000 0.59204  0.70697  0.10907  Biso   1.000  H
  H1083    1.0000 0.60026  0.66527  0.13166  Biso   1.000  H
  C994     1.0000 0.59715  0.70743  0.05640  Biso   1.000  C
  C995     1.0000 0.66249  0.65852  0.04693  Biso   1.000  C
  C996     1.0000 0.66253  0.65852  0.04693  Biso   1.000  C
  C997     1.0000 0.73401  0.61774  0.03613  Biso   1.000  C
  H1084    1.0000 0.74603  0.57354  0.08136  Biso   1.000  H
  H1085    1.0000 0.71134  0.56056  0.11026  Biso   1.000  H
  C998     1.0000 0.66341  0.48990  0.08216  Biso   1.000  C
  C999     1.0000 0.92587  0.25456  0.19663  Biso   1.000  C
  C1000    1.0000 0.91832  0.23091  0.18882  Biso   1.000  C
  H1086    1.0000 0.88188  0.16809  0.21608  Biso   1.000  H
  H1087    1.0000 0.89945  0.22389  0.23706  Biso   1.000  H
  H1088    1.0000 0.88180  0.16809  0.21608  Biso   1.000  H
  H1089    1.0000 0.87863  0.17641  0.22386  Biso   1.000  H
  H1090    1.0000 0.90911  0.14810  0.20407  Biso   1.000  H
  C1001    1.0000 0.32871  0.07420  0.19663  Biso   1.000  C
  C1002    1.0000 0.31257  0.08168  0.18882  Biso   1.000  C
  H1091    1.0000 0.32445  0.10057  0.23706  Biso   1.000  H
  H1092    1.0000 0.28628  0.11821  0.21608  Biso   1.000  H
  H1093    1.0000 0.32441  0.10057  0.23706  Biso   1.000  H
  H1094    1.0000 0.29775  0.12140  0.22386  Biso   1.000  H
  H1095    1.0000 0.23893  0.09087  0.20407  Biso   1.000  H
  H1096    1.0000 0.50463  0.57936  0.11856  Biso   1.000  H
  H1097    1.0000 0.49475  0.63575  0.12696  Biso   1.000  H
  H1098    1.0000 0.49665  0.61996  0.09526  Biso   1.000  H
  H1099    1.0000 0.58353  0.69667  0.03716  Biso   1.000  H
  H1100    1.0000 0.55981  0.69515  0.06767  Biso   1.000  H
  H1101    1.0000 0.58357  0.69667  0.03716  Biso   1.000  H
  H1102    1.0000 0.55985  0.69515  0.06767  Biso   1.000  H
  C1003    1.0000 0.63876  0.77722  0.05837  Biso   1.000  C
  C1004    1.0000 0.67152  0.68194  0.01756  Biso   1.000  C
  C1005    1.0000 0.79960  0.67196  0.03796  Biso   1.000  C
  H1103    1.0000 0.71901  0.61437  0.01707  Biso   1.000  H
  C1006    1.0000 0.79964  0.67196  0.03796  Biso   1.000  C
  H1104    1.0000 0.73434  0.57927  0.04046  Biso   1.000  H
  H1105    1.0000 0.71905  0.61437  0.01707  Biso   1.000  H
  H1106    1.0000 0.62324  0.47364  0.09116  Biso   1.000  H
  H1107    1.0000 0.65764  0.48676  0.06226  Biso   1.000  H
  H1108    1.0000 0.68262  0.46583  0.08796  Biso   1.000  H
  C1007    1.0000 0.95118  0.31774  0.20044  Biso   1.000  C
  C1008    1.0000 0.95110  0.31774  0.20044  Biso   1.000  C
  C1009    1.0000 0.91076  0.22961  0.17041  Biso   1.000  C
  C1010    1.0000 0.91068  0.22961  0.17041  Biso   1.000  C
  C1011    1.0000 0.93991  0.22689  0.16308  Biso   1.000  C
  C1012    1.0000 0.90594  0.27806  0.19452  Biso   1.000  C
  C1013    1.0000 0.36661  0.04889  0.20044  Biso   1.000  C
  C1014    1.0000 0.31890  0.08930  0.17041  Biso   1.000  C
  C1015    1.0000 0.28699  0.06011  0.16308  Biso   1.000  C
  C1016    1.0000 0.37214  0.09410  0.19452  Biso   1.000  C
  C1017    1.0000 0.61247  0.81440  0.05710  Biso   1.000  C
  C1018    1.0000 0.70283  0.80609  0.05980  Biso   1.000  C
  C1019    1.0000 0.70287  0.80609  0.05980  Biso   1.000  C
  C1020    1.0000 0.62573  0.63261  0.99779  Biso   1.000  C
  C1021    1.0000 0.62577  0.63261  0.99779  Biso   1.000  C
  H1109    1.0000 0.66615  0.71856  0.01676  Biso   1.000  H
  H1110    1.0000 0.71414  0.69487  0.01166  Biso   1.000  H
  C1022    1.0000 0.83850  0.68864  0.01504  Biso   1.000  C
  C1023    1.0000 0.82394  0.70425  0.06235  Biso   1.000  C
  H1111    1.0000 0.96142  0.33478  0.21837  Biso   1.000  H
  C1024    1.0000 0.96132  0.35603  0.17804  Biso   1.000  C
  C1025    1.0000 0.96128  0.35603  0.17804  Biso   1.000  C
  C1026    1.0000 0.91524  0.32139  0.17447  Biso   1.000  C
  C1027    1.0000 0.92094  0.26790  0.14801  Biso   1.000  C
  C1028    1.0000 0.92098  0.26790  0.14801  Biso   1.000  C
  C1029    1.0000 0.94910  0.27030  0.14303  Biso   1.000  C
  H1112    1.0000 0.89342  0.18638  0.16777  Biso   1.000  H
  H1113    1.0000 0.89338  0.18638  0.16777  Biso   1.000  H
  H1114    1.0000 0.94829  0.19470  0.15916  Biso   1.000  H
  H1115    1.0000 0.89114  0.28079  0.21206  Biso   1.000  H
  H1116    1.0000 0.37334  0.03859  0.21837  Biso   1.000  H
  C1030    1.0000 0.39467  0.03868  0.17804  Biso   1.000  C
  C1031    1.0000 0.40615  0.08477  0.17447  Biso   1.000  C
  C1032    1.0000 0.34695  0.07909  0.14801  Biso   1.000  C
  C1033    1.0000 0.32113  0.05087  0.14303  Biso   1.000  C
  H1117    1.0000 0.29290  0.10657  0.16777  Biso   1.000  H
  H1118    1.0000 0.29294  0.10657  0.16777  Biso   1.000  H
  H1119    1.0000 0.24638  0.05171  0.15916  Biso   1.000  H
  H1120    1.0000 0.38965  0.10888  0.21206  Biso   1.000  H
  H1121    1.0000 0.56882  0.79574  0.05597  Biso   1.000  H
  C1034    1.0000 0.64821  0.87805  0.05741  Biso   1.000  C
  C1035    1.0000 0.64824  0.87809  0.05741  Biso   1.000  C
  C1036    1.0000 0.73906  0.87038  0.06025  Biso   1.000  C
  H1122    1.0000 0.72222  0.78175  0.06046  Biso   1.000  H
  H1123    1.0000 0.63510  0.64855  0.97897  Biso   1.000  H
  H1124    1.0000 0.62930  0.59543  0.99916  Biso   1.000  H
  H1125    1.0000 0.63514  0.64855  0.97897  Biso   1.000  H
  H1126    1.0000 0.62934  0.59543  0.99916  Biso   1.000  H
  H1127    1.0000 0.58361  0.62245  0.00256  Biso   1.000  H
  H1128    1.0000 0.58365  0.62245  0.00256  Biso   1.000  H
  H1129    1.0000 0.82223  0.66915  0.99787  Biso   1.000  H
  C1037    1.0000 0.90061  0.73334  0.01717  Biso   1.000  C
  H1130    1.0000 0.79774  0.69607  0.07776  Biso   1.000  H
  C1038    1.0000 0.88624  0.74835  0.06433  Biso   1.000  C
  H1131    1.0000 0.97861  0.39916  0.18066  Biso   1.000  H
  C1039    1.0000 0.94631  0.33113  0.15183  Biso   1.000  C
  C1040    1.0000 0.94627  0.33113  0.15183  Biso   1.000  C
  C1041    1.0000 0.93680  0.31746  0.14873  Biso   1.000  C
  H1132    1.0000 0.90671  0.35367  0.17837  Biso   1.000  H
  H1133    1.0000 0.91064  0.25091  0.13006  Biso   1.000  H
  H1134    1.0000 0.96394  0.26758  0.12547  Biso   1.000  H
  H1135    1.0000 0.42055  0.02141  0.18066  Biso   1.000  H
  C1042    1.0000 0.38486  0.05378  0.15183  Biso   1.000  C
  C1043    1.0000 0.38490  0.05378  0.15183  Biso   1.000  C
  C1044    1.0000 0.38065  0.06321  0.14873  Biso   1.000  C
  H1136    1.0000 0.44696  0.09327  0.17837  Biso   1.000  H
  H1137    1.0000 0.34026  0.08939  0.13006  Biso   1.000  H
  H1138    1.0000 0.30362  0.03609  0.12547  Biso   1.000  H
  H1139    1.0000 0.62863  0.90215  0.05626  Biso   1.000  H
  C1045    1.0000 0.71113  0.90724  0.05939  Biso   1.000  C
  H1140    1.0000 0.78275  0.88936  0.06118  Biso   1.000  H
  H1141    1.0000 0.92633  0.74406  0.00137  Biso   1.000  H
  C1046    1.0000 0.92565  0.76263  0.04189  Biso   1.000  C
  C1047    1.0000 0.92567  0.76267  0.04189  Biso   1.000  C
  H1142    1.0000 0.90210  0.76905  0.08126  Biso   1.000  H
  H1143    1.0000 0.90214  0.76905  0.08126  Biso   1.000  H
  C1048    1.0000 0.95219  0.37288  0.12819  Biso   1.000  C
  C1049    1.0000 0.42072  0.04783  0.12819  Biso   1.000  C
  C1050    1.0000 0.42076  0.04783  0.12819  Biso   1.000  C
  C1051    1.0000 0.74871  0.97711  0.05948  Biso   1.000  C
  C1052    1.0000 0.74875  0.97711  0.05948  Biso   1.000  C
  C1053    1.0000 0.99459  0.80507  0.04474  Biso   1.000  C
  C1054    1.0000 0.99463  0.80507  0.04474  Biso   1.000  C
  C1055    1.0000 0.96734  0.35815  0.10012  Biso   1.000  C
  C1056    1.0000 0.96726  0.35815  0.10012  Biso   1.000  C
  H1144    1.0000 0.91281  0.37307  0.12666  Biso   1.000  H
  H1145    1.0000 0.98468  0.41538  0.13297  Biso   1.000  H
  H1146    1.0000 0.98460  0.41538  0.13297  Biso   1.000  H
  H1147    1.0000 0.98774  0.41150  0.13516  Biso   1.000  H
  H1148    1.0000 0.91624  0.37930  0.12686  Biso   1.000  H
  C1057    1.0000 0.39085  0.03272  0.10012  Biso   1.000  C
  H1149    1.0000 0.46019  0.08718  0.12666  Biso   1.000  H
  H1150    1.0000 0.43070  0.01540  0.13297  Biso   1.000  H
  H1151    1.0000 0.46027  0.08718  0.12666  Biso   1.000  H
  H1152    1.0000 0.43078  0.01540  0.13297  Biso   1.000  H
  H1153    1.0000 0.42376  0.01231  0.13516  Biso   1.000  H
  H1154    1.0000 0.46303  0.08380  0.12686  Biso   1.000  H
  C1058    1.0000 0.81044  0.00538  0.04474  Biso   1.000  C
  H1155    1.0000 0.75630  0.99134  0.07876  Biso   1.000  H
  H1156    1.0000 0.72364  0.99314  0.05097  Biso   1.000  H
  H1157    1.0000 0.75634  0.99134  0.07876  Biso   1.000  H
  C1059    1.0000 0.02289  0.77159  0.05948  Biso   1.000  C
  C1060    1.0000 0.02285  0.77159  0.05948  Biso   1.000  C
  H1158    1.0000 0.01356  0.81837  0.02638  Biso   1.000  H
  H1159    1.0000 0.01350  0.81833  0.02638  Biso   1.000  H
  H1160    1.0000 0.00291  0.84234  0.05527  Biso   1.000  H
  C1061    1.0000 0.91971  0.32176  0.08171  Biso   1.000  C
  C1062    1.0000 0.02944  0.38203  0.09235  Biso   1.000  C
  C1063    1.0000 0.02952  0.38203  0.09235  Biso   1.000  C
  C1064    1.0000 0.35254  0.97051  0.09235  Biso   1.000  C
  C1065    1.0000 0.35258  0.97051  0.09235  Biso   1.000  C
  C1066    1.0000 0.40202  0.08034  0.08171  Biso   1.000  C
  H1161    1.0000 0.80481  0.98644  0.02638  Biso   1.000  H
  H1162    1.0000 0.80485  0.98644  0.02638  Biso   1.000  H
  H1163    1.0000 0.83944  0.99707  0.05527  Biso   1.000  H
  H1164    1.0000 0.83942  0.99702  0.05527  Biso   1.000  H
  C1067    1.0000 0.83704  0.07434  0.04189  Biso   1.000  C
  C1068    1.0000 0.83696  0.07434  0.04189  Biso   1.000  C
  H1165    1.0000 0.00683  0.73043  0.05097  Biso   1.000  H
  C1069    1.0000 0.09275  0.80387  0.05939  Biso   1.000  C
  H1166    1.0000 0.00860  0.76494  0.07876  Biso   1.000  H
  C1070    1.0000 0.93408  0.31035  0.05538  Biso   1.000  C
  C1071    1.0000 0.85265  0.29492  0.09018  Biso   1.000  C
  C1072    1.0000 0.04366  0.37367  0.06550  Biso   1.000  C
  C1073    1.0000 0.08106  0.41639  0.11315  Biso   1.000  C
  C1074    1.0000 0.08098  0.41639  0.11315  Biso   1.000  C
  C1075    1.0000 0.33001  0.95633  0.06550  Biso   1.000  C
  C1076    1.0000 0.33537  0.91897  0.11315  Biso   1.000  C
  C1077    1.0000 0.33533  0.91897  0.11315  Biso   1.000  C
  C1078    1.0000 0.44227  0.14740  0.09018  Biso   1.000  C
  C1079    1.0000 0.37629  0.06593  0.05538  Biso   1.000  C
  C1080    1.0000 0.37621  0.06593  0.05538  Biso   1.000  C
  C1081    1.0000 0.83278  0.09942  0.01717  Biso   1.000  C
  C1082    1.0000 0.86214  0.11383  0.06433  Biso   1.000  C
  C1083    1.0000 0.83280  0.09946  0.01717  Biso   1.000  C
  C1084    1.0000 0.86210  0.11383  0.06433  Biso   1.000  C
  C1085    1.0000 0.12193  0.77015  0.05741  Biso   1.000  C
  C1086    1.0000 0.12189  0.77015  0.05741  Biso   1.000  C
  C1087    1.0000 0.12959  0.86867  0.06025  Biso   1.000  C
  C1088    1.0000 0.88375  0.26601  0.03613  Biso   1.000  C
  C1089    1.0000 0.99602  0.33751  0.04693  Biso   1.000  C
  C1090    1.0000 0.99598  0.33751  0.04693  Biso   1.000  C
  H1167    1.0000 0.82755  0.25400  0.08136  Biso   1.000  H
  H1168    1.0000 0.84922  0.28869  0.11026  Biso   1.000  H
  C1091    1.0000 0.82648  0.33658  0.08216  Biso   1.000  C
  H1169    1.0000 0.82751  0.25400  0.08136  Biso   1.000  H
  C1092    1.0000 0.82651  0.33663  0.08216  Biso   1.000  C
  C1093    1.0000 0.11033  0.40286  0.05640  Biso   1.000  C
  H1170    1.0000 0.11494  0.40799  0.10907  Biso   1.000  H
  H1171    1.0000 0.06507  0.39976  0.13166  Biso   1.000  H
  C1094    1.0000 0.10739  0.48641  0.11352  Biso   1.000  C
  H1172    1.0000 0.06503  0.39976  0.13166  Biso   1.000  H
  C1095    1.0000 0.29253  0.88968  0.05640  Biso   1.000  C
  C1096    1.0000 0.34148  0.00400  0.04693  Biso   1.000  C
  H1173    1.0000 0.33472  0.93495  0.13166  Biso   1.000  H
  H1174    1.0000 0.29302  0.88507  0.10907  Biso   1.000  H
  C1097    1.0000 0.37902  0.89259  0.11352  Biso   1.000  C
  H1175    1.0000 0.42645  0.17248  0.08136  Biso   1.000  H
  C1098    1.0000 0.51007  0.17350  0.08216  Biso   1.000  C
  H1176    1.0000 0.43943  0.15077  0.11026  Biso   1.000  H
  C1099    1.0000 0.38229  0.11632  0.03613  Biso   1.000  C
  H1177    1.0000 0.81771  0.07369  0.00137  Biso   1.000  H
  C1100    1.0000 0.85012  0.16154  0.01504  Biso   1.000  C
  C1101    1.0000 0.88035  0.17608  0.06235  Biso   1.000  C
  H1178    1.0000 0.86693  0.09789  0.08126  Biso   1.000  H
  H1179    1.0000 0.86689  0.09789  0.08126  Biso   1.000  H
  C1102    1.0000 0.18559  0.79805  0.05710  Biso   1.000  C
  H1180    1.0000 0.09784  0.72646  0.05626  Biso   1.000  H
  H1181    1.0000 0.09780  0.72646  0.05626  Biso   1.000  H
  H1182    1.0000 0.11064  0.89333  0.06118  Biso   1.000  H
  C1103    1.0000 0.19391  0.89675  0.05980  Biso   1.000  C
  H1183    1.0000 0.11060  0.89333  0.06118  Biso   1.000  H
  C1104    1.0000 0.19395  0.89675  0.05980  Biso   1.000  C
  C1105    1.0000 0.87234  0.20038  0.03796  Biso   1.000  C
  C1106    1.0000 0.87230  0.20038  0.03796  Biso   1.000  C
  H1184    1.0000 0.84495  0.26569  0.04046  Biso   1.000  H
  H1185    1.0000 0.89536  0.28097  0.01707  Biso   1.000  H
  H1186    1.0000 0.89528  0.28097  0.01707  Biso   1.000  H
  C1107    1.0000 0.01044  0.32850  0.01756  Biso   1.000  C
  H1187    1.0000 0.85042  0.37676  0.09116  Biso   1.000  H
  H1188    1.0000 0.78328  0.31737  0.08796  Biso   1.000  H
  H1189    1.0000 0.82919  0.34240  0.06226  Biso   1.000  H
  H1190    1.0000 0.78324  0.31737  0.08796  Biso   1.000  H
  H1191    1.0000 0.82915  0.34240  0.06226  Biso   1.000  H
  H1192    1.0000 0.11315  0.41648  0.03716  Biso   1.000  H
  C1108    1.0000 0.13848  0.36125  0.05837  Biso   1.000  C
  H1193    1.0000 0.13539  0.44018  0.06767  Biso   1.000  H
  H1194    1.0000 0.14103  0.50530  0.12696  Biso   1.000  H
  H1195    1.0000 0.12331  0.50336  0.09526  Biso   1.000  H
  H1196    1.0000 0.07475  0.49537  0.11856  Biso   1.000  H
  H1197    1.0000 0.12339  0.50336  0.09526  Biso   1.000  H
  H1198    1.0000 0.07479  0.49537  0.11856  Biso   1.000  H
  C1109    1.0000 0.22276  0.86151  0.05837  Biso   1.000  C
  C1110    1.0000 0.22280  0.86151  0.05837  Biso   1.000  C
  H1199    1.0000 0.30485  0.86465  0.06767  Biso   1.000  H
  H1200    1.0000 0.30332  0.88687  0.03716  Biso   1.000  H
  H1201    1.0000 0.30481  0.86465  0.06767  Biso   1.000  H
  C1111    1.0000 0.31802  0.98954  0.01756  Biso   1.000  C
  H1202    1.0000 0.38005  0.87666  0.09526  Biso   1.000  H
  H1203    1.0000 0.42063  0.92525  0.11856  Biso   1.000  H
  H1204    1.0000 0.36425  0.85897  0.12696  Biso   1.000  H
  H1205    1.0000 0.38001  0.87666  0.09526  Biso   1.000  H
  H1206    1.0000 0.36418  0.85892  0.12696  Biso   1.000  H
  H1207    1.0000 0.53415  0.21677  0.08796  Biso   1.000  H
  H1208    1.0000 0.52635  0.14957  0.09116  Biso   1.000  H
  H1209    1.0000 0.51320  0.17087  0.06226  Biso   1.000  H
  H1210    1.0000 0.51322  0.17091  0.06226  Biso   1.000  H
  H1211    1.0000 0.42074  0.15507  0.04046  Biso   1.000  H
  C1112    1.0000 0.32801  0.12768  0.03796  Biso   1.000  C
  H1212    1.0000 0.38567  0.10468  0.01707  Biso   1.000  H
  H1213    1.0000 0.38559  0.10468  0.01707  Biso   1.000  H
  C1113    1.0000 0.32809  0.12768  0.03796  Biso   1.000  C
  H1214    1.0000 0.84697  0.17779  0.99787  Biso   1.000  H
  H1215    1.0000 0.84689  0.17779  0.99787  Biso   1.000  H
  H1216    1.0000 0.89836  0.20227  0.07776  Biso   1.000  H
  H1217    1.0000 0.89828  0.20227  0.07776  Biso   1.000  H
  H1218    1.0000 0.20422  0.77306  0.05597  Biso   1.000  H
  H1219    1.0000 0.21823  0.94044  0.06046  Biso   1.000  H
  H1220    1.0000 0.98068  0.28587  0.01166  Biso   1.000  H
  C1114    1.0000 0.00692  0.37427  0.99779  Biso   1.000  C
  H1221    1.0000 0.05242  0.33390  0.01676  Biso   1.000  H
  H1222    1.0000 0.05250  0.33390  0.01676  Biso   1.000  H
  C1115    1.0000 0.10325  0.29718  0.05980  Biso   1.000  C
  C1116    1.0000 0.20190  0.38753  0.05710  Biso   1.000  C
  C1117    1.0000 0.20198  0.38753  0.05710  Biso   1.000  C
  C1118    1.0000 0.36735  0.99310  0.99779  Biso   1.000  C
  H1223    1.0000 0.28143  0.94756  0.01676  Biso   1.000  H
  H1224    1.0000 0.30517  0.01928  0.01166  Biso   1.000  H
  H1225    1.0000 0.30509  0.01928  0.01166  Biso   1.000  H
  C1119    1.0000 0.29574  0.11969  0.06235  Biso   1.000  C
  C1120    1.0000 0.31140  0.14990  0.01504  Biso   1.000  C
  H1226    1.0000 0.96616  0.37067  0.99916  Biso   1.000  H
  H1227    1.0000 0.96608  0.37067  0.99916  Biso   1.000  H
  H1228    1.0000 0.01343  0.36489  0.97897  Biso   1.000  H
  H1229    1.0000 0.01339  0.36489  0.97897  Biso   1.000  H
  H1230    1.0000 0.03886  0.41639  0.00256  Biso   1.000  H
  H1231    1.0000 0.03890  0.41639  0.00256  Biso   1.000  H
  C1121    1.0000 0.13131  0.26097  0.06025  Biso   1.000  C
  H1232    1.0000 0.05956  0.27779  0.06046  Biso   1.000  H
  H1233    1.0000 0.05960  0.27779  0.06046  Biso   1.000  H
  C1122    1.0000 0.13139  0.26097  0.06025  Biso   1.000  C
  H1234    1.0000 0.22693  0.43117  0.05597  Biso   1.000  H
  C1123    1.0000 0.22987  0.35178  0.05741  Biso   1.000  C
  C1124    1.0000 0.22991  0.35178  0.05741  Biso   1.000  C
  H1235    1.0000 0.35139  0.98654  0.97897  Biso   1.000  H
  H1236    1.0000 0.37753  0.96113  0.00256  Biso   1.000  H
  H1237    1.0000 0.37749  0.96113  0.00256  Biso   1.000  H
  H1238    1.0000 0.40454  0.03388  0.99916  Biso   1.000  H
  H1239    1.0000 0.40458  0.03388  0.99916  Biso   1.000  H
  H1240    1.0000 0.30393  0.10168  0.07776  Biso   1.000  H
  C1125    1.0000 0.25168  0.13789  0.06433  Biso   1.000  C
  H1241    1.0000 0.33083  0.15308  0.99787  Biso   1.000  H
  C1126    1.0000 0.26664  0.16726  0.01717  Biso   1.000  C
  C1127    1.0000 0.19616  0.28892  0.05939  Biso   1.000  C
  H1242    1.0000 0.10662  0.21728  0.06118  Biso   1.000  H
  H1243    1.0000 0.27354  0.37136  0.05626  Biso   1.000  H
  H1244    1.0000 0.27356  0.37141  0.05626  Biso   1.000  H
  C1128    1.0000 0.23732  0.16301  0.04189  Biso   1.000  C
  H1245    1.0000 0.23092  0.13309  0.08126  Biso   1.000  H
  H1246    1.0000 0.23096  0.13309  0.08126  Biso   1.000  H
  H1247    1.0000 0.25591  0.18227  0.00137  Biso   1.000  H
  H1248    1.0000 0.25599  0.18227  0.00137  Biso   1.000  H
  C1129    1.0000 0.22841  0.25128  0.05948  Biso   1.000  C
  C1130    1.0000 0.19496  0.18957  0.04474  Biso   1.000  C
  C1131    1.0000 0.19492  0.18957  0.04474  Biso   1.000  C
  H1249    1.0000 0.26954  0.27640  0.05097  Biso   1.000  H
  H1250    1.0000 0.23507  0.24370  0.07876  Biso   1.000  H
  H1251    1.0000 0.15762  0.16057  0.05527  Biso   1.000  H
  H1252    1.0000 0.15764  0.16061  0.05527  Biso   1.000  H
  H1253    1.0000 0.18166  0.19521  0.02638  Biso   1.000  H
