data_image0
_cell_length_a       21.648
_cell_length_b       16.943
_cell_length_c       23.867
_cell_angle_alpha    90
_cell_angle_beta     90
_cell_angle_gamma    90

_symmetry_space_group_name_H-M    "P 1"
_symmetry_int_tables_number       1

loop_
  _symmetry_equiv_pos_as_xyz
  'x, y, z'

loop_
  _atom_site_label
  _atom_site_occupancy
  _atom_site_fract_x
  _atom_site_fract_y
  _atom_site_fract_z
  _atom_site_thermal_displace_type
  _atom_site_B_iso_or_equiv
  _atom_site_type_symbol
  O1       1.0000 0.51095  0.51762  0.74442  Biso   1.000  O
  C1       1.0000 0.56139  0.55020  0.74144  Biso   1.000  C
  N1       1.0000 0.61761  0.51378  0.74262  Biso   1.000  N
  N2       1.0000 0.57151  0.62999  0.73553  Biso   1.000  N
  C2       1.0000 0.62542  0.43080  0.75389  Biso   1.000  C
  C3       1.0000 0.66884  0.56790  0.73654  Biso   1.000  C
  C4       1.0000 0.52430  0.68789  0.74685  Biso   1.000  C
  C5       1.0000 0.63646  0.64959  0.73323  Biso   1.000  C
  N3       1.0000 0.63761  0.38329  0.70478  Biso   1.000  N
  H1       1.0000 0.58832  0.41120  0.77190  Biso   1.000  H
  H2       1.0000 0.65932  0.42431  0.78003  Biso   1.000  H
  N4       1.0000 0.70025  0.56171  0.68312  Biso   1.000  N
  H3       1.0000 0.69762  0.56472  0.76813  Biso   1.000  H
  N5       1.0000 0.50610  0.73358  0.69803  Biso   1.000  N
  H4       1.0000 0.53931  0.72378  0.77551  Biso   1.000  H
  H5       1.0000 0.48822  0.66122  0.76172  Biso   1.000  H
  N6       1.0000 0.65674  0.67999  0.67985  Biso   1.000  N
  H6       1.0000 0.64870  0.68412  0.76419  Biso   1.000  H
  C6       1.0000 0.59502  0.32999  0.68484  Biso   1.000  C
  C7       1.0000 0.69993  0.36841  0.68442  Biso   1.000  C
  C8       1.0000 0.74861  0.50410  0.67218  Biso   1.000  C
  C9       1.0000 0.69572  0.62911  0.65195  Biso   1.000  C
  C10      1.0000 0.44540  0.73812  0.68270  Biso   1.000  C
  C11      1.0000 0.54010  0.80387  0.68040  Biso   1.000  C
  C12      1.0000 0.65253  0.76332  0.66552  Biso   1.000  C
  N7       1.0000 0.62412  0.28212  0.64675  Biso   1.000  N
  O2       1.0000 0.54097  0.32645  0.69925  Biso   1.000  O
  C13      1.0000 0.68953  0.29959  0.64202  Biso   1.000  C
  N8       1.0000 0.72579  0.43062  0.64989  Biso   1.000  N
  H7       1.0000 0.72801  0.35318  0.71479  Biso   1.000  H
  H8       1.0000 0.77790  0.52659  0.64591  Biso   1.000  H
  H9       1.0000 0.77060  0.49360  0.70679  Biso   1.000  H
  O3       1.0000 0.72201  0.64257  0.60808  Biso   1.000  O
  N9       1.0000 0.43833  0.80068  0.64683  Biso   1.000  N
  O4       1.0000 0.40424  0.69368  0.69900  Biso   1.000  O
  C14      1.0000 0.49469  0.84601  0.64026  Biso   1.000  C
  H10      1.0000 0.55151  0.83740  0.71232  Biso   1.000  H
  N10      1.0000 0.59271  0.78717  0.64453  Biso   1.000  N
  H11      1.0000 0.66209  0.79419  0.69862  Biso   1.000  H
  H12      1.0000 0.68348  0.77519  0.63741  Biso   1.000  H
  C15      1.0000 0.59858  0.20669  0.63079  Biso   1.000  C
  N11      1.0000 0.70727  0.33459  0.58843  Biso   1.000  N
  H13      1.0000 0.71499  0.25350  0.65111  Biso   1.000  H
  C16      1.0000 0.73041  0.40920  0.59480  Biso   1.000  C
  C17      1.0000 0.37939  0.82140  0.62241  Biso   1.000  C
  N12      1.0000 0.52434  0.83869  0.58583  Biso   1.000  N
  H14      1.0000 0.48868  0.90138  0.65073  Biso   1.000  H
  C18      1.0000 0.58319  0.80912  0.59023  Biso   1.000  C
  N13      1.0000 0.58874  0.19961  0.57112  Biso   1.000  N
  H15      1.0000 0.62639  0.16520  0.64290  Biso   1.000  H
  H16      1.0000 0.55950  0.19908  0.65002  Biso   1.000  H
  C19      1.0000 0.72358  0.28720  0.53966  Biso   1.000  C
  O5       1.0000 0.75323  0.45039  0.55755  Biso   1.000  O
  N14      1.0000 0.37352  0.79968  0.56387  Biso   1.000  N
  H17      1.0000 0.37338  0.87788  0.62593  Biso   1.000  H
  H18      1.0000 0.34691  0.79549  0.64352  Biso   1.000  H
  C20      1.0000 0.50559  0.88509  0.53727  Biso   1.000  C
  O6       1.0000 0.62140  0.80369  0.55235  Biso   1.000  O
  C21      1.0000 0.53349  0.17488  0.54980  Biso   1.000  C
  C22      1.0000 0.63964  0.18362  0.53333  Biso   1.000  C
  N15      1.0000 0.67059  0.25397  0.51154  Biso   1.000  N
  H19      1.0000 0.75069  0.24458  0.55139  Biso   1.000  H
  H20      1.0000 0.74630  0.31978  0.51343  Biso   1.000  H
  C23      1.0000 0.33241  0.74367  0.54624  Biso   1.000  C
  C24      1.0000 0.39297  0.85150  0.51900  Biso   1.000  C
  N16      1.0000 0.45783  0.84672  0.50471  Biso   1.000  N
  H21      1.0000 0.49062  0.93608  0.54980  Biso   1.000  H
  H22      1.0000 0.54130  0.89417  0.51351  Biso   1.000  H
  N17      1.0000 0.54217  0.15328  0.49533  Biso   1.000  N
  O7       1.0000 0.48425  0.17187  0.57590  Biso   1.000  O
  C25      1.0000 0.60703  0.14850  0.48100  Biso   1.000  C
  H23      1.0000 0.66921  0.14620  0.54971  Biso   1.000  H
  C26      1.0000 0.66759  0.25627  0.45381  Biso   1.000  C
  N18      1.0000 0.32941  0.74597  0.48846  Biso   1.000  N
  O8       1.0000 0.30229  0.69958  0.57632  Biso   1.000  O
  C27      1.0000 0.36036  0.81638  0.46667  Biso   1.000  C
  H24      1.0000 0.38022  0.90610  0.52591  Biso   1.000  H
  C28      1.0000 0.46651  0.82512  0.45025  Biso   1.000  C
  C29      1.0000 0.49441  0.11491  0.46277  Biso   1.000  C
  N19      1.0000 0.62648  0.20032  0.43613  Biso   1.000  N
  H25      1.0000 0.61978  0.09390  0.47413  Biso   1.000  H
  O9       1.0000 0.69771  0.30042  0.42368  Biso   1.000  O
  C30      1.0000 0.27642  0.71280  0.46038  Biso   1.000  C
  N20      1.0000 0.41126  0.80039  0.42888  Biso   1.000  N
  H26      1.0000 0.33079  0.85380  0.45029  Biso   1.000  H
  O10      1.0000 0.51575  0.82813  0.42414  Biso   1.000  O
  N21      1.0000 0.47566  0.16131  0.41421  Biso   1.000  N
  H27      1.0000 0.50938  0.06392  0.45020  Biso   1.000  H
  H28      1.0000 0.45870  0.10583  0.48649  Biso   1.000  H
  C31      1.0000 0.62061  0.17860  0.37763  Biso   1.000  C
  N22      1.0000 0.29273  0.66541  0.41157  Biso   1.000  N
  H29      1.0000 0.24931  0.75542  0.44861  Biso   1.000  H
  H30      1.0000 0.25370  0.68022  0.48661  Biso   1.000  H
  C32      1.0000 0.40142  0.79331  0.36925  Biso   1.000  C
  C33      1.0000 0.41681  0.19088  0.40981  Biso   1.000  C
  C34      1.0000 0.50531  0.15399  0.35979  Biso   1.000  C
  N23      1.0000 0.56167  0.19932  0.35321  Biso   1.000  N
  H31      1.0000 0.62662  0.12212  0.37411  Biso   1.000  H
  H32      1.0000 0.65309  0.20451  0.35652  Biso   1.000  H
  C35      1.0000 0.26959  0.59080  0.40520  Biso   1.000  C
  C36      1.0000 0.31047  0.70041  0.35798  Biso   1.000  C
  N24      1.0000 0.37588  0.71788  0.35329  Biso   1.000  N
  H33      1.0000 0.37361  0.83480  0.35710  Biso   1.000  H
  H34      1.0000 0.44050  0.80092  0.35002  Biso   1.000  H
  N25      1.0000 0.40729  0.21277  0.35551  Biso   1.000  N
  O11      1.0000 0.37860  0.19631  0.44765  Biso   1.000  O
  C37      1.0000 0.45990  0.19613  0.31960  Biso   1.000  C
  H35      1.0000 0.51132  0.09862  0.34931  Biso   1.000  H
  C38      1.0000 0.55460  0.26188  0.31734  Biso   1.000  C
  N26      1.0000 0.27421  0.56938  0.35015  Biso   1.000  N
  O12      1.0000 0.24677  0.54961  0.44249  Biso   1.000  O
  C39      1.0000 0.30007  0.63159  0.31562  Biso   1.000  C
  H36      1.0000 0.28501  0.74650  0.34889  Biso   1.000  H
  C40      1.0000 0.40498  0.67001  0.31521  Biso   1.000  C
  C41      1.0000 0.34747  0.23668  0.33448  Biso   1.000  C
  H37      1.0000 0.44849  0.16260  0.28772  Biso   1.000  H
  N27      1.0000 0.49390  0.26642  0.30197  Biso   1.000  N
  O13      1.0000 0.59576  0.30632  0.30100  Biso   1.000  O
  C42      1.0000 0.25139  0.49590  0.32782  Biso   1.000  C
  N28      1.0000 0.36239  0.61671  0.29522  Biso   1.000  N
  H38      1.0000 0.27199  0.64682  0.28521  Biso   1.000  H
  O14      1.0000 0.45903  0.67355  0.30075  Biso   1.000  O
  N29      1.0000 0.34326  0.32001  0.32019  Biso   1.000  N
  H39      1.0000 0.33791  0.20581  0.30142  Biso   1.000  H
  H40      1.0000 0.31652  0.22481  0.36259  Biso   1.000  H
  C43      1.0000 0.47570  0.31211  0.25315  Biso   1.000  C
  N30      1.0000 0.29975  0.43829  0.31688  Biso   1.000  N
  H41      1.0000 0.22210  0.47341  0.35409  Biso   1.000  H
  H42      1.0000 0.22940  0.50640  0.29321  Biso   1.000  H
  C44      1.0000 0.37458  0.56920  0.24611  Biso   1.000  C
  C45      1.0000 0.30428  0.37089  0.34805  Biso   1.000  C
  C46      1.0000 0.36354  0.35041  0.26681  Biso   1.000  C
  N31      1.0000 0.42849  0.37001  0.26451  Biso   1.000  N
  H43      1.0000 0.46069  0.27622  0.22449  Biso   1.000  H
  H44      1.0000 0.51178  0.33878  0.23832  Biso   1.000  H
  C47      1.0000 0.33116  0.43210  0.26350  Biso   1.000  C
  N32      1.0000 0.38239  0.48622  0.25738  Biso   1.000  N
  H45      1.0000 0.41168  0.58880  0.22810  Biso   1.000  H
  H46      1.0000 0.34068  0.57569  0.22001  Biso   1.000  H
  O15      1.0000 0.27799  0.35743  0.39192  Biso   1.000  O
  H47      1.0000 0.35130  0.31588  0.23581  Biso   1.000  H
  C48      1.0000 0.43861  0.44980  0.25860  Biso   1.000  C
  H48      1.0000 0.30238  0.43528  0.23191  Biso   1.000  H
  O16      1.0000 0.48905  0.48232  0.25562  Biso   1.000  O
  C49      1.0000 0.50531  0.34598  0.85976  Biso   1.000  C
  C50      1.0000 0.45990  0.30390  0.81958  Biso   1.000  C
  C51      1.0000 0.45990  0.30390  0.81963  Biso   1.000  C
  N33      1.0000 0.47566  0.33872  0.91419  Biso   1.000  N
  N34      1.0000 0.47566  0.33866  0.91419  Biso   1.000  N
  N35      1.0000 0.56167  0.30071  0.85319  Biso   1.000  N
  H49      1.0000 0.51132  0.40140  0.84929  Biso   1.000  H
  H50      1.0000 0.51132  0.40140  0.84933  Biso   1.000  H
  N36      1.0000 0.40729  0.28720  0.85549  Biso   1.000  N
  N37      1.0000 0.40729  0.28720  0.85553  Biso   1.000  N
  N38      1.0000 0.49390  0.23361  0.80199  Biso   1.000  N
  H51      1.0000 0.44849  0.33743  0.78770  Biso   1.000  H
  H52      1.0000 0.44849  0.33737  0.78770  Biso   1.000  H
  C52      1.0000 0.41681  0.30910  0.90979  Biso   1.000  C
  C53      1.0000 0.49441  0.38511  0.96275  Biso   1.000  C
  C54      1.0000 0.49441  0.38511  0.96279  Biso   1.000  C
  C55      1.0000 0.55460  0.23809  0.81732  Biso   1.000  C
  C56      1.0000 0.55460  0.23809  0.81736  Biso   1.000  C
  C57      1.0000 0.62061  0.32137  0.87761  Biso   1.000  C
  C58      1.0000 0.62061  0.32137  0.87766  Biso   1.000  C
  C59      1.0000 0.34747  0.26329  0.83446  Biso   1.000  C
  C60      1.0000 0.34747  0.26329  0.83450  Biso   1.000  C
  C61      1.0000 0.47570  0.18792  0.75317  Biso   1.000  C
  C62      1.0000 0.47570  0.18787  0.75317  Biso   1.000  C
  O17      1.0000 0.37860  0.30367  0.94767  Biso   1.000  O
  H53      1.0000 0.50938  0.43611  0.95018  Biso   1.000  H
  H54      1.0000 0.45870  0.39420  0.98651  Biso   1.000  H
  N39      1.0000 0.54217  0.34669  0.99531  Biso   1.000  N
  H55      1.0000 0.50938  0.43611  0.95022  Biso   1.000  H
  O18      1.0000 0.59576  0.19371  0.80098  Biso   1.000  O
  O19      1.0000 0.59576  0.19371  0.80102  Biso   1.000  O
  H56      1.0000 0.62662  0.37791  0.87409  Biso   1.000  H
  H57      1.0000 0.65309  0.29552  0.85650  Biso   1.000  H
  N40      1.0000 0.62648  0.29971  0.93615  Biso   1.000  N
  N41      1.0000 0.34326  0.18002  0.82017  Biso   1.000  N
  N42      1.0000 0.34326  0.18002  0.82021  Biso   1.000  N
  H58      1.0000 0.33791  0.29422  0.80140  Biso   1.000  H
  H59      1.0000 0.31652  0.27522  0.86261  Biso   1.000  H
  N43      1.0000 0.42849  0.13002  0.76449  Biso   1.000  N
  N44      1.0000 0.42849  0.12997  0.76449  Biso   1.000  N
  H60      1.0000 0.46069  0.22381  0.72452  Biso   1.000  H
  H61      1.0000 0.51178  0.16119  0.73830  Biso   1.000  H
  C63      1.0000 0.60703  0.35147  0.98098  Biso   1.000  C
  C64      1.0000 0.60703  0.35147  0.98102  Biso   1.000  C
  C65      1.0000 0.53349  0.32509  0.04978  Biso   1.000  C
  C66      1.0000 0.53349  0.32509  0.04982  Biso   1.000  C
  C67      1.0000 0.66759  0.24370  0.95379  Biso   1.000  C
  C68      1.0000 0.36354  0.14962  0.76679  Biso   1.000  C
  C69      1.0000 0.36354  0.14962  0.76683  Biso   1.000  C
  C70      1.0000 0.30428  0.12908  0.84803  Biso   1.000  C
  C71      1.0000 0.30428  0.12908  0.84807  Biso   1.000  C
  C72      1.0000 0.43861  0.05023  0.75858  Biso   1.000  C
  C73      1.0000 0.43861  0.05023  0.75862  Biso   1.000  C
  C74      1.0000 0.43861  0.05017  0.75858  Biso   1.000  C
  C75      1.0000 0.43861  0.05017  0.75862  Biso   1.000  C
  H62      1.0000 0.61978  0.40613  0.97411  Biso   1.000  H
  H63      1.0000 0.61978  0.40607  0.97411  Biso   1.000  H
  C76      1.0000 0.63964  0.31641  0.03335  Biso   1.000  C
  N45      1.0000 0.58874  0.30042  0.07110  Biso   1.000  N
  O20      1.0000 0.48425  0.32810  0.07588  Biso   1.000  O
  N46      1.0000 0.58874  0.30042  0.07114  Biso   1.000  N
  O21      1.0000 0.69771  0.19961  0.92366  Biso   1.000  O
  O22      1.0000 0.69771  0.19961  0.92370  Biso   1.000  O
  N47      1.0000 0.67059  0.24600  0.01156  Biso   1.000  N
  H64      1.0000 0.35130  0.18409  0.73579  Biso   1.000  H
  C77      1.0000 0.33116  0.06787  0.76348  Biso   1.000  C
  H65      1.0000 0.35130  0.18409  0.73583  Biso   1.000  H
  N48      1.0000 0.29975  0.06168  0.81686  Biso   1.000  N
  N49      1.0000 0.29975  0.06168  0.81690  Biso   1.000  N
  O23      1.0000 0.27799  0.14260  0.89194  Biso   1.000  O
  O24      1.0000 0.27799  0.14254  0.89194  Biso   1.000  O
  N50      1.0000 0.38239  0.01381  0.75736  Biso   1.000  N
  N51      1.0000 0.38239  0.01381  0.75741  Biso   1.000  N
  O25      1.0000 0.48905  0.01765  0.75560  Biso   1.000  O
  H66      1.0000 0.66921  0.35377  0.04969  Biso   1.000  H
  H67      1.0000 0.66921  0.35377  0.04973  Biso   1.000  H
  C78      1.0000 0.59858  0.29328  0.13077  Biso   1.000  C
  C79      1.0000 0.59858  0.29328  0.13081  Biso   1.000  C
  C80      1.0000 0.72358  0.21277  0.03964  Biso   1.000  C
  C81      1.0000 0.72358  0.21277  0.03968  Biso   1.000  C
  H68      1.0000 0.30238  0.06469  0.73189  Biso   1.000  H
  H69      1.0000 0.30238  0.06469  0.73193  Biso   1.000  H
  C82      1.0000 0.25139  0.00407  0.82780  Biso   1.000  C
  C83      1.0000 0.25139  0.00407  0.82784  Biso   1.000  C
  C84      1.0000 0.37458  0.93083  0.74613  Biso   1.000  C
  C85      1.0000 0.37458  0.93077  0.74613  Biso   1.000  C
  H70      1.0000 0.62639  0.33477  0.14292  Biso   1.000  H
  H71      1.0000 0.55950  0.30089  0.15000  Biso   1.000  H
  N52      1.0000 0.62412  0.21791  0.14673  Biso   1.000  N
  H72      1.0000 0.55950  0.30089  0.15004  Biso   1.000  H
  H73      1.0000 0.75069  0.25539  0.05141  Biso   1.000  H
  H74      1.0000 0.74630  0.18019  0.01341  Biso   1.000  H
  N53      1.0000 0.70727  0.16538  0.08845  Biso   1.000  N
  H75      1.0000 0.22210  0.02662  0.85411  Biso   1.000  H
  H76      1.0000 0.22940  0.99363  0.79319  Biso   1.000  H
  N54      1.0000 0.27421  0.93059  0.85013  Biso   1.000  N
  H77      1.0000 0.22940  0.99363  0.79323  Biso   1.000  H
  H78      1.0000 0.22940  0.99357  0.79319  Biso   1.000  H
  H79      1.0000 0.22940  0.99357  0.79323  Biso   1.000  H
  H80      1.0000 0.41168  0.91117  0.72808  Biso   1.000  H
  H81      1.0000 0.34068  0.92428  0.71999  Biso   1.000  H
  N55      1.0000 0.36239  0.88331  0.79520  Biso   1.000  N
  H82      1.0000 0.41168  0.91117  0.72812  Biso   1.000  H
  H83      1.0000 0.34068  0.92428  0.72003  Biso   1.000  H
  N56      1.0000 0.36239  0.88331  0.79524  Biso   1.000  N
  C86      1.0000 0.68953  0.20038  0.14200  Biso   1.000  C
  C87      1.0000 0.59502  0.16998  0.18482  Biso   1.000  C
  C88      1.0000 0.68953  0.20038  0.14204  Biso   1.000  C
  C89      1.0000 0.73041  0.09077  0.09478  Biso   1.000  C
  C90      1.0000 0.73041  0.09077  0.09482  Biso   1.000  C
  C91      1.0000 0.26959  0.90923  0.90522  Biso   1.000  C
  C92      1.0000 0.30007  0.86838  0.81560  Biso   1.000  C
  C93      1.0000 0.26959  0.90917  0.90522  Biso   1.000  C
  C94      1.0000 0.40498  0.83002  0.81518  Biso   1.000  C
  H84      1.0000 0.71499  0.24647  0.15109  Biso   1.000  H
  C95      1.0000 0.69993  0.13162  0.18440  Biso   1.000  C
  H85      1.0000 0.71499  0.24647  0.15113  Biso   1.000  H
  C96      1.0000 0.69993  0.13162  0.18444  Biso   1.000  C
  N57      1.0000 0.63761  0.11669  0.20480  Biso   1.000  N
  O26      1.0000 0.54097  0.17352  0.19923  Biso   1.000  O
  O27      1.0000 0.54097  0.17352  0.19927  Biso   1.000  O
  N58      1.0000 0.72579  0.06941  0.14987  Biso   1.000  N
  O28      1.0000 0.75323  0.04958  0.05753  Biso   1.000  O
  N59      1.0000 0.29273  0.83462  0.91155  Biso   1.000  N
  O29      1.0000 0.24677  0.95042  0.94247  Biso   1.000  O
  N60      1.0000 0.29273  0.83462  0.91159  Biso   1.000  N
  O30      1.0000 0.24677  0.95042  0.94251  Biso   1.000  O
  H86      1.0000 0.27199  0.85321  0.78518  Biso   1.000  H
  C97      1.0000 0.31047  0.79962  0.85800  Biso   1.000  C
  H87      1.0000 0.27199  0.85321  0.78523  Biso   1.000  H
  O31      1.0000 0.45903  0.82648  0.80077  Biso   1.000  O
  N61      1.0000 0.37588  0.78209  0.85327  Biso   1.000  N
  H88      1.0000 0.72801  0.14679  0.21482  Biso   1.000  H
  C98      1.0000 0.62542  0.06917  0.25387  Biso   1.000  C
  C99      1.0000 0.62542  0.06917  0.25391  Biso   1.000  C
  C100     1.0000 0.74861  0.99593  0.17220  Biso   1.000  C
  C101     1.0000 0.74861  0.99587  0.17220  Biso   1.000  C
  C102     1.0000 0.27642  0.78723  0.96036  Biso   1.000  C
  C103     1.0000 0.27642  0.78717  0.96036  Biso   1.000  C
  H89      1.0000 0.28501  0.75353  0.84891  Biso   1.000  H
  H90      1.0000 0.28501  0.75347  0.84891  Biso   1.000  H
  C104     1.0000 0.40142  0.70672  0.86923  Biso   1.000  C
  N62      1.0000 0.61761  0.98619  0.24264  Biso   1.000  N
  H91      1.0000 0.58832  0.08883  0.27192  Biso   1.000  H
  H92      1.0000 0.65932  0.07572  0.28001  Biso   1.000  H
  H93      1.0000 0.58832  0.08877  0.27192  Biso   1.000  H
  H94      1.0000 0.65932  0.07567  0.28001  Biso   1.000  H
  H95      1.0000 0.77790  0.97338  0.14589  Biso   1.000  H
  N63      1.0000 0.70025  0.93832  0.18314  Biso   1.000  N
  H96      1.0000 0.77790  0.97338  0.14593  Biso   1.000  H
  H97      1.0000 0.77060  0.00637  0.20681  Biso   1.000  H
  H98      1.0000 0.24931  0.74461  0.94859  Biso   1.000  H
  H99      1.0000 0.25370  0.81981  0.98659  Biso   1.000  H
  N64      1.0000 0.32941  0.75400  0.98844  Biso   1.000  N
  H100     1.0000 0.24931  0.74461  0.94863  Biso   1.000  H
  H101     1.0000 0.25370  0.81981  0.98663  Biso   1.000  H
  N65      1.0000 0.32941  0.75400  0.98848  Biso   1.000  N
  H102     1.0000 0.37361  0.66523  0.85708  Biso   1.000  H
  H103     1.0000 0.44050  0.69911  0.85000  Biso   1.000  H
  N66      1.0000 0.41126  0.69958  0.92890  Biso   1.000  N
  H104     1.0000 0.37361  0.66523  0.85712  Biso   1.000  H
  H105     1.0000 0.37361  0.66517  0.85708  Biso   1.000  H
  H106     1.0000 0.37361  0.66517  0.85712  Biso   1.000  H
  C105     1.0000 0.66884  0.93213  0.23652  Biso   1.000  C
  C106     1.0000 0.56139  0.94977  0.24142  Biso   1.000  C
  C107     1.0000 0.66884  0.93213  0.23656  Biso   1.000  C
  C108     1.0000 0.66884  0.93207  0.23652  Biso   1.000  C
  C109     1.0000 0.66884  0.93207  0.23656  Biso   1.000  C
  C110     1.0000 0.69572  0.87092  0.15197  Biso   1.000  C
  C111     1.0000 0.36036  0.68359  0.96665  Biso   1.000  C
  C112     1.0000 0.36036  0.68359  0.96669  Biso   1.000  C
  C113     1.0000 0.33241  0.75630  0.04621  Biso   1.000  C
  C114     1.0000 0.33241  0.75630  0.04626  Biso   1.000  C
  C115     1.0000 0.46651  0.67491  0.95022  Biso   1.000  C
  C116     1.0000 0.63646  0.85038  0.23321  Biso   1.000  C
  H107     1.0000 0.69762  0.93531  0.26811  Biso   1.000  H
  N67      1.0000 0.57151  0.86998  0.23551  Biso   1.000  N
  O32      1.0000 0.51095  0.98235  0.24440  Biso   1.000  O
  O33      1.0000 0.51095  0.98235  0.24444  Biso   1.000  O
  N68      1.0000 0.65674  0.81998  0.17983  Biso   1.000  N
  O34      1.0000 0.72201  0.85740  0.10806  Biso   1.000  O
  O35      1.0000 0.72201  0.85740  0.10810  Biso   1.000  O
  H108     1.0000 0.33079  0.64623  0.95031  Biso   1.000  H
  C117     1.0000 0.39297  0.64853  0.01902  Biso   1.000  C
  C118     1.0000 0.39297  0.64847  0.01902  Biso   1.000  C
  N69      1.0000 0.37352  0.70029  0.06385  Biso   1.000  N
  O36      1.0000 0.30229  0.80039  0.07634  Biso   1.000  O
  N70      1.0000 0.37352  0.70029  0.06390  Biso   1.000  N
  O37      1.0000 0.51575  0.67190  0.92412  Biso   1.000  O
  N71      1.0000 0.45783  0.65331  0.00469  Biso   1.000  N
  H109     1.0000 0.64870  0.81591  0.26421  Biso   1.000  H
  C119     1.0000 0.52430  0.81208  0.24683  Biso   1.000  C
  C120     1.0000 0.52430  0.81208  0.24687  Biso   1.000  C
  C121     1.0000 0.65253  0.73671  0.16554  Biso   1.000  C
  H110     1.0000 0.38022  0.59387  0.02589  Biso   1.000  H
  H111     1.0000 0.38022  0.59387  0.02594  Biso   1.000  H
  C122     1.0000 0.37939  0.67863  0.12239  Biso   1.000  C
  C123     1.0000 0.37939  0.67857  0.12239  Biso   1.000  C
  C124     1.0000 0.50559  0.61489  0.03725  Biso   1.000  C
  N72      1.0000 0.50610  0.76639  0.19801  Biso   1.000  N
  N73      1.0000 0.50610  0.76639  0.19806  Biso   1.000  N
  H112     1.0000 0.53931  0.77619  0.27548  Biso   1.000  H
  H113     1.0000 0.48822  0.83881  0.26170  Biso   1.000  H
  H114     1.0000 0.53931  0.77619  0.27553  Biso   1.000  H
  N74      1.0000 0.59271  0.71280  0.14451  Biso   1.000  N
  H115     1.0000 0.66209  0.70578  0.19860  Biso   1.000  H
  H116     1.0000 0.68348  0.72478  0.13739  Biso   1.000  H
  H117     1.0000 0.68348  0.72478  0.13743  Biso   1.000  H
  H118     1.0000 0.37338  0.62209  0.12591  Biso   1.000  H
  H119     1.0000 0.34691  0.70448  0.14350  Biso   1.000  H
  N75      1.0000 0.43833  0.69929  0.14681  Biso   1.000  N
  H120     1.0000 0.49062  0.56389  0.04982  Biso   1.000  H
  H121     1.0000 0.54130  0.60580  0.01349  Biso   1.000  H
  N76      1.0000 0.52434  0.66128  0.08581  Biso   1.000  N
  H122     1.0000 0.54130  0.60580  0.01353  Biso   1.000  H
  C125     1.0000 0.44540  0.76191  0.18268  Biso   1.000  C
  C126     1.0000 0.54010  0.69610  0.18042  Biso   1.000  C
  C127     1.0000 0.58319  0.69090  0.09021  Biso   1.000  C
  C128     1.0000 0.49469  0.65402  0.14024  Biso   1.000  C
  C129     1.0000 0.49469  0.65402  0.14028  Biso   1.000  C
  O38      1.0000 0.40424  0.80629  0.19902  Biso   1.000  O
  H123     1.0000 0.55151  0.66257  0.21230  Biso   1.000  H
  O39      1.0000 0.62140  0.69633  0.05233  Biso   1.000  O
  O40      1.0000 0.62140  0.69633  0.05237  Biso   1.000  O
  H124     1.0000 0.48868  0.59860  0.15071  Biso   1.000  H
  C130     1.0000 0.50531  0.34598  0.85976  Biso   1.000  C
  C131     1.0000 0.45990  0.30390  0.81958  Biso   1.000  C
  C132     1.0000 0.45990  0.30390  0.81963  Biso   1.000  C
  N77      1.0000 0.56167  0.30071  0.85319  Biso   1.000  N
  N78      1.0000 0.47566  0.33872  0.91419  Biso   1.000  N
  N79      1.0000 0.47566  0.33866  0.91419  Biso   1.000  N
  H125     1.0000 0.51132  0.40140  0.84929  Biso   1.000  H
  H126     1.0000 0.51132  0.40140  0.84933  Biso   1.000  H
  N80      1.0000 0.49390  0.23361  0.80199  Biso   1.000  N
  N81      1.0000 0.40729  0.28720  0.85549  Biso   1.000  N
  N82      1.0000 0.40729  0.28720  0.85553  Biso   1.000  N
  H127     1.0000 0.44849  0.33743  0.78770  Biso   1.000  H
  H128     1.0000 0.44849  0.33737  0.78770  Biso   1.000  H
  C133     1.0000 0.55460  0.23809  0.81732  Biso   1.000  C
  C134     1.0000 0.55460  0.23809  0.81736  Biso   1.000  C
  C135     1.0000 0.62061  0.32137  0.87761  Biso   1.000  C
  C136     1.0000 0.62061  0.32137  0.87766  Biso   1.000  C
  C137     1.0000 0.41681  0.30910  0.90979  Biso   1.000  C
  C138     1.0000 0.49441  0.38511  0.96275  Biso   1.000  C
  C139     1.0000 0.49441  0.38511  0.96279  Biso   1.000  C
  C140     1.0000 0.47570  0.18792  0.75317  Biso   1.000  C
  C141     1.0000 0.47570  0.18787  0.75317  Biso   1.000  C
  C142     1.0000 0.34747  0.26329  0.83446  Biso   1.000  C
  C143     1.0000 0.34747  0.26329  0.83450  Biso   1.000  C
  O41      1.0000 0.59576  0.19371  0.80098  Biso   1.000  O
  O42      1.0000 0.59576  0.19371  0.80102  Biso   1.000  O
  H129     1.0000 0.62662  0.37791  0.87409  Biso   1.000  H
  H130     1.0000 0.65309  0.29552  0.85650  Biso   1.000  H
  N83      1.0000 0.62648  0.29971  0.93615  Biso   1.000  N
  O43      1.0000 0.37860  0.30367  0.94767  Biso   1.000  O
  H131     1.0000 0.45870  0.39420  0.98651  Biso   1.000  H
  N84      1.0000 0.54217  0.34669  0.99531  Biso   1.000  N
  H132     1.0000 0.50938  0.43611  0.95018  Biso   1.000  H
  H133     1.0000 0.50938  0.43611  0.95022  Biso   1.000  H
  N85      1.0000 0.42849  0.13002  0.76449  Biso   1.000  N
  N86      1.0000 0.42849  0.12997  0.76449  Biso   1.000  N
  H134     1.0000 0.46069  0.22381  0.72452  Biso   1.000  H
  H135     1.0000 0.51178  0.16119  0.73830  Biso   1.000  H
  N87      1.0000 0.34326  0.18002  0.82017  Biso   1.000  N
  N88      1.0000 0.34326  0.18002  0.82021  Biso   1.000  N
  H136     1.0000 0.33791  0.29422  0.80140  Biso   1.000  H
  H137     1.0000 0.31652  0.27522  0.86261  Biso   1.000  H
  C144     1.0000 0.66759  0.24370  0.95379  Biso   1.000  C
  C145     1.0000 0.60703  0.35147  0.98098  Biso   1.000  C
  C146     1.0000 0.60703  0.35147  0.98102  Biso   1.000  C
  C147     1.0000 0.53349  0.32509  0.04978  Biso   1.000  C
  C148     1.0000 0.53349  0.32509  0.04982  Biso   1.000  C
  C149     1.0000 0.36354  0.14962  0.76679  Biso   1.000  C
  C150     1.0000 0.36354  0.14962  0.76683  Biso   1.000  C
  C151     1.0000 0.43861  0.05023  0.75858  Biso   1.000  C
  C152     1.0000 0.43861  0.05023  0.75862  Biso   1.000  C
  C153     1.0000 0.43861  0.05017  0.75858  Biso   1.000  C
  C154     1.0000 0.43861  0.05017  0.75862  Biso   1.000  C
  C155     1.0000 0.30428  0.12908  0.84803  Biso   1.000  C
  C156     1.0000 0.30428  0.12908  0.84807  Biso   1.000  C
  O44      1.0000 0.69771  0.19961  0.92366  Biso   1.000  O
  O45      1.0000 0.69771  0.19961  0.92370  Biso   1.000  O
  N89      1.0000 0.67059  0.24600  0.01156  Biso   1.000  N
  H138     1.0000 0.61978  0.40613  0.97411  Biso   1.000  H
  H139     1.0000 0.61978  0.40607  0.97411  Biso   1.000  H
  C157     1.0000 0.63964  0.31641  0.03335  Biso   1.000  C
  N90      1.0000 0.58874  0.30042  0.07110  Biso   1.000  N
  O46      1.0000 0.48425  0.32810  0.07588  Biso   1.000  O
  N91      1.0000 0.58874  0.30042  0.07114  Biso   1.000  N
  C158     1.0000 0.33116  0.06787  0.76348  Biso   1.000  C
  H140     1.0000 0.35130  0.18409  0.73579  Biso   1.000  H
  H141     1.0000 0.35130  0.18409  0.73583  Biso   1.000  H
  N92      1.0000 0.38239  0.01381  0.75736  Biso   1.000  N
  N93      1.0000 0.38239  0.01381  0.75741  Biso   1.000  N
  O47      1.0000 0.48905  0.01765  0.75560  Biso   1.000  O
  N94      1.0000 0.29975  0.06168  0.81686  Biso   1.000  N
  N95      1.0000 0.29975  0.06168  0.81690  Biso   1.000  N
  O48      1.0000 0.27799  0.14260  0.89194  Biso   1.000  O
  O49      1.0000 0.27799  0.14254  0.89194  Biso   1.000  O
  C159     1.0000 0.72358  0.21277  0.03964  Biso   1.000  C
  C160     1.0000 0.72358  0.21277  0.03968  Biso   1.000  C
  H142     1.0000 0.66921  0.35377  0.04969  Biso   1.000  H
  H143     1.0000 0.66921  0.35377  0.04973  Biso   1.000  H
  C161     1.0000 0.59858  0.29328  0.13077  Biso   1.000  C
  C162     1.0000 0.59858  0.29328  0.13081  Biso   1.000  C
  H144     1.0000 0.30238  0.06469  0.73189  Biso   1.000  H
  H145     1.0000 0.30238  0.06469  0.73193  Biso   1.000  H
  C163     1.0000 0.37458  0.93083  0.74613  Biso   1.000  C
  C164     1.0000 0.37458  0.93077  0.74613  Biso   1.000  C
  C165     1.0000 0.25139  0.00407  0.82780  Biso   1.000  C
  C166     1.0000 0.25139  0.00407  0.82784  Biso   1.000  C
  H146     1.0000 0.75069  0.25539  0.05141  Biso   1.000  H
  H147     1.0000 0.74630  0.18019  0.01341  Biso   1.000  H
  N96      1.0000 0.70727  0.16538  0.08845  Biso   1.000  N
  H148     1.0000 0.62639  0.33477  0.14292  Biso   1.000  H
  H149     1.0000 0.55950  0.30089  0.15000  Biso   1.000  H
  N97      1.0000 0.62412  0.21791  0.14673  Biso   1.000  N
  H150     1.0000 0.55950  0.30089  0.15004  Biso   1.000  H
  H151     1.0000 0.41168  0.91117  0.72808  Biso   1.000  H
  H152     1.0000 0.34068  0.92428  0.71999  Biso   1.000  H
  N98      1.0000 0.36239  0.88331  0.79520  Biso   1.000  N
  H153     1.0000 0.41168  0.91117  0.72812  Biso   1.000  H
  H154     1.0000 0.34068  0.92428  0.72003  Biso   1.000  H
  N99      1.0000 0.36239  0.88331  0.79524  Biso   1.000  N
  H155     1.0000 0.22210  0.02662  0.85411  Biso   1.000  H
  H156     1.0000 0.22940  0.99363  0.79319  Biso   1.000  H
  N100     1.0000 0.27421  0.93059  0.85013  Biso   1.000  N
  H157     1.0000 0.22940  0.99363  0.79323  Biso   1.000  H
  H158     1.0000 0.22940  0.99357  0.79319  Biso   1.000  H
  H159     1.0000 0.22940  0.99357  0.79323  Biso   1.000  H
  C167     1.0000 0.68953  0.20038  0.14200  Biso   1.000  C
  C168     1.0000 0.73041  0.09077  0.09478  Biso   1.000  C
  C169     1.0000 0.68953  0.20038  0.14204  Biso   1.000  C
  C170     1.0000 0.73041  0.09077  0.09482  Biso   1.000  C
  C171     1.0000 0.59502  0.16998  0.18482  Biso   1.000  C
  C172     1.0000 0.30007  0.86838  0.81560  Biso   1.000  C
  C173     1.0000 0.40498  0.83002  0.81518  Biso   1.000  C
  C174     1.0000 0.26959  0.90923  0.90522  Biso   1.000  C
  C175     1.0000 0.26959  0.90917  0.90522  Biso   1.000  C
  H160     1.0000 0.71499  0.24647  0.15109  Biso   1.000  H
  C176     1.0000 0.69993  0.13162  0.18440  Biso   1.000  C
  H161     1.0000 0.71499  0.24647  0.15113  Biso   1.000  H
  C177     1.0000 0.69993  0.13162  0.18444  Biso   1.000  C
  N101     1.0000 0.72579  0.06941  0.14987  Biso   1.000  N
  O50      1.0000 0.75323  0.04958  0.05753  Biso   1.000  O
  N102     1.0000 0.63761  0.11669  0.20480  Biso   1.000  N
  O51      1.0000 0.54097  0.17352  0.19923  Biso   1.000  O
  O52      1.0000 0.54097  0.17352  0.19927  Biso   1.000  O
  H162     1.0000 0.27199  0.85321  0.78518  Biso   1.000  H
  C178     1.0000 0.31047  0.79962  0.85800  Biso   1.000  C
  H163     1.0000 0.27199  0.85321  0.78523  Biso   1.000  H
  O53      1.0000 0.45903  0.82648  0.80077  Biso   1.000  O
  N103     1.0000 0.37588  0.78209  0.85327  Biso   1.000  N
  N104     1.0000 0.29273  0.83462  0.91155  Biso   1.000  N
  O54      1.0000 0.24677  0.95042  0.94247  Biso   1.000  O
  N105     1.0000 0.29273  0.83462  0.91159  Biso   1.000  N
  O55      1.0000 0.24677  0.95042  0.94251  Biso   1.000  O
  H164     1.0000 0.72801  0.14679  0.21482  Biso   1.000  H
  C179     1.0000 0.74861  0.99593  0.17220  Biso   1.000  C
  C180     1.0000 0.74861  0.99587  0.17220  Biso   1.000  C
  C181     1.0000 0.62542  0.06917  0.25387  Biso   1.000  C
  C182     1.0000 0.62542  0.06917  0.25391  Biso   1.000  C
  H165     1.0000 0.28501  0.75353  0.84891  Biso   1.000  H
  H166     1.0000 0.28501  0.75347  0.84891  Biso   1.000  H
  C183     1.0000 0.40142  0.70672  0.86923  Biso   1.000  C
  C184     1.0000 0.27642  0.78723  0.96036  Biso   1.000  C
  C185     1.0000 0.27642  0.78717  0.96036  Biso   1.000  C
  H167     1.0000 0.77790  0.97338  0.14589  Biso   1.000  H
  N106     1.0000 0.70025  0.93832  0.18314  Biso   1.000  N
  H168     1.0000 0.77790  0.97338  0.14593  Biso   1.000  H
  H169     1.0000 0.77060  0.00637  0.20681  Biso   1.000  H
  N107     1.0000 0.61761  0.98619  0.24264  Biso   1.000  N
  H170     1.0000 0.58832  0.08883  0.27192  Biso   1.000  H
  H171     1.0000 0.65932  0.07572  0.28001  Biso   1.000  H
  H172     1.0000 0.58832  0.08877  0.27192  Biso   1.000  H
  H173     1.0000 0.65932  0.07567  0.28001  Biso   1.000  H
  H174     1.0000 0.37361  0.66523  0.85708  Biso   1.000  H
  H175     1.0000 0.44050  0.69911  0.85000  Biso   1.000  H
  N108     1.0000 0.41126  0.69958  0.92890  Biso   1.000  N
  H176     1.0000 0.37361  0.66523  0.85712  Biso   1.000  H
  H177     1.0000 0.37361  0.66517  0.85708  Biso   1.000  H
  H178     1.0000 0.37361  0.66517  0.85712  Biso   1.000  H
  H179     1.0000 0.24931  0.74461  0.94859  Biso   1.000  H
  H180     1.0000 0.25370  0.81981  0.98659  Biso   1.000  H
  N109     1.0000 0.32941  0.75400  0.98844  Biso   1.000  N
  H181     1.0000 0.24931  0.74461  0.94863  Biso   1.000  H
  H182     1.0000 0.25370  0.81981  0.98663  Biso   1.000  H
  N110     1.0000 0.32941  0.75400  0.98848  Biso   1.000  N
  C186     1.0000 0.69572  0.87092  0.15197  Biso   1.000  C
  C187     1.0000 0.66884  0.93213  0.23652  Biso   1.000  C
  C188     1.0000 0.66884  0.93213  0.23656  Biso   1.000  C
  C189     1.0000 0.66884  0.93207  0.23652  Biso   1.000  C
  C190     1.0000 0.66884  0.93207  0.23656  Biso   1.000  C
  C191     1.0000 0.56139  0.94977  0.24142  Biso   1.000  C
  C192     1.0000 0.36036  0.68359  0.96665  Biso   1.000  C
  C193     1.0000 0.36036  0.68359  0.96669  Biso   1.000  C
  C194     1.0000 0.46651  0.67491  0.95022  Biso   1.000  C
  C195     1.0000 0.33241  0.75630  0.04621  Biso   1.000  C
  C196     1.0000 0.33241  0.75630  0.04626  Biso   1.000  C
  N111     1.0000 0.65674  0.81998  0.17983  Biso   1.000  N
  O56      1.0000 0.72201  0.85740  0.10806  Biso   1.000  O
  O57      1.0000 0.72201  0.85740  0.10810  Biso   1.000  O
  C197     1.0000 0.63646  0.85038  0.23321  Biso   1.000  C
  H183     1.0000 0.69762  0.93531  0.26811  Biso   1.000  H
  N112     1.0000 0.57151  0.86998  0.23551  Biso   1.000  N
  O58      1.0000 0.51095  0.98235  0.24440  Biso   1.000  O
  O59      1.0000 0.51095  0.98235  0.24444  Biso   1.000  O
  H184     1.0000 0.33079  0.64623  0.95031  Biso   1.000  H
  C198     1.0000 0.39297  0.64853  0.01902  Biso   1.000  C
  C199     1.0000 0.39297  0.64847  0.01902  Biso   1.000  C
  O60      1.0000 0.51575  0.67190  0.92412  Biso   1.000  O
  N113     1.0000 0.45783  0.65331  0.00469  Biso   1.000  N
  N114     1.0000 0.37352  0.70029  0.06385  Biso   1.000  N
  O61      1.0000 0.30229  0.80039  0.07634  Biso   1.000  O
  N115     1.0000 0.37352  0.70029  0.06390  Biso   1.000  N
  C200     1.0000 0.65253  0.73671  0.16554  Biso   1.000  C
  H185     1.0000 0.64870  0.81591  0.26421  Biso   1.000  H
  C201     1.0000 0.52430  0.81208  0.24683  Biso   1.000  C
  C202     1.0000 0.52430  0.81208  0.24687  Biso   1.000  C
  H186     1.0000 0.38022  0.59387  0.02589  Biso   1.000  H
  H187     1.0000 0.38022  0.59387  0.02594  Biso   1.000  H
  C203     1.0000 0.50559  0.61489  0.03725  Biso   1.000  C
  C204     1.0000 0.37939  0.67863  0.12239  Biso   1.000  C
  C205     1.0000 0.37939  0.67857  0.12239  Biso   1.000  C
  N116     1.0000 0.59271  0.71280  0.14451  Biso   1.000  N
  H188     1.0000 0.66209  0.70578  0.19860  Biso   1.000  H
  H189     1.0000 0.68348  0.72478  0.13739  Biso   1.000  H
  H190     1.0000 0.68348  0.72478  0.13743  Biso   1.000  H
  N117     1.0000 0.50610  0.76639  0.19801  Biso   1.000  N
  N118     1.0000 0.50610  0.76639  0.19806  Biso   1.000  N
  H191     1.0000 0.53931  0.77619  0.27548  Biso   1.000  H
  H192     1.0000 0.48822  0.83881  0.26170  Biso   1.000  H
  H193     1.0000 0.53931  0.77619  0.27553  Biso   1.000  H
  H194     1.0000 0.49062  0.56389  0.04982  Biso   1.000  H
  H195     1.0000 0.54130  0.60580  0.01349  Biso   1.000  H
  N119     1.0000 0.52434  0.66128  0.08581  Biso   1.000  N
  H196     1.0000 0.54130  0.60580  0.01353  Biso   1.000  H
  H197     1.0000 0.37338  0.62209  0.12591  Biso   1.000  H
  H198     1.0000 0.34691  0.70448  0.14350  Biso   1.000  H
  N120     1.0000 0.43833  0.69929  0.14681  Biso   1.000  N
  C206     1.0000 0.58319  0.69090  0.09021  Biso   1.000  C
  C207     1.0000 0.54010  0.69610  0.18042  Biso   1.000  C
  C208     1.0000 0.44540  0.76191  0.18268  Biso   1.000  C
  C209     1.0000 0.49469  0.65402  0.14024  Biso   1.000  C
  C210     1.0000 0.49469  0.65402  0.14028  Biso   1.000  C
  O62      1.0000 0.62140  0.69633  0.05233  Biso   1.000  O
  O63      1.0000 0.62140  0.69633  0.05237  Biso   1.000  O
  H199     1.0000 0.55151  0.66257  0.21230  Biso   1.000  H
  O64      1.0000 0.40424  0.80629  0.19902  Biso   1.000  O
  H200     1.0000 0.48868  0.59860  0.15071  Biso   1.000  H
  C211     1.0000 0.50531  0.34598  0.85976  Biso   1.000  C
  C212     1.0000 0.45990  0.30390  0.81958  Biso   1.000  C
  C213     1.0000 0.45990  0.30390  0.81963  Biso   1.000  C
  N121     1.0000 0.47566  0.33872  0.91419  Biso   1.000  N
  N122     1.0000 0.47566  0.33866  0.91419  Biso   1.000  N
  N123     1.0000 0.56167  0.30071  0.85319  Biso   1.000  N
  H201     1.0000 0.51132  0.40140  0.84929  Biso   1.000  H
  H202     1.0000 0.51132  0.40140  0.84933  Biso   1.000  H
  N124     1.0000 0.40729  0.28720  0.85549  Biso   1.000  N
  N125     1.0000 0.40729  0.28720  0.85553  Biso   1.000  N
  N126     1.0000 0.49390  0.23361  0.80199  Biso   1.000  N
  H203     1.0000 0.44849  0.33743  0.78770  Biso   1.000  H
  H204     1.0000 0.44849  0.33737  0.78770  Biso   1.000  H
  C214     1.0000 0.41681  0.30910  0.90979  Biso   1.000  C
  C215     1.0000 0.49441  0.38511  0.96275  Biso   1.000  C
  C216     1.0000 0.49441  0.38511  0.96279  Biso   1.000  C
  C217     1.0000 0.55460  0.23809  0.81732  Biso   1.000  C
  C218     1.0000 0.55460  0.23809  0.81736  Biso   1.000  C
  C219     1.0000 0.62061  0.32137  0.87761  Biso   1.000  C
  C220     1.0000 0.62061  0.32137  0.87766  Biso   1.000  C
  C221     1.0000 0.34747  0.26329  0.83446  Biso   1.000  C
  C222     1.0000 0.34747  0.26329  0.83450  Biso   1.000  C
  C223     1.0000 0.47570  0.18792  0.75317  Biso   1.000  C
  C224     1.0000 0.47570  0.18787  0.75317  Biso   1.000  C
  O65      1.0000 0.37860  0.30367  0.94767  Biso   1.000  O
  H205     1.0000 0.45870  0.39420  0.98651  Biso   1.000  H
  N127     1.0000 0.54217  0.34669  0.99531  Biso   1.000  N
  H206     1.0000 0.50938  0.43611  0.95018  Biso   1.000  H
  H207     1.0000 0.50938  0.43611  0.95022  Biso   1.000  H
  O66      1.0000 0.59576  0.19371  0.80098  Biso   1.000  O
  O67      1.0000 0.59576  0.19371  0.80102  Biso   1.000  O
  H208     1.0000 0.62662  0.37791  0.87409  Biso   1.000  H
  H209     1.0000 0.65309  0.29552  0.85650  Biso   1.000  H
  N128     1.0000 0.62648  0.29971  0.93615  Biso   1.000  N
  N129     1.0000 0.34326  0.18002  0.82017  Biso   1.000  N
  N130     1.0000 0.34326  0.18002  0.82021  Biso   1.000  N
  H210     1.0000 0.33791  0.29422  0.80140  Biso   1.000  H
  H211     1.0000 0.31652  0.27522  0.86261  Biso   1.000  H
  N131     1.0000 0.42849  0.13002  0.76449  Biso   1.000  N
  N132     1.0000 0.42849  0.12997  0.76449  Biso   1.000  N
  H212     1.0000 0.46069  0.22381  0.72452  Biso   1.000  H
  H213     1.0000 0.51178  0.16119  0.73830  Biso   1.000  H
  C225     1.0000 0.60703  0.35147  0.98098  Biso   1.000  C
  C226     1.0000 0.60703  0.35147  0.98102  Biso   1.000  C
  C227     1.0000 0.53349  0.32509  0.04978  Biso   1.000  C
  C228     1.0000 0.53349  0.32509  0.04982  Biso   1.000  C
  C229     1.0000 0.66759  0.24370  0.95379  Biso   1.000  C
  C230     1.0000 0.36354  0.14962  0.76679  Biso   1.000  C
  C231     1.0000 0.36354  0.14962  0.76683  Biso   1.000  C
  C232     1.0000 0.30428  0.12908  0.84803  Biso   1.000  C
  C233     1.0000 0.30428  0.12908  0.84807  Biso   1.000  C
  C234     1.0000 0.43861  0.05023  0.75858  Biso   1.000  C
  C235     1.0000 0.43861  0.05023  0.75862  Biso   1.000  C
  C236     1.0000 0.43861  0.05017  0.75858  Biso   1.000  C
  C237     1.0000 0.43861  0.05017  0.75862  Biso   1.000  C
  H214     1.0000 0.61978  0.40613  0.97411  Biso   1.000  H
  H215     1.0000 0.61978  0.40607  0.97411  Biso   1.000  H
  C238     1.0000 0.63964  0.31641  0.03335  Biso   1.000  C
  N133     1.0000 0.58874  0.30042  0.07110  Biso   1.000  N
  O68      1.0000 0.48425  0.32810  0.07588  Biso   1.000  O
  N134     1.0000 0.58874  0.30042  0.07114  Biso   1.000  N
  O69      1.0000 0.69771  0.19961  0.92366  Biso   1.000  O
  O70      1.0000 0.69771  0.19961  0.92370  Biso   1.000  O
  N135     1.0000 0.67059  0.24600  0.01156  Biso   1.000  N
  C239     1.0000 0.33116  0.06787  0.76348  Biso   1.000  C
  H216     1.0000 0.35130  0.18409  0.73579  Biso   1.000  H
  H217     1.0000 0.35130  0.18409  0.73583  Biso   1.000  H
  N136     1.0000 0.29975  0.06168  0.81686  Biso   1.000  N
  N137     1.0000 0.29975  0.06168  0.81690  Biso   1.000  N
  O71      1.0000 0.27799  0.14260  0.89194  Biso   1.000  O
  O72      1.0000 0.27799  0.14254  0.89194  Biso   1.000  O
  N138     1.0000 0.38239  0.01381  0.75736  Biso   1.000  N
  N139     1.0000 0.38239  0.01381  0.75741  Biso   1.000  N
  O73      1.0000 0.48905  0.01765  0.75560  Biso   1.000  O
  H218     1.0000 0.66921  0.35377  0.04969  Biso   1.000  H
  H219     1.0000 0.66921  0.35377  0.04973  Biso   1.000  H
  C240     1.0000 0.59858  0.29328  0.13077  Biso   1.000  C
  C241     1.0000 0.59858  0.29328  0.13081  Biso   1.000  C
  C242     1.0000 0.72358  0.21277  0.03964  Biso   1.000  C
  C243     1.0000 0.72358  0.21277  0.03968  Biso   1.000  C
  H220     1.0000 0.30238  0.06469  0.73189  Biso   1.000  H
  H221     1.0000 0.30238  0.06469  0.73193  Biso   1.000  H
  C244     1.0000 0.25139  0.00407  0.82780  Biso   1.000  C
  C245     1.0000 0.25139  0.00407  0.82784  Biso   1.000  C
  C246     1.0000 0.37458  0.93083  0.74613  Biso   1.000  C
  C247     1.0000 0.37458  0.93077  0.74613  Biso   1.000  C
  H222     1.0000 0.62639  0.33477  0.14292  Biso   1.000  H
  H223     1.0000 0.55950  0.30089  0.15000  Biso   1.000  H
  N140     1.0000 0.62412  0.21791  0.14673  Biso   1.000  N
  H224     1.0000 0.55950  0.30089  0.15004  Biso   1.000  H
  H225     1.0000 0.75069  0.25539  0.05141  Biso   1.000  H
  H226     1.0000 0.74630  0.18019  0.01341  Biso   1.000  H
  N141     1.0000 0.70727  0.16538  0.08845  Biso   1.000  N
  H227     1.0000 0.22210  0.02662  0.85411  Biso   1.000  H
  H228     1.0000 0.22940  0.99363  0.79319  Biso   1.000  H
  N142     1.0000 0.27421  0.93059  0.85013  Biso   1.000  N
  H229     1.0000 0.22940  0.99363  0.79323  Biso   1.000  H
  H230     1.0000 0.22940  0.99357  0.79319  Biso   1.000  H
  H231     1.0000 0.22940  0.99357  0.79323  Biso   1.000  H
  H232     1.0000 0.41168  0.91117  0.72808  Biso   1.000  H
  H233     1.0000 0.34068  0.92428  0.71999  Biso   1.000  H
  N143     1.0000 0.36239  0.88331  0.79520  Biso   1.000  N
  H234     1.0000 0.41168  0.91117  0.72812  Biso   1.000  H
  H235     1.0000 0.34068  0.92428  0.72003  Biso   1.000  H
  N144     1.0000 0.36239  0.88331  0.79524  Biso   1.000  N
  C248     1.0000 0.68953  0.20038  0.14200  Biso   1.000  C
  C249     1.0000 0.59502  0.16998  0.18482  Biso   1.000  C
  C250     1.0000 0.68953  0.20038  0.14204  Biso   1.000  C
  C251     1.0000 0.73041  0.09077  0.09478  Biso   1.000  C
  C252     1.0000 0.73041  0.09077  0.09482  Biso   1.000  C
  C253     1.0000 0.26959  0.90923  0.90522  Biso   1.000  C
  C254     1.0000 0.30007  0.86838  0.81560  Biso   1.000  C
  C255     1.0000 0.26959  0.90917  0.90522  Biso   1.000  C
  C256     1.0000 0.40498  0.83002  0.81518  Biso   1.000  C
  H236     1.0000 0.71499  0.24647  0.15109  Biso   1.000  H
  C257     1.0000 0.69993  0.13162  0.18440  Biso   1.000  C
  H237     1.0000 0.71499  0.24647  0.15113  Biso   1.000  H
  C258     1.0000 0.69993  0.13162  0.18444  Biso   1.000  C
  N145     1.0000 0.63761  0.11669  0.20480  Biso   1.000  N
  O74      1.0000 0.54097  0.17352  0.19923  Biso   1.000  O
  O75      1.0000 0.54097  0.17352  0.19927  Biso   1.000  O
  N146     1.0000 0.72579  0.06941  0.14987  Biso   1.000  N
  O76      1.0000 0.75323  0.04958  0.05753  Biso   1.000  O
  N147     1.0000 0.29273  0.83462  0.91155  Biso   1.000  N
  O77      1.0000 0.24677  0.95042  0.94247  Biso   1.000  O
  N148     1.0000 0.29273  0.83462  0.91159  Biso   1.000  N
  O78      1.0000 0.24677  0.95042  0.94251  Biso   1.000  O
  H238     1.0000 0.27199  0.85321  0.78518  Biso   1.000  H
  C259     1.0000 0.31047  0.79962  0.85800  Biso   1.000  C
  H239     1.0000 0.27199  0.85321  0.78523  Biso   1.000  H
  O79      1.0000 0.45903  0.82648  0.80077  Biso   1.000  O
  N149     1.0000 0.37588  0.78209  0.85327  Biso   1.000  N
  H240     1.0000 0.72801  0.14679  0.21482  Biso   1.000  H
  C260     1.0000 0.62542  0.06917  0.25387  Biso   1.000  C
  C261     1.0000 0.62542  0.06917  0.25391  Biso   1.000  C
  C262     1.0000 0.74861  0.99593  0.17220  Biso   1.000  C
  C263     1.0000 0.74861  0.99587  0.17220  Biso   1.000  C
  C264     1.0000 0.27642  0.78723  0.96036  Biso   1.000  C
  C265     1.0000 0.27642  0.78717  0.96036  Biso   1.000  C
  H241     1.0000 0.28501  0.75353  0.84891  Biso   1.000  H
  H242     1.0000 0.28501  0.75347  0.84891  Biso   1.000  H
  C266     1.0000 0.40142  0.70672  0.86923  Biso   1.000  C
  N150     1.0000 0.61761  0.98619  0.24264  Biso   1.000  N
  H243     1.0000 0.58832  0.08883  0.27192  Biso   1.000  H
  H244     1.0000 0.65932  0.07572  0.28001  Biso   1.000  H
  H245     1.0000 0.58832  0.08877  0.27192  Biso   1.000  H
  H246     1.0000 0.65932  0.07567  0.28001  Biso   1.000  H
  H247     1.0000 0.77790  0.97338  0.14589  Biso   1.000  H
  N151     1.0000 0.70025  0.93832  0.18314  Biso   1.000  N
  H248     1.0000 0.77790  0.97338  0.14593  Biso   1.000  H
  H249     1.0000 0.77060  0.00637  0.20681  Biso   1.000  H
  H250     1.0000 0.24931  0.74461  0.94859  Biso   1.000  H
  H251     1.0000 0.25370  0.81981  0.98659  Biso   1.000  H
  N152     1.0000 0.32941  0.75400  0.98844  Biso   1.000  N
  H252     1.0000 0.24931  0.74461  0.94863  Biso   1.000  H
  H253     1.0000 0.25370  0.81981  0.98663  Biso   1.000  H
  N153     1.0000 0.32941  0.75400  0.98848  Biso   1.000  N
  H254     1.0000 0.37361  0.66523  0.85708  Biso   1.000  H
  H255     1.0000 0.44050  0.69911  0.85000  Biso   1.000  H
  N154     1.0000 0.41126  0.69958  0.92890  Biso   1.000  N
  H256     1.0000 0.37361  0.66523  0.85712  Biso   1.000  H
  H257     1.0000 0.37361  0.66517  0.85708  Biso   1.000  H
  H258     1.0000 0.37361  0.66517  0.85712  Biso   1.000  H
  C267     1.0000 0.56139  0.94977  0.24142  Biso   1.000  C
  C268     1.0000 0.66884  0.93213  0.23652  Biso   1.000  C
  C269     1.0000 0.66884  0.93213  0.23656  Biso   1.000  C
  C270     1.0000 0.66884  0.93207  0.23652  Biso   1.000  C
  C271     1.0000 0.66884  0.93207  0.23656  Biso   1.000  C
  C272     1.0000 0.69572  0.87092  0.15197  Biso   1.000  C
  C273     1.0000 0.36036  0.68359  0.96665  Biso   1.000  C
  C274     1.0000 0.36036  0.68359  0.96669  Biso   1.000  C
  C275     1.0000 0.33241  0.75630  0.04621  Biso   1.000  C
  C276     1.0000 0.33241  0.75630  0.04626  Biso   1.000  C
  C277     1.0000 0.46651  0.67491  0.95022  Biso   1.000  C
  N155     1.0000 0.57151  0.86998  0.23551  Biso   1.000  N
  O80      1.0000 0.51095  0.98235  0.24440  Biso   1.000  O
  O81      1.0000 0.51095  0.98235  0.24444  Biso   1.000  O
  C278     1.0000 0.63646  0.85038  0.23321  Biso   1.000  C
  H259     1.0000 0.69762  0.93531  0.26811  Biso   1.000  H
  N156     1.0000 0.65674  0.81998  0.17983  Biso   1.000  N
  O82      1.0000 0.72201  0.85740  0.10806  Biso   1.000  O
  O83      1.0000 0.72201  0.85740  0.10810  Biso   1.000  O
  H260     1.0000 0.33079  0.64623  0.95031  Biso   1.000  H
  C279     1.0000 0.39297  0.64853  0.01902  Biso   1.000  C
  C280     1.0000 0.39297  0.64847  0.01902  Biso   1.000  C
  N157     1.0000 0.37352  0.70029  0.06385  Biso   1.000  N
  O84      1.0000 0.30229  0.80039  0.07634  Biso   1.000  O
  N158     1.0000 0.37352  0.70029  0.06390  Biso   1.000  N
  O85      1.0000 0.51575  0.67190  0.92412  Biso   1.000  O
  N159     1.0000 0.45783  0.65331  0.00469  Biso   1.000  N
  C281     1.0000 0.52430  0.81208  0.24683  Biso   1.000  C
  C282     1.0000 0.52430  0.81208  0.24687  Biso   1.000  C
  H261     1.0000 0.64870  0.81591  0.26421  Biso   1.000  H
  C283     1.0000 0.65253  0.73671  0.16554  Biso   1.000  C
  H262     1.0000 0.38022  0.59387  0.02589  Biso   1.000  H
  H263     1.0000 0.38022  0.59387  0.02594  Biso   1.000  H
  C284     1.0000 0.37939  0.67863  0.12239  Biso   1.000  C
  C285     1.0000 0.37939  0.67857  0.12239  Biso   1.000  C
  C286     1.0000 0.50559  0.61489  0.03725  Biso   1.000  C
  N160     1.0000 0.50610  0.76639  0.19801  Biso   1.000  N
  N161     1.0000 0.50610  0.76639  0.19806  Biso   1.000  N
  H264     1.0000 0.53931  0.77619  0.27548  Biso   1.000  H
  H265     1.0000 0.48822  0.83881  0.26170  Biso   1.000  H
  H266     1.0000 0.53931  0.77619  0.27553  Biso   1.000  H
  N162     1.0000 0.59271  0.71280  0.14451  Biso   1.000  N
  H267     1.0000 0.66209  0.70578  0.19860  Biso   1.000  H
  H268     1.0000 0.68348  0.72478  0.13739  Biso   1.000  H
  H269     1.0000 0.68348  0.72478  0.13743  Biso   1.000  H
  H270     1.0000 0.37338  0.62209  0.12591  Biso   1.000  H
  H271     1.0000 0.34691  0.70448  0.14350  Biso   1.000  H
  N163     1.0000 0.43833  0.69929  0.14681  Biso   1.000  N
  H272     1.0000 0.49062  0.56389  0.04982  Biso   1.000  H
  H273     1.0000 0.54130  0.60580  0.01349  Biso   1.000  H
  N164     1.0000 0.52434  0.66128  0.08581  Biso   1.000  N
  H274     1.0000 0.54130  0.60580  0.01353  Biso   1.000  H
  C287     1.0000 0.44540  0.76191  0.18268  Biso   1.000  C
  C288     1.0000 0.54010  0.69610  0.18042  Biso   1.000  C
  C289     1.0000 0.58319  0.69090  0.09021  Biso   1.000  C
  C290     1.0000 0.49469  0.65402  0.14024  Biso   1.000  C
  C291     1.0000 0.49469  0.65402  0.14028  Biso   1.000  C
  O86      1.0000 0.40424  0.80629  0.19902  Biso   1.000  O
  H275     1.0000 0.55151  0.66257  0.21230  Biso   1.000  H
  O87      1.0000 0.62140  0.69633  0.05233  Biso   1.000  O
  O88      1.0000 0.62140  0.69633  0.05237  Biso   1.000  O
  H276     1.0000 0.48868  0.59860  0.15071  Biso   1.000  H
  C292     1.0000 0.50531  0.34598  0.85976  Biso   1.000  C
  C293     1.0000 0.45990  0.30390  0.81958  Biso   1.000  C
  C294     1.0000 0.45990  0.30390  0.81963  Biso   1.000  C
  N165     1.0000 0.47566  0.33872  0.91419  Biso   1.000  N
  N166     1.0000 0.47566  0.33866  0.91419  Biso   1.000  N
  N167     1.0000 0.56167  0.30071  0.85319  Biso   1.000  N
  H277     1.0000 0.51132  0.40140  0.84929  Biso   1.000  H
  H278     1.0000 0.51132  0.40140  0.84933  Biso   1.000  H
  N168     1.0000 0.40729  0.28720  0.85549  Biso   1.000  N
  N169     1.0000 0.40729  0.28720  0.85553  Biso   1.000  N
  N170     1.0000 0.49390  0.23361  0.80199  Biso   1.000  N
  H279     1.0000 0.44849  0.33743  0.78770  Biso   1.000  H
  H280     1.0000 0.44849  0.33737  0.78770  Biso   1.000  H
  C295     1.0000 0.41681  0.30910  0.90979  Biso   1.000  C
  C296     1.0000 0.49441  0.38511  0.96275  Biso   1.000  C
  C297     1.0000 0.49441  0.38511  0.96279  Biso   1.000  C
  C298     1.0000 0.55460  0.23809  0.81732  Biso   1.000  C
  C299     1.0000 0.55460  0.23809  0.81736  Biso   1.000  C
  C300     1.0000 0.62061  0.32137  0.87761  Biso   1.000  C
  C301     1.0000 0.62061  0.32137  0.87766  Biso   1.000  C
  C302     1.0000 0.34747  0.26329  0.83446  Biso   1.000  C
  C303     1.0000 0.34747  0.26329  0.83450  Biso   1.000  C
  C304     1.0000 0.47570  0.18792  0.75317  Biso   1.000  C
  C305     1.0000 0.47570  0.18787  0.75317  Biso   1.000  C
  O89      1.0000 0.37860  0.30367  0.94767  Biso   1.000  O
  H281     1.0000 0.45870  0.39420  0.98651  Biso   1.000  H
  N171     1.0000 0.54217  0.34669  0.99531  Biso   1.000  N
  H282     1.0000 0.50938  0.43611  0.95018  Biso   1.000  H
  H283     1.0000 0.50938  0.43611  0.95022  Biso   1.000  H
  O90      1.0000 0.59576  0.19371  0.80098  Biso   1.000  O
  O91      1.0000 0.59576  0.19371  0.80102  Biso   1.000  O
  H284     1.0000 0.62662  0.37791  0.87409  Biso   1.000  H
  H285     1.0000 0.65309  0.29552  0.85650  Biso   1.000  H
  N172     1.0000 0.62648  0.29971  0.93615  Biso   1.000  N
  N173     1.0000 0.34326  0.18002  0.82017  Biso   1.000  N
  N174     1.0000 0.34326  0.18002  0.82021  Biso   1.000  N
  H286     1.0000 0.33791  0.29422  0.80140  Biso   1.000  H
  H287     1.0000 0.31652  0.27522  0.86261  Biso   1.000  H
  N175     1.0000 0.42849  0.13002  0.76449  Biso   1.000  N
  N176     1.0000 0.42849  0.12997  0.76449  Biso   1.000  N
  H288     1.0000 0.46069  0.22381  0.72452  Biso   1.000  H
  H289     1.0000 0.51178  0.16119  0.73830  Biso   1.000  H
  C306     1.0000 0.60703  0.35147  0.98098  Biso   1.000  C
  C307     1.0000 0.60703  0.35147  0.98102  Biso   1.000  C
  C308     1.0000 0.53349  0.32509  0.04978  Biso   1.000  C
  C309     1.0000 0.53349  0.32509  0.04982  Biso   1.000  C
  C310     1.0000 0.66759  0.24370  0.95379  Biso   1.000  C
  C311     1.0000 0.36354  0.14962  0.76679  Biso   1.000  C
  C312     1.0000 0.36354  0.14962  0.76683  Biso   1.000  C
  C313     1.0000 0.30428  0.12908  0.84803  Biso   1.000  C
  C314     1.0000 0.30428  0.12908  0.84807  Biso   1.000  C
  C315     1.0000 0.43861  0.05023  0.75858  Biso   1.000  C
  C316     1.0000 0.43861  0.05023  0.75862  Biso   1.000  C
  C317     1.0000 0.43861  0.05017  0.75858  Biso   1.000  C
  C318     1.0000 0.43861  0.05017  0.75862  Biso   1.000  C
  H290     1.0000 0.61978  0.40613  0.97411  Biso   1.000  H
  H291     1.0000 0.61978  0.40607  0.97411  Biso   1.000  H
  C319     1.0000 0.63964  0.31641  0.03335  Biso   1.000  C
  N177     1.0000 0.58874  0.30042  0.07110  Biso   1.000  N
  O92      1.0000 0.48425  0.32810  0.07588  Biso   1.000  O
  N178     1.0000 0.58874  0.30042  0.07114  Biso   1.000  N
  O93      1.0000 0.69771  0.19961  0.92366  Biso   1.000  O
  O94      1.0000 0.69771  0.19961  0.92370  Biso   1.000  O
  N179     1.0000 0.67059  0.24600  0.01156  Biso   1.000  N
  C320     1.0000 0.33116  0.06787  0.76348  Biso   1.000  C
  H292     1.0000 0.35130  0.18409  0.73579  Biso   1.000  H
  H293     1.0000 0.35130  0.18409  0.73583  Biso   1.000  H
  N180     1.0000 0.29975  0.06168  0.81686  Biso   1.000  N
  N181     1.0000 0.29975  0.06168  0.81690  Biso   1.000  N
  O95      1.0000 0.27799  0.14260  0.89194  Biso   1.000  O
  O96      1.0000 0.27799  0.14254  0.89194  Biso   1.000  O
  N182     1.0000 0.38239  0.01381  0.75736  Biso   1.000  N
  N183     1.0000 0.38239  0.01381  0.75741  Biso   1.000  N
  O97      1.0000 0.48905  0.01765  0.75560  Biso   1.000  O
  H294     1.0000 0.66921  0.35377  0.04969  Biso   1.000  H
  H295     1.0000 0.66921  0.35377  0.04973  Biso   1.000  H
  C321     1.0000 0.59858  0.29328  0.13077  Biso   1.000  C
  C322     1.0000 0.59858  0.29328  0.13081  Biso   1.000  C
  C323     1.0000 0.72358  0.21277  0.03964  Biso   1.000  C
  C324     1.0000 0.72358  0.21277  0.03968  Biso   1.000  C
  H296     1.0000 0.30238  0.06469  0.73189  Biso   1.000  H
  H297     1.0000 0.30238  0.06469  0.73193  Biso   1.000  H
  C325     1.0000 0.25139  0.00407  0.82780  Biso   1.000  C
  C326     1.0000 0.25139  0.00407  0.82784  Biso   1.000  C
  C327     1.0000 0.37458  0.93083  0.74613  Biso   1.000  C
  C328     1.0000 0.37458  0.93077  0.74613  Biso   1.000  C
  H298     1.0000 0.62639  0.33477  0.14292  Biso   1.000  H
  H299     1.0000 0.55950  0.30089  0.15000  Biso   1.000  H
  N184     1.0000 0.62412  0.21791  0.14673  Biso   1.000  N
  H300     1.0000 0.55950  0.30089  0.15004  Biso   1.000  H
  H301     1.0000 0.75069  0.25539  0.05141  Biso   1.000  H
  H302     1.0000 0.74630  0.18019  0.01341  Biso   1.000  H
  N185     1.0000 0.70727  0.16538  0.08845  Biso   1.000  N
  H303     1.0000 0.22210  0.02662  0.85411  Biso   1.000  H
  H304     1.0000 0.22940  0.99363  0.79319  Biso   1.000  H
  N186     1.0000 0.27421  0.93059  0.85013  Biso   1.000  N
  H305     1.0000 0.22940  0.99363  0.79323  Biso   1.000  H
  H306     1.0000 0.22940  0.99357  0.79319  Biso   1.000  H
  H307     1.0000 0.22940  0.99357  0.79323  Biso   1.000  H
  H308     1.0000 0.41168  0.91117  0.72808  Biso   1.000  H
  H309     1.0000 0.34068  0.92428  0.71999  Biso   1.000  H
  N187     1.0000 0.36239  0.88331  0.79520  Biso   1.000  N
  H310     1.0000 0.41168  0.91117  0.72812  Biso   1.000  H
  H311     1.0000 0.34068  0.92428  0.72003  Biso   1.000  H
  N188     1.0000 0.36239  0.88331  0.79524  Biso   1.000  N
  C329     1.0000 0.68953  0.20038  0.14200  Biso   1.000  C
  C330     1.0000 0.59502  0.16998  0.18482  Biso   1.000  C
  C331     1.0000 0.68953  0.20038  0.14204  Biso   1.000  C
  C332     1.0000 0.73041  0.09077  0.09478  Biso   1.000  C
  C333     1.0000 0.73041  0.09077  0.09482  Biso   1.000  C
  C334     1.0000 0.26959  0.90923  0.90522  Biso   1.000  C
  C335     1.0000 0.30007  0.86838  0.81560  Biso   1.000  C
  C336     1.0000 0.26959  0.90917  0.90522  Biso   1.000  C
  C337     1.0000 0.40498  0.83002  0.81518  Biso   1.000  C
  H312     1.0000 0.71499  0.24647  0.15109  Biso   1.000  H
  C338     1.0000 0.69993  0.13162  0.18440  Biso   1.000  C
  H313     1.0000 0.71499  0.24647  0.15113  Biso   1.000  H
  C339     1.0000 0.69993  0.13162  0.18444  Biso   1.000  C
  N189     1.0000 0.63761  0.11669  0.20480  Biso   1.000  N
  O98      1.0000 0.54097  0.17352  0.19923  Biso   1.000  O
  O99      1.0000 0.54097  0.17352  0.19927  Biso   1.000  O
  N190     1.0000 0.72579  0.06941  0.14987  Biso   1.000  N
  O100     1.0000 0.75323  0.04958  0.05753  Biso   1.000  O
  N191     1.0000 0.29273  0.83462  0.91155  Biso   1.000  N
  O101     1.0000 0.24677  0.95042  0.94247  Biso   1.000  O
  N192     1.0000 0.29273  0.83462  0.91159  Biso   1.000  N
  O102     1.0000 0.24677  0.95042  0.94251  Biso   1.000  O
  H314     1.0000 0.27199  0.85321  0.78518  Biso   1.000  H
  C340     1.0000 0.31047  0.79962  0.85800  Biso   1.000  C
  H315     1.0000 0.27199  0.85321  0.78523  Biso   1.000  H
  O103     1.0000 0.45903  0.82648  0.80077  Biso   1.000  O
  N193     1.0000 0.37588  0.78209  0.85327  Biso   1.000  N
  H316     1.0000 0.72801  0.14679  0.21482  Biso   1.000  H
  C341     1.0000 0.62542  0.06917  0.25387  Biso   1.000  C
  C342     1.0000 0.62542  0.06917  0.25391  Biso   1.000  C
  C343     1.0000 0.74861  0.99593  0.17220  Biso   1.000  C
  C344     1.0000 0.74861  0.99587  0.17220  Biso   1.000  C
  C345     1.0000 0.27642  0.78723  0.96036  Biso   1.000  C
  C346     1.0000 0.27642  0.78717  0.96036  Biso   1.000  C
  H317     1.0000 0.28501  0.75353  0.84891  Biso   1.000  H
  H318     1.0000 0.28501  0.75347  0.84891  Biso   1.000  H
  C347     1.0000 0.40142  0.70672  0.86923  Biso   1.000  C
  N194     1.0000 0.61761  0.98619  0.24264  Biso   1.000  N
  H319     1.0000 0.58832  0.08883  0.27192  Biso   1.000  H
  H320     1.0000 0.65932  0.07572  0.28001  Biso   1.000  H
  H321     1.0000 0.58832  0.08877  0.27192  Biso   1.000  H
  H322     1.0000 0.65932  0.07567  0.28001  Biso   1.000  H
  H323     1.0000 0.77790  0.97338  0.14589  Biso   1.000  H
  N195     1.0000 0.70025  0.93832  0.18314  Biso   1.000  N
  H324     1.0000 0.77790  0.97338  0.14593  Biso   1.000  H
  H325     1.0000 0.77060  0.00637  0.20681  Biso   1.000  H
  H326     1.0000 0.24931  0.74461  0.94859  Biso   1.000  H
  H327     1.0000 0.25370  0.81981  0.98659  Biso   1.000  H
  N196     1.0000 0.32941  0.75400  0.98844  Biso   1.000  N
  H328     1.0000 0.24931  0.74461  0.94863  Biso   1.000  H
  H329     1.0000 0.25370  0.81981  0.98663  Biso   1.000  H
  N197     1.0000 0.32941  0.75400  0.98848  Biso   1.000  N
  H330     1.0000 0.37361  0.66523  0.85708  Biso   1.000  H
  H331     1.0000 0.44050  0.69911  0.85000  Biso   1.000  H
  N198     1.0000 0.41126  0.69958  0.92890  Biso   1.000  N
  H332     1.0000 0.37361  0.66523  0.85712  Biso   1.000  H
  H333     1.0000 0.37361  0.66517  0.85708  Biso   1.000  H
  H334     1.0000 0.37361  0.66517  0.85712  Biso   1.000  H
  C348     1.0000 0.56139  0.94977  0.24142  Biso   1.000  C
  C349     1.0000 0.66884  0.93213  0.23652  Biso   1.000  C
  C350     1.0000 0.66884  0.93213  0.23656  Biso   1.000  C
  C351     1.0000 0.66884  0.93207  0.23652  Biso   1.000  C
  C352     1.0000 0.66884  0.93207  0.23656  Biso   1.000  C
  C353     1.0000 0.69572  0.87092  0.15197  Biso   1.000  C
  C354     1.0000 0.36036  0.68359  0.96665  Biso   1.000  C
  C355     1.0000 0.36036  0.68359  0.96669  Biso   1.000  C
  C356     1.0000 0.33241  0.75630  0.04621  Biso   1.000  C
  C357     1.0000 0.33241  0.75630  0.04626  Biso   1.000  C
  C358     1.0000 0.46651  0.67491  0.95022  Biso   1.000  C
  N199     1.0000 0.57151  0.86998  0.23551  Biso   1.000  N
  O104     1.0000 0.51095  0.98235  0.24440  Biso   1.000  O
  O105     1.0000 0.51095  0.98235  0.24444  Biso   1.000  O
  C359     1.0000 0.63646  0.85038  0.23321  Biso   1.000  C
  H335     1.0000 0.69762  0.93531  0.26811  Biso   1.000  H
  N200     1.0000 0.65674  0.81998  0.17983  Biso   1.000  N
  O106     1.0000 0.72201  0.85740  0.10806  Biso   1.000  O
  O107     1.0000 0.72201  0.85740  0.10810  Biso   1.000  O
  H336     1.0000 0.33079  0.64623  0.95031  Biso   1.000  H
  C360     1.0000 0.39297  0.64853  0.01902  Biso   1.000  C
  C361     1.0000 0.39297  0.64847  0.01902  Biso   1.000  C
  N201     1.0000 0.37352  0.70029  0.06385  Biso   1.000  N
  O108     1.0000 0.30229  0.80039  0.07634  Biso   1.000  O
  N202     1.0000 0.37352  0.70029  0.06390  Biso   1.000  N
  O109     1.0000 0.51575  0.67190  0.92412  Biso   1.000  O
  N203     1.0000 0.45783  0.65331  0.00469  Biso   1.000  N
  C362     1.0000 0.52430  0.81208  0.24683  Biso   1.000  C
  C363     1.0000 0.52430  0.81208  0.24687  Biso   1.000  C
  H337     1.0000 0.64870  0.81591  0.26421  Biso   1.000  H
  C364     1.0000 0.65253  0.73671  0.16554  Biso   1.000  C
  H338     1.0000 0.38022  0.59387  0.02589  Biso   1.000  H
  H339     1.0000 0.38022  0.59387  0.02594  Biso   1.000  H
  C365     1.0000 0.37939  0.67863  0.12239  Biso   1.000  C
  C366     1.0000 0.37939  0.67857  0.12239  Biso   1.000  C
  C367     1.0000 0.50559  0.61489  0.03725  Biso   1.000  C
  N204     1.0000 0.50610  0.76639  0.19801  Biso   1.000  N
  N205     1.0000 0.50610  0.76639  0.19806  Biso   1.000  N
  H340     1.0000 0.53931  0.77619  0.27548  Biso   1.000  H
  H341     1.0000 0.48822  0.83881  0.26170  Biso   1.000  H
  H342     1.0000 0.53931  0.77619  0.27553  Biso   1.000  H
  N206     1.0000 0.59271  0.71280  0.14451  Biso   1.000  N
  H343     1.0000 0.66209  0.70578  0.19860  Biso   1.000  H
  H344     1.0000 0.68348  0.72478  0.13739  Biso   1.000  H
  H345     1.0000 0.68348  0.72478  0.13743  Biso   1.000  H
  H346     1.0000 0.37338  0.62209  0.12591  Biso   1.000  H
  H347     1.0000 0.34691  0.70448  0.14350  Biso   1.000  H
  N207     1.0000 0.43833  0.69929  0.14681  Biso   1.000  N
  H348     1.0000 0.49062  0.56389  0.04982  Biso   1.000  H
  H349     1.0000 0.54130  0.60580  0.01349  Biso   1.000  H
  N208     1.0000 0.52434  0.66128  0.08581  Biso   1.000  N
  H350     1.0000 0.54130  0.60580  0.01353  Biso   1.000  H
  C368     1.0000 0.44540  0.76191  0.18268  Biso   1.000  C
  C369     1.0000 0.54010  0.69610  0.18042  Biso   1.000  C
  C370     1.0000 0.58319  0.69090  0.09021  Biso   1.000  C
  C371     1.0000 0.49469  0.65402  0.14024  Biso   1.000  C
  C372     1.0000 0.49469  0.65402  0.14028  Biso   1.000  C
  O110     1.0000 0.40424  0.80629  0.19902  Biso   1.000  O
  H351     1.0000 0.55151  0.66257  0.21230  Biso   1.000  H
  O111     1.0000 0.62140  0.69633  0.05233  Biso   1.000  O
  O112     1.0000 0.62140  0.69633  0.05237  Biso   1.000  O
  H352     1.0000 0.48868  0.59860  0.15071  Biso   1.000  H
  C373     1.0000 0.24861  0.50410  0.82780  Biso   1.000  C
  N209     1.0000 0.20025  0.56171  0.81686  Biso   1.000  N
  N210     1.0000 0.20025  0.56171  0.81690  Biso   1.000  N
  N211     1.0000 0.22579  0.43062  0.85013  Biso   1.000  N
  H353     1.0000 0.27790  0.52659  0.85411  Biso   1.000  H
  H354     1.0000 0.27060  0.49360  0.79319  Biso   1.000  H
  H355     1.0000 0.27060  0.49360  0.79323  Biso   1.000  H
  C374     1.0000 0.16884  0.56790  0.76348  Biso   1.000  C
  C375     1.0000 0.19572  0.62911  0.84803  Biso   1.000  C
  C376     1.0000 0.19572  0.62911  0.84807  Biso   1.000  C
  C377     1.0000 0.24861  0.50410  0.82784  Biso   1.000  C
  C378     1.0000 0.19993  0.36841  0.81560  Biso   1.000  C
  C379     1.0000 0.23041  0.40920  0.90522  Biso   1.000  C
  N212     1.0000 0.11761  0.51378  0.75736  Biso   1.000  N
  N213     1.0000 0.11761  0.51378  0.75741  Biso   1.000  N
  C380     1.0000 0.13646  0.64959  0.76679  Biso   1.000  C
  H356     1.0000 0.19762  0.56472  0.73189  Biso   1.000  H
  C381     1.0000 0.13646  0.64959  0.76683  Biso   1.000  C
  H357     1.0000 0.19762  0.56472  0.73193  Biso   1.000  H
  N214     1.0000 0.15674  0.67999  0.82017  Biso   1.000  N
  N215     1.0000 0.15674  0.67999  0.82021  Biso   1.000  N
  O113     1.0000 0.22201  0.64257  0.89194  Biso   1.000  O
  N216     1.0000 0.13761  0.38329  0.79520  Biso   1.000  N
  N217     1.0000 0.13761  0.38329  0.79524  Biso   1.000  N
  C382     1.0000 0.18953  0.29959  0.85800  Biso   1.000  C
  H358     1.0000 0.22801  0.35318  0.78518  Biso   1.000  H
  H359     1.0000 0.22801  0.35318  0.78523  Biso   1.000  H
  N218     1.0000 0.20727  0.33459  0.91155  Biso   1.000  N
  N219     1.0000 0.20727  0.33459  0.91159  Biso   1.000  N
  O114     1.0000 0.25323  0.45039  0.94247  Biso   1.000  O
  O115     1.0000 0.25323  0.45039  0.94251  Biso   1.000  O
  C383     1.0000 0.12542  0.43080  0.74613  Biso   1.000  C
  C384     1.0000 0.06139  0.55020  0.75858  Biso   1.000  C
  C385     1.0000 0.06139  0.55020  0.75862  Biso   1.000  C
  N220     1.0000 0.07151  0.62999  0.76449  Biso   1.000  N
  H360     1.0000 0.14870  0.68412  0.73579  Biso   1.000  H
  H361     1.0000 0.14870  0.68412  0.73583  Biso   1.000  H
  C386     1.0000 0.15253  0.76332  0.83446  Biso   1.000  C
  C387     1.0000 0.15253  0.76332  0.83450  Biso   1.000  C
  C388     1.0000 0.09502  0.32999  0.81518  Biso   1.000  C
  N221     1.0000 0.12412  0.28212  0.85327  Biso   1.000  N
  H362     1.0000 0.21499  0.25350  0.84891  Biso   1.000  H
  C389     1.0000 0.22358  0.28720  0.96036  Biso   1.000  C
  H363     1.0000 0.08832  0.41120  0.72808  Biso   1.000  H
  H364     1.0000 0.15932  0.42431  0.71999  Biso   1.000  H
  H365     1.0000 0.08832  0.41120  0.72812  Biso   1.000  H
  H366     1.0000 0.15932  0.42431  0.72003  Biso   1.000  H
  O116     1.0000 0.01095  0.51762  0.75560  Biso   1.000  O
  C390     1.0000 0.02430  0.68789  0.75317  Biso   1.000  C
  H367     1.0000 0.16209  0.79419  0.80140  Biso   1.000  H
  H368     1.0000 0.18348  0.77519  0.86261  Biso   1.000  H
  N222     1.0000 0.09271  0.78717  0.85549  Biso   1.000  N
  N223     1.0000 0.09271  0.78717  0.85553  Biso   1.000  N
  O117     1.0000 0.04097  0.32645  0.80077  Biso   1.000  O
  C391     1.0000 0.09858  0.20669  0.86923  Biso   1.000  C
  H369     1.0000 0.25069  0.24458  0.94859  Biso   1.000  H
  H370     1.0000 0.24630  0.31978  0.98659  Biso   1.000  H
  N224     1.0000 0.17059  0.25397  0.98844  Biso   1.000  N
  H371     1.0000 0.25069  0.24458  0.94863  Biso   1.000  H
  H372     1.0000 0.24630  0.31978  0.98663  Biso   1.000  H
  N225     1.0000 0.17059  0.25397  0.98848  Biso   1.000  N
  H373     1.0000 0.03931  0.72378  0.72452  Biso   1.000  H
  N226     1.0000 0.00610  0.73358  0.80199  Biso   1.000  N
  H374     1.0000 0.98822  0.66122  0.73830  Biso   1.000  H
  C392     1.0000 0.04010  0.80387  0.81958  Biso   1.000  C
  C393     1.0000 0.04010  0.80387  0.81963  Biso   1.000  C
  C394     1.0000 0.08319  0.80912  0.90979  Biso   1.000  C
  H375     1.0000 0.12639  0.16520  0.85708  Biso   1.000  H
  H376     1.0000 0.05950  0.19908  0.85000  Biso   1.000  H
  N227     1.0000 0.08874  0.19961  0.92890  Biso   1.000  N
  H377     1.0000 0.12639  0.16520  0.85712  Biso   1.000  H
  C395     1.0000 0.13964  0.18362  0.96665  Biso   1.000  C
  C396     1.0000 0.13964  0.18362  0.96669  Biso   1.000  C
  C397     1.0000 0.16759  0.25627  0.04621  Biso   1.000  C
  C398     1.0000 0.16759  0.25627  0.04626  Biso   1.000  C
  C399     1.0000 0.94540  0.73812  0.81732  Biso   1.000  C
  C400     1.0000 0.94540  0.73812  0.81736  Biso   1.000  C
  H378     1.0000 0.05151  0.83740  0.78770  Biso   1.000  H
  C401     1.0000 0.99469  0.84601  0.85976  Biso   1.000  C
  N228     1.0000 0.02434  0.83869  0.91419  Biso   1.000  N
  O118     1.0000 0.12140  0.80369  0.94767  Biso   1.000  O
  C402     1.0000 0.03349  0.17488  0.95022  Biso   1.000  C
  H379     1.0000 0.16921  0.14620  0.95031  Biso   1.000  H
  C403     1.0000 0.10703  0.14850  0.01902  Biso   1.000  C
  N229     1.0000 0.12648  0.20032  0.06385  Biso   1.000  N
  O119     1.0000 0.19771  0.30042  0.07634  Biso   1.000  O
  N230     1.0000 0.12648  0.20032  0.06390  Biso   1.000  N
  N231     1.0000 0.93833  0.80068  0.85319  Biso   1.000  N
  O120     1.0000 0.90424  0.69368  0.80098  Biso   1.000  O
  O121     1.0000 0.90424  0.69368  0.80102  Biso   1.000  O
  H380     1.0000 0.98868  0.90138  0.84929  Biso   1.000  H
  H381     1.0000 0.98868  0.90138  0.84933  Biso   1.000  H
  C404     1.0000 0.00559  0.88509  0.96275  Biso   1.000  C
  C405     1.0000 0.00559  0.88509  0.96279  Biso   1.000  C
  O122     1.0000 0.98425  0.17187  0.92412  Biso   1.000  O
  N232     1.0000 0.04217  0.15328  0.00469  Biso   1.000  N
  H382     1.0000 0.11978  0.09390  0.02589  Biso   1.000  H
  H383     1.0000 0.11978  0.09390  0.02594  Biso   1.000  H
  C406     1.0000 0.12061  0.17860  0.12239  Biso   1.000  C
  C407     1.0000 0.87939  0.82140  0.87761  Biso   1.000  C
  C408     1.0000 0.87939  0.82140  0.87766  Biso   1.000  C
  H384     1.0000 0.04130  0.89417  0.98651  Biso   1.000  H
  H385     1.0000 0.99062  0.93608  0.95018  Biso   1.000  H
  N233     1.0000 0.95783  0.84672  0.99531  Biso   1.000  N
  H386     1.0000 0.99062  0.93608  0.95022  Biso   1.000  H
  C409     1.0000 0.99441  0.11491  0.03725  Biso   1.000  C
  H387     1.0000 0.12662  0.12212  0.12591  Biso   1.000  H
  H388     1.0000 0.15309  0.20451  0.14350  Biso   1.000  H
  N234     1.0000 0.06167  0.19932  0.14681  Biso   1.000  N
  H389     1.0000 0.87338  0.87788  0.87409  Biso   1.000  H
  H390     1.0000 0.84691  0.79549  0.85650  Biso   1.000  H
  N235     1.0000 0.87352  0.79968  0.93615  Biso   1.000  N
  C410     1.0000 0.89297  0.85150  0.98098  Biso   1.000  C
  C411     1.0000 0.89297  0.85150  0.98102  Biso   1.000  C
  C412     1.0000 0.96651  0.82512  0.04978  Biso   1.000  C
  C413     1.0000 0.96651  0.82512  0.04982  Biso   1.000  C
  H391     1.0000 0.95870  0.10583  0.01349  Biso   1.000  H
  N236     1.0000 0.97566  0.16131  0.08581  Biso   1.000  N
  H392     1.0000 0.95870  0.10583  0.01353  Biso   1.000  H
  H393     1.0000 0.00938  0.06392  0.04982  Biso   1.000  H
  C414     1.0000 0.00531  0.15399  0.14024  Biso   1.000  C
  C415     1.0000 0.00531  0.15399  0.14028  Biso   1.000  C
  C416     1.0000 0.05460  0.26188  0.18268  Biso   1.000  C
  C417     1.0000 0.83241  0.74367  0.95379  Biso   1.000  C
  H394     1.0000 0.88022  0.90610  0.97411  Biso   1.000  H
  C418     1.0000 0.86036  0.81638  0.03335  Biso   1.000  C
  N237     1.0000 0.91126  0.80039  0.07110  Biso   1.000  N
  N238     1.0000 0.91126  0.80039  0.07114  Biso   1.000  N
  O123     1.0000 0.01575  0.82813  0.07588  Biso   1.000  O
  C419     1.0000 0.91681  0.19088  0.09021  Biso   1.000  C
  C420     1.0000 0.95990  0.19613  0.18042  Biso   1.000  C
  H395     1.0000 0.01132  0.09862  0.15071  Biso   1.000  H
  N239     1.0000 0.99390  0.26642  0.19801  Biso   1.000  N
  N240     1.0000 0.99390  0.26642  0.19806  Biso   1.000  N
  O124     1.0000 0.09576  0.30632  0.19902  Biso   1.000  O
  O125     1.0000 0.80229  0.69958  0.92366  Biso   1.000  O
  O126     1.0000 0.80229  0.69958  0.92370  Biso   1.000  O
  N241     1.0000 0.82941  0.74597  0.01156  Biso   1.000  N
  H396     1.0000 0.83079  0.85380  0.04969  Biso   1.000  H
  H397     1.0000 0.83079  0.85380  0.04973  Biso   1.000  H
  C421     1.0000 0.90142  0.79331  0.13077  Biso   1.000  C
  C422     1.0000 0.90142  0.79331  0.13081  Biso   1.000  C
  N242     1.0000 0.90729  0.21277  0.14451  Biso   1.000  N
  O127     1.0000 0.87860  0.19631  0.05233  Biso   1.000  O
  O128     1.0000 0.87860  0.19631  0.05237  Biso   1.000  O
  H398     1.0000 0.94849  0.16260  0.21230  Biso   1.000  H
  C423     1.0000 0.97570  0.31211  0.24683  Biso   1.000  C
  C424     1.0000 0.97570  0.31211  0.24687  Biso   1.000  C
  C425     1.0000 0.77642  0.71280  0.03964  Biso   1.000  C
  C426     1.0000 0.77642  0.71280  0.03968  Biso   1.000  C
  H399     1.0000 0.87361  0.83480  0.14292  Biso   1.000  H
  H400     1.0000 0.94050  0.80092  0.15000  Biso   1.000  H
  N243     1.0000 0.87588  0.71788  0.14673  Biso   1.000  N
  H401     1.0000 0.94050  0.80092  0.15004  Biso   1.000  H
  C427     1.0000 0.84747  0.23668  0.16554  Biso   1.000  C
  H402     1.0000 0.96069  0.27622  0.27548  Biso   1.000  H
  N244     1.0000 0.92849  0.37001  0.23551  Biso   1.000  N
  H403     1.0000 0.96069  0.27622  0.27553  Biso   1.000  H
  H404     1.0000 0.01178  0.33878  0.26170  Biso   1.000  H
  N245     1.0000 0.79273  0.66541  0.08845  Biso   1.000  N
  H405     1.0000 0.74931  0.75542  0.05141  Biso   1.000  H
  H406     1.0000 0.75370  0.68022  0.01341  Biso   1.000  H
  C428     1.0000 0.81047  0.70041  0.14200  Biso   1.000  C
  C429     1.0000 0.81047  0.70041  0.14204  Biso   1.000  C
  C430     1.0000 0.90498  0.67001  0.18482  Biso   1.000  C
  H407     1.0000 0.83791  0.20581  0.19860  Biso   1.000  H
  H408     1.0000 0.81652  0.22481  0.13739  Biso   1.000  H
  N246     1.0000 0.84326  0.32001  0.17983  Biso   1.000  N
  H409     1.0000 0.81652  0.22481  0.13743  Biso   1.000  H
  C431     1.0000 0.86354  0.35041  0.23321  Biso   1.000  C
  C432     1.0000 0.93861  0.44980  0.24142  Biso   1.000  C
  C433     1.0000 0.76959  0.59080  0.09478  Biso   1.000  C
  C434     1.0000 0.76959  0.59080  0.09482  Biso   1.000  C
  C435     1.0000 0.80007  0.63159  0.18440  Biso   1.000  C
  H410     1.0000 0.78501  0.74650  0.15109  Biso   1.000  H
  C436     1.0000 0.80007  0.63159  0.18444  Biso   1.000  C
  H411     1.0000 0.78501  0.74650  0.15113  Biso   1.000  H
  N247     1.0000 0.86239  0.61671  0.20480  Biso   1.000  N
  O129     1.0000 0.95903  0.67355  0.19923  Biso   1.000  O
  O130     1.0000 0.95903  0.67355  0.19927  Biso   1.000  O
  C437     1.0000 0.80428  0.37089  0.15197  Biso   1.000  C
  H412     1.0000 0.85130  0.31588  0.26421  Biso   1.000  H
  C438     1.0000 0.83116  0.43210  0.23652  Biso   1.000  C
  C439     1.0000 0.83116  0.43210  0.23656  Biso   1.000  C
  N248     1.0000 0.88239  0.48622  0.24264  Biso   1.000  N
  O131     1.0000 0.98905  0.48232  0.24440  Biso   1.000  O
  O132     1.0000 0.98905  0.48232  0.24444  Biso   1.000  O
  N249     1.0000 0.77421  0.56938  0.14987  Biso   1.000  N
  O133     1.0000 0.74677  0.54961  0.05753  Biso   1.000  O
  H413     1.0000 0.77199  0.64682  0.21482  Biso   1.000  H
  C440     1.0000 0.87458  0.56920  0.25387  Biso   1.000  C
  C441     1.0000 0.87458  0.56920  0.25391  Biso   1.000  C
  N250     1.0000 0.79975  0.43829  0.18314  Biso   1.000  N
  O134     1.0000 0.77799  0.35743  0.10806  Biso   1.000  O
  O135     1.0000 0.77799  0.35743  0.10810  Biso   1.000  O
  H414     1.0000 0.80238  0.43528  0.26811  Biso   1.000  H
  C442     1.0000 0.75139  0.49590  0.17220  Biso   1.000  C
  H415     1.0000 0.91168  0.58880  0.27192  Biso   1.000  H
  H416     1.0000 0.84068  0.57569  0.28001  Biso   1.000  H
  H417     1.0000 0.72210  0.47341  0.14589  Biso   1.000  H
  H418     1.0000 0.72940  0.50640  0.20681  Biso   1.000  H
  H419     1.0000 0.72210  0.47341  0.14593  Biso   1.000  H
  C443     1.0000 0.24861  0.50410  0.82780  Biso   1.000  C
  N251     1.0000 0.20025  0.56171  0.81686  Biso   1.000  N
  N252     1.0000 0.20025  0.56171  0.81690  Biso   1.000  N
  N253     1.0000 0.22579  0.43062  0.85013  Biso   1.000  N
  H420     1.0000 0.27790  0.52659  0.85411  Biso   1.000  H
  H421     1.0000 0.27060  0.49360  0.79319  Biso   1.000  H
  H422     1.0000 0.27060  0.49360  0.79323  Biso   1.000  H
  C444     1.0000 0.16884  0.56790  0.76348  Biso   1.000  C
  C445     1.0000 0.19572  0.62911  0.84803  Biso   1.000  C
  C446     1.0000 0.19572  0.62911  0.84807  Biso   1.000  C
  C447     1.0000 0.24861  0.50410  0.82784  Biso   1.000  C
  C448     1.0000 0.19993  0.36841  0.81560  Biso   1.000  C
  C449     1.0000 0.23041  0.40920  0.90522  Biso   1.000  C
  N254     1.0000 0.11761  0.51378  0.75736  Biso   1.000  N
  N255     1.0000 0.11761  0.51378  0.75741  Biso   1.000  N
  C450     1.0000 0.13646  0.64959  0.76679  Biso   1.000  C
  H423     1.0000 0.19762  0.56472  0.73189  Biso   1.000  H
  C451     1.0000 0.13646  0.64959  0.76683  Biso   1.000  C
  H424     1.0000 0.19762  0.56472  0.73193  Biso   1.000  H
  N256     1.0000 0.15674  0.67999  0.82017  Biso   1.000  N
  N257     1.0000 0.15674  0.67999  0.82021  Biso   1.000  N
  O136     1.0000 0.22201  0.64257  0.89194  Biso   1.000  O
  N258     1.0000 0.13761  0.38329  0.79520  Biso   1.000  N
  N259     1.0000 0.13761  0.38329  0.79524  Biso   1.000  N
  C452     1.0000 0.18953  0.29959  0.85800  Biso   1.000  C
  H425     1.0000 0.22801  0.35318  0.78518  Biso   1.000  H
  H426     1.0000 0.22801  0.35318  0.78523  Biso   1.000  H
  N260     1.0000 0.20727  0.33459  0.91155  Biso   1.000  N
  N261     1.0000 0.20727  0.33459  0.91159  Biso   1.000  N
  O137     1.0000 0.25323  0.45039  0.94247  Biso   1.000  O
  O138     1.0000 0.25323  0.45039  0.94251  Biso   1.000  O
  C453     1.0000 0.12542  0.43080  0.74613  Biso   1.000  C
  C454     1.0000 0.06139  0.55020  0.75858  Biso   1.000  C
  C455     1.0000 0.06139  0.55020  0.75862  Biso   1.000  C
  N262     1.0000 0.07151  0.62999  0.76449  Biso   1.000  N
  H427     1.0000 0.14870  0.68412  0.73579  Biso   1.000  H
  H428     1.0000 0.14870  0.68412  0.73583  Biso   1.000  H
  C456     1.0000 0.15253  0.76332  0.83446  Biso   1.000  C
  C457     1.0000 0.15253  0.76332  0.83450  Biso   1.000  C
  C458     1.0000 0.09502  0.32999  0.81518  Biso   1.000  C
  N263     1.0000 0.12412  0.28212  0.85327  Biso   1.000  N
  H429     1.0000 0.21499  0.25350  0.84891  Biso   1.000  H
  C459     1.0000 0.22358  0.28720  0.96036  Biso   1.000  C
  H430     1.0000 0.08832  0.41120  0.72808  Biso   1.000  H
  H431     1.0000 0.15932  0.42431  0.71999  Biso   1.000  H
  H432     1.0000 0.08832  0.41120  0.72812  Biso   1.000  H
  H433     1.0000 0.15932  0.42431  0.72003  Biso   1.000  H
  O139     1.0000 0.01095  0.51762  0.75560  Biso   1.000  O
  C460     1.0000 0.02430  0.68789  0.75317  Biso   1.000  C
  H434     1.0000 0.16209  0.79419  0.80140  Biso   1.000  H
  H435     1.0000 0.18348  0.77519  0.86261  Biso   1.000  H
  N264     1.0000 0.09271  0.78717  0.85549  Biso   1.000  N
  N265     1.0000 0.09271  0.78717  0.85553  Biso   1.000  N
  O140     1.0000 0.04097  0.32645  0.80077  Biso   1.000  O
  C461     1.0000 0.09858  0.20669  0.86923  Biso   1.000  C
  H436     1.0000 0.25069  0.24458  0.94859  Biso   1.000  H
  H437     1.0000 0.24630  0.31978  0.98659  Biso   1.000  H
  N266     1.0000 0.17059  0.25397  0.98844  Biso   1.000  N
  H438     1.0000 0.25069  0.24458  0.94863  Biso   1.000  H
  H439     1.0000 0.24630  0.31978  0.98663  Biso   1.000  H
  N267     1.0000 0.17059  0.25397  0.98848  Biso   1.000  N
  H440     1.0000 0.03931  0.72378  0.72452  Biso   1.000  H
  N268     1.0000 0.00610  0.73358  0.80199  Biso   1.000  N
  H441     1.0000 0.98822  0.66122  0.73830  Biso   1.000  H
  C462     1.0000 0.04010  0.80387  0.81958  Biso   1.000  C
  C463     1.0000 0.04010  0.80387  0.81963  Biso   1.000  C
  C464     1.0000 0.08319  0.80912  0.90979  Biso   1.000  C
  H442     1.0000 0.05950  0.19908  0.85000  Biso   1.000  H
  N269     1.0000 0.08874  0.19961  0.92890  Biso   1.000  N
  H443     1.0000 0.12639  0.16520  0.85708  Biso   1.000  H
  H444     1.0000 0.12639  0.16520  0.85712  Biso   1.000  H
  C465     1.0000 0.13964  0.18362  0.96665  Biso   1.000  C
  C466     1.0000 0.13964  0.18362  0.96669  Biso   1.000  C
  C467     1.0000 0.16759  0.25627  0.04621  Biso   1.000  C
  C468     1.0000 0.16759  0.25627  0.04626  Biso   1.000  C
  C469     1.0000 0.94540  0.73812  0.81732  Biso   1.000  C
  C470     1.0000 0.94540  0.73812  0.81736  Biso   1.000  C
  H445     1.0000 0.05151  0.83740  0.78770  Biso   1.000  H
  C471     1.0000 0.99469  0.84601  0.85976  Biso   1.000  C
  N270     1.0000 0.02434  0.83869  0.91419  Biso   1.000  N
  O141     1.0000 0.12140  0.80369  0.94767  Biso   1.000  O
  C472     1.0000 0.03349  0.17488  0.95022  Biso   1.000  C
  H446     1.0000 0.16921  0.14620  0.95031  Biso   1.000  H
  C473     1.0000 0.10703  0.14850  0.01902  Biso   1.000  C
  N271     1.0000 0.12648  0.20032  0.06385  Biso   1.000  N
  O142     1.0000 0.19771  0.30042  0.07634  Biso   1.000  O
  N272     1.0000 0.12648  0.20032  0.06390  Biso   1.000  N
  N273     1.0000 0.93833  0.80068  0.85319  Biso   1.000  N
  O143     1.0000 0.90424  0.69368  0.80098  Biso   1.000  O
  O144     1.0000 0.90424  0.69368  0.80102  Biso   1.000  O
  H447     1.0000 0.98868  0.90138  0.84929  Biso   1.000  H
  H448     1.0000 0.98868  0.90138  0.84933  Biso   1.000  H
  C474     1.0000 0.00559  0.88509  0.96275  Biso   1.000  C
  C475     1.0000 0.00559  0.88509  0.96279  Biso   1.000  C
  O145     1.0000 0.98425  0.17187  0.92412  Biso   1.000  O
  N274     1.0000 0.04217  0.15328  0.00469  Biso   1.000  N
  H449     1.0000 0.11978  0.09390  0.02589  Biso   1.000  H
  H450     1.0000 0.11978  0.09390  0.02594  Biso   1.000  H
  C476     1.0000 0.12061  0.17860  0.12239  Biso   1.000  C
  C477     1.0000 0.87939  0.82140  0.87761  Biso   1.000  C
  C478     1.0000 0.87939  0.82140  0.87766  Biso   1.000  C
  H451     1.0000 0.04130  0.89417  0.98651  Biso   1.000  H
  H452     1.0000 0.99062  0.93608  0.95018  Biso   1.000  H
  N275     1.0000 0.95783  0.84672  0.99531  Biso   1.000  N
  H453     1.0000 0.99062  0.93608  0.95022  Biso   1.000  H
  C479     1.0000 0.99441  0.11491  0.03725  Biso   1.000  C
  H454     1.0000 0.12662  0.12212  0.12591  Biso   1.000  H
  H455     1.0000 0.15309  0.20451  0.14350  Biso   1.000  H
  N276     1.0000 0.06167  0.19932  0.14681  Biso   1.000  N
  H456     1.0000 0.87338  0.87788  0.87409  Biso   1.000  H
  H457     1.0000 0.84691  0.79549  0.85650  Biso   1.000  H
  N277     1.0000 0.87352  0.79968  0.93615  Biso   1.000  N
  C480     1.0000 0.89297  0.85150  0.98098  Biso   1.000  C
  C481     1.0000 0.89297  0.85150  0.98102  Biso   1.000  C
  C482     1.0000 0.96651  0.82512  0.04978  Biso   1.000  C
  C483     1.0000 0.96651  0.82512  0.04982  Biso   1.000  C
  H458     1.0000 0.95870  0.10583  0.01349  Biso   1.000  H
  N278     1.0000 0.97566  0.16131  0.08581  Biso   1.000  N
  H459     1.0000 0.95870  0.10583  0.01353  Biso   1.000  H
  H460     1.0000 0.00938  0.06392  0.04982  Biso   1.000  H
  C484     1.0000 0.00531  0.15399  0.14024  Biso   1.000  C
  C485     1.0000 0.00531  0.15399  0.14028  Biso   1.000  C
  C486     1.0000 0.05460  0.26188  0.18268  Biso   1.000  C
  C487     1.0000 0.83241  0.74367  0.95379  Biso   1.000  C
  H461     1.0000 0.88022  0.90610  0.97411  Biso   1.000  H
  C488     1.0000 0.86036  0.81638  0.03335  Biso   1.000  C
  N279     1.0000 0.91126  0.80039  0.07110  Biso   1.000  N
  N280     1.0000 0.91126  0.80039  0.07114  Biso   1.000  N
  O146     1.0000 0.01575  0.82813  0.07588  Biso   1.000  O
  C489     1.0000 0.91681  0.19088  0.09021  Biso   1.000  C
  C490     1.0000 0.95990  0.19613  0.18042  Biso   1.000  C
  H462     1.0000 0.01132  0.09862  0.15071  Biso   1.000  H
  N281     1.0000 0.99390  0.26642  0.19801  Biso   1.000  N
  N282     1.0000 0.99390  0.26642  0.19806  Biso   1.000  N
  O147     1.0000 0.09576  0.30632  0.19902  Biso   1.000  O
  O148     1.0000 0.80229  0.69958  0.92366  Biso   1.000  O
  O149     1.0000 0.80229  0.69958  0.92370  Biso   1.000  O
  N283     1.0000 0.82941  0.74597  0.01156  Biso   1.000  N
  H463     1.0000 0.83079  0.85380  0.04969  Biso   1.000  H
  H464     1.0000 0.83079  0.85380  0.04973  Biso   1.000  H
  C491     1.0000 0.90142  0.79331  0.13077  Biso   1.000  C
  C492     1.0000 0.90142  0.79331  0.13081  Biso   1.000  C
  N284     1.0000 0.90729  0.21277  0.14451  Biso   1.000  N
  O150     1.0000 0.87860  0.19631  0.05233  Biso   1.000  O
  O151     1.0000 0.87860  0.19631  0.05237  Biso   1.000  O
  H465     1.0000 0.94849  0.16260  0.21230  Biso   1.000  H
  C493     1.0000 0.97570  0.31211  0.24683  Biso   1.000  C
  C494     1.0000 0.97570  0.31211  0.24687  Biso   1.000  C
  C495     1.0000 0.77642  0.71280  0.03964  Biso   1.000  C
  C496     1.0000 0.77642  0.71280  0.03968  Biso   1.000  C
  H466     1.0000 0.87361  0.83480  0.14292  Biso   1.000  H
  H467     1.0000 0.94050  0.80092  0.15000  Biso   1.000  H
  N285     1.0000 0.87588  0.71788  0.14673  Biso   1.000  N
  H468     1.0000 0.94050  0.80092  0.15004  Biso   1.000  H
  C497     1.0000 0.84747  0.23668  0.16554  Biso   1.000  C
  H469     1.0000 0.96069  0.27622  0.27548  Biso   1.000  H
  N286     1.0000 0.92849  0.37001  0.23551  Biso   1.000  N
  H470     1.0000 0.96069  0.27622  0.27553  Biso   1.000  H
  H471     1.0000 0.01178  0.33878  0.26170  Biso   1.000  H
  N287     1.0000 0.79273  0.66541  0.08845  Biso   1.000  N
  H472     1.0000 0.74931  0.75542  0.05141  Biso   1.000  H
  H473     1.0000 0.75370  0.68022  0.01341  Biso   1.000  H
  C498     1.0000 0.81047  0.70041  0.14200  Biso   1.000  C
  C499     1.0000 0.81047  0.70041  0.14204  Biso   1.000  C
  C500     1.0000 0.90498  0.67001  0.18482  Biso   1.000  C
  H474     1.0000 0.83791  0.20581  0.19860  Biso   1.000  H
  H475     1.0000 0.81652  0.22481  0.13739  Biso   1.000  H
  N288     1.0000 0.84326  0.32001  0.17983  Biso   1.000  N
  H476     1.0000 0.81652  0.22481  0.13743  Biso   1.000  H
  C501     1.0000 0.86354  0.35041  0.23321  Biso   1.000  C
  C502     1.0000 0.93861  0.44980  0.24142  Biso   1.000  C
  C503     1.0000 0.76959  0.59080  0.09478  Biso   1.000  C
  C504     1.0000 0.76959  0.59080  0.09482  Biso   1.000  C
  C505     1.0000 0.80007  0.63159  0.18440  Biso   1.000  C
  H477     1.0000 0.78501  0.74650  0.15109  Biso   1.000  H
  C506     1.0000 0.80007  0.63159  0.18444  Biso   1.000  C
  H478     1.0000 0.78501  0.74650  0.15113  Biso   1.000  H
  N289     1.0000 0.86239  0.61671  0.20480  Biso   1.000  N
  O152     1.0000 0.95903  0.67355  0.19923  Biso   1.000  O
  O153     1.0000 0.95903  0.67355  0.19927  Biso   1.000  O
  C507     1.0000 0.80428  0.37089  0.15197  Biso   1.000  C
  H479     1.0000 0.85130  0.31588  0.26421  Biso   1.000  H
  C508     1.0000 0.83116  0.43210  0.23652  Biso   1.000  C
  C509     1.0000 0.83116  0.43210  0.23656  Biso   1.000  C
  N290     1.0000 0.88239  0.48622  0.24264  Biso   1.000  N
  O154     1.0000 0.98905  0.48232  0.24440  Biso   1.000  O
  O155     1.0000 0.98905  0.48232  0.24444  Biso   1.000  O
  N291     1.0000 0.77421  0.56938  0.14987  Biso   1.000  N
  O156     1.0000 0.74677  0.54961  0.05753  Biso   1.000  O
  H480     1.0000 0.77199  0.64682  0.21482  Biso   1.000  H
  C510     1.0000 0.87458  0.56920  0.25387  Biso   1.000  C
  C511     1.0000 0.87458  0.56920  0.25391  Biso   1.000  C
  N292     1.0000 0.79975  0.43829  0.18314  Biso   1.000  N
  O157     1.0000 0.77799  0.35743  0.10806  Biso   1.000  O
  O158     1.0000 0.77799  0.35743  0.10810  Biso   1.000  O
  H481     1.0000 0.80238  0.43528  0.26811  Biso   1.000  H
  C512     1.0000 0.75139  0.49590  0.17220  Biso   1.000  C
  H482     1.0000 0.91168  0.58880  0.27192  Biso   1.000  H
  H483     1.0000 0.84068  0.57569  0.28001  Biso   1.000  H
  H484     1.0000 0.72210  0.47341  0.14589  Biso   1.000  H
  H485     1.0000 0.72940  0.50640  0.20681  Biso   1.000  H
  H486     1.0000 0.72210  0.47341  0.14593  Biso   1.000  H
  C513     1.0000 0.24861  0.50410  0.82780  Biso   1.000  C
  N293     1.0000 0.20025  0.56171  0.81686  Biso   1.000  N
  N294     1.0000 0.20025  0.56171  0.81690  Biso   1.000  N
  N295     1.0000 0.22579  0.43062  0.85013  Biso   1.000  N
  H487     1.0000 0.27790  0.52659  0.85411  Biso   1.000  H
  H488     1.0000 0.27060  0.49360  0.79319  Biso   1.000  H
  H489     1.0000 0.27060  0.49360  0.79323  Biso   1.000  H
  C514     1.0000 0.16884  0.56790  0.76348  Biso   1.000  C
  C515     1.0000 0.19572  0.62911  0.84803  Biso   1.000  C
  C516     1.0000 0.19572  0.62911  0.84807  Biso   1.000  C
  C517     1.0000 0.24861  0.50410  0.82784  Biso   1.000  C
  C518     1.0000 0.19993  0.36841  0.81560  Biso   1.000  C
  C519     1.0000 0.23041  0.40920  0.90522  Biso   1.000  C
  N296     1.0000 0.11761  0.51378  0.75736  Biso   1.000  N
  N297     1.0000 0.11761  0.51378  0.75741  Biso   1.000  N
  C520     1.0000 0.13646  0.64959  0.76679  Biso   1.000  C
  H490     1.0000 0.19762  0.56472  0.73189  Biso   1.000  H
  C521     1.0000 0.13646  0.64959  0.76683  Biso   1.000  C
  H491     1.0000 0.19762  0.56472  0.73193  Biso   1.000  H
  N298     1.0000 0.15674  0.67999  0.82017  Biso   1.000  N
  N299     1.0000 0.15674  0.67999  0.82021  Biso   1.000  N
  O159     1.0000 0.22201  0.64257  0.89194  Biso   1.000  O
  N300     1.0000 0.13761  0.38329  0.79520  Biso   1.000  N
  N301     1.0000 0.13761  0.38329  0.79524  Biso   1.000  N
  C522     1.0000 0.18953  0.29959  0.85800  Biso   1.000  C
  H492     1.0000 0.22801  0.35318  0.78518  Biso   1.000  H
  H493     1.0000 0.22801  0.35318  0.78523  Biso   1.000  H
  N302     1.0000 0.20727  0.33459  0.91155  Biso   1.000  N
  N303     1.0000 0.20727  0.33459  0.91159  Biso   1.000  N
  O160     1.0000 0.25323  0.45039  0.94247  Biso   1.000  O
  O161     1.0000 0.25323  0.45039  0.94251  Biso   1.000  O
  C523     1.0000 0.12542  0.43080  0.74613  Biso   1.000  C
  C524     1.0000 0.06139  0.55020  0.75858  Biso   1.000  C
  C525     1.0000 0.06139  0.55020  0.75862  Biso   1.000  C
  N304     1.0000 0.07151  0.62999  0.76449  Biso   1.000  N
  H494     1.0000 0.14870  0.68412  0.73579  Biso   1.000  H
  H495     1.0000 0.14870  0.68412  0.73583  Biso   1.000  H
  C526     1.0000 0.15253  0.76332  0.83446  Biso   1.000  C
  C527     1.0000 0.15253  0.76332  0.83450  Biso   1.000  C
  C528     1.0000 0.09502  0.32999  0.81518  Biso   1.000  C
  N305     1.0000 0.12412  0.28212  0.85327  Biso   1.000  N
  H496     1.0000 0.21499  0.25350  0.84891  Biso   1.000  H
  C529     1.0000 0.22358  0.28720  0.96036  Biso   1.000  C
  H497     1.0000 0.08832  0.41120  0.72808  Biso   1.000  H
  H498     1.0000 0.15932  0.42431  0.71999  Biso   1.000  H
  H499     1.0000 0.08832  0.41120  0.72812  Biso   1.000  H
  H500     1.0000 0.15932  0.42431  0.72003  Biso   1.000  H
  O162     1.0000 0.01095  0.51762  0.75560  Biso   1.000  O
  C530     1.0000 0.02430  0.68789  0.75317  Biso   1.000  C
  H501     1.0000 0.16209  0.79419  0.80140  Biso   1.000  H
  H502     1.0000 0.18348  0.77519  0.86261  Biso   1.000  H
  N306     1.0000 0.09271  0.78717  0.85549  Biso   1.000  N
  N307     1.0000 0.09271  0.78717  0.85553  Biso   1.000  N
  O163     1.0000 0.04097  0.32645  0.80077  Biso   1.000  O
  C531     1.0000 0.09858  0.20669  0.86923  Biso   1.000  C
  H503     1.0000 0.25069  0.24458  0.94859  Biso   1.000  H
  H504     1.0000 0.24630  0.31978  0.98659  Biso   1.000  H
  N308     1.0000 0.17059  0.25397  0.98844  Biso   1.000  N
  H505     1.0000 0.25069  0.24458  0.94863  Biso   1.000  H
  H506     1.0000 0.24630  0.31978  0.98663  Biso   1.000  H
  N309     1.0000 0.17059  0.25397  0.98848  Biso   1.000  N
  H507     1.0000 0.03931  0.72378  0.72452  Biso   1.000  H
  N310     1.0000 0.00610  0.73358  0.80199  Biso   1.000  N
  H508     1.0000 0.98822  0.66122  0.73830  Biso   1.000  H
  C532     1.0000 0.04010  0.80387  0.81958  Biso   1.000  C
  C533     1.0000 0.04010  0.80387  0.81963  Biso   1.000  C
  C534     1.0000 0.08319  0.80912  0.90979  Biso   1.000  C
  H509     1.0000 0.05950  0.19908  0.85000  Biso   1.000  H
  N311     1.0000 0.08874  0.19961  0.92890  Biso   1.000  N
  H510     1.0000 0.12639  0.16520  0.85708  Biso   1.000  H
  H511     1.0000 0.12639  0.16520  0.85712  Biso   1.000  H
  C535     1.0000 0.13964  0.18362  0.96665  Biso   1.000  C
  C536     1.0000 0.13964  0.18362  0.96669  Biso   1.000  C
  C537     1.0000 0.16759  0.25627  0.04621  Biso   1.000  C
  C538     1.0000 0.16759  0.25627  0.04626  Biso   1.000  C
  C539     1.0000 0.94540  0.73812  0.81732  Biso   1.000  C
  C540     1.0000 0.94540  0.73812  0.81736  Biso   1.000  C
  H512     1.0000 0.05151  0.83740  0.78770  Biso   1.000  H
  C541     1.0000 0.99469  0.84601  0.85976  Biso   1.000  C
  N312     1.0000 0.02434  0.83869  0.91419  Biso   1.000  N
  O164     1.0000 0.12140  0.80369  0.94767  Biso   1.000  O
  C542     1.0000 0.03349  0.17488  0.95022  Biso   1.000  C
  H513     1.0000 0.16921  0.14620  0.95031  Biso   1.000  H
  C543     1.0000 0.10703  0.14850  0.01902  Biso   1.000  C
  N313     1.0000 0.12648  0.20032  0.06385  Biso   1.000  N
  O165     1.0000 0.19771  0.30042  0.07634  Biso   1.000  O
  N314     1.0000 0.12648  0.20032  0.06390  Biso   1.000  N
  N315     1.0000 0.93833  0.80068  0.85319  Biso   1.000  N
  O166     1.0000 0.90424  0.69368  0.80098  Biso   1.000  O
  O167     1.0000 0.90424  0.69368  0.80102  Biso   1.000  O
  H514     1.0000 0.98868  0.90138  0.84929  Biso   1.000  H
  H515     1.0000 0.98868  0.90138  0.84933  Biso   1.000  H
  C544     1.0000 0.00559  0.88509  0.96275  Biso   1.000  C
  C545     1.0000 0.00559  0.88509  0.96279  Biso   1.000  C
  O168     1.0000 0.98425  0.17187  0.92412  Biso   1.000  O
  N316     1.0000 0.04217  0.15328  0.00469  Biso   1.000  N
  H516     1.0000 0.11978  0.09390  0.02589  Biso   1.000  H
  H517     1.0000 0.11978  0.09390  0.02594  Biso   1.000  H
  C546     1.0000 0.12061  0.17860  0.12239  Biso   1.000  C
  C547     1.0000 0.87939  0.82140  0.87761  Biso   1.000  C
  C548     1.0000 0.87939  0.82140  0.87766  Biso   1.000  C
  H518     1.0000 0.04130  0.89417  0.98651  Biso   1.000  H
  H519     1.0000 0.99062  0.93608  0.95018  Biso   1.000  H
  N317     1.0000 0.95783  0.84672  0.99531  Biso   1.000  N
  H520     1.0000 0.99062  0.93608  0.95022  Biso   1.000  H
  C549     1.0000 0.99441  0.11491  0.03725  Biso   1.000  C
  H521     1.0000 0.12662  0.12212  0.12591  Biso   1.000  H
  H522     1.0000 0.15309  0.20451  0.14350  Biso   1.000  H
  N318     1.0000 0.06167  0.19932  0.14681  Biso   1.000  N
  H523     1.0000 0.87338  0.87788  0.87409  Biso   1.000  H
  H524     1.0000 0.84691  0.79549  0.85650  Biso   1.000  H
  N319     1.0000 0.87352  0.79968  0.93615  Biso   1.000  N
  C550     1.0000 0.89297  0.85150  0.98098  Biso   1.000  C
  C551     1.0000 0.89297  0.85150  0.98102  Biso   1.000  C
  C552     1.0000 0.96651  0.82512  0.04978  Biso   1.000  C
  C553     1.0000 0.96651  0.82512  0.04982  Biso   1.000  C
  H525     1.0000 0.95870  0.10583  0.01349  Biso   1.000  H
  N320     1.0000 0.97566  0.16131  0.08581  Biso   1.000  N
  H526     1.0000 0.95870  0.10583  0.01353  Biso   1.000  H
  H527     1.0000 0.00938  0.06392  0.04982  Biso   1.000  H
  C554     1.0000 0.00531  0.15399  0.14024  Biso   1.000  C
  C555     1.0000 0.00531  0.15399  0.14028  Biso   1.000  C
  C556     1.0000 0.05460  0.26188  0.18268  Biso   1.000  C
  C557     1.0000 0.83241  0.74367  0.95379  Biso   1.000  C
  H528     1.0000 0.88022  0.90610  0.97411  Biso   1.000  H
  C558     1.0000 0.86036  0.81638  0.03335  Biso   1.000  C
  N321     1.0000 0.91126  0.80039  0.07110  Biso   1.000  N
  N322     1.0000 0.91126  0.80039  0.07114  Biso   1.000  N
  O169     1.0000 0.01575  0.82813  0.07588  Biso   1.000  O
  C559     1.0000 0.91681  0.19088  0.09021  Biso   1.000  C
  C560     1.0000 0.95990  0.19613  0.18042  Biso   1.000  C
  H529     1.0000 0.01132  0.09862  0.15071  Biso   1.000  H
  N323     1.0000 0.99390  0.26642  0.19801  Biso   1.000  N
  N324     1.0000 0.99390  0.26642  0.19806  Biso   1.000  N
  O170     1.0000 0.09576  0.30632  0.19902  Biso   1.000  O
  O171     1.0000 0.80229  0.69958  0.92366  Biso   1.000  O
  O172     1.0000 0.80229  0.69958  0.92370  Biso   1.000  O
  N325     1.0000 0.82941  0.74597  0.01156  Biso   1.000  N
  H530     1.0000 0.83079  0.85380  0.04969  Biso   1.000  H
  H531     1.0000 0.83079  0.85380  0.04973  Biso   1.000  H
  C561     1.0000 0.90142  0.79331  0.13077  Biso   1.000  C
  C562     1.0000 0.90142  0.79331  0.13081  Biso   1.000  C
  N326     1.0000 0.90729  0.21277  0.14451  Biso   1.000  N
  O173     1.0000 0.87860  0.19631  0.05233  Biso   1.000  O
  O174     1.0000 0.87860  0.19631  0.05237  Biso   1.000  O
  H532     1.0000 0.94849  0.16260  0.21230  Biso   1.000  H
  C563     1.0000 0.97570  0.31211  0.24683  Biso   1.000  C
  C564     1.0000 0.97570  0.31211  0.24687  Biso   1.000  C
  C565     1.0000 0.77642  0.71280  0.03964  Biso   1.000  C
  C566     1.0000 0.77642  0.71280  0.03968  Biso   1.000  C
  H533     1.0000 0.87361  0.83480  0.14292  Biso   1.000  H
  H534     1.0000 0.94050  0.80092  0.15000  Biso   1.000  H
  N327     1.0000 0.87588  0.71788  0.14673  Biso   1.000  N
  H535     1.0000 0.94050  0.80092  0.15004  Biso   1.000  H
  C567     1.0000 0.84747  0.23668  0.16554  Biso   1.000  C
  H536     1.0000 0.96069  0.27622  0.27548  Biso   1.000  H
  N328     1.0000 0.92849  0.37001  0.23551  Biso   1.000  N
  H537     1.0000 0.96069  0.27622  0.27553  Biso   1.000  H
  H538     1.0000 0.01178  0.33878  0.26170  Biso   1.000  H
  N329     1.0000 0.79273  0.66541  0.08845  Biso   1.000  N
  H539     1.0000 0.74931  0.75542  0.05141  Biso   1.000  H
  H540     1.0000 0.75370  0.68022  0.01341  Biso   1.000  H
  C568     1.0000 0.81047  0.70041  0.14200  Biso   1.000  C
  C569     1.0000 0.81047  0.70041  0.14204  Biso   1.000  C
  C570     1.0000 0.90498  0.67001  0.18482  Biso   1.000  C
  H541     1.0000 0.83791  0.20581  0.19860  Biso   1.000  H
  H542     1.0000 0.81652  0.22481  0.13739  Biso   1.000  H
  N330     1.0000 0.84326  0.32001  0.17983  Biso   1.000  N
  H543     1.0000 0.81652  0.22481  0.13743  Biso   1.000  H
  C571     1.0000 0.86354  0.35041  0.23321  Biso   1.000  C
  C572     1.0000 0.93861  0.44980  0.24142  Biso   1.000  C
  C573     1.0000 0.76959  0.59080  0.09478  Biso   1.000  C
  C574     1.0000 0.76959  0.59080  0.09482  Biso   1.000  C
  C575     1.0000 0.80007  0.63159  0.18440  Biso   1.000  C
  H544     1.0000 0.78501  0.74650  0.15109  Biso   1.000  H
  C576     1.0000 0.80007  0.63159  0.18444  Biso   1.000  C
  H545     1.0000 0.78501  0.74650  0.15113  Biso   1.000  H
  N331     1.0000 0.86239  0.61671  0.20480  Biso   1.000  N
  O175     1.0000 0.95903  0.67355  0.19923  Biso   1.000  O
  O176     1.0000 0.95903  0.67355  0.19927  Biso   1.000  O
  C577     1.0000 0.80428  0.37089  0.15197  Biso   1.000  C
  H546     1.0000 0.85130  0.31588  0.26421  Biso   1.000  H
  C578     1.0000 0.83116  0.43210  0.23652  Biso   1.000  C
  C579     1.0000 0.83116  0.43210  0.23656  Biso   1.000  C
  N332     1.0000 0.88239  0.48622  0.24264  Biso   1.000  N
  O177     1.0000 0.98905  0.48232  0.24440  Biso   1.000  O
  O178     1.0000 0.98905  0.48232  0.24444  Biso   1.000  O
  N333     1.0000 0.77421  0.56938  0.14987  Biso   1.000  N
  O179     1.0000 0.74677  0.54961  0.05753  Biso   1.000  O
  H547     1.0000 0.77199  0.64682  0.21482  Biso   1.000  H
  C580     1.0000 0.87458  0.56920  0.25387  Biso   1.000  C
  C581     1.0000 0.87458  0.56920  0.25391  Biso   1.000  C
  N334     1.0000 0.79975  0.43829  0.18314  Biso   1.000  N
  O180     1.0000 0.77799  0.35743  0.10806  Biso   1.000  O
  O181     1.0000 0.77799  0.35743  0.10810  Biso   1.000  O
  H548     1.0000 0.80238  0.43528  0.26811  Biso   1.000  H
  C582     1.0000 0.75139  0.49590  0.17220  Biso   1.000  C
  H549     1.0000 0.91168  0.58880  0.27192  Biso   1.000  H
  H550     1.0000 0.84068  0.57569  0.28001  Biso   1.000  H
  H551     1.0000 0.72210  0.47341  0.14589  Biso   1.000  H
  H552     1.0000 0.72940  0.50640  0.20681  Biso   1.000  H
  H553     1.0000 0.72210  0.47341  0.14593  Biso   1.000  H
  C583     1.0000 0.24861  0.50410  0.82780  Biso   1.000  C
  N335     1.0000 0.20025  0.56171  0.81686  Biso   1.000  N
  N336     1.0000 0.20025  0.56171  0.81690  Biso   1.000  N
  N337     1.0000 0.22579  0.43062  0.85013  Biso   1.000  N
  H554     1.0000 0.27790  0.52659  0.85411  Biso   1.000  H
  H555     1.0000 0.27060  0.49360  0.79319  Biso   1.000  H
  H556     1.0000 0.27060  0.49360  0.79323  Biso   1.000  H
  C584     1.0000 0.16884  0.56790  0.76348  Biso   1.000  C
  C585     1.0000 0.19572  0.62911  0.84803  Biso   1.000  C
  C586     1.0000 0.19572  0.62911  0.84807  Biso   1.000  C
  C587     1.0000 0.24861  0.50410  0.82784  Biso   1.000  C
  C588     1.0000 0.19993  0.36841  0.81560  Biso   1.000  C
  C589     1.0000 0.23041  0.40920  0.90522  Biso   1.000  C
  N338     1.0000 0.11761  0.51378  0.75736  Biso   1.000  N
  N339     1.0000 0.11761  0.51378  0.75741  Biso   1.000  N
  C590     1.0000 0.13646  0.64959  0.76679  Biso   1.000  C
  H557     1.0000 0.19762  0.56472  0.73189  Biso   1.000  H
  C591     1.0000 0.13646  0.64959  0.76683  Biso   1.000  C
  H558     1.0000 0.19762  0.56472  0.73193  Biso   1.000  H
  N340     1.0000 0.15674  0.67999  0.82017  Biso   1.000  N
  N341     1.0000 0.15674  0.67999  0.82021  Biso   1.000  N
  O182     1.0000 0.22201  0.64257  0.89194  Biso   1.000  O
  N342     1.0000 0.13761  0.38329  0.79520  Biso   1.000  N
  N343     1.0000 0.13761  0.38329  0.79524  Biso   1.000  N
  C592     1.0000 0.18953  0.29959  0.85800  Biso   1.000  C
  H559     1.0000 0.22801  0.35318  0.78518  Biso   1.000  H
  H560     1.0000 0.22801  0.35318  0.78523  Biso   1.000  H
  N344     1.0000 0.20727  0.33459  0.91155  Biso   1.000  N
  N345     1.0000 0.20727  0.33459  0.91159  Biso   1.000  N
  O183     1.0000 0.25323  0.45039  0.94247  Biso   1.000  O
  O184     1.0000 0.25323  0.45039  0.94251  Biso   1.000  O
  C593     1.0000 0.12542  0.43080  0.74613  Biso   1.000  C
  C594     1.0000 0.06139  0.55020  0.75858  Biso   1.000  C
  C595     1.0000 0.06139  0.55020  0.75862  Biso   1.000  C
  N346     1.0000 0.07151  0.62999  0.76449  Biso   1.000  N
  H561     1.0000 0.14870  0.68412  0.73579  Biso   1.000  H
  H562     1.0000 0.14870  0.68412  0.73583  Biso   1.000  H
  C596     1.0000 0.15253  0.76332  0.83446  Biso   1.000  C
  C597     1.0000 0.15253  0.76332  0.83450  Biso   1.000  C
  C598     1.0000 0.09502  0.32999  0.81518  Biso   1.000  C
  N347     1.0000 0.12412  0.28212  0.85327  Biso   1.000  N
  H563     1.0000 0.21499  0.25350  0.84891  Biso   1.000  H
  C599     1.0000 0.22358  0.28720  0.96036  Biso   1.000  C
  H564     1.0000 0.08832  0.41120  0.72808  Biso   1.000  H
  H565     1.0000 0.15932  0.42431  0.71999  Biso   1.000  H
  H566     1.0000 0.08832  0.41120  0.72812  Biso   1.000  H
  H567     1.0000 0.15932  0.42431  0.72003  Biso   1.000  H
  O185     1.0000 0.01095  0.51762  0.75560  Biso   1.000  O
  C600     1.0000 0.02430  0.68789  0.75317  Biso   1.000  C
  H568     1.0000 0.16209  0.79419  0.80140  Biso   1.000  H
  H569     1.0000 0.18348  0.77519  0.86261  Biso   1.000  H
  N348     1.0000 0.09271  0.78717  0.85549  Biso   1.000  N
  N349     1.0000 0.09271  0.78717  0.85553  Biso   1.000  N
  O186     1.0000 0.04097  0.32645  0.80077  Biso   1.000  O
  C601     1.0000 0.09858  0.20669  0.86923  Biso   1.000  C
  H570     1.0000 0.25069  0.24458  0.94859  Biso   1.000  H
  H571     1.0000 0.24630  0.31978  0.98659  Biso   1.000  H
  N350     1.0000 0.17059  0.25397  0.98844  Biso   1.000  N
  H572     1.0000 0.25069  0.24458  0.94863  Biso   1.000  H
  H573     1.0000 0.24630  0.31978  0.98663  Biso   1.000  H
  N351     1.0000 0.17059  0.25397  0.98848  Biso   1.000  N
  H574     1.0000 0.03931  0.72378  0.72452  Biso   1.000  H
  N352     1.0000 0.00610  0.73358  0.80199  Biso   1.000  N
  H575     1.0000 0.98822  0.66122  0.73830  Biso   1.000  H
  C602     1.0000 0.04010  0.80387  0.81958  Biso   1.000  C
  C603     1.0000 0.04010  0.80387  0.81963  Biso   1.000  C
  C604     1.0000 0.08319  0.80912  0.90979  Biso   1.000  C
  H576     1.0000 0.05950  0.19908  0.85000  Biso   1.000  H
  N353     1.0000 0.08874  0.19961  0.92890  Biso   1.000  N
  H577     1.0000 0.12639  0.16520  0.85708  Biso   1.000  H
  H578     1.0000 0.12639  0.16520  0.85712  Biso   1.000  H
  C605     1.0000 0.13964  0.18362  0.96665  Biso   1.000  C
  C606     1.0000 0.13964  0.18362  0.96669  Biso   1.000  C
  C607     1.0000 0.16759  0.25627  0.04621  Biso   1.000  C
  C608     1.0000 0.16759  0.25627  0.04626  Biso   1.000  C
  C609     1.0000 0.94540  0.73812  0.81732  Biso   1.000  C
  C610     1.0000 0.94540  0.73812  0.81736  Biso   1.000  C
  H579     1.0000 0.05151  0.83740  0.78770  Biso   1.000  H
  C611     1.0000 0.99469  0.84601  0.85976  Biso   1.000  C
  N354     1.0000 0.02434  0.83869  0.91419  Biso   1.000  N
  O187     1.0000 0.12140  0.80369  0.94767  Biso   1.000  O
  C612     1.0000 0.03349  0.17488  0.95022  Biso   1.000  C
  H580     1.0000 0.16921  0.14620  0.95031  Biso   1.000  H
  C613     1.0000 0.10703  0.14850  0.01902  Biso   1.000  C
  N355     1.0000 0.12648  0.20032  0.06385  Biso   1.000  N
  O188     1.0000 0.19771  0.30042  0.07634  Biso   1.000  O
  N356     1.0000 0.12648  0.20032  0.06390  Biso   1.000  N
  N357     1.0000 0.93833  0.80068  0.85319  Biso   1.000  N
  O189     1.0000 0.90424  0.69368  0.80098  Biso   1.000  O
  O190     1.0000 0.90424  0.69368  0.80102  Biso   1.000  O
  H581     1.0000 0.98868  0.90138  0.84929  Biso   1.000  H
  H582     1.0000 0.98868  0.90138  0.84933  Biso   1.000  H
  C614     1.0000 0.00559  0.88509  0.96275  Biso   1.000  C
  C615     1.0000 0.00559  0.88509  0.96279  Biso   1.000  C
  O191     1.0000 0.98425  0.17187  0.92412  Biso   1.000  O
  N358     1.0000 0.04217  0.15328  0.00469  Biso   1.000  N
  H583     1.0000 0.11978  0.09390  0.02589  Biso   1.000  H
  H584     1.0000 0.11978  0.09390  0.02594  Biso   1.000  H
  C616     1.0000 0.12061  0.17860  0.12239  Biso   1.000  C
  C617     1.0000 0.87939  0.82140  0.87761  Biso   1.000  C
  C618     1.0000 0.87939  0.82140  0.87766  Biso   1.000  C
  H585     1.0000 0.04130  0.89417  0.98651  Biso   1.000  H
  H586     1.0000 0.99062  0.93608  0.95018  Biso   1.000  H
  N359     1.0000 0.95783  0.84672  0.99531  Biso   1.000  N
  H587     1.0000 0.99062  0.93608  0.95022  Biso   1.000  H
  C619     1.0000 0.99441  0.11491  0.03725  Biso   1.000  C
  H588     1.0000 0.12662  0.12212  0.12591  Biso   1.000  H
  H589     1.0000 0.15309  0.20451  0.14350  Biso   1.000  H
  N360     1.0000 0.06167  0.19932  0.14681  Biso   1.000  N
  H590     1.0000 0.87338  0.87788  0.87409  Biso   1.000  H
  H591     1.0000 0.84691  0.79549  0.85650  Biso   1.000  H
  N361     1.0000 0.87352  0.79968  0.93615  Biso   1.000  N
  C620     1.0000 0.89297  0.85150  0.98098  Biso   1.000  C
  C621     1.0000 0.89297  0.85150  0.98102  Biso   1.000  C
  C622     1.0000 0.96651  0.82512  0.04978  Biso   1.000  C
  C623     1.0000 0.96651  0.82512  0.04982  Biso   1.000  C
  H592     1.0000 0.95870  0.10583  0.01349  Biso   1.000  H
  N362     1.0000 0.97566  0.16131  0.08581  Biso   1.000  N
  H593     1.0000 0.95870  0.10583  0.01353  Biso   1.000  H
  H594     1.0000 0.00938  0.06392  0.04982  Biso   1.000  H
  C624     1.0000 0.00531  0.15399  0.14024  Biso   1.000  C
  C625     1.0000 0.00531  0.15399  0.14028  Biso   1.000  C
  C626     1.0000 0.05460  0.26188  0.18268  Biso   1.000  C
  C627     1.0000 0.83241  0.74367  0.95379  Biso   1.000  C
  H595     1.0000 0.88022  0.90610  0.97411  Biso   1.000  H
  C628     1.0000 0.86036  0.81638  0.03335  Biso   1.000  C
  N363     1.0000 0.91126  0.80039  0.07110  Biso   1.000  N
  N364     1.0000 0.91126  0.80039  0.07114  Biso   1.000  N
  O192     1.0000 0.01575  0.82813  0.07588  Biso   1.000  O
  C629     1.0000 0.91681  0.19088  0.09021  Biso   1.000  C
  C630     1.0000 0.95990  0.19613  0.18042  Biso   1.000  C
  H596     1.0000 0.01132  0.09862  0.15071  Biso   1.000  H
  N365     1.0000 0.99390  0.26642  0.19801  Biso   1.000  N
  N366     1.0000 0.99390  0.26642  0.19806  Biso   1.000  N
  O193     1.0000 0.09576  0.30632  0.19902  Biso   1.000  O
  O194     1.0000 0.80229  0.69958  0.92366  Biso   1.000  O
  O195     1.0000 0.80229  0.69958  0.92370  Biso   1.000  O
  N367     1.0000 0.82941  0.74597  0.01156  Biso   1.000  N
  H597     1.0000 0.83079  0.85380  0.04969  Biso   1.000  H
  H598     1.0000 0.83079  0.85380  0.04973  Biso   1.000  H
  C631     1.0000 0.90142  0.79331  0.13077  Biso   1.000  C
  C632     1.0000 0.90142  0.79331  0.13081  Biso   1.000  C
  N368     1.0000 0.90729  0.21277  0.14451  Biso   1.000  N
  O196     1.0000 0.87860  0.19631  0.05233  Biso   1.000  O
  O197     1.0000 0.87860  0.19631  0.05237  Biso   1.000  O
  H599     1.0000 0.94849  0.16260  0.21230  Biso   1.000  H
  C633     1.0000 0.97570  0.31211  0.24683  Biso   1.000  C
  C634     1.0000 0.97570  0.31211  0.24687  Biso   1.000  C
  C635     1.0000 0.77642  0.71280  0.03964  Biso   1.000  C
  C636     1.0000 0.77642  0.71280  0.03968  Biso   1.000  C
  H600     1.0000 0.87361  0.83480  0.14292  Biso   1.000  H
  H601     1.0000 0.94050  0.80092  0.15000  Biso   1.000  H
  N369     1.0000 0.87588  0.71788  0.14673  Biso   1.000  N
  H602     1.0000 0.94050  0.80092  0.15004  Biso   1.000  H
  C637     1.0000 0.84747  0.23668  0.16554  Biso   1.000  C
  H603     1.0000 0.96069  0.27622  0.27548  Biso   1.000  H
  N370     1.0000 0.92849  0.37001  0.23551  Biso   1.000  N
  H604     1.0000 0.96069  0.27622  0.27553  Biso   1.000  H
  H605     1.0000 0.01178  0.33878  0.26170  Biso   1.000  H
  N371     1.0000 0.79273  0.66541  0.08845  Biso   1.000  N
  H606     1.0000 0.74931  0.75542  0.05141  Biso   1.000  H
  H607     1.0000 0.75370  0.68022  0.01341  Biso   1.000  H
  C638     1.0000 0.81047  0.70041  0.14200  Biso   1.000  C
  C639     1.0000 0.81047  0.70041  0.14204  Biso   1.000  C
  C640     1.0000 0.90498  0.67001  0.18482  Biso   1.000  C
  H608     1.0000 0.83791  0.20581  0.19860  Biso   1.000  H
  H609     1.0000 0.81652  0.22481  0.13739  Biso   1.000  H
  N372     1.0000 0.84326  0.32001  0.17983  Biso   1.000  N
  H610     1.0000 0.81652  0.22481  0.13743  Biso   1.000  H
  C641     1.0000 0.86354  0.35041  0.23321  Biso   1.000  C
  C642     1.0000 0.93861  0.44980  0.24142  Biso   1.000  C
  C643     1.0000 0.76959  0.59080  0.09478  Biso   1.000  C
  C644     1.0000 0.76959  0.59080  0.09482  Biso   1.000  C
  C645     1.0000 0.80007  0.63159  0.18440  Biso   1.000  C
  H611     1.0000 0.78501  0.74650  0.15109  Biso   1.000  H
  C646     1.0000 0.80007  0.63159  0.18444  Biso   1.000  C
  H612     1.0000 0.78501  0.74650  0.15113  Biso   1.000  H
  N373     1.0000 0.86239  0.61671  0.20480  Biso   1.000  N
  O198     1.0000 0.95903  0.67355  0.19923  Biso   1.000  O
  O199     1.0000 0.95903  0.67355  0.19927  Biso   1.000  O
  C647     1.0000 0.80428  0.37089  0.15197  Biso   1.000  C
  H613     1.0000 0.85130  0.31588  0.26421  Biso   1.000  H
  C648     1.0000 0.83116  0.43210  0.23652  Biso   1.000  C
  C649     1.0000 0.83116  0.43210  0.23656  Biso   1.000  C
  N374     1.0000 0.88239  0.48622  0.24264  Biso   1.000  N
  O200     1.0000 0.98905  0.48232  0.24440  Biso   1.000  O
  O201     1.0000 0.98905  0.48232  0.24444  Biso   1.000  O
  N375     1.0000 0.77421  0.56938  0.14987  Biso   1.000  N
  O202     1.0000 0.74677  0.54961  0.05753  Biso   1.000  O
  H614     1.0000 0.77199  0.64682  0.21482  Biso   1.000  H
  C650     1.0000 0.87458  0.56920  0.25387  Biso   1.000  C
  C651     1.0000 0.87458  0.56920  0.25391  Biso   1.000  C
  N376     1.0000 0.79975  0.43829  0.18314  Biso   1.000  N
  O203     1.0000 0.77799  0.35743  0.10806  Biso   1.000  O
  O204     1.0000 0.77799  0.35743  0.10810  Biso   1.000  O
  H615     1.0000 0.80238  0.43528  0.26811  Biso   1.000  H
  C652     1.0000 0.75139  0.49590  0.17220  Biso   1.000  C
  H616     1.0000 0.91168  0.58880  0.27192  Biso   1.000  H
  H617     1.0000 0.84068  0.57569  0.28001  Biso   1.000  H
  H618     1.0000 0.72210  0.47341  0.14589  Biso   1.000  H
  H619     1.0000 0.72940  0.50640  0.20681  Biso   1.000  H
  H620     1.0000 0.72210  0.47341  0.14593  Biso   1.000  H
  C653     1.0000 0.81047  0.79962  0.64202  Biso   1.000  C
  N377     1.0000 0.79273  0.83462  0.58843  Biso   1.000  N
  N378     1.0000 0.87588  0.78209  0.64675  Biso   1.000  N
  H621     1.0000 0.78501  0.75353  0.65111  Biso   1.000  H
  C654     1.0000 0.80007  0.86838  0.68442  Biso   1.000  C
  H622     1.0000 0.78501  0.75347  0.65111  Biso   1.000  H
  C655     1.0000 0.77642  0.78723  0.53966  Biso   1.000  C
  C656     1.0000 0.77642  0.78717  0.53966  Biso   1.000  C
  C657     1.0000 0.76959  0.90923  0.59480  Biso   1.000  C
  C658     1.0000 0.76959  0.90917  0.59480  Biso   1.000  C
  C659     1.0000 0.90142  0.70672  0.63079  Biso   1.000  C
  C660     1.0000 0.90498  0.83002  0.68484  Biso   1.000  C
  N379     1.0000 0.77421  0.93059  0.64989  Biso   1.000  N
  H623     1.0000 0.77199  0.85321  0.71479  Biso   1.000  H
  N380     1.0000 0.86239  0.88331  0.70478  Biso   1.000  N
  N381     1.0000 0.82941  0.75400  0.51154  Biso   1.000  N
  H624     1.0000 0.74931  0.74461  0.55139  Biso   1.000  H
  H625     1.0000 0.75370  0.81981  0.51343  Biso   1.000  H
  O205     1.0000 0.74677  0.95042  0.55755  Biso   1.000  O
  N382     1.0000 0.91126  0.69958  0.57112  Biso   1.000  N
  H626     1.0000 0.87361  0.66523  0.64290  Biso   1.000  H
  H627     1.0000 0.94050  0.69911  0.65002  Biso   1.000  H
  H628     1.0000 0.87361  0.66517  0.64290  Biso   1.000  H
  O206     1.0000 0.95903  0.82648  0.69925  Biso   1.000  O
  C661     1.0000 0.75139  0.00407  0.67218  Biso   1.000  C
  C662     1.0000 0.87458  0.93083  0.75389  Biso   1.000  C
  C663     1.0000 0.87458  0.93077  0.75389  Biso   1.000  C
  C664     1.0000 0.83241  0.75630  0.45381  Biso   1.000  C
  C665     1.0000 0.86036  0.68359  0.53333  Biso   1.000  C
  C666     1.0000 0.96651  0.67491  0.54980  Biso   1.000  C
  H629     1.0000 0.72940  0.99363  0.70679  Biso   1.000  H
  H630     1.0000 0.72940  0.99357  0.70679  Biso   1.000  H
  H631     1.0000 0.72210  0.02662  0.64591  Biso   1.000  H
  N383     1.0000 0.79975  0.06168  0.68312  Biso   1.000  N
  H632     1.0000 0.91168  0.91117  0.77190  Biso   1.000  H
  H633     1.0000 0.84068  0.92428  0.78003  Biso   1.000  H
  N384     1.0000 0.88239  0.01381  0.74262  Biso   1.000  N
  N385     1.0000 0.87352  0.70029  0.43613  Biso   1.000  N
  O207     1.0000 0.80229  0.80039  0.42368  Biso   1.000  O
  C667     1.0000 0.89297  0.64853  0.48100  Biso   1.000  C
  C668     1.0000 0.89297  0.64847  0.48100  Biso   1.000  C
  H634     1.0000 0.83079  0.64623  0.54971  Biso   1.000  H
  N386     1.0000 0.95783  0.65331  0.49533  Biso   1.000  N
  O208     1.0000 0.01575  0.67190  0.57590  Biso   1.000  O
  C669     1.0000 0.80428  0.12908  0.65195  Biso   1.000  C
  C670     1.0000 0.83116  0.06787  0.73654  Biso   1.000  C
  C671     1.0000 0.93861  0.05023  0.74144  Biso   1.000  C
  C672     1.0000 0.93861  0.05017  0.74144  Biso   1.000  C
  C673     1.0000 0.87939  0.67857  0.37763  Biso   1.000  C
  C674     1.0000 0.87939  0.67863  0.37763  Biso   1.000  C
  H635     1.0000 0.88022  0.59387  0.47413  Biso   1.000  H
  C675     1.0000 0.00559  0.61489  0.46277  Biso   1.000  C
  N387     1.0000 0.84326  0.18002  0.67985  Biso   1.000  N
  O209     1.0000 0.77799  0.14260  0.60808  Biso   1.000  O
  O210     1.0000 0.77799  0.14254  0.60808  Biso   1.000  O
  C676     1.0000 0.86354  0.14962  0.73323  Biso   1.000  C
  H636     1.0000 0.80238  0.06469  0.76813  Biso   1.000  H
  N388     1.0000 0.92849  0.13002  0.73553  Biso   1.000  N
  O211     1.0000 0.98905  0.01765  0.74442  Biso   1.000  O
  N389     1.0000 0.92849  0.12997  0.73553  Biso   1.000  N
  H637     1.0000 0.87338  0.62209  0.37411  Biso   1.000  H
  H638     1.0000 0.84691  0.70448  0.35652  Biso   1.000  H
  N390     1.0000 0.93833  0.69929  0.35321  Biso   1.000  N
  N391     1.0000 0.02434  0.66128  0.41421  Biso   1.000  N
  H639     1.0000 0.99062  0.56389  0.45020  Biso   1.000  H
  H640     1.0000 0.04130  0.60580  0.48649  Biso   1.000  H
  C677     1.0000 0.84747  0.26329  0.66552  Biso   1.000  C
  H641     1.0000 0.85130  0.18409  0.76419  Biso   1.000  H
  C678     1.0000 0.97570  0.18792  0.74685  Biso   1.000  C
  C679     1.0000 0.97570  0.18787  0.74685  Biso   1.000  C
  C680     1.0000 0.99469  0.65402  0.35979  Biso   1.000  C
  C681     1.0000 0.94540  0.76191  0.31734  Biso   1.000  C
  C682     1.0000 0.08319  0.69090  0.40981  Biso   1.000  C
  H642     1.0000 0.83791  0.29422  0.69862  Biso   1.000  H
  H643     1.0000 0.81652  0.27522  0.63741  Biso   1.000  H
  N392     1.0000 0.90729  0.28720  0.64453  Biso   1.000  N
  H644     1.0000 0.96069  0.22381  0.77551  Biso   1.000  H
  N393     1.0000 0.99390  0.23361  0.69803  Biso   1.000  N
  H645     1.0000 0.01178  0.16119  0.76172  Biso   1.000  H
  H646     1.0000 0.98868  0.59860  0.34931  Biso   1.000  H
  C683     1.0000 0.04010  0.69610  0.31960  Biso   1.000  C
  O212     1.0000 0.90424  0.80629  0.30100  Biso   1.000  O
  N394     1.0000 0.00610  0.76639  0.30197  Biso   1.000  N
  N395     1.0000 0.09271  0.71280  0.35551  Biso   1.000  N
  O213     1.0000 0.12140  0.69633  0.44765  Biso   1.000  O
  C684     1.0000 0.91681  0.30910  0.59023  Biso   1.000  C
  C685     1.0000 0.95990  0.30390  0.68040  Biso   1.000  C
  C686     1.0000 0.05460  0.23809  0.68270  Biso   1.000  C
  H647     1.0000 0.05151  0.66257  0.28772  Biso   1.000  H
  C687     1.0000 0.02430  0.81208  0.25315  Biso   1.000  C
  C688     1.0000 0.15253  0.73671  0.33448  Biso   1.000  C
  N396     1.0000 0.97566  0.33872  0.58583  Biso   1.000  N
  O214     1.0000 0.87860  0.30367  0.55235  Biso   1.000  O
  N397     1.0000 0.97566  0.33866  0.58583  Biso   1.000  N
  H648     1.0000 0.94849  0.33743  0.71232  Biso   1.000  H
  H649     1.0000 0.94849  0.33737  0.71232  Biso   1.000  H
  C689     1.0000 0.00531  0.34598  0.64026  Biso   1.000  C
  N398     1.0000 0.06167  0.30071  0.64683  Biso   1.000  N
  O215     1.0000 0.09576  0.19371  0.69900  Biso   1.000  O
  H650     1.0000 0.98822  0.83881  0.23832  Biso   1.000  H
  H651     1.0000 0.03931  0.77619  0.22449  Biso   1.000  H
  N399     1.0000 0.07151  0.86998  0.26451  Biso   1.000  N
  H652     1.0000 0.16209  0.70578  0.30142  Biso   1.000  H
  H653     1.0000 0.18348  0.72478  0.36259  Biso   1.000  H
  N400     1.0000 0.15674  0.81998  0.32019  Biso   1.000  N
  C690     1.0000 0.99441  0.38511  0.53727  Biso   1.000  C
  H654     1.0000 0.01132  0.40140  0.65073  Biso   1.000  H
  C691     1.0000 0.12061  0.32137  0.62241  Biso   1.000  C
  C692     1.0000 0.13646  0.85038  0.26681  Biso   1.000  C
  C693     1.0000 0.06139  0.94977  0.25860  Biso   1.000  C
  C694     1.0000 0.19572  0.87092  0.34805  Biso   1.000  C
  N401     1.0000 0.04217  0.34669  0.50471  Biso   1.000  N
  H655     1.0000 0.95870  0.39420  0.51351  Biso   1.000  H
  H656     1.0000 0.00938  0.43611  0.54980  Biso   1.000  H
  N402     1.0000 0.12648  0.29971  0.56387  Biso   1.000  N
  H657     1.0000 0.12662  0.37791  0.62593  Biso   1.000  H
  H658     1.0000 0.15309  0.29552  0.64352  Biso   1.000  H
  H659     1.0000 0.14870  0.81591  0.23581  Biso   1.000  H
  C695     1.0000 0.16884  0.93213  0.26350  Biso   1.000  C
  C696     1.0000 0.16884  0.93207  0.26350  Biso   1.000  C
  N403     1.0000 0.11761  0.98619  0.25738  Biso   1.000  N
  O216     1.0000 0.01095  0.98235  0.25562  Biso   1.000  O
  N404     1.0000 0.20025  0.93832  0.31688  Biso   1.000  N
  O217     1.0000 0.22201  0.85740  0.39192  Biso   1.000  O
  C697     1.0000 0.03349  0.32509  0.45025  Biso   1.000  C
  C698     1.0000 0.10703  0.35147  0.51900  Biso   1.000  C
  C699     1.0000 0.16759  0.24370  0.54624  Biso   1.000  C
  H660     1.0000 0.19762  0.93531  0.23191  Biso   1.000  H
  C700     1.0000 0.12542  0.06917  0.24611  Biso   1.000  C
  C701     1.0000 0.24861  0.99593  0.32782  Biso   1.000  C
  C702     1.0000 0.24861  0.99587  0.32782  Biso   1.000  C
  N405     1.0000 0.08874  0.30042  0.42888  Biso   1.000  N
  O218     1.0000 0.98425  0.32810  0.42414  Biso   1.000  O
  C703     1.0000 0.13964  0.31641  0.46667  Biso   1.000  C
  H661     1.0000 0.11978  0.40613  0.52591  Biso   1.000  H
  H662     1.0000 0.11978  0.40607  0.52591  Biso   1.000  H
  N406     1.0000 0.17059  0.24600  0.48846  Biso   1.000  N
  O219     1.0000 0.19771  0.19961  0.57632  Biso   1.000  O
  H663     1.0000 0.08832  0.08883  0.22810  Biso   1.000  H
  H664     1.0000 0.15932  0.07572  0.22001  Biso   1.000  H
  N407     1.0000 0.13761  0.11669  0.29522  Biso   1.000  N
  H665     1.0000 0.08832  0.08877  0.22810  Biso   1.000  H
  H666     1.0000 0.15932  0.07567  0.22001  Biso   1.000  H
  H667     1.0000 0.27790  0.97338  0.35409  Biso   1.000  H
  H668     1.0000 0.27060  0.00637  0.29321  Biso   1.000  H
  N408     1.0000 0.22579  0.06941  0.35015  Biso   1.000  N
  C704     1.0000 0.09858  0.29328  0.36925  Biso   1.000  C
  H669     1.0000 0.16921  0.35377  0.45029  Biso   1.000  H
  C705     1.0000 0.22358  0.21277  0.46038  Biso   1.000  C
  C706     1.0000 0.19993  0.13162  0.31562  Biso   1.000  C
  C707     1.0000 0.09502  0.16998  0.31521  Biso   1.000  C
  C708     1.0000 0.23041  0.09077  0.40520  Biso   1.000  C
  N409     1.0000 0.12412  0.21791  0.35329  Biso   1.000  N
  H670     1.0000 0.12639  0.33477  0.35710  Biso   1.000  H
  H671     1.0000 0.05950  0.30089  0.35002  Biso   1.000  H
  N410     1.0000 0.20727  0.16538  0.41157  Biso   1.000  N
  H672     1.0000 0.25069  0.25539  0.44861  Biso   1.000  H
  H673     1.0000 0.24630  0.18019  0.48661  Biso   1.000  H
  H674     1.0000 0.22801  0.14679  0.28521  Biso   1.000  H
  C709     1.0000 0.18953  0.20038  0.35798  Biso   1.000  C
  O220     1.0000 0.04097  0.17352  0.30075  Biso   1.000  O
  O221     1.0000 0.25323  0.04958  0.44249  Biso   1.000  O
  H675     1.0000 0.21499  0.24647  0.34889  Biso   1.000  H
  C710     1.0000 0.81047  0.79962  0.64202  Biso   1.000  C
  N411     1.0000 0.79273  0.83462  0.58843  Biso   1.000  N
  N412     1.0000 0.87588  0.78209  0.64675  Biso   1.000  N
  C711     1.0000 0.80007  0.86838  0.68442  Biso   1.000  C
  H676     1.0000 0.78501  0.75353  0.65111  Biso   1.000  H
  H677     1.0000 0.78501  0.75347  0.65111  Biso   1.000  H
  C712     1.0000 0.77642  0.78723  0.53966  Biso   1.000  C
  C713     1.0000 0.77642  0.78717  0.53966  Biso   1.000  C
  C714     1.0000 0.76959  0.90923  0.59480  Biso   1.000  C
  C715     1.0000 0.76959  0.90917  0.59480  Biso   1.000  C
  C716     1.0000 0.90142  0.70672  0.63079  Biso   1.000  C
  C717     1.0000 0.90498  0.83002  0.68484  Biso   1.000  C
  N413     1.0000 0.77421  0.93059  0.64989  Biso   1.000  N
  H678     1.0000 0.77199  0.85321  0.71479  Biso   1.000  H
  N414     1.0000 0.86239  0.88331  0.70478  Biso   1.000  N
  N415     1.0000 0.82941  0.75400  0.51154  Biso   1.000  N
  H679     1.0000 0.74931  0.74461  0.55139  Biso   1.000  H
  H680     1.0000 0.75370  0.81981  0.51343  Biso   1.000  H
  O222     1.0000 0.74677  0.95042  0.55755  Biso   1.000  O
  N416     1.0000 0.91126  0.69958  0.57112  Biso   1.000  N
  H681     1.0000 0.94050  0.69911  0.65002  Biso   1.000  H
  H682     1.0000 0.87361  0.66523  0.64290  Biso   1.000  H
  H683     1.0000 0.87361  0.66517  0.64290  Biso   1.000  H
  O223     1.0000 0.95903  0.82648  0.69925  Biso   1.000  O
  C718     1.0000 0.75139  0.00407  0.67218  Biso   1.000  C
  C719     1.0000 0.87458  0.93083  0.75389  Biso   1.000  C
  C720     1.0000 0.87458  0.93077  0.75389  Biso   1.000  C
  C721     1.0000 0.83241  0.75630  0.45381  Biso   1.000  C
  C722     1.0000 0.86036  0.68359  0.53333  Biso   1.000  C
  C723     1.0000 0.96651  0.67491  0.54980  Biso   1.000  C
  H684     1.0000 0.72940  0.99363  0.70679  Biso   1.000  H
  H685     1.0000 0.72940  0.99357  0.70679  Biso   1.000  H
  H686     1.0000 0.72210  0.02662  0.64591  Biso   1.000  H
  N417     1.0000 0.79975  0.06168  0.68312  Biso   1.000  N
  H687     1.0000 0.91168  0.91117  0.77190  Biso   1.000  H
  H688     1.0000 0.84068  0.92428  0.78003  Biso   1.000  H
  N418     1.0000 0.88239  0.01381  0.74262  Biso   1.000  N
  N419     1.0000 0.87352  0.70029  0.43613  Biso   1.000  N
  O224     1.0000 0.80229  0.80039  0.42368  Biso   1.000  O
  C724     1.0000 0.89297  0.64853  0.48100  Biso   1.000  C
  C725     1.0000 0.89297  0.64847  0.48100  Biso   1.000  C
  H689     1.0000 0.83079  0.64623  0.54971  Biso   1.000  H
  N420     1.0000 0.95783  0.65331  0.49533  Biso   1.000  N
  O225     1.0000 0.01575  0.67190  0.57590  Biso   1.000  O
  C726     1.0000 0.80428  0.12908  0.65195  Biso   1.000  C
  C727     1.0000 0.83116  0.06787  0.73654  Biso   1.000  C
  C728     1.0000 0.93861  0.05023  0.74144  Biso   1.000  C
  C729     1.0000 0.93861  0.05017  0.74144  Biso   1.000  C
  C730     1.0000 0.87939  0.67857  0.37763  Biso   1.000  C
  C731     1.0000 0.87939  0.67863  0.37763  Biso   1.000  C
  H690     1.0000 0.88022  0.59387  0.47413  Biso   1.000  H
  C732     1.0000 0.00559  0.61489  0.46277  Biso   1.000  C
  N421     1.0000 0.84326  0.18002  0.67985  Biso   1.000  N
  O226     1.0000 0.77799  0.14260  0.60808  Biso   1.000  O
  O227     1.0000 0.77799  0.14254  0.60808  Biso   1.000  O
  C733     1.0000 0.86354  0.14962  0.73323  Biso   1.000  C
  H691     1.0000 0.80238  0.06469  0.76813  Biso   1.000  H
  N422     1.0000 0.92849  0.13002  0.73553  Biso   1.000  N
  O228     1.0000 0.98905  0.01765  0.74442  Biso   1.000  O
  N423     1.0000 0.92849  0.12997  0.73553  Biso   1.000  N
  H692     1.0000 0.87338  0.62209  0.37411  Biso   1.000  H
  H693     1.0000 0.84691  0.70448  0.35652  Biso   1.000  H
  N424     1.0000 0.93833  0.69929  0.35321  Biso   1.000  N
  N425     1.0000 0.02434  0.66128  0.41421  Biso   1.000  N
  H694     1.0000 0.99062  0.56389  0.45020  Biso   1.000  H
  H695     1.0000 0.04130  0.60580  0.48649  Biso   1.000  H
  C734     1.0000 0.84747  0.26329  0.66552  Biso   1.000  C
  H696     1.0000 0.85130  0.18409  0.76419  Biso   1.000  H
  C735     1.0000 0.97570  0.18792  0.74685  Biso   1.000  C
  C736     1.0000 0.97570  0.18787  0.74685  Biso   1.000  C
  C737     1.0000 0.99469  0.65402  0.35979  Biso   1.000  C
  C738     1.0000 0.94540  0.76191  0.31734  Biso   1.000  C
  C739     1.0000 0.08319  0.69090  0.40981  Biso   1.000  C
  H697     1.0000 0.83791  0.29422  0.69862  Biso   1.000  H
  H698     1.0000 0.81652  0.27522  0.63741  Biso   1.000  H
  N426     1.0000 0.90729  0.28720  0.64453  Biso   1.000  N
  H699     1.0000 0.96069  0.22381  0.77551  Biso   1.000  H
  N427     1.0000 0.99390  0.23361  0.69803  Biso   1.000  N
  H700     1.0000 0.01178  0.16119  0.76172  Biso   1.000  H
  H701     1.0000 0.98868  0.59860  0.34931  Biso   1.000  H
  C740     1.0000 0.04010  0.69610  0.31960  Biso   1.000  C
  O229     1.0000 0.90424  0.80629  0.30100  Biso   1.000  O
  N428     1.0000 0.00610  0.76639  0.30197  Biso   1.000  N
  N429     1.0000 0.09271  0.71280  0.35551  Biso   1.000  N
  O230     1.0000 0.12140  0.69633  0.44765  Biso   1.000  O
  C741     1.0000 0.91681  0.30910  0.59023  Biso   1.000  C
  C742     1.0000 0.95990  0.30390  0.68040  Biso   1.000  C
  C743     1.0000 0.05460  0.23809  0.68270  Biso   1.000  C
  H702     1.0000 0.05151  0.66257  0.28772  Biso   1.000  H
  C744     1.0000 0.02430  0.81208  0.25315  Biso   1.000  C
  C745     1.0000 0.15253  0.73671  0.33448  Biso   1.000  C
  N430     1.0000 0.97566  0.33872  0.58583  Biso   1.000  N
  O231     1.0000 0.87860  0.30367  0.55235  Biso   1.000  O
  N431     1.0000 0.97566  0.33866  0.58583  Biso   1.000  N
  H703     1.0000 0.94849  0.33743  0.71232  Biso   1.000  H
  H704     1.0000 0.94849  0.33737  0.71232  Biso   1.000  H
  C746     1.0000 0.00531  0.34598  0.64026  Biso   1.000  C
  N432     1.0000 0.06167  0.30071  0.64683  Biso   1.000  N
  O232     1.0000 0.09576  0.19371  0.69900  Biso   1.000  O
  H705     1.0000 0.98822  0.83881  0.23832  Biso   1.000  H
  H706     1.0000 0.03931  0.77619  0.22449  Biso   1.000  H
  N433     1.0000 0.07151  0.86998  0.26451  Biso   1.000  N
  H707     1.0000 0.16209  0.70578  0.30142  Biso   1.000  H
  H708     1.0000 0.18348  0.72478  0.36259  Biso   1.000  H
  N434     1.0000 0.15674  0.81998  0.32019  Biso   1.000  N
  C747     1.0000 0.99441  0.38511  0.53727  Biso   1.000  C
  H709     1.0000 0.01132  0.40140  0.65073  Biso   1.000  H
  C748     1.0000 0.12061  0.32137  0.62241  Biso   1.000  C
  C749     1.0000 0.13646  0.85038  0.26681  Biso   1.000  C
  C750     1.0000 0.06139  0.94977  0.25860  Biso   1.000  C
  C751     1.0000 0.19572  0.87092  0.34805  Biso   1.000  C
  N435     1.0000 0.04217  0.34669  0.50471  Biso   1.000  N
  H710     1.0000 0.95870  0.39420  0.51351  Biso   1.000  H
  H711     1.0000 0.00938  0.43611  0.54980  Biso   1.000  H
  N436     1.0000 0.12648  0.29971  0.56387  Biso   1.000  N
  H712     1.0000 0.12662  0.37791  0.62593  Biso   1.000  H
  H713     1.0000 0.15309  0.29552  0.64352  Biso   1.000  H
  H714     1.0000 0.14870  0.81591  0.23581  Biso   1.000  H
  C752     1.0000 0.16884  0.93213  0.26350  Biso   1.000  C
  C753     1.0000 0.16884  0.93207  0.26350  Biso   1.000  C
  N437     1.0000 0.11761  0.98619  0.25738  Biso   1.000  N
  O233     1.0000 0.01095  0.98235  0.25562  Biso   1.000  O
  N438     1.0000 0.20025  0.93832  0.31688  Biso   1.000  N
  O234     1.0000 0.22201  0.85740  0.39192  Biso   1.000  O
  C754     1.0000 0.03349  0.32509  0.45025  Biso   1.000  C
  C755     1.0000 0.10703  0.35147  0.51900  Biso   1.000  C
  C756     1.0000 0.16759  0.24370  0.54624  Biso   1.000  C
  H715     1.0000 0.19762  0.93531  0.23191  Biso   1.000  H
  C757     1.0000 0.12542  0.06917  0.24611  Biso   1.000  C
  C758     1.0000 0.24861  0.99593  0.32782  Biso   1.000  C
  C759     1.0000 0.24861  0.99587  0.32782  Biso   1.000  C
  N439     1.0000 0.08874  0.30042  0.42888  Biso   1.000  N
  O235     1.0000 0.98425  0.32810  0.42414  Biso   1.000  O
  C760     1.0000 0.13964  0.31641  0.46667  Biso   1.000  C
  H716     1.0000 0.11978  0.40613  0.52591  Biso   1.000  H
  H717     1.0000 0.11978  0.40607  0.52591  Biso   1.000  H
  N440     1.0000 0.17059  0.24600  0.48846  Biso   1.000  N
  O236     1.0000 0.19771  0.19961  0.57632  Biso   1.000  O
  H718     1.0000 0.08832  0.08883  0.22810  Biso   1.000  H
  H719     1.0000 0.15932  0.07572  0.22001  Biso   1.000  H
  N441     1.0000 0.13761  0.11669  0.29522  Biso   1.000  N
  H720     1.0000 0.08832  0.08877  0.22810  Biso   1.000  H
  H721     1.0000 0.15932  0.07567  0.22001  Biso   1.000  H
  H722     1.0000 0.27790  0.97338  0.35409  Biso   1.000  H
  H723     1.0000 0.27060  0.00637  0.29321  Biso   1.000  H
  N442     1.0000 0.22579  0.06941  0.35015  Biso   1.000  N
  C761     1.0000 0.09858  0.29328  0.36925  Biso   1.000  C
  H724     1.0000 0.16921  0.35377  0.45029  Biso   1.000  H
  C762     1.0000 0.22358  0.21277  0.46038  Biso   1.000  C
  C763     1.0000 0.19993  0.13162  0.31562  Biso   1.000  C
  C764     1.0000 0.09502  0.16998  0.31521  Biso   1.000  C
  C765     1.0000 0.23041  0.09077  0.40520  Biso   1.000  C
  N443     1.0000 0.12412  0.21791  0.35329  Biso   1.000  N
  H725     1.0000 0.12639  0.33477  0.35710  Biso   1.000  H
  H726     1.0000 0.05950  0.30089  0.35002  Biso   1.000  H
  N444     1.0000 0.20727  0.16538  0.41157  Biso   1.000  N
  H727     1.0000 0.25069  0.25539  0.44861  Biso   1.000  H
  H728     1.0000 0.24630  0.18019  0.48661  Biso   1.000  H
  H729     1.0000 0.22801  0.14679  0.28521  Biso   1.000  H
  C766     1.0000 0.18953  0.20038  0.35798  Biso   1.000  C
  O237     1.0000 0.04097  0.17352  0.30075  Biso   1.000  O
  O238     1.0000 0.25323  0.04958  0.44249  Biso   1.000  O
  H730     1.0000 0.21499  0.24647  0.34889  Biso   1.000  H
  C767     1.0000 0.81047  0.79962  0.64202  Biso   1.000  C
  N445     1.0000 0.79273  0.83462  0.58843  Biso   1.000  N
  N446     1.0000 0.87588  0.78209  0.64675  Biso   1.000  N
  C768     1.0000 0.80007  0.86838  0.68442  Biso   1.000  C
  H731     1.0000 0.78501  0.75353  0.65111  Biso   1.000  H
  H732     1.0000 0.78501  0.75347  0.65111  Biso   1.000  H
  C769     1.0000 0.77642  0.78723  0.53966  Biso   1.000  C
  C770     1.0000 0.77642  0.78717  0.53966  Biso   1.000  C
  C771     1.0000 0.76959  0.90923  0.59480  Biso   1.000  C
  C772     1.0000 0.76959  0.90917  0.59480  Biso   1.000  C
  C773     1.0000 0.90142  0.70672  0.63079  Biso   1.000  C
  C774     1.0000 0.90498  0.83002  0.68484  Biso   1.000  C
  N447     1.0000 0.77421  0.93059  0.64989  Biso   1.000  N
  H733     1.0000 0.77199  0.85321  0.71479  Biso   1.000  H
  N448     1.0000 0.86239  0.88331  0.70478  Biso   1.000  N
  N449     1.0000 0.82941  0.75400  0.51154  Biso   1.000  N
  H734     1.0000 0.74931  0.74461  0.55139  Biso   1.000  H
  H735     1.0000 0.75370  0.81981  0.51343  Biso   1.000  H
  O239     1.0000 0.74677  0.95042  0.55755  Biso   1.000  O
  N450     1.0000 0.91126  0.69958  0.57112  Biso   1.000  N
  H736     1.0000 0.94050  0.69911  0.65002  Biso   1.000  H
  H737     1.0000 0.87361  0.66523  0.64290  Biso   1.000  H
  H738     1.0000 0.87361  0.66517  0.64290  Biso   1.000  H
  O240     1.0000 0.95903  0.82648  0.69925  Biso   1.000  O
  C775     1.0000 0.75139  0.00407  0.67218  Biso   1.000  C
  C776     1.0000 0.87458  0.93083  0.75389  Biso   1.000  C
  C777     1.0000 0.87458  0.93077  0.75389  Biso   1.000  C
  C778     1.0000 0.83241  0.75630  0.45381  Biso   1.000  C
  C779     1.0000 0.86036  0.68359  0.53333  Biso   1.000  C
  C780     1.0000 0.96651  0.67491  0.54980  Biso   1.000  C
  H739     1.0000 0.72940  0.99363  0.70679  Biso   1.000  H
  H740     1.0000 0.72940  0.99357  0.70679  Biso   1.000  H
  H741     1.0000 0.72210  0.02662  0.64591  Biso   1.000  H
  N451     1.0000 0.79975  0.06168  0.68312  Biso   1.000  N
  H742     1.0000 0.91168  0.91117  0.77190  Biso   1.000  H
  H743     1.0000 0.84068  0.92428  0.78003  Biso   1.000  H
  N452     1.0000 0.88239  0.01381  0.74262  Biso   1.000  N
  O241     1.0000 0.80229  0.80039  0.42368  Biso   1.000  O
  N453     1.0000 0.87352  0.70029  0.43613  Biso   1.000  N
  C781     1.0000 0.89297  0.64853  0.48100  Biso   1.000  C
  C782     1.0000 0.89297  0.64847  0.48100  Biso   1.000  C
  H744     1.0000 0.83079  0.64623  0.54971  Biso   1.000  H
  N454     1.0000 0.95783  0.65331  0.49533  Biso   1.000  N
  O242     1.0000 0.01575  0.67190  0.57590  Biso   1.000  O
  C783     1.0000 0.80428  0.12908  0.65195  Biso   1.000  C
  C784     1.0000 0.83116  0.06787  0.73654  Biso   1.000  C
  C785     1.0000 0.93861  0.05023  0.74144  Biso   1.000  C
  C786     1.0000 0.93861  0.05017  0.74144  Biso   1.000  C
  C787     1.0000 0.87939  0.67863  0.37763  Biso   1.000  C
  C788     1.0000 0.87939  0.67857  0.37763  Biso   1.000  C
  H745     1.0000 0.88022  0.59387  0.47413  Biso   1.000  H
  C789     1.0000 0.00559  0.61489  0.46277  Biso   1.000  C
  N455     1.0000 0.84326  0.18002  0.67985  Biso   1.000  N
  O243     1.0000 0.77799  0.14260  0.60808  Biso   1.000  O
  O244     1.0000 0.77799  0.14254  0.60808  Biso   1.000  O
  C790     1.0000 0.86354  0.14962  0.73323  Biso   1.000  C
  H746     1.0000 0.80238  0.06469  0.76813  Biso   1.000  H
  N456     1.0000 0.92849  0.13002  0.73553  Biso   1.000  N
  O245     1.0000 0.98905  0.01765  0.74442  Biso   1.000  O
  N457     1.0000 0.92849  0.12997  0.73553  Biso   1.000  N
  H747     1.0000 0.87338  0.62209  0.37411  Biso   1.000  H
  H748     1.0000 0.84691  0.70448  0.35652  Biso   1.000  H
  N458     1.0000 0.93833  0.69929  0.35321  Biso   1.000  N
  H749     1.0000 0.99062  0.56389  0.45020  Biso   1.000  H
  H750     1.0000 0.04130  0.60580  0.48649  Biso   1.000  H
  N459     1.0000 0.02434  0.66128  0.41421  Biso   1.000  N
  C791     1.0000 0.84747  0.26329  0.66552  Biso   1.000  C
  H751     1.0000 0.85130  0.18409  0.76419  Biso   1.000  H
  C792     1.0000 0.97570  0.18792  0.74685  Biso   1.000  C
  C793     1.0000 0.97570  0.18787  0.74685  Biso   1.000  C
  C794     1.0000 0.99469  0.65402  0.35979  Biso   1.000  C
  C795     1.0000 0.94540  0.76191  0.31734  Biso   1.000  C
  C796     1.0000 0.08319  0.69090  0.40981  Biso   1.000  C
  H752     1.0000 0.83791  0.29422  0.69862  Biso   1.000  H
  H753     1.0000 0.81652  0.27522  0.63741  Biso   1.000  H
  N460     1.0000 0.90729  0.28720  0.64453  Biso   1.000  N
  H754     1.0000 0.96069  0.22381  0.77551  Biso   1.000  H
  N461     1.0000 0.99390  0.23361  0.69803  Biso   1.000  N
  H755     1.0000 0.01178  0.16119  0.76172  Biso   1.000  H
  H756     1.0000 0.98868  0.59860  0.34931  Biso   1.000  H
  C797     1.0000 0.04010  0.69610  0.31960  Biso   1.000  C
  O246     1.0000 0.90424  0.80629  0.30100  Biso   1.000  O
  N462     1.0000 0.00610  0.76639  0.30197  Biso   1.000  N
  N463     1.0000 0.09271  0.71280  0.35551  Biso   1.000  N
  O247     1.0000 0.12140  0.69633  0.44765  Biso   1.000  O
  C798     1.0000 0.91681  0.30910  0.59023  Biso   1.000  C
  C799     1.0000 0.95990  0.30390  0.68040  Biso   1.000  C
  C800     1.0000 0.05460  0.23809  0.68270  Biso   1.000  C
  H757     1.0000 0.05151  0.66257  0.28772  Biso   1.000  H
  C801     1.0000 0.02430  0.81208  0.25315  Biso   1.000  C
  C802     1.0000 0.15253  0.73671  0.33448  Biso   1.000  C
  N464     1.0000 0.97566  0.33872  0.58583  Biso   1.000  N
  O248     1.0000 0.87860  0.30367  0.55235  Biso   1.000  O
  N465     1.0000 0.97566  0.33866  0.58583  Biso   1.000  N
  H758     1.0000 0.94849  0.33743  0.71232  Biso   1.000  H
  H759     1.0000 0.94849  0.33737  0.71232  Biso   1.000  H
  C803     1.0000 0.00531  0.34598  0.64026  Biso   1.000  C
  N466     1.0000 0.06167  0.30071  0.64683  Biso   1.000  N
  O249     1.0000 0.09576  0.19371  0.69900  Biso   1.000  O
  H760     1.0000 0.98822  0.83881  0.23832  Biso   1.000  H
  H761     1.0000 0.03931  0.77619  0.22449  Biso   1.000  H
  N467     1.0000 0.07151  0.86998  0.26451  Biso   1.000  N
  H762     1.0000 0.16209  0.70578  0.30142  Biso   1.000  H
  H763     1.0000 0.18348  0.72478  0.36259  Biso   1.000  H
  N468     1.0000 0.15674  0.81998  0.32019  Biso   1.000  N
  C804     1.0000 0.99441  0.38511  0.53727  Biso   1.000  C
  H764     1.0000 0.01132  0.40140  0.65073  Biso   1.000  H
  C805     1.0000 0.12061  0.32137  0.62241  Biso   1.000  C
  C806     1.0000 0.13646  0.85038  0.26681  Biso   1.000  C
  C807     1.0000 0.06139  0.94977  0.25860  Biso   1.000  C
  C808     1.0000 0.19572  0.87092  0.34805  Biso   1.000  C
  H765     1.0000 0.95870  0.39420  0.51351  Biso   1.000  H
  H766     1.0000 0.00938  0.43611  0.54980  Biso   1.000  H
  N469     1.0000 0.04217  0.34669  0.50471  Biso   1.000  N
  H767     1.0000 0.12662  0.37791  0.62593  Biso   1.000  H
  H768     1.0000 0.15309  0.29552  0.64352  Biso   1.000  H
  N470     1.0000 0.12648  0.29971  0.56387  Biso   1.000  N
  H769     1.0000 0.14870  0.81591  0.23581  Biso   1.000  H
  C809     1.0000 0.16884  0.93213  0.26350  Biso   1.000  C
  C810     1.0000 0.16884  0.93207  0.26350  Biso   1.000  C
  N471     1.0000 0.11761  0.98619  0.25738  Biso   1.000  N
  O250     1.0000 0.01095  0.98235  0.25562  Biso   1.000  O
  N472     1.0000 0.20025  0.93832  0.31688  Biso   1.000  N
  O251     1.0000 0.22201  0.85740  0.39192  Biso   1.000  O
  C811     1.0000 0.10703  0.35147  0.51900  Biso   1.000  C
  C812     1.0000 0.03349  0.32509  0.45025  Biso   1.000  C
  C813     1.0000 0.16759  0.24370  0.54624  Biso   1.000  C
  H770     1.0000 0.19762  0.93531  0.23191  Biso   1.000  H
  C814     1.0000 0.12542  0.06917  0.24611  Biso   1.000  C
  C815     1.0000 0.24861  0.99593  0.32782  Biso   1.000  C
  C816     1.0000 0.24861  0.99587  0.32782  Biso   1.000  C
  C817     1.0000 0.13964  0.31641  0.46667  Biso   1.000  C
  H771     1.0000 0.11978  0.40613  0.52591  Biso   1.000  H
  H772     1.0000 0.11978  0.40607  0.52591  Biso   1.000  H
  N473     1.0000 0.08874  0.30042  0.42888  Biso   1.000  N
  O252     1.0000 0.98425  0.32810  0.42414  Biso   1.000  O
  N474     1.0000 0.17059  0.24600  0.48846  Biso   1.000  N
  O253     1.0000 0.19771  0.19961  0.57632  Biso   1.000  O
  H773     1.0000 0.08832  0.08883  0.22810  Biso   1.000  H
  H774     1.0000 0.15932  0.07572  0.22001  Biso   1.000  H
  N475     1.0000 0.13761  0.11669  0.29522  Biso   1.000  N
  H775     1.0000 0.08832  0.08877  0.22810  Biso   1.000  H
  H776     1.0000 0.15932  0.07567  0.22001  Biso   1.000  H
  H777     1.0000 0.27790  0.97338  0.35409  Biso   1.000  H
  H778     1.0000 0.27060  0.00637  0.29321  Biso   1.000  H
  N476     1.0000 0.22579  0.06941  0.35015  Biso   1.000  N
  H779     1.0000 0.16921  0.35377  0.45029  Biso   1.000  H
  C818     1.0000 0.09858  0.29328  0.36925  Biso   1.000  C
  C819     1.0000 0.22358  0.21277  0.46038  Biso   1.000  C
  C820     1.0000 0.19993  0.13162  0.31562  Biso   1.000  C
  C821     1.0000 0.09502  0.16998  0.31521  Biso   1.000  C
  C822     1.0000 0.23041  0.09077  0.40520  Biso   1.000  C
  N477     1.0000 0.12412  0.21791  0.35329  Biso   1.000  N
  H780     1.0000 0.12639  0.33477  0.35710  Biso   1.000  H
  H781     1.0000 0.05950  0.30089  0.35002  Biso   1.000  H
  N478     1.0000 0.20727  0.16538  0.41157  Biso   1.000  N
  H782     1.0000 0.25069  0.25539  0.44861  Biso   1.000  H
  H783     1.0000 0.24630  0.18019  0.48661  Biso   1.000  H
  H784     1.0000 0.22801  0.14679  0.28521  Biso   1.000  H
  C823     1.0000 0.18953  0.20038  0.35798  Biso   1.000  C
  O254     1.0000 0.04097  0.17352  0.30075  Biso   1.000  O
  O255     1.0000 0.25323  0.04958  0.44249  Biso   1.000  O
  H785     1.0000 0.21499  0.24647  0.34889  Biso   1.000  H
  C824     1.0000 0.81047  0.79962  0.64202  Biso   1.000  C
  N479     1.0000 0.79273  0.83462  0.58843  Biso   1.000  N
  N480     1.0000 0.87588  0.78209  0.64675  Biso   1.000  N
  C825     1.0000 0.80007  0.86838  0.68442  Biso   1.000  C
  H786     1.0000 0.78501  0.75353  0.65111  Biso   1.000  H
  H787     1.0000 0.78501  0.75347  0.65111  Biso   1.000  H
  C826     1.0000 0.77642  0.78723  0.53966  Biso   1.000  C
  C827     1.0000 0.77642  0.78717  0.53966  Biso   1.000  C
  C828     1.0000 0.76959  0.90923  0.59480  Biso   1.000  C
  C829     1.0000 0.76959  0.90917  0.59480  Biso   1.000  C
  C830     1.0000 0.90142  0.70672  0.63079  Biso   1.000  C
  C831     1.0000 0.90498  0.83002  0.68484  Biso   1.000  C
  N481     1.0000 0.77421  0.93059  0.64989  Biso   1.000  N
  H788     1.0000 0.77199  0.85321  0.71479  Biso   1.000  H
  N482     1.0000 0.86239  0.88331  0.70478  Biso   1.000  N
  N483     1.0000 0.82941  0.75400  0.51154  Biso   1.000  N
  H789     1.0000 0.74931  0.74461  0.55139  Biso   1.000  H
  H790     1.0000 0.75370  0.81981  0.51343  Biso   1.000  H
  O256     1.0000 0.74677  0.95042  0.55755  Biso   1.000  O
  N484     1.0000 0.91126  0.69958  0.57112  Biso   1.000  N
  H791     1.0000 0.94050  0.69911  0.65002  Biso   1.000  H
  H792     1.0000 0.87361  0.66523  0.64290  Biso   1.000  H
  H793     1.0000 0.87361  0.66517  0.64290  Biso   1.000  H
  O257     1.0000 0.95903  0.82648  0.69925  Biso   1.000  O
  C832     1.0000 0.75139  0.00407  0.67218  Biso   1.000  C
  C833     1.0000 0.87458  0.93083  0.75389  Biso   1.000  C
  C834     1.0000 0.87458  0.93077  0.75389  Biso   1.000  C
  C835     1.0000 0.83241  0.75630  0.45381  Biso   1.000  C
  C836     1.0000 0.86036  0.68359  0.53333  Biso   1.000  C
  C837     1.0000 0.96651  0.67491  0.54980  Biso   1.000  C
  H794     1.0000 0.72940  0.99363  0.70679  Biso   1.000  H
  H795     1.0000 0.72940  0.99357  0.70679  Biso   1.000  H
  H796     1.0000 0.72210  0.02662  0.64591  Biso   1.000  H
  N485     1.0000 0.79975  0.06168  0.68312  Biso   1.000  N
  H797     1.0000 0.91168  0.91117  0.77190  Biso   1.000  H
  H798     1.0000 0.84068  0.92428  0.78003  Biso   1.000  H
  N486     1.0000 0.88239  0.01381  0.74262  Biso   1.000  N
  O258     1.0000 0.80229  0.80039  0.42368  Biso   1.000  O
  N487     1.0000 0.87352  0.70029  0.43613  Biso   1.000  N
  C838     1.0000 0.89297  0.64853  0.48100  Biso   1.000  C
  C839     1.0000 0.89297  0.64847  0.48100  Biso   1.000  C
  H799     1.0000 0.83079  0.64623  0.54971  Biso   1.000  H
  N488     1.0000 0.95783  0.65331  0.49533  Biso   1.000  N
  O259     1.0000 0.01575  0.67190  0.57590  Biso   1.000  O
  C840     1.0000 0.80428  0.12908  0.65195  Biso   1.000  C
  C841     1.0000 0.83116  0.06787  0.73654  Biso   1.000  C
  C842     1.0000 0.93861  0.05023  0.74144  Biso   1.000  C
  C843     1.0000 0.93861  0.05017  0.74144  Biso   1.000  C
  C844     1.0000 0.87939  0.67863  0.37763  Biso   1.000  C
  C845     1.0000 0.87939  0.67857  0.37763  Biso   1.000  C
  H800     1.0000 0.88022  0.59387  0.47413  Biso   1.000  H
  C846     1.0000 0.00559  0.61489  0.46277  Biso   1.000  C
  N489     1.0000 0.84326  0.18002  0.67985  Biso   1.000  N
  O260     1.0000 0.77799  0.14260  0.60808  Biso   1.000  O
  O261     1.0000 0.77799  0.14254  0.60808  Biso   1.000  O
  C847     1.0000 0.86354  0.14962  0.73323  Biso   1.000  C
  H801     1.0000 0.80238  0.06469  0.76813  Biso   1.000  H
  N490     1.0000 0.92849  0.13002  0.73553  Biso   1.000  N
  O262     1.0000 0.98905  0.01765  0.74442  Biso   1.000  O
  N491     1.0000 0.92849  0.12997  0.73553  Biso   1.000  N
  H802     1.0000 0.87338  0.62209  0.37411  Biso   1.000  H
  H803     1.0000 0.84691  0.70448  0.35652  Biso   1.000  H
  N492     1.0000 0.93833  0.69929  0.35321  Biso   1.000  N
  H804     1.0000 0.99062  0.56389  0.45020  Biso   1.000  H
  H805     1.0000 0.04130  0.60580  0.48649  Biso   1.000  H
  N493     1.0000 0.02434  0.66128  0.41421  Biso   1.000  N
  C848     1.0000 0.84747  0.26329  0.66552  Biso   1.000  C
  H806     1.0000 0.85130  0.18409  0.76419  Biso   1.000  H
  C849     1.0000 0.97570  0.18792  0.74685  Biso   1.000  C
  C850     1.0000 0.97570  0.18787  0.74685  Biso   1.000  C
  C851     1.0000 0.99469  0.65402  0.35979  Biso   1.000  C
  C852     1.0000 0.94540  0.76191  0.31734  Biso   1.000  C
  C853     1.0000 0.08319  0.69090  0.40981  Biso   1.000  C
  H807     1.0000 0.83791  0.29422  0.69862  Biso   1.000  H
  H808     1.0000 0.81652  0.27522  0.63741  Biso   1.000  H
  N494     1.0000 0.90729  0.28720  0.64453  Biso   1.000  N
  H809     1.0000 0.96069  0.22381  0.77551  Biso   1.000  H
  N495     1.0000 0.99390  0.23361  0.69803  Biso   1.000  N
  H810     1.0000 0.01178  0.16119  0.76172  Biso   1.000  H
  H811     1.0000 0.98868  0.59860  0.34931  Biso   1.000  H
  C854     1.0000 0.04010  0.69610  0.31960  Biso   1.000  C
  O263     1.0000 0.90424  0.80629  0.30100  Biso   1.000  O
  N496     1.0000 0.00610  0.76639  0.30197  Biso   1.000  N
  N497     1.0000 0.09271  0.71280  0.35551  Biso   1.000  N
  O264     1.0000 0.12140  0.69633  0.44765  Biso   1.000  O
  C855     1.0000 0.91681  0.30910  0.59023  Biso   1.000  C
  C856     1.0000 0.95990  0.30390  0.68040  Biso   1.000  C
  C857     1.0000 0.05460  0.23809  0.68270  Biso   1.000  C
  H812     1.0000 0.05151  0.66257  0.28772  Biso   1.000  H
  C858     1.0000 0.02430  0.81208  0.25315  Biso   1.000  C
  C859     1.0000 0.15253  0.73671  0.33448  Biso   1.000  C
  N498     1.0000 0.97566  0.33872  0.58583  Biso   1.000  N
  O265     1.0000 0.87860  0.30367  0.55235  Biso   1.000  O
  N499     1.0000 0.97566  0.33866  0.58583  Biso   1.000  N
  H813     1.0000 0.94849  0.33743  0.71232  Biso   1.000  H
  H814     1.0000 0.94849  0.33737  0.71232  Biso   1.000  H
  C860     1.0000 0.00531  0.34598  0.64026  Biso   1.000  C
  N500     1.0000 0.06167  0.30071  0.64683  Biso   1.000  N
  O266     1.0000 0.09576  0.19371  0.69900  Biso   1.000  O
  H815     1.0000 0.98822  0.83881  0.23832  Biso   1.000  H
  H816     1.0000 0.03931  0.77619  0.22449  Biso   1.000  H
  N501     1.0000 0.07151  0.86998  0.26451  Biso   1.000  N
  H817     1.0000 0.16209  0.70578  0.30142  Biso   1.000  H
  H818     1.0000 0.18348  0.72478  0.36259  Biso   1.000  H
  N502     1.0000 0.15674  0.81998  0.32019  Biso   1.000  N
  C861     1.0000 0.99441  0.38511  0.53727  Biso   1.000  C
  H819     1.0000 0.01132  0.40140  0.65073  Biso   1.000  H
  C862     1.0000 0.12061  0.32137  0.62241  Biso   1.000  C
  C863     1.0000 0.13646  0.85038  0.26681  Biso   1.000  C
  C864     1.0000 0.06139  0.94977  0.25860  Biso   1.000  C
  C865     1.0000 0.19572  0.87092  0.34805  Biso   1.000  C
  H820     1.0000 0.95870  0.39420  0.51351  Biso   1.000  H
  H821     1.0000 0.00938  0.43611  0.54980  Biso   1.000  H
  N503     1.0000 0.04217  0.34669  0.50471  Biso   1.000  N
  H822     1.0000 0.12662  0.37791  0.62593  Biso   1.000  H
  H823     1.0000 0.15309  0.29552  0.64352  Biso   1.000  H
  N504     1.0000 0.12648  0.29971  0.56387  Biso   1.000  N
  H824     1.0000 0.14870  0.81591  0.23581  Biso   1.000  H
  C866     1.0000 0.16884  0.93213  0.26350  Biso   1.000  C
  C867     1.0000 0.16884  0.93207  0.26350  Biso   1.000  C
  N505     1.0000 0.11761  0.98619  0.25738  Biso   1.000  N
  O267     1.0000 0.01095  0.98235  0.25562  Biso   1.000  O
  N506     1.0000 0.20025  0.93832  0.31688  Biso   1.000  N
  O268     1.0000 0.22201  0.85740  0.39192  Biso   1.000  O
  C868     1.0000 0.10703  0.35147  0.51900  Biso   1.000  C
  C869     1.0000 0.03349  0.32509  0.45025  Biso   1.000  C
  C870     1.0000 0.16759  0.24370  0.54624  Biso   1.000  C
  H825     1.0000 0.19762  0.93531  0.23191  Biso   1.000  H
  C871     1.0000 0.12542  0.06917  0.24611  Biso   1.000  C
  C872     1.0000 0.24861  0.99593  0.32782  Biso   1.000  C
  C873     1.0000 0.24861  0.99587  0.32782  Biso   1.000  C
  C874     1.0000 0.13964  0.31641  0.46667  Biso   1.000  C
  H826     1.0000 0.11978  0.40613  0.52591  Biso   1.000  H
  H827     1.0000 0.11978  0.40607  0.52591  Biso   1.000  H
  N507     1.0000 0.08874  0.30042  0.42888  Biso   1.000  N
  O269     1.0000 0.98425  0.32810  0.42414  Biso   1.000  O
  N508     1.0000 0.17059  0.24600  0.48846  Biso   1.000  N
  O270     1.0000 0.19771  0.19961  0.57632  Biso   1.000  O
  H828     1.0000 0.08832  0.08883  0.22810  Biso   1.000  H
  H829     1.0000 0.15932  0.07572  0.22001  Biso   1.000  H
  N509     1.0000 0.13761  0.11669  0.29522  Biso   1.000  N
  H830     1.0000 0.08832  0.08877  0.22810  Biso   1.000  H
  H831     1.0000 0.15932  0.07567  0.22001  Biso   1.000  H
  H832     1.0000 0.27790  0.97338  0.35409  Biso   1.000  H
  H833     1.0000 0.27060  0.00637  0.29321  Biso   1.000  H
  N510     1.0000 0.22579  0.06941  0.35015  Biso   1.000  N
  H834     1.0000 0.16921  0.35377  0.45029  Biso   1.000  H
  C875     1.0000 0.09858  0.29328  0.36925  Biso   1.000  C
  C876     1.0000 0.22358  0.21277  0.46038  Biso   1.000  C
  C877     1.0000 0.19993  0.13162  0.31562  Biso   1.000  C
  C878     1.0000 0.09502  0.16998  0.31521  Biso   1.000  C
  C879     1.0000 0.23041  0.09077  0.40520  Biso   1.000  C
  N511     1.0000 0.12412  0.21791  0.35329  Biso   1.000  N
  H835     1.0000 0.12639  0.33477  0.35710  Biso   1.000  H
  H836     1.0000 0.05950  0.30089  0.35002  Biso   1.000  H
  N512     1.0000 0.20727  0.16538  0.41157  Biso   1.000  N
  H837     1.0000 0.25069  0.25539  0.44861  Biso   1.000  H
  H838     1.0000 0.24630  0.18019  0.48661  Biso   1.000  H
  H839     1.0000 0.22801  0.14679  0.28521  Biso   1.000  H
  C880     1.0000 0.18953  0.20038  0.35798  Biso   1.000  C
  O271     1.0000 0.04097  0.17352  0.30075  Biso   1.000  O
  O272     1.0000 0.25323  0.04958  0.44249  Biso   1.000  O
  H840     1.0000 0.21499  0.24647  0.34889  Biso   1.000  H
