data_image0
_cell_length_a       19.101
_cell_length_b       24.032
_cell_length_c       32.58
_cell_angle_alpha    90
_cell_angle_beta     93.76
_cell_angle_gamma    90

_symmetry_space_group_name_H-M    "P 1"
_symmetry_int_tables_number       1

loop_
  _symmetry_equiv_pos_as_xyz
  'x, y, z'

loop_
  _atom_site_label
  _atom_site_occupancy
  _atom_site_fract_x
  _atom_site_fract_y
  _atom_site_fract_z
  _atom_site_thermal_displace_type
  _atom_site_B_iso_or_equiv
  _atom_site_type_symbol
  O1       1.0000 0.38164  0.32473  0.47213  Biso   1.000  O
  C1       1.0000 0.34376  0.35191  0.44239  Biso   1.000  C
  H1       1.0000 0.42347  0.33131  0.47029  Biso   1.000  H
  C2       1.0000 0.36124  0.33318  0.40163  Biso   1.000  C
  C3       1.0000 0.26823  0.34949  0.44583  Biso   1.000  C
  H2       1.0000 0.35725  0.39119  0.44460  Biso   1.000  H
  C4       1.0000 0.31859  0.35940  0.36574  Biso   1.000  C
  H3       1.0000 0.35645  0.29269  0.40000  Biso   1.000  H
  O2       1.0000 0.43374  0.34858  0.39499  Biso   1.000  O
  C5       1.0000 0.22288  0.37504  0.41055  Biso   1.000  C
  H4       1.0000 0.25794  0.30971  0.44319  Biso   1.000  H
  O3       1.0000 0.24778  0.36252  0.48714  Biso   1.000  O
  C6       1.0000 0.30338  0.33755  0.32243  Biso   1.000  C
  H5       1.0000 0.33068  0.39901  0.36429  Biso   1.000  H
  O4       1.0000 0.24375  0.35424  0.37484  Biso   1.000  O
  C7       1.0000 0.47896  0.30339  0.38641  Biso   1.000  C
  H6       1.0000 0.17305  0.36730  0.41351  Biso   1.000  H
  O5       1.0000 0.23714  0.43251  0.41495  Biso   1.000  O
  H7       1.0000 0.28293  0.36518  0.50280  Biso   1.000  H
  O6       1.0000 0.28197  0.28658  0.32990  Biso   1.000  O
  H8       1.0000 0.26696  0.35910  0.30760  Biso   1.000  H
  H9       1.0000 0.34516  0.33738  0.30698  Biso   1.000  H
  H10      1.0000 0.45229  0.26860  0.38619  Biso   1.000  H
  C8       1.0000 0.54107  0.30039  0.42169  Biso   1.000  C
  O7       1.0000 0.50689  0.30975  0.34971  Biso   1.000  O
  C9       1.0000 0.18218  0.46842  0.42160  Biso   1.000  C
  H11      1.0000 0.23406  0.28179  0.31960  Biso   1.000  H
  H12      1.0000 0.57106  0.26902  0.41510  Biso   1.000  H
  C10      1.0000 0.58435  0.35469  0.41547  Biso   1.000  C
  O8       1.0000 0.51907  0.29099  0.45998  Biso   1.000  O
  C11      1.0000 0.54895  0.35769  0.34236  Biso   1.000  C
  C12      1.0000 0.19434  0.49650  0.46109  Biso   1.000  C
  H13      1.0000 0.13884  0.44649  0.42221  Biso   1.000  H
  C13      1.0000 0.17665  0.50562  0.38339  Biso   1.000  C
  H14      1.0000 0.55584  0.38769  0.42040  Biso   1.000  H
  C14      1.0000 0.61238  0.35752  0.37358  Biso   1.000  C
  O9       1.0000 0.64447  0.35103  0.44657  Biso   1.000  O
  H15      1.0000 0.52145  0.31991  0.47330  Biso   1.000  H
  H16      1.0000 0.52145  0.39181  0.34510  Biso   1.000  H
  C15      1.0000 0.56486  0.34878  0.29834  Biso   1.000  C
  C16      1.0000 0.14486  0.54598  0.46334  Biso   1.000  C
  H17      1.0000 0.24167  0.51232  0.46109  Biso   1.000  H
  O10      1.0000 0.19338  0.46671  0.49459  Biso   1.000  O
  H18      1.0000 0.22227  0.52339  0.38081  Biso   1.000  H
  C17      1.0000 0.15939  0.47150  0.34476  Biso   1.000  C
  O11      1.0000 0.12381  0.55018  0.39077  Biso   1.000  O
  H19      1.0000 0.64395  0.32640  0.36890  Biso   1.000  H
  O12      1.0000 0.64667  0.40846  0.37167  Biso   1.000  O
  H20      1.0000 0.63056  0.35561  0.46961  Biso   1.000  H
  H21      1.0000 0.52220  0.33971  0.28201  Biso   1.000  H
  H22      1.0000 0.58426  0.38261  0.28739  Biso   1.000  H
  O13      1.0000 0.61023  0.30792  0.29674  Biso   1.000  O
  C18      1.0000 0.13776  0.58389  0.42467  Biso   1.000  C
  H23      1.0000 0.09845  0.52892  0.46411  Biso   1.000  H
  O14      1.0000 0.14971  0.57877  0.49693  Biso   1.000  O
  H24      1.0000 0.23298  0.45510  0.50089  Biso   1.000  H
  H25      1.0000 0.15756  0.49488  0.32039  Biso   1.000  H
  H26      1.0000 0.19377  0.44229  0.34180  Biso   1.000  H
  O15      1.0000 0.09858  0.45090  0.35060  Biso   1.000  O
  C19      1.0000 0.71574  0.40879  0.35638  Biso   1.000  C
  H27      1.0000 0.64880  0.32028  0.28161  Biso   1.000  H
  H28      1.0000 0.10074  0.61168  0.42701  Biso   1.000  H
  O16      1.0000 0.20562  0.61002  0.42341  Biso   1.000  O
  H29      1.0000 0.19024  0.57881  0.50680  Biso   1.000  H
  H30      1.0000 0.08038  0.46871  0.36850  Biso   1.000  H
  H31      1.0000 0.72927  0.37021  0.35140  Biso   1.000  H
  C20      1.0000 0.76689  0.43267  0.39096  Biso   1.000  C
  O17      1.0000 0.72070  0.43779  0.32067  Biso   1.000  O
  C21      1.0000 0.20624  0.66877  0.41818  Biso   1.000  C
  H32      1.0000 0.81445  0.43130  0.38139  Biso   1.000  H
  C22      1.0000 0.74797  0.49226  0.39693  Biso   1.000  C
  O18      1.0000 0.76572  0.39972  0.42642  Biso   1.000  O
  C23      1.0000 0.70069  0.49484  0.32473  Biso   1.000  C
  C24      1.0000 0.25443  0.68904  0.45399  Biso   1.000  C
  H33      1.0000 0.15884  0.68359  0.42080  Biso   1.000  H
  C25      1.0000 0.23475  0.69050  0.37915  Biso   1.000  C
  H34      1.0000 0.70138  0.49451  0.40769  Biso   1.000  H
  C26      1.0000 0.74839  0.52613  0.35571  Biso   1.000  C
  O19      1.0000 0.79795  0.51756  0.42532  Biso   1.000  O
  H35      1.0000 0.73326  0.40962  0.43999  Biso   1.000  H
  H36      1.0000 0.65197  0.49709  0.33248  Biso   1.000  H
  C27      1.0000 0.70745  0.52309  0.27988  Biso   1.000  C
  C28      1.0000 0.25616  0.75087  0.44885  Biso   1.000  C
  H37      1.0000 0.30154  0.67302  0.45291  Biso   1.000  H
  O20      1.0000 0.22477  0.67656  0.49348  Biso   1.000  O
  H38      1.0000 0.28154  0.67481  0.37619  Biso   1.000  H
  C29      1.0000 0.18405  0.67169  0.34143  Biso   1.000  C
  O21      1.0000 0.23846  0.75216  0.37622  Biso   1.000  O
  H39      1.0000 0.79588  0.53000  0.34639  Biso   1.000  H
  O22      1.0000 0.71747  0.57927  0.36343  Biso   1.000  O
  H40      1.0000 0.77778  0.53841  0.44060  Biso   1.000  H
  H41      1.0000 0.68856  0.49900  0.25801  Biso   1.000  H
  H42      1.0000 0.68356  0.55871  0.27788  Biso   1.000  H
  O23      1.0000 0.77759  0.52942  0.27835  Biso   1.000  O
  C30      1.0000 0.29268  0.76261  0.41120  Biso   1.000  C
  H43      1.0000 0.21067  0.76939  0.45029  Biso   1.000  H
  O24      1.0000 0.31543  0.77126  0.48207  Biso   1.000  O
  H44      1.0000 0.18385  0.68700  0.49271  Biso   1.000  H
  H45      1.0000 0.20359  0.68230  0.31581  Biso   1.000  H
  H46      1.0000 0.17836  0.63162  0.34159  Biso   1.000  H
  O25      1.0000 0.12023  0.69724  0.34476  Biso   1.000  O
  C31      1.0000 0.75609  0.62562  0.35343  Biso   1.000  C
  H47      1.0000 0.79445  0.50079  0.26949  Biso   1.000  H
  H48      1.0000 0.30165  0.80280  0.41129  Biso   1.000  H
  O26      1.0000 0.36077  0.73585  0.40914  Biso   1.000  O
  H49      1.0000 0.35318  0.75741  0.47699  Biso   1.000  H
  H50      1.0000 0.12567  0.73098  0.34559  Biso   1.000  H
  H51      1.0000 0.80158  0.61331  0.34451  Biso   1.000  H
  C32      1.0000 0.76855  0.66249  0.39228  Biso   1.000  C
  O27      1.0000 0.72426  0.65504  0.32390  Biso   1.000  O
  C33      1.0000 0.41778  0.77031  0.39548  Biso   1.000  C
  H52      1.0000 0.79347  0.69670  0.38570  Biso   1.000  H
  C34      1.0000 0.69087  0.67631  0.40455  Biso   1.000  C
  O28      1.0000 0.80437  0.63457  0.42461  Biso   1.000  O
  C35      1.0000 0.65188  0.67614  0.33162  Biso   1.000  C
  C36      1.0000 0.47834  0.76099  0.42772  Biso   1.000  C
  H53      1.0000 0.40449  0.80959  0.39320  Biso   1.000  H
  C37      1.0000 0.44627  0.74842  0.35629  Biso   1.000  C
  H54      1.0000 0.66266  0.64339  0.41021  Biso   1.000  H
  C38      1.0000 0.66016  0.71247  0.36773  Biso   1.000  C
  O29      1.0000 0.70013  0.71679  0.44048  Biso   1.000  O
  H55      1.0000 0.83384  0.65529  0.43581  Biso   1.000  H
  H56      1.0000 0.61995  0.64531  0.33639  Biso   1.000  H
  C39      1.0000 0.62885  0.70776  0.29099  Biso   1.000  C
  C40      1.0000 0.53837  0.79760  0.41769  Biso   1.000  C
  H57      1.0000 0.49158  0.72170  0.43088  Biso   1.000  H
  O30      1.0000 0.45394  0.78741  0.46792  Biso   1.000  O
  H58      1.0000 0.45885  0.70901  0.35921  Biso   1.000  H
  C41      1.0000 0.39095  0.75678  0.32089  Biso   1.000  C
  O31      1.0000 0.50374  0.77963  0.34679  Biso   1.000  O
  H59      1.0000 0.68615  0.74692  0.36331  Biso   1.000  H
  O32      1.0000 0.58594  0.72137  0.38105  Biso   1.000  O
  H60      1.0000 0.70786  0.69932  0.46189  Biso   1.000  H
  H61      1.0000 0.63468  0.68351  0.26770  Biso   1.000  H
  H62      1.0000 0.57960  0.71742  0.29111  Biso   1.000  H
  O33      1.0000 0.66660  0.75416  0.28681  Biso   1.000  O
  C42      1.0000 0.56387  0.77830  0.37702  Biso   1.000  C
  H63      1.0000 0.52105  0.83580  0.41449  Biso   1.000  H
  O34      1.0000 0.59668  0.79715  0.44848  Biso   1.000  O
  H64      1.0000 0.43117  0.76448  0.48010  Biso   1.000  H
  H65      1.0000 0.41127  0.74779  0.29520  Biso   1.000  H
  H66      1.0000 0.35227  0.73140  0.32421  Biso   1.000  H
  O35      1.0000 0.36712  0.80734  0.31895  Biso   1.000  O
  H67      1.0000 0.69837  0.75541  0.30498  Biso   1.000  H
  H68      1.0000 0.60207  0.80189  0.36841  Biso   1.000  H
  H69      1.0000 0.60386  0.76519  0.45651  Biso   1.000  H
  H70      1.0000 0.38936  0.82548  0.30289  Biso   1.000  H
  O36      1.0000 0.61828  0.32473  0.52787  Biso   1.000  O
  C43      1.0000 0.65616  0.35191  0.55762  Biso   1.000  C
  H71      1.0000 0.57645  0.33131  0.52969  Biso   1.000  H
  C44      1.0000 0.63863  0.33318  0.59837  Biso   1.000  C
  C45      1.0000 0.73163  0.34949  0.55414  Biso   1.000  C
  H72      1.0000 0.64267  0.39119  0.55540  Biso   1.000  H
  O37      1.0000 0.56613  0.34858  0.60499  Biso   1.000  O
  H73      1.0000 0.64347  0.29269  0.60000  Biso   1.000  H
  C46      1.0000 0.68133  0.35940  0.63427  Biso   1.000  C
  C47      1.0000 0.77705  0.37504  0.58945  Biso   1.000  C
  H74      1.0000 0.74193  0.30971  0.55678  Biso   1.000  H
  O38      1.0000 0.75209  0.36252  0.51286  Biso   1.000  O
  C48      1.0000 0.52097  0.30339  0.61360  Biso   1.000  C
  H75      1.0000 0.66924  0.39901  0.63568  Biso   1.000  H
  C49      1.0000 0.69654  0.33755  0.67758  Biso   1.000  C
  O39      1.0000 0.75617  0.35424  0.62516  Biso   1.000  O
  H76      1.0000 0.82687  0.36730  0.58650  Biso   1.000  H
  O40      1.0000 0.76279  0.43251  0.58505  Biso   1.000  O
  H77      1.0000 0.71694  0.36518  0.49720  Biso   1.000  H
  C50      1.0000 0.45885  0.30039  0.57829  Biso   1.000  C
  H78      1.0000 0.54763  0.26860  0.61378  Biso   1.000  H
  O41      1.0000 0.49303  0.30975  0.65026  Biso   1.000  O
  H79      1.0000 0.73296  0.35910  0.69241  Biso   1.000  H
  H80      1.0000 0.65476  0.33738  0.69299  Biso   1.000  H
  O42      1.0000 0.71796  0.28658  0.67010  Biso   1.000  O
  C51      1.0000 0.81775  0.46842  0.57841  Biso   1.000  C
  O43      1.0000 0.48085  0.29099  0.54002  Biso   1.000  O
  H81      1.0000 0.42886  0.26902  0.58490  Biso   1.000  H
  C52      1.0000 0.41557  0.35469  0.58453  Biso   1.000  C
  C53      1.0000 0.45092  0.35769  0.65765  Biso   1.000  C
  H82      1.0000 0.76586  0.28179  0.68041  Biso   1.000  H
  C54      1.0000 0.80553  0.49650  0.53891  Biso   1.000  C
  H83      1.0000 0.86103  0.44649  0.57779  Biso   1.000  H
  C55      1.0000 0.82322  0.50562  0.61661  Biso   1.000  C
  H84      1.0000 0.47847  0.31991  0.52670  Biso   1.000  H
  H85      1.0000 0.44403  0.38769  0.57961  Biso   1.000  H
  C56      1.0000 0.38754  0.35752  0.62643  Biso   1.000  C
  O44      1.0000 0.35545  0.35103  0.55343  Biso   1.000  O
  H86      1.0000 0.47847  0.39181  0.65491  Biso   1.000  H
  C57      1.0000 0.43506  0.34878  0.70166  Biso   1.000  C
  C58      1.0000 0.85506  0.54598  0.53667  Biso   1.000  C
  H87      1.0000 0.75825  0.51232  0.53891  Biso   1.000  H
  O45      1.0000 0.80655  0.46671  0.50542  Biso   1.000  O
  H88      1.0000 0.77765  0.52339  0.61920  Biso   1.000  H
  C59      1.0000 0.84053  0.47150  0.65525  Biso   1.000  C
  O46      1.0000 0.87611  0.55018  0.60923  Biso   1.000  O
  H89      1.0000 0.35597  0.32640  0.63110  Biso   1.000  H
  O47      1.0000 0.35325  0.40846  0.62833  Biso   1.000  O
  H90      1.0000 0.36936  0.35561  0.53039  Biso   1.000  H
  H91      1.0000 0.47772  0.33971  0.71800  Biso   1.000  H
  H92      1.0000 0.41566  0.38261  0.71258  Biso   1.000  H
  O48      1.0000 0.38969  0.30792  0.70326  Biso   1.000  O
  C60      1.0000 0.86216  0.58389  0.57533  Biso   1.000  C
  H93      1.0000 0.90147  0.52892  0.53590  Biso   1.000  H
  O49      1.0000 0.85021  0.57877  0.50308  Biso   1.000  O
  H94      1.0000 0.76694  0.45510  0.49911  Biso   1.000  H
  H95      1.0000 0.84236  0.49488  0.67961  Biso   1.000  H
  H96      1.0000 0.80615  0.44229  0.65820  Biso   1.000  H
  O50      1.0000 0.90134  0.45090  0.64940  Biso   1.000  O
  C61      1.0000 0.28413  0.40879  0.64362  Biso   1.000  C
  H97      1.0000 0.35113  0.32028  0.71840  Biso   1.000  H
  H98      1.0000 0.89913  0.61168  0.57300  Biso   1.000  H
  O51      1.0000 0.79425  0.61002  0.57659  Biso   1.000  O
  H99      1.0000 0.80968  0.57881  0.49320  Biso   1.000  H
  H100     1.0000 0.91954  0.46871  0.63150  Biso   1.000  H
  H101     1.0000 0.27065  0.37021  0.64860  Biso   1.000  H
  C62      1.0000 0.23303  0.43267  0.60902  Biso   1.000  C
  O52      1.0000 0.27922  0.43779  0.67933  Biso   1.000  O
  C63      1.0000 0.79363  0.66877  0.58182  Biso   1.000  C
  H102     1.0000 0.18547  0.43130  0.61861  Biso   1.000  H
  C64      1.0000 0.25195  0.49226  0.60305  Biso   1.000  C
  O53      1.0000 0.23415  0.39972  0.57358  Biso   1.000  O
  C65      1.0000 0.29924  0.49484  0.67527  Biso   1.000  C
  C66      1.0000 0.74544  0.68904  0.54602  Biso   1.000  C
  H103     1.0000 0.84103  0.68359  0.57921  Biso   1.000  H
  C67      1.0000 0.76517  0.69050  0.62086  Biso   1.000  C
  H104     1.0000 0.29854  0.49451  0.59231  Biso   1.000  H
  C68      1.0000 0.25153  0.52613  0.64427  Biso   1.000  C
  O54      1.0000 0.20197  0.51756  0.57469  Biso   1.000  O
  H105     1.0000 0.26666  0.40962  0.55998  Biso   1.000  H
  H106     1.0000 0.34794  0.49709  0.66749  Biso   1.000  H
  C69      1.0000 0.29242  0.52309  0.72012  Biso   1.000  C
  C70      1.0000 0.74376  0.75087  0.55116  Biso   1.000  C
  H107     1.0000 0.69833  0.67302  0.54710  Biso   1.000  H
  O55      1.0000 0.77515  0.67656  0.50652  Biso   1.000  O
  H108     1.0000 0.71833  0.67481  0.62381  Biso   1.000  H
  C71      1.0000 0.81582  0.67169  0.65857  Biso   1.000  C
  O56      1.0000 0.76141  0.75216  0.62378  Biso   1.000  O
  H109     1.0000 0.20404  0.53000  0.65359  Biso   1.000  H
  O57      1.0000 0.28239  0.57927  0.63655  Biso   1.000  O
  H110     1.0000 0.22214  0.53841  0.55940  Biso   1.000  H
  H111     1.0000 0.31131  0.49900  0.74199  Biso   1.000  H
  H112     1.0000 0.31636  0.55871  0.72209  Biso   1.000  H
  O58      1.0000 0.22234  0.52942  0.72166  Biso   1.000  O
  C72      1.0000 0.70724  0.76261  0.58881  Biso   1.000  C
  H113     1.0000 0.78925  0.76939  0.54971  Biso   1.000  H
  O59      1.0000 0.68449  0.77126  0.51790  Biso   1.000  O
  H114     1.0000 0.81607  0.68700  0.50729  Biso   1.000  H
  H115     1.0000 0.79633  0.68230  0.68419  Biso   1.000  H
  H116     1.0000 0.82156  0.63162  0.65838  Biso   1.000  H
  O60      1.0000 0.87969  0.69724  0.65525  Biso   1.000  O
  C73      1.0000 0.24383  0.62562  0.64657  Biso   1.000  C
  H117     1.0000 0.20542  0.50079  0.73049  Biso   1.000  H
  H118     1.0000 0.69822  0.80280  0.58868  Biso   1.000  H
  O61      1.0000 0.63915  0.73585  0.59087  Biso   1.000  O
  H119     1.0000 0.64674  0.75741  0.52301  Biso   1.000  H
  H120     1.0000 0.87425  0.73098  0.65439  Biso   1.000  H
  H121     1.0000 0.19834  0.61331  0.65549  Biso   1.000  H
  C74      1.0000 0.23137  0.66249  0.60772  Biso   1.000  C
  O62      1.0000 0.27561  0.65504  0.67610  Biso   1.000  O
  C75      1.0000 0.58214  0.77031  0.60449  Biso   1.000  C
  H122     1.0000 0.20645  0.69670  0.61431  Biso   1.000  H
  C76      1.0000 0.30905  0.67631  0.59545  Biso   1.000  C
  O63      1.0000 0.19556  0.63457  0.57539  Biso   1.000  O
  C77      1.0000 0.34804  0.67614  0.66838  Biso   1.000  C
  C78      1.0000 0.52153  0.76099  0.57229  Biso   1.000  C
  C79      1.0000 0.55365  0.74842  0.64371  Biso   1.000  C
  H123     1.0000 0.59544  0.80959  0.60680  Biso   1.000  H
  H124     1.0000 0.33726  0.64339  0.58979  Biso   1.000  H
  C80      1.0000 0.33976  0.71247  0.63224  Biso   1.000  C
  O64      1.0000 0.29980  0.71679  0.55952  Biso   1.000  O
  H125     1.0000 0.16603  0.65529  0.56420  Biso   1.000  H
  H126     1.0000 0.37991  0.64531  0.66358  Biso   1.000  H
  C81      1.0000 0.37102  0.70776  0.70902  Biso   1.000  C
  C82      1.0000 0.46155  0.79760  0.58228  Biso   1.000  C
  H127     1.0000 0.50834  0.72170  0.56909  Biso   1.000  H
  O65      1.0000 0.54593  0.78741  0.53208  Biso   1.000  O
  O66      1.0000 0.49618  0.77963  0.65322  Biso   1.000  O
  H128     1.0000 0.54102  0.70901  0.64079  Biso   1.000  H
  C83      1.0000 0.60891  0.75678  0.67909  Biso   1.000  C
  H129     1.0000 0.31372  0.74692  0.63670  Biso   1.000  H
  O67      1.0000 0.41392  0.72137  0.61892  Biso   1.000  O
  H130     1.0000 0.29206  0.69932  0.53811  Biso   1.000  H
  H131     1.0000 0.36525  0.68351  0.73230  Biso   1.000  H
  H132     1.0000 0.42032  0.71742  0.70889  Biso   1.000  H
  O68      1.0000 0.33326  0.75416  0.71317  Biso   1.000  O
  C84      1.0000 0.43605  0.77830  0.62298  Biso   1.000  C
  H133     1.0000 0.47887  0.83580  0.58548  Biso   1.000  H
  O69      1.0000 0.40324  0.79715  0.55152  Biso   1.000  O
  H134     1.0000 0.56875  0.76448  0.51990  Biso   1.000  H
  H135     1.0000 0.58865  0.74779  0.70480  Biso   1.000  H
  H136     1.0000 0.64765  0.73140  0.67579  Biso   1.000  H
  O70      1.0000 0.63275  0.80734  0.68105  Biso   1.000  O
  H137     1.0000 0.30155  0.75541  0.69499  Biso   1.000  H
  H138     1.0000 0.39785  0.80189  0.63159  Biso   1.000  H
  H139     1.0000 0.39606  0.76519  0.54350  Biso   1.000  H
  H140     1.0000 0.61056  0.82548  0.69711  Biso   1.000  H
  C85      1.0000 0.75614  0.25087  0.44885  Biso   1.000  C
  C86      1.0000 0.75446  0.18904  0.45399  Biso   1.000  C
  C87      1.0000 0.79266  0.26261  0.41120  Biso   1.000  C
  H141     1.0000 0.71065  0.26939  0.45029  Biso   1.000  H
  O71      1.0000 0.81540  0.27126  0.48207  Biso   1.000  O
  C88      1.0000 0.70627  0.16877  0.41818  Biso   1.000  C
  H142     1.0000 0.80156  0.17302  0.45291  Biso   1.000  H
  O72      1.0000 0.72480  0.17656  0.49348  Biso   1.000  O
  O73      1.0000 0.73849  0.25216  0.37622  Biso   1.000  O
  H143     1.0000 0.80167  0.30280  0.41129  Biso   1.000  H
  O74      1.0000 0.86080  0.23585  0.40914  Biso   1.000  O
  H144     1.0000 0.85315  0.25741  0.47699  Biso   1.000  H
  C89      1.0000 0.73478  0.19050  0.37915  Biso   1.000  C
  H145     1.0000 0.65887  0.18359  0.42080  Biso   1.000  H
  O75      1.0000 0.70565  0.11002  0.42341  Biso   1.000  O
  H146     1.0000 0.68387  0.18700  0.49271  Biso   1.000  H
  C90      1.0000 0.91775  0.27031  0.39548  Biso   1.000  C
  C91      1.0000 0.68407  0.17169  0.34143  Biso   1.000  C
  H147     1.0000 0.78157  0.17481  0.37619  Biso   1.000  H
  C92      1.0000 0.63778  0.08389  0.42467  Biso   1.000  C
  C93      1.0000 0.97837  0.26099  0.42772  Biso   1.000  C
  H148     1.0000 0.90446  0.30959  0.39320  Biso   1.000  H
  C94      1.0000 0.94624  0.24842  0.35629  Biso   1.000  C
  O76      1.0000 0.62021  0.19724  0.34476  Biso   1.000  O
  H149     1.0000 0.70356  0.18230  0.31581  Biso   1.000  H
  H150     1.0000 0.67838  0.13162  0.34159  Biso   1.000  H
  H151     1.0000 0.60077  0.11168  0.42701  Biso   1.000  H
  C95      1.0000 0.64488  0.04598  0.46334  Biso   1.000  C
  O77      1.0000 0.62384  0.05018  0.39077  Biso   1.000  O
  H152     1.0000 0.99155  0.22170  0.43088  Biso   1.000  H
  O78      1.0000 0.95397  0.28741  0.46792  Biso   1.000  O
  C96      1.0000 0.03834  0.29760  0.41769  Biso   1.000  C
  H153     1.0000 0.95887  0.20901  0.35921  Biso   1.000  H
  C97      1.0000 0.89098  0.25678  0.32089  Biso   1.000  C
  O79      1.0000 0.00376  0.27963  0.34679  Biso   1.000  O
  H154     1.0000 0.62569  0.23098  0.34559  Biso   1.000  H
  H155     1.0000 0.59848  0.02892  0.46411  Biso   1.000  H
  O80      1.0000 0.64969  0.07877  0.49693  Biso   1.000  O
  C98      1.0000 0.69437  0.99650  0.46109  Biso   1.000  C
  C99      1.0000 0.67667  0.00562  0.38339  Biso   1.000  C
  H156     1.0000 0.93114  0.26448  0.48010  Biso   1.000  H
  C100     1.0000 0.06385  0.27830  0.37702  Biso   1.000  C
  H157     1.0000 0.02108  0.33580  0.41449  Biso   1.000  H
  O81      1.0000 0.09671  0.29715  0.44848  Biso   1.000  O
  H158     1.0000 0.91130  0.24779  0.29520  Biso   1.000  H
  H159     1.0000 0.85229  0.23140  0.32421  Biso   1.000  H
  O82      1.0000 0.86715  0.30734  0.31895  Biso   1.000  O
  H160     1.0000 0.69027  0.07881  0.50680  Biso   1.000  H
  H161     1.0000 0.74164  0.01232  0.46109  Biso   1.000  H
  C101     1.0000 0.68215  0.96842  0.42160  Biso   1.000  C
  O83      1.0000 0.69340  0.96671  0.49459  Biso   1.000  O
  H162     1.0000 0.72224  0.02339  0.38081  Biso   1.000  H
  C102     1.0000 0.65937  0.97150  0.34476  Biso   1.000  C
  H163     1.0000 0.10204  0.30189  0.36841  Biso   1.000  H
  O84      1.0000 0.08597  0.22137  0.38105  Biso   1.000  O
  H164     1.0000 0.10389  0.26519  0.45651  Biso   1.000  H
  H165     1.0000 0.88938  0.32548  0.30289  Biso   1.000  H
  H166     1.0000 0.63887  0.94649  0.42221  Biso   1.000  H
  O85      1.0000 0.73711  0.93251  0.41495  Biso   1.000  O
  H167     1.0000 0.73295  0.95510  0.50089  Biso   1.000  H
  H168     1.0000 0.65758  0.99488  0.32039  Biso   1.000  H
  H169     1.0000 0.69375  0.94229  0.34180  Biso   1.000  H
  O86      1.0000 0.59856  0.95090  0.35060  Biso   1.000  O
  C103     1.0000 0.16018  0.21247  0.36773  Biso   1.000  C
  C104     1.0000 0.72285  0.87504  0.41055  Biso   1.000  C
  H170     1.0000 0.58035  0.96871  0.36850  Biso   1.000  H
  C105     1.0000 0.19085  0.17631  0.40455  Biso   1.000  C
  H171     1.0000 0.18618  0.24692  0.36331  Biso   1.000  H
  C106     1.0000 0.15185  0.17614  0.33162  Biso   1.000  C
  H172     1.0000 0.67308  0.86730  0.41351  Biso   1.000  H
  C107     1.0000 0.76826  0.84949  0.44583  Biso   1.000  C
  O87      1.0000 0.74372  0.85424  0.37484  Biso   1.000  O
  C108     1.0000 0.26858  0.16249  0.39228  Biso   1.000  C
  H173     1.0000 0.16268  0.14339  0.41021  Biso   1.000  H
  O88      1.0000 0.20015  0.21679  0.44048  Biso   1.000  O
  H174     1.0000 0.11998  0.14531  0.33639  Biso   1.000  H
  C109     1.0000 0.12888  0.20776  0.29099  Biso   1.000  C
  O89      1.0000 0.22428  0.15504  0.32390  Biso   1.000  O
  H175     1.0000 0.75796  0.80971  0.44319  Biso   1.000  H
  C110     1.0000 0.84379  0.85191  0.44239  Biso   1.000  C
  O90      1.0000 0.74780  0.86252  0.48714  Biso   1.000  O
  C111     1.0000 0.81856  0.85940  0.36574  Biso   1.000  C
  C112     1.0000 0.25607  0.12562  0.35343  Biso   1.000  C
  H176     1.0000 0.29344  0.19670  0.38570  Biso   1.000  H
  O91      1.0000 0.30434  0.13457  0.42461  Biso   1.000  O
  H177     1.0000 0.20783  0.19932  0.46189  Biso   1.000  H
  H178     1.0000 0.13470  0.18351  0.26770  Biso   1.000  H
  H179     1.0000 0.07958  0.21742  0.29111  Biso   1.000  H
  O92      1.0000 0.16663  0.25416  0.28681  Biso   1.000  O
  H180     1.0000 0.85728  0.89119  0.44460  Biso   1.000  H
  C113     1.0000 0.86127  0.83318  0.40163  Biso   1.000  C
  O93      1.0000 0.88161  0.82473  0.47213  Biso   1.000  O
  H181     1.0000 0.78296  0.86518  0.50280  Biso   1.000  H
  H182     1.0000 0.83065  0.89901  0.36429  Biso   1.000  H
  C114     1.0000 0.80335  0.83755  0.32243  Biso   1.000  C
  H183     1.0000 0.30156  0.11331  0.34451  Biso   1.000  H
  O94      1.0000 0.21750  0.07927  0.36343  Biso   1.000  O
  H184     1.0000 0.33386  0.15529  0.43581  Biso   1.000  H
  H185     1.0000 0.19835  0.25541  0.30498  Biso   1.000  H
  H186     1.0000 0.85648  0.79269  0.40000  Biso   1.000  H
  O95      1.0000 0.93377  0.84858  0.39499  Biso   1.000  O
  H187     1.0000 0.92345  0.83131  0.47029  Biso   1.000  H
  H188     1.0000 0.76699  0.85910  0.30760  Biso   1.000  H
  H189     1.0000 0.84518  0.83738  0.30698  Biso   1.000  H
  O96      1.0000 0.78194  0.78658  0.32990  Biso   1.000  O
  C115     1.0000 0.24836  0.02613  0.35571  Biso   1.000  C
  C116     1.0000 0.97898  0.80339  0.38641  Biso   1.000  C
  H190     1.0000 0.73409  0.78179  0.31960  Biso   1.000  H
  C117     1.0000 0.24795  0.99226  0.39693  Biso   1.000  C
  C118     1.0000 0.20066  0.99484  0.32473  Biso   1.000  C
  H191     1.0000 0.29585  0.03000  0.34639  Biso   1.000  H
  H192     1.0000 0.95226  0.76860  0.38619  Biso   1.000  H
  C119     1.0000 0.04104  0.80039  0.42169  Biso   1.000  C
  O97      1.0000 0.00687  0.80975  0.34971  Biso   1.000  O
  C120     1.0000 0.26686  0.93267  0.39096  Biso   1.000  C
  H193     1.0000 0.20135  0.99451  0.40769  Biso   1.000  H
  O98      1.0000 0.29793  0.01756  0.42532  Biso   1.000  O
  H194     1.0000 0.15195  0.99709  0.33248  Biso   1.000  H
  O99      1.0000 0.22068  0.93779  0.32067  Biso   1.000  O
  C121     1.0000 0.20747  0.02309  0.27988  Biso   1.000  C
  H195     1.0000 0.07109  0.76902  0.41510  Biso   1.000  H
  C122     1.0000 0.08438  0.85469  0.41547  Biso   1.000  C
  O100     1.0000 0.01904  0.79099  0.45998  Biso   1.000  O
  C123     1.0000 0.04897  0.85769  0.34236  Biso   1.000  C
  C124     1.0000 0.21577  0.90879  0.35638  Biso   1.000  C
  H196     1.0000 0.31448  0.93130  0.38139  Biso   1.000  H
  O101     1.0000 0.26575  0.89972  0.42642  Biso   1.000  O
  H197     1.0000 0.27775  0.03841  0.44060  Biso   1.000  H
  H198     1.0000 0.18859  0.99900  0.25801  Biso   1.000  H
  H199     1.0000 0.18359  0.05871  0.27788  Biso   1.000  H
  O102     1.0000 0.27756  0.02942  0.27835  Biso   1.000  O
  H200     1.0000 0.05587  0.88769  0.42040  Biso   1.000  H
  C125     1.0000 0.11236  0.85752  0.37358  Biso   1.000  C
  O103     1.0000 0.14445  0.85103  0.44657  Biso   1.000  O
  H201     1.0000 0.02148  0.81991  0.47330  Biso   1.000  H
  H202     1.0000 0.02148  0.89181  0.34510  Biso   1.000  H
  C126     1.0000 0.06489  0.84878  0.29834  Biso   1.000  C
  O104     1.0000 0.14665  0.90846  0.37167  Biso   1.000  O
  H203     1.0000 0.22924  0.87021  0.35140  Biso   1.000  H
  H204     1.0000 0.23324  0.90962  0.43999  Biso   1.000  H
  H205     1.0000 0.29447  0.00079  0.26949  Biso   1.000  H
  H206     1.0000 0.14398  0.82640  0.36890  Biso   1.000  H
  H207     1.0000 0.13053  0.85561  0.46961  Biso   1.000  H
  H208     1.0000 0.02217  0.83971  0.28201  Biso   1.000  H
  H209     1.0000 0.08429  0.88261  0.28739  Biso   1.000  H
  O105     1.0000 0.11020  0.80792  0.29674  Biso   1.000  O
  H210     1.0000 0.14877  0.82028  0.28161  Biso   1.000  H
  C127     1.0000 0.24373  0.25087  0.55116  Biso   1.000  C
  C128     1.0000 0.24546  0.18904  0.54602  Biso   1.000  C
  C129     1.0000 0.20727  0.26261  0.58881  Biso   1.000  C
  H211     1.0000 0.28928  0.26939  0.54971  Biso   1.000  H
  O106     1.0000 0.18447  0.27126  0.51790  Biso   1.000  O
  O107     1.0000 0.27513  0.17656  0.50652  Biso   1.000  O
  H212     1.0000 0.19836  0.17302  0.54710  Biso   1.000  H
  C130     1.0000 0.29365  0.16877  0.58182  Biso   1.000  C
  H213     1.0000 0.19825  0.30280  0.58868  Biso   1.000  H
  O108     1.0000 0.26144  0.25216  0.62378  Biso   1.000  O
  O109     1.0000 0.13912  0.23585  0.59087  Biso   1.000  O
  H214     1.0000 0.14677  0.25741  0.52301  Biso   1.000  H
  H215     1.0000 0.31605  0.18700  0.50729  Biso   1.000  H
  H216     1.0000 0.34105  0.18359  0.57921  Biso   1.000  H
  C131     1.0000 0.26514  0.19050  0.62086  Biso   1.000  C
  O110     1.0000 0.29427  0.11002  0.57659  Biso   1.000  O
  C132     1.0000 0.08217  0.27031  0.60449  Biso   1.000  C
  H217     1.0000 0.21835  0.17481  0.62381  Biso   1.000  H
  C133     1.0000 0.31585  0.17169  0.65857  Biso   1.000  C
  C134     1.0000 0.36214  0.08389  0.57533  Biso   1.000  C
  C135     1.0000 0.02155  0.26099  0.57229  Biso   1.000  C
  H218     1.0000 0.09546  0.30959  0.60680  Biso   1.000  H
  C136     1.0000 0.05363  0.24842  0.64371  Biso   1.000  C
  H219     1.0000 0.29636  0.18230  0.68419  Biso   1.000  H
  H220     1.0000 0.32154  0.13162  0.65838  Biso   1.000  H
  O111     1.0000 0.37972  0.19724  0.65525  Biso   1.000  O
  H221     1.0000 0.39915  0.11168  0.57300  Biso   1.000  H
  C137     1.0000 0.35504  0.04598  0.53667  Biso   1.000  C
  O112     1.0000 0.37609  0.05018  0.60923  Biso   1.000  O
  H222     1.0000 0.00837  0.22170  0.56909  Biso   1.000  H
  O113     1.0000 0.04596  0.28741  0.53208  Biso   1.000  O
  C138     1.0000 0.96152  0.29760  0.58228  Biso   1.000  C
  H223     1.0000 0.04105  0.20901  0.64079  Biso   1.000  H
  C139     1.0000 0.10894  0.25678  0.67909  Biso   1.000  C
  O114     1.0000 0.99616  0.27963  0.65322  Biso   1.000  O
  H224     1.0000 0.37423  0.23098  0.65439  Biso   1.000  H
  H225     1.0000 0.40144  0.02892  0.53590  Biso   1.000  H
  O115     1.0000 0.35023  0.07877  0.50308  Biso   1.000  O
  C140     1.0000 0.30555  0.99650  0.53891  Biso   1.000  C
  C141     1.0000 0.32325  0.00562  0.61661  Biso   1.000  C
  H226     1.0000 0.06873  0.26448  0.51990  Biso   1.000  H
  C142     1.0000 0.93602  0.27830  0.62298  Biso   1.000  C
  H227     1.0000 0.97884  0.33580  0.58548  Biso   1.000  H
  O116     1.0000 0.90322  0.29715  0.55152  Biso   1.000  O
  H228     1.0000 0.08862  0.24779  0.70480  Biso   1.000  H
  H229     1.0000 0.14763  0.23140  0.67579  Biso   1.000  H
  O117     1.0000 0.13277  0.30734  0.68105  Biso   1.000  O
  H230     1.0000 0.30966  0.07881  0.49320  Biso   1.000  H
  H231     1.0000 0.25828  0.01232  0.53891  Biso   1.000  H
  C143     1.0000 0.31777  0.96842  0.57841  Biso   1.000  C
  O118     1.0000 0.30652  0.96671  0.50542  Biso   1.000  O
  H232     1.0000 0.27763  0.02339  0.61920  Biso   1.000  H
  C144     1.0000 0.34055  0.97150  0.65525  Biso   1.000  C
  H233     1.0000 0.89783  0.30189  0.63159  Biso   1.000  H
  O119     1.0000 0.91395  0.22137  0.61892  Biso   1.000  O
  H234     1.0000 0.89604  0.26519  0.54350  Biso   1.000  H
  H235     1.0000 0.11054  0.32548  0.69711  Biso   1.000  H
  H236     1.0000 0.36105  0.94649  0.57779  Biso   1.000  H
  O120     1.0000 0.26281  0.93251  0.58505  Biso   1.000  O
  H237     1.0000 0.26697  0.95510  0.49911  Biso   1.000  H
  H238     1.0000 0.34234  0.99488  0.67961  Biso   1.000  H
  H239     1.0000 0.30612  0.94229  0.65820  Biso   1.000  H
  O121     1.0000 0.40136  0.95090  0.64940  Biso   1.000  O
  C145     1.0000 0.83974  0.21247  0.63224  Biso   1.000  C
  C146     1.0000 0.27707  0.87504  0.58945  Biso   1.000  C
  H240     1.0000 0.41952  0.96871  0.63150  Biso   1.000  H
  C147     1.0000 0.80902  0.17631  0.59545  Biso   1.000  C
  H241     1.0000 0.81374  0.24692  0.63670  Biso   1.000  H
  C148     1.0000 0.84802  0.17614  0.66838  Biso   1.000  C
  H242     1.0000 0.32684  0.86730  0.58650  Biso   1.000  H
  C149     1.0000 0.23166  0.84949  0.55414  Biso   1.000  C
  O122     1.0000 0.25620  0.85424  0.62516  Biso   1.000  O
  C150     1.0000 0.73134  0.16249  0.60772  Biso   1.000  C
  H243     1.0000 0.83724  0.14339  0.58979  Biso   1.000  H
  O123     1.0000 0.79977  0.21679  0.55952  Biso   1.000  O
  H244     1.0000 0.87994  0.14531  0.66358  Biso   1.000  H
  C151     1.0000 0.87104  0.20776  0.70902  Biso   1.000  C
  O124     1.0000 0.77564  0.15504  0.67610  Biso   1.000  O
  H245     1.0000 0.24195  0.80971  0.55678  Biso   1.000  H
  C152     1.0000 0.15614  0.85191  0.55762  Biso   1.000  C
  O125     1.0000 0.25212  0.86252  0.51286  Biso   1.000  O
  C153     1.0000 0.18136  0.85940  0.63427  Biso   1.000  C
  C154     1.0000 0.74386  0.12562  0.64657  Biso   1.000  C
  H246     1.0000 0.70643  0.19670  0.61431  Biso   1.000  H
  O126     1.0000 0.69558  0.13457  0.57539  Biso   1.000  O
  H247     1.0000 0.79204  0.19932  0.53811  Biso   1.000  H
  H248     1.0000 0.86522  0.18351  0.73230  Biso   1.000  H
  H249     1.0000 0.92035  0.21742  0.70889  Biso   1.000  H
  O127     1.0000 0.83329  0.25416  0.71317  Biso   1.000  O
  H250     1.0000 0.14264  0.89119  0.55540  Biso   1.000  H
  C155     1.0000 0.13865  0.83318  0.59837  Biso   1.000  C
  O128     1.0000 0.11826  0.82473  0.52787  Biso   1.000  O
  H251     1.0000 0.21697  0.86518  0.49720  Biso   1.000  H
  H252     1.0000 0.16927  0.89901  0.63568  Biso   1.000  H
  C156     1.0000 0.19652  0.83755  0.67758  Biso   1.000  C
  H253     1.0000 0.69836  0.11331  0.65549  Biso   1.000  H
  O129     1.0000 0.78242  0.07927  0.63655  Biso   1.000  O
  H254     1.0000 0.66606  0.15529  0.56420  Biso   1.000  H
  H255     1.0000 0.80152  0.25541  0.69499  Biso   1.000  H
  H256     1.0000 0.14344  0.79269  0.60000  Biso   1.000  H
  O130     1.0000 0.06615  0.84858  0.60499  Biso   1.000  O
  H257     1.0000 0.07647  0.83131  0.52969  Biso   1.000  H
  H258     1.0000 0.23294  0.85910  0.69241  Biso   1.000  H
  H259     1.0000 0.15473  0.83738  0.69299  Biso   1.000  H
  O131     1.0000 0.21798  0.78658  0.67010  Biso   1.000  O
  C157     1.0000 0.75156  0.02613  0.64427  Biso   1.000  C
  C158     1.0000 0.02094  0.80339  0.61360  Biso   1.000  C
  H260     1.0000 0.26583  0.78179  0.68041  Biso   1.000  H
  C159     1.0000 0.75192  0.99226  0.60305  Biso   1.000  C
  C160     1.0000 0.79926  0.99484  0.67527  Biso   1.000  C
  H261     1.0000 0.70402  0.03000  0.65359  Biso   1.000  H
  C161     1.0000 0.95882  0.80039  0.57829  Biso   1.000  C
  O132     1.0000 0.99305  0.80975  0.65026  Biso   1.000  O
  H262     1.0000 0.04766  0.76860  0.61378  Biso   1.000  H
  C162     1.0000 0.73306  0.93267  0.60902  Biso   1.000  C
  H263     1.0000 0.79857  0.99451  0.59231  Biso   1.000  H
  O133     1.0000 0.70200  0.01756  0.57469  Biso   1.000  O
  H264     1.0000 0.84792  0.99709  0.66749  Biso   1.000  H
  O134     1.0000 0.77919  0.93779  0.67933  Biso   1.000  O
  C163     1.0000 0.79245  0.02309  0.72012  Biso   1.000  C
  H265     1.0000 0.92883  0.76902  0.58490  Biso   1.000  H
  C164     1.0000 0.91555  0.85469  0.58453  Biso   1.000  C
  O135     1.0000 0.98083  0.79099  0.54002  Biso   1.000  O
  C165     1.0000 0.95095  0.85769  0.65765  Biso   1.000  C
  C166     1.0000 0.78415  0.90879  0.64362  Biso   1.000  C
  H266     1.0000 0.68544  0.93130  0.61861  Biso   1.000  H
  O136     1.0000 0.73417  0.89972  0.57358  Biso   1.000  O
  H267     1.0000 0.72217  0.03841  0.55940  Biso   1.000  H
  H268     1.0000 0.81133  0.99900  0.74199  Biso   1.000  H
  H269     1.0000 0.81633  0.05871  0.72209  Biso   1.000  H
  O137     1.0000 0.72231  0.02942  0.72166  Biso   1.000  O
  H270     1.0000 0.94405  0.88769  0.57961  Biso   1.000  H
  C167     1.0000 0.88756  0.85752  0.62643  Biso   1.000  C
  O138     1.0000 0.85542  0.85103  0.55343  Biso   1.000  O
  H271     1.0000 0.97845  0.81991  0.52670  Biso   1.000  H
  H272     1.0000 0.97844  0.89181  0.65491  Biso   1.000  H
  C168     1.0000 0.93504  0.84878  0.70166  Biso   1.000  C
  O139     1.0000 0.85328  0.90846  0.62833  Biso   1.000  O
  H273     1.0000 0.77063  0.87021  0.64860  Biso   1.000  H
  H274     1.0000 0.76663  0.90962  0.55998  Biso   1.000  H
  H275     1.0000 0.70544  0.00079  0.73049  Biso   1.000  H
  H276     1.0000 0.85594  0.82640  0.63110  Biso   1.000  H
  H277     1.0000 0.86934  0.85561  0.53039  Biso   1.000  H
  H278     1.0000 0.97775  0.83971  0.71800  Biso   1.000  H
  H279     1.0000 0.91563  0.88261  0.71258  Biso   1.000  H
  O140     1.0000 0.88972  0.80792  0.70326  Biso   1.000  O
  H280     1.0000 0.85115  0.82028  0.71840  Biso   1.000  H
  O141     1.0000 0.42767  0.67327  0.21101  Biso   1.000  O
  C169     1.0000 0.43066  0.72790  0.20781  Biso   1.000  C
  H281     1.0000 0.38656  0.66320  0.20911  Biso   1.000  H
  C170     1.0000 0.45218  0.73311  0.16109  Biso   1.000  C
  H282     1.0000 0.46606  0.74380  0.22710  Biso   1.000  H
  H283     1.0000 0.38569  0.74509  0.21160  Biso   1.000  H
  C171     1.0000 0.39190  0.73514  0.13042  Biso   1.000  C
  H284     1.0000 0.48140  0.76619  0.15829  Biso   1.000  H
  O142     1.0000 0.49387  0.68380  0.15608  Biso   1.000  O
  C172     1.0000 0.41988  0.73261  0.08807  Biso   1.000  C
  H285     1.0000 0.35880  0.70481  0.13451  Biso   1.000  H
  O143     1.0000 0.35856  0.78924  0.13377  Biso   1.000  O
  C173     1.0000 0.52288  0.66911  0.11587  Biso   1.000  C
  C174     1.0000 0.46218  0.67776  0.08619  Biso   1.000  C
  H286     1.0000 0.45058  0.76448  0.08401  Biso   1.000  H
  O144     1.0000 0.36237  0.73161  0.05598  Biso   1.000  O
  C175     1.0000 0.28938  0.78812  0.14623  Biso   1.000  C
  H287     1.0000 0.54780  0.63361  0.11449  Biso   1.000  H
  O145     1.0000 0.56342  0.72004  0.10904  Biso   1.000  O
  H288     1.0000 0.42899  0.64780  0.09130  Biso   1.000  H
  O146     1.0000 0.48361  0.66877  0.04512  Biso   1.000  O
  H289     1.0000 0.32467  0.73219  0.06669  Biso   1.000  H
  H290     1.0000 0.27531  0.74971  0.15149  Biso   1.000  H
  C176     1.0000 0.23708  0.81533  0.11209  Biso   1.000  C
  O147     1.0000 0.28765  0.82057  0.18324  Biso   1.000  O
  C177     1.0000 0.63880  0.71143  0.10283  Biso   1.000  C
  H291     1.0000 0.50309  0.69678  0.03719  Biso   1.000  H
  H292     1.0000 0.18920  0.81612  0.12119  Biso   1.000  H
  C178     1.0000 0.26427  0.87408  0.10664  Biso   1.000  C
  O148     1.0000 0.24021  0.78254  0.07690  Biso   1.000  O
  C179     1.0000 0.30416  0.87775  0.17915  Biso   1.000  C
  C180     1.0000 0.65378  0.73290  0.06127  Biso   1.000  C
  H293     1.0000 0.64841  0.67140  0.10360  Biso   1.000  H
  C181     1.0000 0.68329  0.73939  0.13836  Biso   1.000  C
  H294     1.0000 0.31228  0.87479  0.09779  Biso   1.000  H
  C182     1.0000 0.25779  0.90226  0.14602  Biso   1.000  C
  O149     1.0000 0.21275  0.89888  0.07570  Biso   1.000  O
  H295     1.0000 0.27332  0.79839  0.05931  Biso   1.000  H
  H296     1.0000 0.35349  0.88228  0.17321  Biso   1.000  H
  C183     1.0000 0.29036  0.90359  0.22381  Biso   1.000  C
  C184     1.0000 0.73440  0.72412  0.05891  Biso   1.000  C
  H297     1.0000 0.64052  0.77210  0.05780  Biso   1.000  H
  O150     1.0000 0.62118  0.70023  0.03193  Biso   1.000  O
  H298     1.0000 0.67148  0.77909  0.13851  Biso   1.000  H
  C185     1.0000 0.67109  0.71609  0.17998  Biso   1.000  C
  O151     1.0000 0.75598  0.73440  0.13288  Biso   1.000  O
  H299     1.0000 0.20898  0.90421  0.15340  Biso   1.000  H
  O152     1.0000 0.28893  0.96101  0.13845  Biso   1.000  O
  H300     1.0000 0.23147  0.90359  0.05401  Biso   1.000  H
  H301     1.0000 0.30596  0.87650  0.24439  Biso   1.000  H
  H302     1.0000 0.32019  0.93609  0.22790  Biso   1.000  H
  O153     1.0000 0.22522  0.91865  0.23119  Biso   1.000  O
  C186     1.0000 0.77359  0.75566  0.09240  Biso   1.000  C
  H303     1.0000 0.74530  0.68442  0.06180  Biso   1.000  H
  O154     1.0000 0.75370  0.74318  0.01935  Biso   1.000  O
  H304     1.0000 0.57931  0.70789  0.02971  Biso   1.000  H
  H305     1.0000 0.70179  0.73519  0.20031  Biso   1.000  H
  H306     1.0000 0.62309  0.72412  0.18610  Biso   1.000  H
  O155     1.0000 0.68232  0.65908  0.18397  Biso   1.000  O
  C187     1.0000 0.24646  0.00878  0.15011  Biso   1.000  C
  H307     1.0000 0.22627  0.93921  0.25131  Biso   1.000  H
  H308     1.0000 0.82397  0.75050  0.08970  Biso   1.000  H
  O156     1.0000 0.75778  0.81238  0.08773  Biso   1.000  O
  H309     1.0000 0.75999  0.71629  0.00449  Biso   1.000  H
  H310     1.0000 0.72189  0.65151  0.17730  Biso   1.000  H
  H311     1.0000 0.20077  0.99588  0.15820  Biso   1.000  H
  C188     1.0000 0.23731  0.04224  0.11129  Biso   1.000  C
  O157     1.0000 0.27971  0.03803  0.18148  Biso   1.000  O
  C189     1.0000 0.81201  0.85170  0.08579  Biso   1.000  C
  H312     1.0000 0.20980  0.07540  0.11720  Biso   1.000  H
  C190     1.0000 0.31197  0.06183  0.10065  Biso   1.000  C
  O158     1.0000 0.20356  0.01548  0.07871  Biso   1.000  O
  C191     1.0000 0.35011  0.06071  0.17339  Biso   1.000  C
  C192     1.0000 0.80300  0.88711  0.04639  Biso   1.000  C
  H313     1.0000 0.85697  0.83210  0.08610  Biso   1.000  H
  C193     1.0000 0.81221  0.88898  0.12264  Biso   1.000  C
  H314     1.0000 0.34177  0.02959  0.09600  Biso   1.000  H
  C194     1.0000 0.34348  0.09621  0.13467  Biso   1.000  C
  O159     1.0000 0.30577  0.09704  0.06386  Biso   1.000  O
  H315     1.0000 0.16830  0.03300  0.07099  Biso   1.000  H
  H316     1.0000 0.38311  0.03008  0.16979  Biso   1.000  H
  C195     1.0000 0.37086  0.09292  0.21470  Biso   1.000  C
  C196     1.0000 0.86251  0.92739  0.04248  Biso   1.000  C
  H317     1.0000 0.75760  0.90621  0.04439  Biso   1.000  H
  O160     1.0000 0.80944  0.84766  0.01129  Biso   1.000  O
  H318     1.0000 0.76691  0.90800  0.12301  Biso   1.000  H
  C197     1.0000 0.83237  0.86601  0.16484  Biso   1.000  C
  O161     1.0000 0.87267  0.93375  0.11787  Biso   1.000  O
  H319     1.0000 0.31768  0.13091  0.13851  Biso   1.000  H
  O162     1.0000 0.41611  0.10578  0.12365  Biso   1.000  O
  H320     1.0000 0.30771  0.07760  0.04331  Biso   1.000  H
  H321     1.0000 0.36416  0.06899  0.23811  Biso   1.000  H
  H322     1.0000 0.41990  0.10361  0.21550  Biso   1.000  H
  O163     1.0000 0.33077  0.13819  0.21670  Biso   1.000  O
  C198     1.0000 0.85828  0.96438  0.08053  Biso   1.000  C
  H323     1.0000 0.90791  0.90841  0.04211  Biso   1.000  H
  O164     1.0000 0.85056  0.96101  0.00966  Biso   1.000  O
  H324     1.0000 0.82626  0.86401  0.99219  Biso   1.000  H
  H325     1.0000 0.83966  0.89589  0.18459  Biso   1.000  H
  H326     1.0000 0.79590  0.84171  0.17389  Biso   1.000  H
  O165     1.0000 0.89856  0.83435  0.16069  Biso   1.000  O
  C199     1.0000 0.43879  0.15550  0.12747  Biso   1.000  C
  H327     1.0000 0.29007  0.13028  0.20951  Biso   1.000  H
  H328     1.0000 0.89448  0.99309  0.07930  Biso   1.000  H
  O166     1.0000 0.79195  0.99201  0.08145  Biso   1.000  O
  H329     1.0000 0.80858  0.96850  0.00689  Biso   1.000  H
  H330     1.0000 0.93777  0.85661  0.16909  Biso   1.000  H
  H331     1.0000 0.39890  0.17780  0.13541  Biso   1.000  H
  C200     1.0000 0.46377  0.18259  0.09056  Biso   1.000  C
  O167     1.0000 0.49505  0.16341  0.16103  Biso   1.000  O
  C201     1.0000 0.79182  0.05139  0.08447  Biso   1.000  C
  H332     1.0000 0.47909  0.22071  0.09689  Biso   1.000  H
  C202     1.0000 0.52257  0.14951  0.07475  Biso   1.000  C
  O168     1.0000 0.40710  0.18263  0.06038  Biso   1.000  O
  C203     1.0000 0.55819  0.13141  0.14885  Biso   1.000  C
  C204     1.0000 0.74449  0.07544  0.05174  Biso   1.000  C
  H333     1.0000 0.83948  0.06570  0.08231  Biso   1.000  H
  C205     1.0000 0.76527  0.06778  0.12562  Biso   1.000  C
  H334     1.0000 0.50919  0.11031  0.07161  Biso   1.000  H
  C206     1.0000 0.58248  0.15621  0.10812  Biso   1.000  C
  O169     1.0000 0.54674  0.17040  0.03802  Biso   1.000  O
  H335     1.0000 0.41941  0.16782  0.03940  Biso   1.000  H
  H336     1.0000 0.54479  0.09242  0.14420  Biso   1.000  H
  C207     1.0000 0.60848  0.13482  0.18656  Biso   1.000  C
  C208     1.0000 0.73237  0.13549  0.05478  Biso   1.000  C
  H337     1.0000 0.69898  0.05680  0.05251  Biso   1.000  H
  O170     1.0000 0.77483  0.06063  0.01169  Biso   1.000  O
  H338     1.0000 0.72138  0.04810  0.12971  Biso   1.000  H
  C209     1.0000 0.81866  0.05472  0.16115  Biso   1.000  C
  O171     1.0000 0.75354  0.12679  0.12750  Biso   1.000  O
  H339     1.0000 0.59741  0.19511  0.11141  Biso   1.000  H
  O172     1.0000 0.64031  0.11997  0.09763  Biso   1.000  O
  H340     1.0000 0.56878  0.14610  0.02679  Biso   1.000  H
  H341     1.0000 0.59258  0.11368  0.20960  Biso   1.000  H
  H342     1.0000 0.65588  0.12400  0.18111  Biso   1.000  H
  O173     1.0000 0.60137  0.19070  0.19136  Biso   1.000  O
  C210     1.0000 0.70859  0.14668  0.09634  Biso   1.000  C
  H343     1.0000 0.77781  0.15409  0.05291  Biso   1.000  H
  O174     1.0000 0.68698  0.15575  0.02245  Biso   1.000  O
  H344     1.0000 0.74414  0.06300  0.99289  Biso   1.000  H
  H345     1.0000 0.79818  0.06371  0.18680  Biso   1.000  H
  H346     1.0000 0.82820  0.01510  0.16121  Biso   1.000  H
  O175     1.0000 0.88168  0.08331  0.15958  Biso   1.000  O
  H347     1.0000 0.64646  0.20660  0.19991  Biso   1.000  H
  H348     1.0000 0.70301  0.18700  0.09979  Biso   1.000  H
  H349     1.0000 0.64741  0.15941  0.03051  Biso   1.000  H
  H350     1.0000 0.87628  0.11572  0.16650  Biso   1.000  H
  O176     1.0000 0.57226  0.67327  0.78899  Biso   1.000  O
  C211     1.0000 0.56921  0.72790  0.79219  Biso   1.000  C
  H351     1.0000 0.61331  0.66320  0.79090  Biso   1.000  H
  C212     1.0000 0.54773  0.73311  0.83888  Biso   1.000  C
  H352     1.0000 0.53381  0.74380  0.77290  Biso   1.000  H
  H353     1.0000 0.61423  0.74509  0.78841  Biso   1.000  H
  C213     1.0000 0.60802  0.73514  0.86958  Biso   1.000  C
  H354     1.0000 0.51852  0.76619  0.84168  Biso   1.000  H
  O177     1.0000 0.50605  0.68380  0.84393  Biso   1.000  O
  C214     1.0000 0.58004  0.73261  0.91194  Biso   1.000  C
  H355     1.0000 0.64112  0.70481  0.86549  Biso   1.000  H
  O178     1.0000 0.64136  0.78924  0.86620  Biso   1.000  O
  C215     1.0000 0.47704  0.66911  0.88413  Biso   1.000  C
  C216     1.0000 0.53774  0.67776  0.91381  Biso   1.000  C
  H356     1.0000 0.54929  0.76448  0.91600  Biso   1.000  H
  O179     1.0000 0.63755  0.73161  0.94402  Biso   1.000  O
  C217     1.0000 0.71054  0.78812  0.85377  Biso   1.000  C
  H357     1.0000 0.45211  0.63361  0.88548  Biso   1.000  H
  O180     1.0000 0.43645  0.72004  0.89096  Biso   1.000  O
  H358     1.0000 0.57094  0.64780  0.90871  Biso   1.000  H
  O181     1.0000 0.51631  0.66877  0.95488  Biso   1.000  O
  H359     1.0000 0.67520  0.73219  0.93329  Biso   1.000  H
  H360     1.0000 0.72461  0.74971  0.84851  Biso   1.000  H
  C218     1.0000 0.76284  0.81533  0.88791  Biso   1.000  C
  O182     1.0000 0.71226  0.82057  0.81674  Biso   1.000  O
  C219     1.0000 0.36112  0.71143  0.89717  Biso   1.000  C
  H361     1.0000 0.49683  0.69678  0.96278  Biso   1.000  H
  H362     1.0000 0.81072  0.81612  0.87881  Biso   1.000  H
  C220     1.0000 0.73560  0.87408  0.89336  Biso   1.000  C
  O183     1.0000 0.75971  0.78254  0.92310  Biso   1.000  O
  C221     1.0000 0.69571  0.87775  0.82086  Biso   1.000  C
  C222     1.0000 0.34614  0.73290  0.93873  Biso   1.000  C
  H363     1.0000 0.35151  0.67140  0.89640  Biso   1.000  H
  C223     1.0000 0.31662  0.73939  0.86162  Biso   1.000  C
  H364     1.0000 0.68764  0.87479  0.90219  Biso   1.000  H
  C224     1.0000 0.74213  0.90226  0.85396  Biso   1.000  C
  O184     1.0000 0.78717  0.89888  0.92430  Biso   1.000  O
  H365     1.0000 0.72660  0.79839  0.94070  Biso   1.000  H
  H366     1.0000 0.64643  0.88228  0.82680  Biso   1.000  H
  C225     1.0000 0.70951  0.90359  0.77620  Biso   1.000  C
  C226     1.0000 0.26552  0.72412  0.94110  Biso   1.000  C
  H367     1.0000 0.35941  0.77210  0.94221  Biso   1.000  H
  O185     1.0000 0.37874  0.70023  0.96808  Biso   1.000  O
  H368     1.0000 0.32844  0.77909  0.86149  Biso   1.000  H
  C227     1.0000 0.32883  0.71609  0.82003  Biso   1.000  C
  O186     1.0000 0.24389  0.73440  0.86712  Biso   1.000  O
  H369     1.0000 0.79094  0.90421  0.84660  Biso   1.000  H
  O187     1.0000 0.71100  0.96101  0.86155  Biso   1.000  O
  H370     1.0000 0.76840  0.90359  0.94599  Biso   1.000  H
  H371     1.0000 0.69391  0.87650  0.75559  Biso   1.000  H
  H372     1.0000 0.67973  0.93609  0.77210  Biso   1.000  H
  O188     1.0000 0.77470  0.91865  0.76881  Biso   1.000  O
  C228     1.0000 0.22633  0.75566  0.90760  Biso   1.000  C
  H373     1.0000 0.25462  0.68442  0.93821  Biso   1.000  H
  O189     1.0000 0.24623  0.74318  0.98066  Biso   1.000  O
  H374     1.0000 0.42061  0.70789  0.97029  Biso   1.000  H
  H375     1.0000 0.29813  0.73519  0.79970  Biso   1.000  H
  H376     1.0000 0.37683  0.72412  0.81391  Biso   1.000  H
  O190     1.0000 0.31760  0.65908  0.81603  Biso   1.000  O
  C229     1.0000 0.75341  0.00878  0.84990  Biso   1.000  C
  H377     1.0000 0.77366  0.93921  0.74870  Biso   1.000  H
  H378     1.0000 0.17590  0.75050  0.91031  Biso   1.000  H
  O191     1.0000 0.24214  0.81238  0.91225  Biso   1.000  O
  H379     1.0000 0.23993  0.71629  0.99548  Biso   1.000  H
  H380     1.0000 0.27803  0.65151  0.82270  Biso   1.000  H
  H381     1.0000 0.79915  0.99588  0.84181  Biso   1.000  H
  C230     1.0000 0.76262  0.04224  0.88871  Biso   1.000  C
  O192     1.0000 0.72021  0.03803  0.81852  Biso   1.000  O
  C231     1.0000 0.18791  0.85170  0.91421  Biso   1.000  C
  H382     1.0000 0.79012  0.07540  0.88281  Biso   1.000  H
  C232     1.0000 0.68790  0.06183  0.89936  Biso   1.000  C
  O193     1.0000 0.79636  0.01548  0.92126  Biso   1.000  O
  C233     1.0000 0.64981  0.06071  0.82661  Biso   1.000  C
  C234     1.0000 0.19692  0.88711  0.95362  Biso   1.000  C
  H383     1.0000 0.14290  0.83210  0.91391  Biso   1.000  H
  C235     1.0000 0.18771  0.88898  0.87733  Biso   1.000  C
  H384     1.0000 0.65810  0.02959  0.90400  Biso   1.000  H
  C236     1.0000 0.65645  0.09621  0.86534  Biso   1.000  C
  O194     1.0000 0.69416  0.09704  0.93615  Biso   1.000  O
  H385     1.0000 0.83162  0.03300  0.92901  Biso   1.000  H
  H386     1.0000 0.61681  0.03008  0.83021  Biso   1.000  H
  C237     1.0000 0.62901  0.09292  0.78527  Biso   1.000  C
  C238     1.0000 0.13741  0.92739  0.95752  Biso   1.000  C
  H387     1.0000 0.24232  0.90621  0.95559  Biso   1.000  H
  O195     1.0000 0.19043  0.84766  0.98868  Biso   1.000  O
  H388     1.0000 0.23301  0.90800  0.87700  Biso   1.000  H
  C239     1.0000 0.16755  0.86601  0.83516  Biso   1.000  C
  O196     1.0000 0.12725  0.93375  0.88213  Biso   1.000  O
  H389     1.0000 0.68225  0.13091  0.86149  Biso   1.000  H
  O197     1.0000 0.58376  0.10578  0.87635  Biso   1.000  O
  H390     1.0000 0.69221  0.07760  0.95669  Biso   1.000  H
  H391     1.0000 0.63571  0.06899  0.76189  Biso   1.000  H
  H392     1.0000 0.58003  0.10361  0.78450  Biso   1.000  H
  O198     1.0000 0.66915  0.13819  0.78330  Biso   1.000  O
  C240     1.0000 0.14164  0.96438  0.91944  Biso   1.000  C
  H393     1.0000 0.09201  0.90841  0.95789  Biso   1.000  H
  O199     1.0000 0.14936  0.96101  0.99035  Biso   1.000  O
  H394     1.0000 0.17366  0.86401  0.00779  Biso   1.000  H
  H395     1.0000 0.16020  0.89589  0.81538  Biso   1.000  H
  H396     1.0000 0.20402  0.84171  0.82609  Biso   1.000  H
  O200     1.0000 0.10137  0.83435  0.83931  Biso   1.000  O
  C241     1.0000 0.56113  0.15550  0.87253  Biso   1.000  C
  H397     1.0000 0.70985  0.13028  0.79050  Biso   1.000  H
  H398     1.0000 0.10544  0.99309  0.92070  Biso   1.000  H
  O201     1.0000 0.20797  0.99201  0.91855  Biso   1.000  O
  H399     1.0000 0.19128  0.96850  0.99308  Biso   1.000  H
  H400     1.0000 0.06210  0.85661  0.83089  Biso   1.000  H
  H401     1.0000 0.60103  0.17780  0.86460  Biso   1.000  H
  C242     1.0000 0.53610  0.18259  0.90945  Biso   1.000  C
  O202     1.0000 0.50487  0.16341  0.83898  Biso   1.000  O
  C243     1.0000 0.20811  0.05139  0.91554  Biso   1.000  C
  H402     1.0000 0.52084  0.22071  0.90311  Biso   1.000  H
  C244     1.0000 0.47729  0.14951  0.92523  Biso   1.000  C
  O203     1.0000 0.59277  0.18263  0.93962  Biso   1.000  O
  C245     1.0000 0.44173  0.13141  0.85113  Biso   1.000  C
  C246     1.0000 0.25543  0.07544  0.94827  Biso   1.000  C
  H403     1.0000 0.16039  0.06570  0.91769  Biso   1.000  H
  C247     1.0000 0.23460  0.06778  0.87438  Biso   1.000  C
  H404     1.0000 0.49073  0.11031  0.92839  Biso   1.000  H
  C248     1.0000 0.41744  0.15621  0.89185  Biso   1.000  C
  O204     1.0000 0.45313  0.17040  0.96198  Biso   1.000  O
  H405     1.0000 0.58051  0.16782  0.96060  Biso   1.000  H
  H406     1.0000 0.45513  0.09242  0.85580  Biso   1.000  H
  C249     1.0000 0.39144  0.13482  0.81345  Biso   1.000  C
  C250     1.0000 0.26750  0.13549  0.94522  Biso   1.000  C
  H407     1.0000 0.30089  0.05680  0.94750  Biso   1.000  H
  O205     1.0000 0.22510  0.06063  0.98832  Biso   1.000  O
  H408     1.0000 0.27854  0.04810  0.87029  Biso   1.000  H
  C251     1.0000 0.18120  0.05472  0.83882  Biso   1.000  C
  O206     1.0000 0.24638  0.12679  0.87250  Biso   1.000  O
  H409     1.0000 0.40252  0.19511  0.88859  Biso   1.000  H
  O207     1.0000 0.35961  0.11997  0.90237  Biso   1.000  O
  H410     1.0000 0.43109  0.14610  0.97318  Biso   1.000  H
  H411     1.0000 0.40735  0.11368  0.79041  Biso   1.000  H
  H412     1.0000 0.34404  0.12400  0.81889  Biso   1.000  H
  O208     1.0000 0.39855  0.19070  0.80862  Biso   1.000  O
  C252     1.0000 0.29133  0.14668  0.90366  Biso   1.000  C
  H413     1.0000 0.22211  0.15409  0.94710  Biso   1.000  H
  O209     1.0000 0.31294  0.15575  0.97755  Biso   1.000  O
  H414     1.0000 0.25578  0.06300  0.00711  Biso   1.000  H
  H415     1.0000 0.20174  0.06371  0.81320  Biso   1.000  H
  H416     1.0000 0.17172  0.01510  0.83879  Biso   1.000  H
  O210     1.0000 0.11824  0.08331  0.84042  Biso   1.000  O
  H417     1.0000 0.35341  0.20660  0.80010  Biso   1.000  H
  H418     1.0000 0.29691  0.18700  0.90019  Biso   1.000  H
  H419     1.0000 0.35251  0.15941  0.96949  Biso   1.000  H
  H420     1.0000 0.12365  0.11572  0.83350  Biso   1.000  H
  C253     1.0000 0.33240  0.36601  0.16484  Biso   1.000  C
  C254     1.0000 0.31218  0.38898  0.12264  Biso   1.000  C
  H421     1.0000 0.33969  0.39589  0.18459  Biso   1.000  H
  H422     1.0000 0.29587  0.34171  0.17389  Biso   1.000  H
  O211     1.0000 0.39853  0.33435  0.16069  Biso   1.000  O
  C255     1.0000 0.31199  0.35170  0.08579  Biso   1.000  C
  H423     1.0000 0.26689  0.40800  0.12301  Biso   1.000  H
  O212     1.0000 0.37269  0.43375  0.11787  Biso   1.000  O
  H424     1.0000 0.43779  0.35661  0.16909  Biso   1.000  H
  O213     1.0000 0.25781  0.31238  0.08773  Biso   1.000  O
  C256     1.0000 0.30297  0.38711  0.04639  Biso   1.000  C
  H425     1.0000 0.35699  0.33210  0.08610  Biso   1.000  H
  C257     1.0000 0.35831  0.46438  0.08053  Biso   1.000  C
  C258     1.0000 0.27357  0.25566  0.09240  Biso   1.000  C
  C259     1.0000 0.36248  0.42739  0.04248  Biso   1.000  C
  H426     1.0000 0.25757  0.40621  0.04439  Biso   1.000  H
  O214     1.0000 0.30947  0.34766  0.01129  Biso   1.000  O
  H427     1.0000 0.39450  0.49309  0.07930  Biso   1.000  H
  O215     1.0000 0.29198  0.49201  0.08145  Biso   1.000  O
  O216     1.0000 0.25600  0.23440  0.13288  Biso   1.000  O
  C260     1.0000 0.23438  0.22412  0.05891  Biso   1.000  C
  H428     1.0000 0.32400  0.25050  0.08970  Biso   1.000  H
  H429     1.0000 0.40788  0.40841  0.04211  Biso   1.000  H
  O217     1.0000 0.35054  0.46101  0.00966  Biso   1.000  O
  H430     1.0000 0.32623  0.36401  0.99219  Biso   1.000  H
  C261     1.0000 0.29179  0.55139  0.08447  Biso   1.000  C
  C262     1.0000 0.18327  0.23939  0.13836  Biso   1.000  C
  C263     1.0000 0.15381  0.23290  0.06127  Biso   1.000  C
  H431     1.0000 0.24528  0.18442  0.06180  Biso   1.000  H
  O218     1.0000 0.25372  0.24318  0.01935  Biso   1.000  O
  H432     1.0000 0.30861  0.46850  0.00689  Biso   1.000  H
  C264     1.0000 0.24452  0.57544  0.05174  Biso   1.000  C
  H433     1.0000 0.33950  0.56570  0.08231  Biso   1.000  H
  C265     1.0000 0.26529  0.56778  0.12562  Biso   1.000  C
  C266     1.0000 0.17107  0.21609  0.17998  Biso   1.000  C
  C267     1.0000 0.13877  0.21143  0.10283  Biso   1.000  C
  H434     1.0000 0.17151  0.27909  0.13851  Biso   1.000  H
  H435     1.0000 0.14049  0.27210  0.05780  Biso   1.000  H
  O219     1.0000 0.12121  0.20023  0.03193  Biso   1.000  O
  H436     1.0000 0.26002  0.21629  0.00449  Biso   1.000  H
  C268     1.0000 0.23240  0.63549  0.05478  Biso   1.000  C
  H437     1.0000 0.19900  0.55680  0.05251  Biso   1.000  H
  O220     1.0000 0.27480  0.56063  0.01169  Biso   1.000  O
  H438     1.0000 0.22141  0.54810  0.12971  Biso   1.000  H
  C269     1.0000 0.31869  0.55472  0.16115  Biso   1.000  C
  O221     1.0000 0.25352  0.62679  0.12750  Biso   1.000  O
  H439     1.0000 0.20177  0.23519  0.20031  Biso   1.000  H
  H440     1.0000 0.12306  0.22412  0.18610  Biso   1.000  H
  O222     1.0000 0.18235  0.15908  0.18397  Biso   1.000  O
  H441     1.0000 0.14839  0.17140  0.10360  Biso   1.000  H
  O223     1.0000 0.06345  0.22004  0.10904  Biso   1.000  O
  H442     1.0000 0.07929  0.20789  0.02971  Biso   1.000  H
  C270     1.0000 0.20857  0.64668  0.09634  Biso   1.000  C
  H443     1.0000 0.27779  0.65409  0.05291  Biso   1.000  H
  O224     1.0000 0.18700  0.65575  0.02245  Biso   1.000  O
  H444     1.0000 0.24417  0.56300  0.99289  Biso   1.000  H
  H445     1.0000 0.29821  0.56371  0.18680  Biso   1.000  H
  H446     1.0000 0.32817  0.51510  0.16121  Biso   1.000  H
  O225     1.0000 0.38171  0.58331  0.15958  Biso   1.000  O
  H447     1.0000 0.22186  0.15151  0.17730  Biso   1.000  H
  C271     1.0000 0.02291  0.16911  0.11587  Biso   1.000  C
  H448     1.0000 0.20298  0.68700  0.09979  Biso   1.000  H
  O226     1.0000 0.14029  0.61997  0.09763  Biso   1.000  O
  H449     1.0000 0.14738  0.65941  0.03051  Biso   1.000  H
  H450     1.0000 0.37630  0.61572  0.16650  Biso   1.000  H
  H451     1.0000 0.04778  0.13361  0.11449  Biso   1.000  H
  C272     1.0000 0.96221  0.17776  0.08619  Biso   1.000  C
  O227     1.0000 0.99385  0.18380  0.15608  Biso   1.000  O
  C273     1.0000 0.08251  0.65621  0.10812  Biso   1.000  C
  H452     1.0000 0.92901  0.14780  0.09130  Biso   1.000  H
  C274     1.0000 0.91991  0.23261  0.08807  Biso   1.000  C
  O228     1.0000 0.98358  0.16877  0.04512  Biso   1.000  O
  C275     1.0000 0.95221  0.23311  0.16109  Biso   1.000  C
  C276     1.0000 0.02260  0.64951  0.07475  Biso   1.000  C
  H453     1.0000 0.09738  0.69511  0.11141  Biso   1.000  H
  C277     1.0000 0.05817  0.63141  0.14885  Biso   1.000  C
  H454     1.0000 0.95060  0.26448  0.08401  Biso   1.000  H
  C278     1.0000 0.89187  0.23514  0.13042  Biso   1.000  C
  O229     1.0000 0.86240  0.23161  0.05598  Biso   1.000  O
  H455     1.0000 0.00311  0.19678  0.03719  Biso   1.000  H
  H456     1.0000 0.98137  0.26619  0.15829  Biso   1.000  H
  C279     1.0000 0.93068  0.22790  0.20781  Biso   1.000  C
  H457     1.0000 0.00921  0.61031  0.07161  Biso   1.000  H
  O230     1.0000 0.04676  0.67040  0.03802  Biso   1.000  O
  C280     1.0000 0.96380  0.68259  0.09056  Biso   1.000  C
  H458     1.0000 0.04477  0.59242  0.14420  Biso   1.000  H
  C281     1.0000 0.10851  0.63482  0.18656  Biso   1.000  C
  O231     1.0000 0.99508  0.66341  0.16103  Biso   1.000  O
  H459     1.0000 0.85877  0.20481  0.13451  Biso   1.000  H
  O232     1.0000 0.85858  0.28924  0.13377  Biso   1.000  O
  H460     1.0000 0.82469  0.23219  0.06669  Biso   1.000  H
  H461     1.0000 0.96609  0.24380  0.22710  Biso   1.000  H
  H462     1.0000 0.88566  0.24509  0.21160  Biso   1.000  H
  O233     1.0000 0.92769  0.17327  0.21101  Biso   1.000  O
  H463     1.0000 0.06880  0.64610  0.02679  Biso   1.000  H
  C282     1.0000 0.93876  0.65550  0.12747  Biso   1.000  C
  H464     1.0000 0.97911  0.72071  0.09689  Biso   1.000  H
  O234     1.0000 0.90713  0.68263  0.06038  Biso   1.000  O
  H465     1.0000 0.09260  0.61368  0.20960  Biso   1.000  H
  H466     1.0000 0.15591  0.62400  0.18111  Biso   1.000  H
  O235     1.0000 0.10135  0.69070  0.19136  Biso   1.000  O
  C283     1.0000 0.78941  0.28812  0.14623  Biso   1.000  C
  H467     1.0000 0.88659  0.16320  0.20911  Biso   1.000  H
  O236     1.0000 0.91614  0.60578  0.12365  Biso   1.000  O
  H468     1.0000 0.89887  0.67780  0.13541  Biso   1.000  H
  H469     1.0000 0.91939  0.66782  0.03940  Biso   1.000  H
  H470     1.0000 0.14649  0.70660  0.19991  Biso   1.000  H
  H471     1.0000 0.77528  0.24971  0.15149  Biso   1.000  H
  C284     1.0000 0.73711  0.31533  0.11209  Biso   1.000  C
  O237     1.0000 0.78763  0.32057  0.18324  Biso   1.000  O
  C285     1.0000 0.84350  0.59621  0.13467  Biso   1.000  C
  H472     1.0000 0.68918  0.31612  0.12119  Biso   1.000  H
  C286     1.0000 0.76430  0.37408  0.10664  Biso   1.000  C
  O238     1.0000 0.74024  0.28254  0.07690  Biso   1.000  O
  C287     1.0000 0.80419  0.37775  0.17915  Biso   1.000  C
  C288     1.0000 0.81200  0.56183  0.10065  Biso   1.000  C
  C289     1.0000 0.85008  0.56071  0.17339  Biso   1.000  C
  H473     1.0000 0.81770  0.63091  0.13851  Biso   1.000  H
  H474     1.0000 0.81231  0.37479  0.09779  Biso   1.000  H
  C290     1.0000 0.75776  0.40226  0.14602  Biso   1.000  C
  O239     1.0000 0.71272  0.39888  0.07570  Biso   1.000  O
  H475     1.0000 0.77329  0.29839  0.05931  Biso   1.000  H
  H476     1.0000 0.85347  0.38228  0.17321  Biso   1.000  H
  C291     1.0000 0.79039  0.40359  0.22381  Biso   1.000  C
  C292     1.0000 0.73728  0.54224  0.11129  Biso   1.000  C
  H477     1.0000 0.84179  0.52959  0.09600  Biso   1.000  H
  O240     1.0000 0.80574  0.59704  0.06386  Biso   1.000  O
  O241     1.0000 0.77974  0.53803  0.18148  Biso   1.000  O
  H478     1.0000 0.88308  0.53008  0.16979  Biso   1.000  H
  C293     1.0000 0.87088  0.59292  0.21470  Biso   1.000  C
  H479     1.0000 0.70901  0.40421  0.15340  Biso   1.000  H
  O242     1.0000 0.78890  0.46101  0.13845  Biso   1.000  O
  H480     1.0000 0.73150  0.40359  0.05401  Biso   1.000  H
  H481     1.0000 0.80599  0.37650  0.24439  Biso   1.000  H
  H482     1.0000 0.82016  0.43609  0.22790  Biso   1.000  H
  O243     1.0000 0.72519  0.41865  0.23119  Biso   1.000  O
  C294     1.0000 0.74649  0.50878  0.15011  Biso   1.000  C
  H483     1.0000 0.70977  0.57540  0.11720  Biso   1.000  H
  O244     1.0000 0.70358  0.51548  0.07871  Biso   1.000  O
  H484     1.0000 0.80768  0.57760  0.04331  Biso   1.000  H
  H485     1.0000 0.86418  0.56899  0.23811  Biso   1.000  H
  H486     1.0000 0.91987  0.60361  0.21550  Biso   1.000  H
  O245     1.0000 0.83079  0.63819  0.21670  Biso   1.000  O
  H487     1.0000 0.72629  0.43921  0.25131  Biso   1.000  H
  H488     1.0000 0.70080  0.49588  0.15820  Biso   1.000  H
  H489     1.0000 0.66827  0.53300  0.07099  Biso   1.000  H
  H490     1.0000 0.79010  0.63028  0.20951  Biso   1.000  H
  C295     1.0000 0.66752  0.36601  0.83516  Biso   1.000  C
  O246     1.0000 0.60134  0.33435  0.83931  Biso   1.000  O
  C296     1.0000 0.68774  0.38898  0.87733  Biso   1.000  C
  H491     1.0000 0.66023  0.39589  0.81538  Biso   1.000  H
  H492     1.0000 0.70404  0.34171  0.82609  Biso   1.000  H
  H493     1.0000 0.56213  0.35661  0.83089  Biso   1.000  H
  C297     1.0000 0.68793  0.35170  0.91421  Biso   1.000  C
  H494     1.0000 0.73304  0.40800  0.87700  Biso   1.000  H
  O247     1.0000 0.62723  0.43375  0.88213  Biso   1.000  O
  C298     1.0000 0.69690  0.38711  0.95362  Biso   1.000  C
  H495     1.0000 0.64293  0.33210  0.91391  Biso   1.000  H
  O248     1.0000 0.74211  0.31238  0.91225  Biso   1.000  O
  C299     1.0000 0.64161  0.46438  0.91944  Biso   1.000  C
  C300     1.0000 0.63744  0.42739  0.95752  Biso   1.000  C
  H496     1.0000 0.74230  0.40621  0.95559  Biso   1.000  H
  O249     1.0000 0.69045  0.34766  0.98868  Biso   1.000  O
  C301     1.0000 0.72630  0.25566  0.90760  Biso   1.000  C
  H497     1.0000 0.60542  0.49309  0.92070  Biso   1.000  H
  O250     1.0000 0.70795  0.49201  0.91855  Biso   1.000  O
  H498     1.0000 0.59204  0.40841  0.95789  Biso   1.000  H
  O251     1.0000 0.64938  0.46101  0.99035  Biso   1.000  O
  H499     1.0000 0.67364  0.36401  0.00779  Biso   1.000  H
  H500     1.0000 0.67593  0.25050  0.91031  Biso   1.000  H
  C302     1.0000 0.76549  0.22412  0.94110  Biso   1.000  C
  O252     1.0000 0.74392  0.23440  0.86712  Biso   1.000  O
  C303     1.0000 0.70813  0.55139  0.91554  Biso   1.000  C
  H501     1.0000 0.69131  0.46850  0.99308  Biso   1.000  H
  H502     1.0000 0.75459  0.18442  0.93821  Biso   1.000  H
  C304     1.0000 0.84611  0.23290  0.93873  Biso   1.000  C
  O253     1.0000 0.74620  0.24318  0.98066  Biso   1.000  O
  C305     1.0000 0.81660  0.23939  0.86162  Biso   1.000  C
  C306     1.0000 0.75540  0.57544  0.94827  Biso   1.000  C
  H503     1.0000 0.66042  0.56570  0.91769  Biso   1.000  H
  C307     1.0000 0.73463  0.56778  0.87438  Biso   1.000  C
  H504     1.0000 0.85943  0.27210  0.94221  Biso   1.000  H
  C308     1.0000 0.86110  0.21143  0.89717  Biso   1.000  C
  O254     1.0000 0.87871  0.20023  0.96808  Biso   1.000  O
  H505     1.0000 0.73990  0.21629  0.99548  Biso   1.000  H
  H506     1.0000 0.82842  0.27909  0.86149  Biso   1.000  H
  C309     1.0000 0.82880  0.21609  0.82003  Biso   1.000  C
  C310     1.0000 0.76752  0.63549  0.94522  Biso   1.000  C
  H507     1.0000 0.80092  0.55680  0.94750  Biso   1.000  H
  O255     1.0000 0.72512  0.56063  0.98832  Biso   1.000  O
  H508     1.0000 0.77851  0.54810  0.87029  Biso   1.000  H
  C311     1.0000 0.68123  0.55472  0.83882  Biso   1.000  C
  O256     1.0000 0.74641  0.62679  0.87250  Biso   1.000  O
  H509     1.0000 0.85154  0.17140  0.89640  Biso   1.000  H
  O257     1.0000 0.93647  0.22004  0.89096  Biso   1.000  O
  H510     1.0000 0.92063  0.20789  0.97029  Biso   1.000  H
  H511     1.0000 0.79810  0.23519  0.79970  Biso   1.000  H
  H512     1.0000 0.87681  0.22412  0.81391  Biso   1.000  H
  O258     1.0000 0.81757  0.15908  0.81603  Biso   1.000  O
  C312     1.0000 0.79130  0.64668  0.90366  Biso   1.000  C
  H513     1.0000 0.72213  0.65409  0.94710  Biso   1.000  H
  O259     1.0000 0.81292  0.65575  0.97755  Biso   1.000  O
  H514     1.0000 0.75576  0.56300  0.00711  Biso   1.000  H
  H515     1.0000 0.70171  0.56371  0.81320  Biso   1.000  H
  H516     1.0000 0.67175  0.51510  0.83879  Biso   1.000  H
  O260     1.0000 0.61822  0.58331  0.84042  Biso   1.000  O
  C313     1.0000 0.97701  0.16911  0.88413  Biso   1.000  C
  H517     1.0000 0.77801  0.15151  0.82270  Biso   1.000  H
  H518     1.0000 0.79694  0.68700  0.90019  Biso   1.000  H
  O261     1.0000 0.85958  0.61997  0.90237  Biso   1.000  O
  H519     1.0000 0.85254  0.65941  0.96949  Biso   1.000  H
  H520     1.0000 0.62362  0.61572  0.83350  Biso   1.000  H
  H521     1.0000 0.95214  0.13361  0.88548  Biso   1.000  H
  C314     1.0000 0.03771  0.17776  0.91381  Biso   1.000  C
  O262     1.0000 0.00608  0.18380  0.84393  Biso   1.000  O
  C315     1.0000 0.91741  0.65621  0.89185  Biso   1.000  C
  H522     1.0000 0.07091  0.14780  0.90871  Biso   1.000  H
  C316     1.0000 0.08001  0.23261  0.91194  Biso   1.000  C
  O263     1.0000 0.01629  0.16877  0.95488  Biso   1.000  O
  C317     1.0000 0.04771  0.23311  0.83888  Biso   1.000  C
  C318     1.0000 0.97732  0.64951  0.92523  Biso   1.000  C
  H523     1.0000 0.90254  0.69511  0.88859  Biso   1.000  H
  C319     1.0000 0.94170  0.63141  0.85113  Biso   1.000  C
  H524     1.0000 0.04932  0.26448  0.91600  Biso   1.000  H
  C320     1.0000 0.10800  0.23514  0.86958  Biso   1.000  C
  O264     1.0000 0.13753  0.23161  0.94402  Biso   1.000  O
  H525     1.0000 0.99681  0.19678  0.96278  Biso   1.000  H
  H526     1.0000 0.01855  0.26619  0.84168  Biso   1.000  H
  C321     1.0000 0.06924  0.22790  0.79219  Biso   1.000  C
  H527     1.0000 0.99071  0.61031  0.92839  Biso   1.000  H
  O265     1.0000 0.95316  0.67040  0.96198  Biso   1.000  O
  C322     1.0000 0.03613  0.68259  0.90945  Biso   1.000  C
  H528     1.0000 0.95510  0.59242  0.85580  Biso   1.000  H
  C323     1.0000 0.89142  0.63482  0.81345  Biso   1.000  C
  O266     1.0000 0.00484  0.66341  0.83898  Biso   1.000  O
  H529     1.0000 0.14110  0.20481  0.86549  Biso   1.000  H
  O267     1.0000 0.14134  0.28924  0.86620  Biso   1.000  O
  H530     1.0000 0.17522  0.23219  0.93329  Biso   1.000  H
  H531     1.0000 0.03384  0.24380  0.77290  Biso   1.000  H
  H532     1.0000 0.11421  0.24509  0.78841  Biso   1.000  H
  O268     1.0000 0.07223  0.17327  0.78899  Biso   1.000  O
  H533     1.0000 0.93111  0.64610  0.97318  Biso   1.000  H
  C324     1.0000 0.06111  0.65550  0.87253  Biso   1.000  C
  H534     1.0000 0.02081  0.72071  0.90311  Biso   1.000  H
  O269     1.0000 0.09280  0.68263  0.93962  Biso   1.000  O
  H535     1.0000 0.90732  0.61368  0.79041  Biso   1.000  H
  H536     1.0000 0.84402  0.62400  0.81889  Biso   1.000  H
  O270     1.0000 0.89852  0.69070  0.80862  Biso   1.000  O
  C325     1.0000 0.21052  0.28812  0.85377  Biso   1.000  C
  H537     1.0000 0.11333  0.16320  0.79090  Biso   1.000  H
  H538     1.0000 0.10100  0.67780  0.86460  Biso   1.000  H
  O271     1.0000 0.08378  0.60578  0.87635  Biso   1.000  O
  H539     1.0000 0.08054  0.66782  0.96060  Biso   1.000  H
  H540     1.0000 0.85343  0.70660  0.80010  Biso   1.000  H
  H541     1.0000 0.22464  0.24971  0.84851  Biso   1.000  H
  C326     1.0000 0.26282  0.31533  0.88791  Biso   1.000  C
  O272     1.0000 0.21229  0.32057  0.81674  Biso   1.000  O
  C327     1.0000 0.15642  0.59621  0.86534  Biso   1.000  C
  H542     1.0000 0.31075  0.31612  0.87881  Biso   1.000  H
  C328     1.0000 0.23562  0.37408  0.89336  Biso   1.000  C
  O273     1.0000 0.25968  0.28254  0.92310  Biso   1.000  O
  C329     1.0000 0.19574  0.37775  0.82086  Biso   1.000  C
  C330     1.0000 0.18792  0.56183  0.89936  Biso   1.000  C
  H543     1.0000 0.18222  0.63091  0.86149  Biso   1.000  H
  C331     1.0000 0.14984  0.56071  0.82661  Biso   1.000  C
  H544     1.0000 0.18761  0.37479  0.90219  Biso   1.000  H
  C332     1.0000 0.24211  0.40226  0.85396  Biso   1.000  C
  O274     1.0000 0.28720  0.39888  0.92430  Biso   1.000  O
  H545     1.0000 0.22663  0.29839  0.94070  Biso   1.000  H
  H546     1.0000 0.14640  0.38228  0.82680  Biso   1.000  H
  C333     1.0000 0.20954  0.40359  0.77620  Biso   1.000  C
  C334     1.0000 0.26264  0.54224  0.88871  Biso   1.000  C
  H547     1.0000 0.15813  0.52959  0.90400  Biso   1.000  H
  O275     1.0000 0.19418  0.59704  0.93615  Biso   1.000  O
  H548     1.0000 0.11684  0.53008  0.83021  Biso   1.000  H
  C335     1.0000 0.12904  0.59292  0.78527  Biso   1.000  C
  O276     1.0000 0.22019  0.53803  0.81852  Biso   1.000  O
  H549     1.0000 0.29092  0.40421  0.84660  Biso   1.000  H
  O277     1.0000 0.21102  0.46101  0.86155  Biso   1.000  O
  H550     1.0000 0.26842  0.40359  0.94599  Biso   1.000  H
  H551     1.0000 0.19393  0.37650  0.75559  Biso   1.000  H
  H552     1.0000 0.17971  0.43609  0.77210  Biso   1.000  H
  O278     1.0000 0.27473  0.41865  0.76881  Biso   1.000  O
  C336     1.0000 0.25343  0.50878  0.84990  Biso   1.000  C
  H553     1.0000 0.29010  0.57540  0.88281  Biso   1.000  H
  O279     1.0000 0.29633  0.51548  0.92126  Biso   1.000  O
  H554     1.0000 0.19219  0.57760  0.95669  Biso   1.000  H
  H555     1.0000 0.13574  0.56899  0.76189  Biso   1.000  H
  H556     1.0000 0.08005  0.60361  0.78450  Biso   1.000  H
  O280     1.0000 0.16913  0.63819  0.78330  Biso   1.000  O
  H557     1.0000 0.27363  0.43921  0.74870  Biso   1.000  H
  H558     1.0000 0.29912  0.49588  0.84181  Biso   1.000  H
  H559     1.0000 0.33160  0.53300  0.92901  Biso   1.000  H
  H560     1.0000 0.20983  0.63028  0.79050  Biso   1.000  H
  Ne1      1.0000 0.45376  0.54773  0.39060  Biso   1.000  Ne
  He1      1.0000 0.46492  0.54630  0.44131  Biso   1.000  He
  He2      1.0000 0.43783  0.54275  0.36233  Biso   1.000  He
  Ar1      1.0000 0.45250  0.54668  0.41430  Biso   1.000  Ar
  Ne2      1.0000 0.04677  0.42893  0.11460  Biso   1.000  Ne
  He3      1.0000 0.06175  0.42321  0.15158  Biso   1.000  He
  He4      1.0000 0.01814  0.43000  0.03670  Biso   1.000  He
  Ar2      1.0000 0.04478  0.42164  0.11058  Biso   1.000  Ar
  Ne3      1.0000 0.95376  0.04773  0.39060  Biso   1.000  Ne
  He5      1.0000 0.96187  0.04640  0.43464  Biso   1.000  He
  He6      1.0000 0.93783  0.04275  0.36233  Biso   1.000  He
  Ar3      1.0000 0.94977  0.04744  0.41461  Biso   1.000  Ar
  Ne4      1.0000 0.04615  0.04773  0.60939  Biso   1.000  Ne
  He7      1.0000 0.06787  0.04340  0.65218  Biso   1.000  He
  He8      1.0000 0.03239  0.04622  0.55306  Biso   1.000  He
  Ar4      1.0000 0.05097  0.04350  0.59344  Biso   1.000  Ar
  Ne5      1.0000 0.54614  0.54773  0.60939  Biso   1.000  Ne
  He9      1.0000 0.56787  0.54340  0.65218  Biso   1.000  He
  He10     1.0000 0.53239  0.54621  0.55305  Biso   1.000  He
  Ar5      1.0000 0.55104  0.54348  0.59348  Biso   1.000  Ar
  Ne6      1.0000 0.54676  0.92893  0.11460  Biso   1.000  Ne
  He11     1.0000 0.56176  0.92321  0.15158  Biso   1.000  He
  He12     1.0000 0.51815  0.93000  0.03670  Biso   1.000  He
  Ar6      1.0000 0.54483  0.92158  0.11083  Biso   1.000  Ar
  Ne7      1.0000 0.95315  0.42893  0.88540  Biso   1.000  Ne
  He13     1.0000 0.95474  0.42728  0.90745  Biso   1.000  He
  He14     1.0000 0.93781  0.42324  0.84755  Biso   1.000  He
  Ar7      1.0000 0.95519  0.42157  0.88921  Biso   1.000  Ar
  Ne8      1.0000 0.45315  0.92893  0.88540  Biso   1.000  Ne
  He15     1.0000 0.45472  0.92728  0.90744  Biso   1.000  He
  He16     1.0000 0.43782  0.92325  0.84755  Biso   1.000  He
  Ar8      1.0000 0.45509  0.92157  0.88913  Biso   1.000  Ar
