data_image0
_cell_length_a       17.681
_cell_length_b       17.681
_cell_length_c       43.55
_cell_angle_alpha    90
_cell_angle_beta     90
_cell_angle_gamma    120

_symmetry_space_group_name_H-M    "P 1"
_symmetry_int_tables_number       1

loop_
  _symmetry_equiv_pos_as_xyz
  'x, y, z'

loop_
  _atom_site_label
  _atom_site_occupancy
  _atom_site_fract_x
  _atom_site_fract_y
  _atom_site_fract_z
  _atom_site_thermal_displace_type
  _atom_site_B_iso_or_equiv
  _atom_site_type_symbol
  C1       1.0000 0.48536  0.28468  0.55419  Biso   1.000  C
  N1       1.0000 0.42347  0.20807  0.55109  Biso   1.000  N
  C2       1.0000 0.57990  0.31041  0.55440  Biso   1.000  C
  H1       1.0000 0.47138  0.32967  0.55669  Biso   1.000  H
  C3       1.0000 0.33497  0.19338  0.55401  Biso   1.000  C
  C4       1.0000 0.64309  0.39811  0.55511  Biso   1.000  C
  C5       1.0000 0.60187  0.24497  0.55511  Biso   1.000  C
  C6       1.0000 0.27653  0.13532  0.52969  Biso   1.000  C
  C7       1.0000 0.30589  0.15831  0.58501  Biso   1.000  C
  H2       1.0000 0.33732  0.25091  0.55249  Biso   1.000  H
  C8       1.0000 0.73051  0.42012  0.55440  Biso   1.000  C
  H3       1.0000 0.62720  0.44200  0.55589  Biso   1.000  H
  H4       1.0000 0.55802  0.18521  0.55589  Biso   1.000  H
  C9       1.0000 0.68959  0.26952  0.55440  Biso   1.000  C
  N2       1.0000 0.30688  0.17770  0.49931  Biso   1.000  N
  H5       1.0000 0.27841  0.07981  0.52980  Biso   1.000  H
  C10      1.0000 0.18688  0.11507  0.53589  Biso   1.000  C
  C11      1.0000 0.21323  0.13643  0.59150  Biso   1.000  C
  H6       1.0000 0.34529  0.20180  0.60030  Biso   1.000  H
  H7       1.0000 0.31018  0.10488  0.58751  Biso   1.000  H
  C12      1.0000 0.79931  0.51462  0.55419  Biso   1.000  C
  C13      1.0000 0.75500  0.35691  0.55511  Biso   1.000  C
  C14      1.0000 0.71530  0.20069  0.55419  Biso   1.000  C
  C15      1.0000 0.31997  0.13917  0.47830  Biso   1.000  C
  H8       1.0000 0.14837  0.07380  0.51991  Biso   1.000  H
  H9       1.0000 0.18439  0.16947  0.53350  Biso   1.000  H
  C16      1.0000 0.14982  0.07680  0.56659  Biso   1.000  C
  H10      1.0000 0.21081  0.19109  0.59261  Biso   1.000  H
  H11      1.0000 0.19479  0.10691  0.61171  Biso   1.000  H
  N3       1.0000 0.78459  0.57647  0.55109  Biso   1.000  N
  H12      1.0000 0.85833  0.52860  0.55669  Biso   1.000  H
  H13      1.0000 0.81480  0.37277  0.55589  Biso   1.000  H
  N4       1.0000 0.79187  0.21538  0.55109  Biso   1.000  N
  H14      1.0000 0.67032  0.14172  0.55669  Biso   1.000  H
  C17      1.0000 0.34898  0.17300  0.44820  Biso   1.000  C
  H15      1.0000 0.30981  0.08209  0.48241  Biso   1.000  H
  H16      1.0000 0.14200  0.01750  0.56829  Biso   1.000  H
  H17      1.0000 0.09209  0.07243  0.56930  Biso   1.000  H
  C18      1.0000 0.85839  0.66503  0.55401  Biso   1.000  C
  C19      1.0000 0.80661  0.14159  0.55401  Biso   1.000  C
  C20      1.0000 0.36500  0.25548  0.43869  Biso   1.000  C
  C21      1.0000 0.37327  0.12598  0.42739  Biso   1.000  C
  C22      1.0000 0.85877  0.72348  0.52969  Biso   1.000  C
  C23      1.0000 0.85239  0.69409  0.58501  Biso   1.000  C
  H18      1.0000 0.91360  0.66267  0.55249  Biso   1.000  H
  C24      1.0000 0.86467  0.14119  0.52969  Biso   1.000  C
  C25      1.0000 0.84168  0.14759  0.58501  Biso   1.000  C
  H19      1.0000 0.74910  0.08640  0.55249  Biso   1.000  H
  C26      1.0000 0.39657  0.28650  0.41070  Biso   1.000  C
  H20      1.0000 0.35319  0.29023  0.45240  Biso   1.000  H
  C27      1.0000 0.40500  0.15733  0.39878  Biso   1.000  C
  H21      1.0000 0.36732  0.07190  0.43371  Biso   1.000  H
  N5       1.0000 0.87079  0.69311  0.49931  Biso   1.000  N
  H22      1.0000 0.80138  0.72158  0.52980  Biso   1.000  H
  C28      1.0000 0.92817  0.81308  0.53589  Biso   1.000  C
  C29      1.0000 0.92319  0.78682  0.59150  Biso   1.000  C
  H23      1.0000 0.85651  0.65471  0.60030  Biso   1.000  H
  H24      1.0000 0.79469  0.68978  0.58751  Biso   1.000  H
  N6       1.0000 0.82230  0.12918  0.49931  Biso   1.000  N
  H25      1.0000 0.92018  0.19860  0.52980  Biso   1.000  H
  C30      1.0000 0.88488  0.07177  0.53589  Biso   1.000  C
  C31      1.0000 0.86358  0.07680  0.59150  Biso   1.000  C
  H26      1.0000 0.79817  0.14348  0.60030  Biso   1.000  H
  H27      1.0000 0.89510  0.20533  0.58751  Biso   1.000  H
  C32      1.0000 0.41453  0.37421  0.40179  Biso   1.000  C
  C33      1.0000 0.41628  0.23837  0.39010  Biso   1.000  C
  C34      1.0000 0.42918  0.10750  0.37669  Biso   1.000  C
  C35      1.0000 0.81921  0.67998  0.47830  Biso   1.000  C
  H28      1.0000 0.92538  0.85161  0.51991  Biso   1.000  H
  H29      1.0000 0.98510  0.81562  0.53350  Biso   1.000  H
  C36      1.0000 0.92698  0.85017  0.56659  Biso   1.000  C
  H30      1.0000 0.98030  0.78917  0.59261  Biso   1.000  H
  H31      1.0000 0.91206  0.80518  0.61171  Biso   1.000  H
  C37      1.0000 0.86076  0.18077  0.47830  Biso   1.000  C
  H32      1.0000 0.92621  0.07458  0.51991  Biso   1.000  H
  H33      1.0000 0.83048  0.01489  0.53350  Biso   1.000  H
  C38      1.0000 0.92322  0.07301  0.56659  Biso   1.000  C
  H34      1.0000 0.80891  0.01972  0.59261  Biso   1.000  H
  H35      1.0000 0.89311  0.08790  0.61171  Biso   1.000  H
  N7       1.0000 0.44641  0.41072  0.37692  Biso   1.000  N
  H36      1.0000 0.40054  0.40562  0.41621  Biso   1.000  H
  H37      1.0000 0.43741  0.26071  0.37010  Biso   1.000  H
  N8       1.0000 0.42312  0.03598  0.38427  Biso   1.000  N
  H38      1.0000 0.44929  0.13029  0.35669  Biso   1.000  H
  C39      1.0000 0.82399  0.65098  0.44820  Biso   1.000  C
  H39      1.0000 0.77227  0.69017  0.48241  Biso   1.000  H
  H40      1.0000 0.87553  0.85801  0.56829  Biso   1.000  H
  H41      1.0000 0.98028  0.90790  0.56930  Biso   1.000  H
  C40      1.0000 0.82699  0.17600  0.44820  Biso   1.000  C
  H42      1.0000 0.91789  0.22773  0.48241  Biso   1.000  H
  H43      1.0000 0.98249  0.12448  0.56829  Biso   1.000  H
  H44      1.0000 0.92763  0.01972  0.56930  Biso   1.000  H
  C41      1.0000 0.45702  0.49901  0.37169  Biso   1.000  C
  C42      1.0000 0.43881  0.98740  0.35956  Biso   1.000  C
  C43      1.0000 0.75269  0.62669  0.42739  Biso   1.000  C
  C44      1.0000 0.89048  0.63498  0.43869  Biso   1.000  C
  C45      1.0000 0.74448  0.10952  0.43869  Biso   1.000  C
  C46      1.0000 0.87401  0.24732  0.42739  Biso   1.000  C
  C47      1.0000 0.38931  0.48791  0.34659  Biso   1.000  C
  H45      1.0000 0.44610  0.52220  0.39109  Biso   1.000  H
  C48      1.0000 0.54862  0.56119  0.35956  Biso   1.000  C
  H46      1.0000 0.46539  0.02619  0.34131  Biso   1.000  H
  C49      1.0000 0.50098  0.95801  0.37169  Biso   1.000  C
  C50      1.0000 0.35123  0.90759  0.35040  Biso   1.000  C
  C51      1.0000 0.75229  0.59502  0.39878  Biso   1.000  C
  H47      1.0000 0.70462  0.63270  0.43371  Biso   1.000  H
  C52      1.0000 0.88989  0.60338  0.41070  Biso   1.000  C
  H48      1.0000 0.93700  0.64680  0.45240  Biso   1.000  H
  C53      1.0000 0.71350  0.11011  0.41070  Biso   1.000  C
  H49      1.0000 0.70981  0.06302  0.45240  Biso   1.000  H
  C54      1.0000 0.84271  0.24771  0.39878  Biso   1.000  C
  H50      1.0000 0.92808  0.29539  0.43371  Biso   1.000  H
  H51      1.0000 0.39638  0.45839  0.32850  Biso   1.000  H
  H52      1.0000 0.32953  0.45082  0.35470  Biso   1.000  H
  C55      1.0000 0.40221  0.57830  0.33699  Biso   1.000  C
  N9       1.0000 0.61294  0.57693  0.38427  Biso   1.000  N
  C56      1.0000 0.55642  0.64883  0.35040  Biso   1.000  C
  H53      1.0000 0.56078  0.53461  0.34131  Biso   1.000  H
  N10      1.0000 0.58932  0.03572  0.37692  Biso   1.000  N
  H54      1.0000 0.47777  0.92392  0.39109  Biso   1.000  H
  C57      1.0000 0.51214  0.90139  0.34659  Biso   1.000  C
  C58      1.0000 0.36248  0.85521  0.32641  Biso   1.000  C
  H55      1.0000 0.32415  0.87063  0.36879  Biso   1.000  H
  H56      1.0000 0.31121  0.92744  0.34289  Biso   1.000  H
  C59      1.0000 0.67830  0.57079  0.37669  Biso   1.000  C
  C60      1.0000 0.82209  0.58372  0.39010  Biso   1.000  C
  C61      1.0000 0.95967  0.58548  0.40179  Biso   1.000  C
  C62      1.0000 0.62577  0.04029  0.40179  Biso   1.000  C
  C63      1.0000 0.76159  0.17790  0.39010  Biso   1.000  C
  C64      1.0000 0.89249  0.32170  0.37669  Biso   1.000  C
  H57      1.0000 0.36084  0.57033  0.32030  Biso   1.000  H
  H58      1.0000 0.38918  0.60507  0.35470  Biso   1.000  H
  C65      1.0000 0.49274  0.63753  0.32641  Biso   1.000  C
  H59      1.0000 0.54649  0.67593  0.36879  Biso   1.000  H
  H60      1.0000 0.61622  0.68880  0.34289  Biso   1.000  H
  H61      1.0000 0.54160  0.93802  0.32850  Biso   1.000  H
  H62      1.0000 0.54923  0.87872  0.35470  Biso   1.000  H
  C66      1.0000 0.42167  0.82393  0.33699  Biso   1.000  C
  H63      1.0000 0.38706  0.89113  0.30769  Biso   1.000  H
  H64      1.0000 0.30507  0.80453  0.32101  Biso   1.000  H
  H65      1.0000 0.68097  0.55067  0.35669  Biso   1.000  H
  H66      1.0000 0.82331  0.56262  0.37010  Biso   1.000  H
  N11      1.0000 0.96432  0.55361  0.37692  Biso   1.000  N
  H67      1.0000 0.00509  0.59952  0.41621  Biso   1.000  H
  H68      1.0000 0.59442  0.99491  0.41621  Biso   1.000  H
  H69      1.0000 0.73929  0.17672  0.37010  Biso   1.000  H
  N12      1.0000 0.96397  0.38708  0.38427  Biso   1.000  N
  H70      1.0000 0.86971  0.31903  0.35669  Biso   1.000  H
  H71      1.0000 0.50410  0.61298  0.30769  Biso   1.000  H
  H72      1.0000 0.49953  0.69500  0.32101  Biso   1.000  H
  H73      1.0000 0.42972  0.79049  0.32030  Biso   1.000  H
  H74      1.0000 0.39485  0.78409  0.35470  Biso   1.000  H
  C67      1.0000 0.04200  0.54303  0.37169  Biso   1.000  C
  C68      1.0000 0.01259  0.45140  0.35956  Biso   1.000  C
  H75      1.0000 0.07610  0.55387  0.39109  Biso   1.000  H
  C69      1.0000 0.09857  0.61069  0.34659  Biso   1.000  C
  H76      1.0000 0.97380  0.43919  0.34131  Biso   1.000  H
  C70      1.0000 0.09238  0.44357  0.35040  Biso   1.000  C
  H77      1.0000 0.06198  0.60357  0.32850  Biso   1.000  H
  H78      1.0000 0.12130  0.67051  0.35470  Biso   1.000  H
  C71      1.0000 0.17612  0.59782  0.33699  Biso   1.000  C
  C72      1.0000 0.14478  0.50731  0.32641  Biso   1.000  C
  H79      1.0000 0.12941  0.45349  0.36879  Biso   1.000  H
  H80      1.0000 0.07263  0.38381  0.34289  Biso   1.000  H
  H81      1.0000 0.20950  0.63923  0.32030  Biso   1.000  H
  H82      1.0000 0.21594  0.61082  0.35470  Biso   1.000  H
  H83      1.0000 0.10886  0.49588  0.30769  Biso   1.000  H
  H84      1.0000 0.19551  0.50052  0.32101  Biso   1.000  H
  C73      1.0000 0.33422  0.39629  0.59295  Biso   1.000  C
  C74      1.0000 0.25350  0.39400  0.58429  Biso   1.000  C
  N13      1.0000 0.37363  0.42861  0.61908  Biso   1.000  N
  H85      1.0000 0.35930  0.37349  0.57910  Biso   1.000  H
  C75      1.0000 0.22069  0.36637  0.55497  Biso   1.000  C
  C76      1.0000 0.20518  0.41771  0.60471  Biso   1.000  C
  C77      1.0000 0.44834  0.41842  0.62503  Biso   1.000  C
  C78      1.0000 0.14168  0.36219  0.54459  Biso   1.000  C
  H86      1.0000 0.25160  0.34959  0.54131  Biso   1.000  H
  C79      1.0000 0.12471  0.41242  0.59499  Biso   1.000  C
  H87      1.0000 0.22650  0.43717  0.62489  Biso   1.000  H
  H88      1.0000 0.46408  0.39968  0.60551  Biso   1.000  H
  C80      1.0000 0.42837  0.34998  0.64891  Biso   1.000  C
  C81      1.0000 0.52504  0.50463  0.63479  Biso   1.000  C
  C82      1.0000 0.11411  0.33692  0.51371  Biso   1.000  C
  C83      1.0000 0.09906  0.38747  0.56475  Biso   1.000  C
  C84      1.0000 0.08313  0.44272  0.61665  Biso   1.000  C
  H89      1.0000 0.37969  0.29369  0.64140  Biso   1.000  H
  H90      1.0000 0.40799  0.36579  0.66769  Biso   1.000  H
  C85      1.0000 0.50412  0.33712  0.65729  Biso   1.000  C
  N14      1.0000 0.55460  0.57020  0.61049  Biso   1.000  N
  C86      1.0000 0.60668  0.49712  0.64349  Biso   1.000  C
  H91      1.0000 0.50749  0.52677  0.65300  Biso   1.000  H
  N15      1.0000 0.15323  0.31720  0.49385  Biso   1.000  N
  H92      1.0000 0.06147  0.33470  0.50751  Biso   1.000  H
  H93      1.0000 0.04859  0.38799  0.55759  Biso   1.000  H
  N16      1.0000 0.01558  0.44540  0.61049  Biso   1.000  N
  H94      1.0000 0.10848  0.46140  0.63639  Biso   1.000  H
  H95      1.0000 0.48700  0.29473  0.67440  Biso   1.000  H
  H96      1.0000 0.52008  0.31328  0.63940  Biso   1.000  H
  C87      1.0000 0.58091  0.42260  0.66670  Biso   1.000  C
  C88      1.0000 0.55729  0.64040  0.61665  Biso   1.000  C
  H97      1.0000 0.63120  0.48563  0.62480  Biso   1.000  H
  H98      1.0000 0.65201  0.55283  0.65261  Biso   1.000  H
  C89      1.0000 0.11250  0.28461  0.46441  Biso   1.000  C
  C90      1.0000 0.97959  0.47498  0.63479  Biso   1.000  C
  H99      1.0000 0.63167  0.41418  0.66990  Biso   1.000  H
  H100     1.0000 0.56747  0.44030  0.68659  Biso   1.000  H
  H101     1.0000 0.53860  0.64713  0.63639  Biso   1.000  H
  C91      1.0000 0.58759  0.71231  0.59499  Biso   1.000  C
  C92      1.0000 0.08319  0.18822  0.46319  Biso   1.000  C
  C93      1.0000 0.17650  0.33457  0.43793  Biso   1.000  C
  H102     1.0000 0.06008  0.29199  0.46259  Biso   1.000  H
  H103     1.0000 0.01927  0.49248  0.65300  Biso   1.000  H
  C94      1.0000 0.97011  0.55172  0.62503  Biso   1.000  C
  C95      1.0000 0.89038  0.39328  0.64349  Biso   1.000  C
  C96      1.0000 0.61251  0.71159  0.56475  Biso   1.000  C
  C97      1.0000 0.58230  0.78748  0.60471  Biso   1.000  C
  C98      1.0000 0.03950  0.14642  0.43279  Biso   1.000  C
  H104     1.0000 0.04169  0.15791  0.48021  Biso   1.000  H
  H105     1.0000 0.13452  0.18058  0.46629  Biso   1.000  H
  C99      1.0000 0.13242  0.29199  0.40739  Biso   1.000  C
  N17      1.0000 0.19651  0.42469  0.43745  Biso   1.000  N
  H106     1.0000 0.23137  0.33209  0.44051  Biso   1.000  H
  N18      1.0000 0.05503  0.62643  0.61908  Biso   1.000  N
  H107     1.0000 0.93562  0.53591  0.60551  Biso   1.000  H
  C100     1.0000 0.92161  0.57157  0.64891  Biso   1.000  C
  C101     1.0000 0.84169  0.41908  0.66670  Biso   1.000  C
  H108     1.0000 0.85438  0.36879  0.62480  Biso   1.000  H
  H109     1.0000 0.90084  0.34802  0.65261  Biso   1.000  H
  C102     1.0000 0.63782  0.77951  0.54459  Biso   1.000  C
  H110     1.0000 0.61201  0.66058  0.55759  Biso   1.000  H
  C103     1.0000 0.60599  0.85951  0.58429  Biso   1.000  C
  H111     1.0000 0.56280  0.78931  0.62489  Biso   1.000  H
  C104     1.0000 0.10320  0.19351  0.40721  Biso   1.000  C
  H112     1.0000 0.02238  0.08379  0.43279  Biso   1.000  H
  H113     1.0000 0.98623  0.15073  0.42999  Biso   1.000  H
  H114     1.0000 0.17368  0.32157  0.39031  Biso   1.000  H
  H115     1.0000 0.08078  0.29911  0.40420  Biso   1.000  H
  C105     1.0000 0.27623  0.48301  0.43559  Biso   1.000  C
  C106     1.0000 0.06211  0.66581  0.59295  Biso   1.000  C
  H116     1.0000 0.91401  0.62029  0.64140  Biso   1.000  H
  H117     1.0000 0.95779  0.59201  0.66769  Biso   1.000  H
  C107     1.0000 0.83297  0.49588  0.65729  Biso   1.000  C
  H118     1.0000 0.78246  0.36827  0.66990  Biso   1.000  H
  H119     1.0000 0.87279  0.43253  0.68659  Biso   1.000  H
  C108     1.0000 0.66309  0.77722  0.51371  Biso   1.000  C
  C109     1.0000 0.63358  0.85429  0.55497  Biso   1.000  C
  C110     1.0000 0.60372  0.93788  0.59295  Biso   1.000  C
  H120     1.0000 0.07559  0.16758  0.38730  Biso   1.000  H
  H121     1.0000 0.15501  0.18639  0.40969  Biso   1.000  H
  C111     1.0000 0.30522  0.57751  0.43440  Biso   1.000  C
  H122     1.0000 0.31910  0.46558  0.43490  Biso   1.000  H
  C112     1.0000 0.14053  0.74653  0.58429  Biso   1.000  C
  H123     1.0000 0.01422  0.64073  0.57910  Biso   1.000  H
  H124     1.0000 0.80771  0.51299  0.67440  Biso   1.000  H
  H125     1.0000 0.79319  0.47988  0.63940  Biso   1.000  H
  N19      1.0000 0.68280  0.83600  0.49385  Biso   1.000  N
  H126     1.0000 0.66531  0.72681  0.50751  Biso   1.000  H
  H127     1.0000 0.65044  0.90203  0.54131  Biso   1.000  H
  N20      1.0000 0.57142  0.94500  0.61908  Biso   1.000  N
  H128     1.0000 0.62650  0.98582  0.57910  Biso   1.000  H
  C113     1.0000 0.24232  0.60612  0.43359  Biso   1.000  C
  C114     1.0000 0.39390  0.63622  0.43359  Biso   1.000  C
  C115     1.0000 0.14572  0.77931  0.55497  Biso   1.000  C
  C116     1.0000 0.21251  0.79479  0.60471  Biso   1.000  C
  C117     1.0000 0.71540  0.82790  0.46441  Biso   1.000  C
  C118     1.0000 0.58163  0.02990  0.62503  Biso   1.000  C
  H129     1.0000 0.18148  0.56511  0.43249  Biso   1.000  H
  C119     1.0000 0.27229  0.69481  0.43440  Biso   1.000  C
  H130     1.0000 0.43488  0.61637  0.43249  Biso   1.000  H
  C120     1.0000 0.42251  0.72772  0.43440  Biso   1.000  C
  C121     1.0000 0.22049  0.85827  0.54459  Biso   1.000  C
  H131     1.0000 0.09804  0.74842  0.54131  Biso   1.000  H
  C122     1.0000 0.28772  0.87532  0.59499  Biso   1.000  C
  H132     1.0000 0.21069  0.77350  0.62489  Biso   1.000  H
  C123     1.0000 0.66538  0.84188  0.43793  Biso   1.000  C
  H133     1.0000 0.70800  0.76808  0.46259  Biso   1.000  H
  C124     1.0000 0.81178  0.89497  0.46319  Biso   1.000  C
  C125     1.0000 0.49536  0.02036  0.63479  Biso   1.000  C
  H134     1.0000 0.60029  0.06438  0.60551  Biso   1.000  H
  C126     1.0000 0.65003  0.07836  0.64891  Biso   1.000  C
  C127     1.0000 0.36380  0.75770  0.43359  Biso   1.000  C
  C128     1.0000 0.20682  0.72380  0.43559  Biso   1.000  C
  C129     1.0000 0.51702  0.79322  0.43559  Biso   1.000  C
  C130     1.0000 0.22282  0.88590  0.51371  Biso   1.000  C
  C131     1.0000 0.28842  0.90092  0.56475  Biso   1.000  C
  C132     1.0000 0.35959  0.91692  0.61665  Biso   1.000  C
  N21      1.0000 0.57531  0.77180  0.43745  Biso   1.000  N
  C133     1.0000 0.70801  0.84038  0.40739  Biso   1.000  C
  H135     1.0000 0.66790  0.89928  0.44051  Biso   1.000  H
  H136     1.0000 0.84211  0.88381  0.48021  Biso   1.000  H
  H137     1.0000 0.81940  0.95388  0.46629  Biso   1.000  H
  C134     1.0000 0.85359  0.89308  0.43279  Biso   1.000  C
  N22      1.0000 0.42981  0.98438  0.61049  Biso   1.000  N
  H138     1.0000 0.47322  0.98072  0.65300  Biso   1.000  H
  C135     1.0000 0.50292  0.10957  0.64349  Biso   1.000  C
  H139     1.0000 0.70634  0.08600  0.64140  Biso   1.000  H
  H140     1.0000 0.63420  0.04218  0.66769  Biso   1.000  H
  C136     1.0000 0.66284  0.16698  0.65729  Biso   1.000  C
  H141     1.0000 0.38357  0.81850  0.43249  Biso   1.000  H
  N23      1.0000 0.22816  0.80348  0.43745  Biso   1.000  N
  H142     1.0000 0.14651  0.68090  0.43490  Biso   1.000  H
  H143     1.0000 0.53438  0.85350  0.43490  Biso   1.000  H
  N24      1.0000 0.16401  0.84678  0.49385  Biso   1.000  N
  H144     1.0000 0.27320  0.93847  0.50751  Biso   1.000  H
  H145     1.0000 0.33939  0.95140  0.55759  Biso   1.000  H
  H146     1.0000 0.35289  0.89151  0.63639  Biso   1.000  H
  C137     1.0000 0.80654  0.90973  0.40721  Biso   1.000  C
  H147     1.0000 0.67843  0.85213  0.39031  Biso   1.000  H
  H148     1.0000 0.70092  0.78173  0.40420  Biso   1.000  H
  H149     1.0000 0.91622  0.93860  0.43279  Biso   1.000  H
  H150     1.0000 0.84928  0.83548  0.42999  Biso   1.000  H
  C138     1.0000 0.57745  0.15829  0.66670  Biso   1.000  C
  H151     1.0000 0.51441  0.14556  0.62480  Biso   1.000  H
  H152     1.0000 0.44722  0.09919  0.65261  Biso   1.000  H
  H153     1.0000 0.70526  0.19232  0.67440  Biso   1.000  H
  H154     1.0000 0.68666  0.20682  0.63940  Biso   1.000  H
  C139     1.0000 0.15810  0.82353  0.43793  Biso   1.000  C
  C140     1.0000 0.17212  0.88753  0.46441  Biso   1.000  C
  H155     1.0000 0.83236  0.90797  0.38730  Biso   1.000  H
  H156     1.0000 0.81357  0.96857  0.40969  Biso   1.000  H
  H157     1.0000 0.58577  0.21746  0.66990  Biso   1.000  H
  H158     1.0000 0.55970  0.12721  0.68659  Biso   1.000  H
  C141     1.0000 0.15961  0.86761  0.40739  Biso   1.000  C
  H159     1.0000 0.10072  0.76860  0.44051  Biso   1.000  H
  H160     1.0000 0.23190  0.93990  0.46259  Biso   1.000  H
  C142     1.0000 0.10502  0.91679  0.46319  Biso   1.000  C
  C143     1.0000 0.09028  0.89680  0.40721  Biso   1.000  C
  H161     1.0000 0.14788  0.82627  0.39031  Biso   1.000  H
  H162     1.0000 0.21833  0.91920  0.40420  Biso   1.000  H
  H163     1.0000 0.11623  0.95832  0.48021  Biso   1.000  H
  H164     1.0000 0.04613  0.86552  0.46629  Biso   1.000  H
  C144     1.0000 0.10690  0.96048  0.43279  Biso   1.000  C
  H165     1.0000 0.09199  0.92443  0.38730  Biso   1.000  H
  H166     1.0000 0.03141  0.84501  0.40969  Biso   1.000  H
  H167     1.0000 0.06139  0.97759  0.43279  Biso   1.000  H
  H168     1.0000 0.16454  0.01377  0.42999  Biso   1.000  H
  C145     1.0000 0.25492  0.23824  0.31557  Biso   1.000  C
  C146     1.0000 0.30347  0.21839  0.29169  Biso   1.000  C
  H169     1.0000 0.24732  0.28696  0.30806  Biso   1.000  H
  H170     1.0000 0.29115  0.25868  0.33437  Biso   1.000  H
  C147     1.0000 0.16634  0.16255  0.32397  Biso   1.000  C
  N25      1.0000 0.38830  0.29303  0.28576  Biso   1.000  N
  H171     1.0000 0.26893  0.20258  0.27217  Biso   1.000  H
  C148     1.0000 0.31295  0.14165  0.30145  Biso   1.000  C
  H172     1.0000 0.14102  0.17966  0.34106  Biso   1.000  H
  H173     1.0000 0.12655  0.14655  0.30606  Biso   1.000  H
  C149     1.0000 0.17505  0.08575  0.33336  Biso   1.000  C
  C150     1.0000 0.39541  0.33248  0.25961  Biso   1.000  C
  N26      1.0000 0.34895  0.11207  0.27718  Biso   1.000  N
  C151     1.0000 0.22374  0.05995  0.31017  Biso   1.000  C
  H174     1.0000 0.35264  0.15915  0.31966  Biso   1.000  H
  H175     1.0000 0.11582  0.03494  0.33656  Biso   1.000  H
  H176     1.0000 0.20612  0.09914  0.35327  Biso   1.000  H
  C152     1.0000 0.47380  0.41313  0.25098  Biso   1.000  C
  H177     1.0000 0.34749  0.30734  0.24576  Biso   1.000  H
  C153     1.0000 0.41644  0.10939  0.28331  Biso   1.000  C
  H178     1.0000 0.18774  0.03546  0.29146  Biso   1.000  H
  H179     1.0000 0.23414  0.01469  0.31927  Biso   1.000  H
  C154     1.0000 0.47903  0.44598  0.22163  Biso   1.000  C
  C155     1.0000 0.54582  0.46146  0.27137  Biso   1.000  C
  H180     1.0000 0.44184  0.12807  0.30308  Biso   1.000  H
  C156     1.0000 0.45802  0.07909  0.26168  Biso   1.000  C
  C157     1.0000 0.55380  0.52494  0.21127  Biso   1.000  C
  H181     1.0000 0.43135  0.41509  0.20797  Biso   1.000  H
  C158     1.0000 0.62103  0.54199  0.26168  Biso   1.000  C
  H182     1.0000 0.54405  0.44017  0.29157  Biso   1.000  H
  C159     1.0000 0.43242  0.05414  0.23141  Biso   1.000  C
  C160     1.0000 0.53854  0.08438  0.27137  Biso   1.000  C
  C161     1.0000 0.62173  0.56759  0.23141  Biso   1.000  C
  C162     1.0000 0.55613  0.55257  0.18037  Biso   1.000  C
  C163     1.0000 0.69296  0.58359  0.28331  Biso   1.000  C
  H183     1.0000 0.38195  0.05466  0.22427  Biso   1.000  H
  C164     1.0000 0.47504  0.02887  0.21127  Biso   1.000  C
  C165     1.0000 0.58681  0.06067  0.25098  Biso   1.000  C
  H184     1.0000 0.55981  0.10384  0.29157  Biso   1.000  H
  H185     1.0000 0.67276  0.61807  0.22427  Biso   1.000  H
  N27      1.0000 0.49732  0.51345  0.16051  Biso   1.000  N
  H186     1.0000 0.60651  0.60514  0.17417  Biso   1.000  H
  N28      1.0000 0.76311  0.65105  0.27718  Biso   1.000  N
  H187     1.0000 0.68625  0.55818  0.30308  Biso   1.000  H
  C166     1.0000 0.55405  0.03305  0.22163  Biso   1.000  C
  C167     1.0000 0.44747  0.00359  0.18037  Biso   1.000  C
  C168     1.0000 0.66753  0.06296  0.25961  Biso   1.000  C
  C169     1.0000 0.50542  0.55420  0.13107  Biso   1.000  C
  C170     1.0000 0.82873  0.68703  0.30145  Biso   1.000  C
  H188     1.0000 0.58491  0.01626  0.20797  Biso   1.000  H
  H189     1.0000 0.39484  0.00137  0.17417  Biso   1.000  H
  N29      1.0000 0.48653  0.98387  0.16051  Biso   1.000  N
  N30      1.0000 0.70694  0.09528  0.28576  Biso   1.000  N
  H190     1.0000 0.69261  0.04016  0.24576  Biso   1.000  H
  H191     1.0000 0.56526  0.60658  0.12928  Biso   1.000  H
  C171     1.0000 0.43833  0.58346  0.12987  Biso   1.000  C
  C172     1.0000 0.49146  0.49020  0.10459  Biso   1.000  C
  C173     1.0000 0.91494  0.69657  0.29169  Biso   1.000  C
  C174     1.0000 0.83623  0.77624  0.31017  Biso   1.000  C
  H192     1.0000 0.80653  0.64739  0.31966  Biso   1.000  H
  C175     1.0000 0.44581  0.95128  0.13107  Biso   1.000  C
  C176     1.0000 0.78165  0.08510  0.29169  Biso   1.000  C
  H193     1.0000 0.44954  0.62499  0.14687  Biso   1.000  H
  H194     1.0000 0.37944  0.53219  0.13297  Biso   1.000  H
  C177     1.0000 0.44021  0.62715  0.09947  Biso   1.000  C
  N31      1.0000 0.56153  0.47015  0.10411  Biso   1.000  N
  C178     1.0000 0.49292  0.53428  0.07408  Biso   1.000  C
  H195     1.0000 0.43403  0.43527  0.10716  Biso   1.000  H
  N32      1.0000 0.90473  0.61167  0.28576  Biso   1.000  N
  H196     1.0000 0.93365  0.73105  0.27217  Biso   1.000  H
  C179     1.0000 0.98337  0.74509  0.31557  Biso   1.000  C
  C180     1.0000 0.91076  0.82496  0.33336  Biso   1.000  C
  H197     1.0000 0.84775  0.81229  0.29146  Biso   1.000  H
  H198     1.0000 0.78053  0.76586  0.31927  Biso   1.000  H
  C181     1.0000 0.50981  0.00124  0.10459  Biso   1.000  C
  H199     1.0000 0.39345  0.95866  0.12928  Biso   1.000  H
  C182     1.0000 0.41656  0.85489  0.12987  Biso   1.000  C
  H200     1.0000 0.79744  0.06635  0.27217  Biso   1.000  H
  C183     1.0000 0.76173  0.01665  0.31557  Biso   1.000  C
  C184     1.0000 0.85831  0.17124  0.30145  Biso   1.000  C
  H201     1.0000 0.39475  0.64426  0.09947  Biso   1.000  H
  H202     1.0000 0.49785  0.68044  0.09667  Biso   1.000  H
  C185     1.0000 0.42364  0.56347  0.07387  Biso   1.000  C
  C186     1.0000 0.54013  0.39047  0.10227  Biso   1.000  C
  H203     1.0000 0.48124  0.49294  0.05697  Biso   1.000  H
  H204     1.0000 0.55163  0.58587  0.07086  Biso   1.000  H
  C187     1.0000 0.93702  0.60455  0.25961  Biso   1.000  C
  H205     1.0000 0.96751  0.70885  0.33437  Biso   1.000  H
  C188     1.0000 0.99620  0.83365  0.32397  Biso   1.000  C
  H206     1.0000 0.03964  0.75267  0.30806  Biso   1.000  H
  H207     1.0000 0.91916  0.88420  0.33656  Biso   1.000  H
  H208     1.0000 0.89306  0.79388  0.35327  Biso   1.000  H
  N33      1.0000 0.52982  0.09137  0.10411  Biso   1.000  N
  C189     1.0000 0.46578  0.95866  0.07408  Biso   1.000  C
  H209     1.0000 0.56468  0.99876  0.10716  Biso   1.000  H
  H210     1.0000 0.37499  0.82458  0.14687  Biso   1.000  H
  H211     1.0000 0.46791  0.84731  0.13297  Biso   1.000  H
  C190     1.0000 0.37286  0.81309  0.09947  Biso   1.000  C
  H212     1.0000 0.74130  0.03246  0.33437  Biso   1.000  H
  C191     1.0000 0.83742  0.00379  0.32397  Biso   1.000  C
  H213     1.0000 0.71300  0.96036  0.30806  Biso   1.000  H
  N34      1.0000 0.88796  0.23687  0.27718  Biso   1.000  N
  C192     1.0000 0.94005  0.16379  0.31017  Biso   1.000  C
  H214     1.0000 0.84080  0.19344  0.31966  Biso   1.000  H
  H215     1.0000 0.42535  0.59110  0.05396  Biso   1.000  H
  H216     1.0000 0.36472  0.51168  0.07637  Biso   1.000  H
  C193     1.0000 0.60566  0.36148  0.10106  Biso   1.000  C
  H217     1.0000 0.47982  0.34757  0.10156  Biso   1.000  H
  C194     1.0000 0.93935  0.52618  0.25098  Biso   1.000  C
  H218     1.0000 0.95986  0.65249  0.24576  Biso   1.000  H
  H219     1.0000 0.03862  0.85899  0.34106  Biso   1.000  H
  H220     1.0000 0.02002  0.87349  0.30606  Biso   1.000  H
  C195     1.0000 0.60954  0.14968  0.10227  Biso   1.000  C
  C196     1.0000 0.43651  0.86018  0.07387  Biso   1.000  C
  H221     1.0000 0.50708  0.98831  0.05697  Biso   1.000  H
  H222     1.0000 0.41414  0.96578  0.07086  Biso   1.000  H
  H223     1.0000 0.35569  0.75046  0.09947  Biso   1.000  H
  H224     1.0000 0.31954  0.81740  0.09667  Biso   1.000  H
  C197     1.0000 0.91422  0.08928  0.33336  Biso   1.000  C
  H225     1.0000 0.82030  0.96140  0.34106  Biso   1.000  H
  H226     1.0000 0.85344  0.97995  0.30606  Biso   1.000  H
  C198     1.0000 0.89066  0.30708  0.28331  Biso   1.000  C
  H227     1.0000 0.96456  0.15230  0.29146  Biso   1.000  H
  H228     1.0000 0.98532  0.21950  0.31927  Biso   1.000  H
  C199     1.0000 0.69711  0.42437  0.10028  Biso   1.000  C
  C200     1.0000 0.57562  0.27279  0.10028  Biso   1.000  C
  C201     1.0000 0.96694  0.52096  0.22163  Biso   1.000  C
  C202     1.0000 0.91561  0.45415  0.27137  Biso   1.000  C
  C203     1.0000 0.63852  0.24418  0.10106  Biso   1.000  C
  H229     1.0000 0.65240  0.13225  0.10156  Biso   1.000  H
  H230     1.0000 0.40890  0.83425  0.05396  Biso   1.000  H
  H231     1.0000 0.48838  0.85306  0.07637  Biso   1.000  H
  H232     1.0000 0.96503  0.08085  0.33656  Biso   1.000  H
  H233     1.0000 0.90084  0.10697  0.35327  Biso   1.000  H
  C204     1.0000 0.92095  0.37898  0.26168  Biso   1.000  C
  H234     1.0000 0.87193  0.31374  0.30308  Biso   1.000  H
  H235     1.0000 0.71694  0.48517  0.09917  Biso   1.000  H
  C205     1.0000 0.75582  0.39439  0.10106  Biso   1.000  C
  H236     1.0000 0.51485  0.23178  0.09917  Biso   1.000  H
  C206     1.0000 0.97112  0.44618  0.21127  Biso   1.000  C
  H237     1.0000 0.98374  0.56870  0.20797  Biso   1.000  H
  H238     1.0000 0.89616  0.45598  0.29157  Biso   1.000  H
  C207     1.0000 0.72726  0.30290  0.10028  Biso   1.000  C
  C208     1.0000 0.94582  0.37826  0.23141  Biso   1.000  C
  C209     1.0000 0.85033  0.45989  0.10227  Biso   1.000  C
  C210     1.0000 0.99645  0.44389  0.18037  Biso   1.000  C
  H239     1.0000 0.76824  0.28304  0.09917  Biso   1.000  H
  H240     1.0000 0.94531  0.32726  0.22427  Biso   1.000  H
  N35      1.0000 0.90862  0.43847  0.10411  Biso   1.000  N
  H241     1.0000 0.86774  0.52017  0.10156  Biso   1.000  H
  H242     1.0000 0.99862  0.39348  0.17417  Biso   1.000  H
  N36      1.0000 0.01611  0.50267  0.16051  Biso   1.000  N
  C211     1.0000 0.99875  0.50855  0.10459  Biso   1.000  C
  C212     1.0000 0.04871  0.49457  0.13107  Biso   1.000  C
  C213     1.0000 0.04132  0.50705  0.07408  Biso   1.000  C
  H243     1.0000 0.00121  0.56595  0.10716  Biso   1.000  H
  H244     1.0000 0.04131  0.43475  0.12928  Biso   1.000  H
  C214     1.0000 0.14514  0.56164  0.12987  Biso   1.000  C
  C215     1.0000 0.13982  0.57634  0.07387  Biso   1.000  C
  H245     1.0000 0.01170  0.51874  0.05697  Biso   1.000  H
  H246     1.0000 0.03419  0.44834  0.07086  Biso   1.000  H
  H247     1.0000 0.17541  0.55048  0.14687  Biso   1.000  H
  H248     1.0000 0.15271  0.62055  0.13297  Biso   1.000  H
  C216     1.0000 0.18695  0.55975  0.09947  Biso   1.000  C
  H249     1.0000 0.16572  0.57464  0.05396  Biso   1.000  H
  H250     1.0000 0.14693  0.63525  0.07637  Biso   1.000  H
  H251     1.0000 0.24953  0.60527  0.09947  Biso   1.000  H
  H252     1.0000 0.18264  0.50215  0.09667  Biso   1.000  H
  C217     1.0000 0.17878  0.23471  0.67993  Biso   1.000  C
  C218     1.0000 0.08836  0.15726  0.67033  Biso   1.000  C
  C219     1.0000 0.16767  0.29134  0.70503  Biso   1.000  C
  H253     1.0000 0.20830  0.27135  0.66184  Biso   1.000  H
  H254     1.0000 0.21586  0.21205  0.68804  Biso   1.000  H
  C220     1.0000 0.02917  0.18854  0.65972  Biso   1.000  C
  H255     1.0000 0.09636  0.12382  0.65364  Biso   1.000  H
  H256     1.0000 0.06154  0.11742  0.68804  Biso   1.000  H
  C221     1.0000 0.10544  0.32072  0.69290  Biso   1.000  C
  N37      1.0000 0.25596  0.36905  0.71026  Biso   1.000  N
  H257     1.0000 0.14446  0.25725  0.72443  Biso   1.000  H
  H258     1.0000 0.05369  0.22446  0.64103  Biso   1.000  H
  C222     1.0000 0.01786  0.24092  0.68374  Biso   1.000  C
  H259     1.0000 0.97171  0.13786  0.65433  Biso   1.000  H
  N38      1.0000 0.08975  0.36931  0.71761  Biso   1.000  N
  H260     1.0000 0.13208  0.35952  0.67463  Biso   1.000  H
  C223     1.0000 0.29246  0.37362  0.73513  Biso   1.000  C
  H261     1.0000 0.99078  0.20396  0.70214  Biso   1.000  H
  H262     1.0000 0.97787  0.26071  0.67623  Biso   1.000  H
  C224     1.0000 0.09587  0.44083  0.71003  Biso   1.000  C
  C225     1.0000 0.38019  0.44344  0.74404  Biso   1.000  C
  H263     1.0000 0.26106  0.32824  0.74953  Biso   1.000  H
  C226     1.0000 0.07169  0.49065  0.73212  Biso   1.000  C
  H264     1.0000 0.11598  0.46362  0.69003  Biso   1.000  H
  C227     1.0000 0.42828  0.51123  0.72344  Biso   1.000  C
  C228     1.0000 0.41118  0.44285  0.77203  Biso   1.000  C
  C229     1.0000 0.08298  0.57170  0.72344  Biso   1.000  C
  C230     1.0000 0.03996  0.45931  0.76073  Biso   1.000  C
  H265     1.0000 0.40598  0.51005  0.70344  Biso   1.000  H
  C231     1.0000 0.50934  0.58104  0.73212  Biso   1.000  C
  C232     1.0000 0.49368  0.50933  0.78154  Biso   1.000  C
  H266     1.0000 0.37650  0.39635  0.78574  Biso   1.000  H
  C233     1.0000 0.06327  0.61983  0.74404  Biso   1.000  C
  H267     1.0000 0.10404  0.59404  0.70344  Biso   1.000  H
  H268     1.0000 0.03396  0.40523  0.76703  Biso   1.000  H
  C234     1.0000 0.01568  0.50633  0.78154  Biso   1.000  C
  C235     1.0000 0.54065  0.58065  0.76073  Biso   1.000  C
  C236     1.0000 0.55918  0.65503  0.71003  Biso   1.000  C
  C237     1.0000 0.52749  0.51417  0.81164  Biso   1.000  C
  C238     1.0000 0.03164  0.58881  0.77203  Biso   1.000  C
  C239     1.0000 0.08116  0.70754  0.73513  Biso   1.000  C
  C240     1.0000 0.98669  0.47256  0.81164  Biso   1.000  C
  H269     1.0000 0.59477  0.62871  0.76703  Biso   1.000  H
  N39      1.0000 0.63066  0.72041  0.71761  Biso   1.000  N
  H270     1.0000 0.53640  0.65236  0.69003  Biso   1.000  H
  N40      1.0000 0.48893  0.46251  0.83263  Biso   1.000  N
  H271     1.0000 0.58458  0.56106  0.81573  Biso   1.000  H
  H272     1.0000 0.01988  0.62356  0.78574  Biso   1.000  H
  N41      1.0000 0.11310  0.74405  0.71026  Biso   1.000  N
  H273     1.0000 0.06717  0.73895  0.74953  Biso   1.000  H
  N42      1.0000 0.97357  0.51103  0.83263  Biso   1.000  N
  H274     1.0000 0.97645  0.41542  0.81573  Biso   1.000  H
  C241     1.0000 0.67929  0.78473  0.69290  Biso   1.000  C
  C242     1.0000 0.53136  0.47452  0.86303  Biso   1.000  C
  C243     1.0000 0.12365  0.83234  0.70503  Biso   1.000  C
  C244     1.0000 0.94316  0.46865  0.86303  Biso   1.000  C
  C245     1.0000 0.70870  0.87636  0.70503  Biso   1.000  C
  C246     1.0000 0.75911  0.77696  0.68374  Biso   1.000  C
  H275     1.0000 0.64049  0.77252  0.67463  Biso   1.000  H
  H276     1.0000 0.58687  0.53193  0.86312  Biso   1.000  H
  C247     1.0000 0.55157  0.40510  0.86923  Biso   1.000  C
  C248     1.0000 0.47325  0.47492  0.88732  Biso   1.000  C
  H277     1.0000 0.11274  0.85553  0.72443  Biso   1.000  H
  C249     1.0000 0.05595  0.82124  0.67993  Biso   1.000  C
  C250     1.0000 0.21526  0.89452  0.69290  Biso   1.000  C
  C251     1.0000 0.00166  0.52670  0.88732  Biso   1.000  C
  H278     1.0000 0.94504  0.41313  0.86312  Biso   1.000  H
  C252     1.0000 0.85358  0.44840  0.86923  Biso   1.000  C
  N43      1.0000 0.63096  0.88694  0.71026  Biso   1.000  N
  H279     1.0000 0.74274  0.88720  0.72443  Biso   1.000  H
  C253     1.0000 0.76526  0.94402  0.67993  Biso   1.000  C
  C254     1.0000 0.81147  0.84064  0.65972  Biso   1.000  C
  H280     1.0000 0.79605  0.78682  0.70214  Biso   1.000  H
  H281     1.0000 0.73926  0.71714  0.67623  Biso   1.000  H
  H282     1.0000 0.59285  0.40791  0.85323  Biso   1.000  H
  H283     1.0000 0.49717  0.34822  0.86684  Biso   1.000  H
  C255     1.0000 0.58986  0.40634  0.89993  Biso   1.000  C
  N44      1.0000 0.45857  0.54871  0.88443  Biso   1.000  N
  C256     1.0000 0.50838  0.48092  0.91832  Biso   1.000  C
  H284     1.0000 0.41579  0.41973  0.88583  Biso   1.000  H
  H285     1.0000 0.06307  0.79172  0.66184  Biso   1.000  H
  C257     1.0000 0.06884  0.91163  0.67033  Biso   1.000  C
  H286     1.0000 0.99617  0.78415  0.68804  Biso   1.000  H
  N45      1.0000 0.27957  0.91025  0.71761  Biso   1.000  N
  C258     1.0000 0.22305  0.98216  0.68374  Biso   1.000  C
  H287     1.0000 0.22747  0.86794  0.67463  Biso   1.000  H
  N46      1.0000 0.09020  0.54146  0.88443  Biso   1.000  N
  H288     1.0000 0.00396  0.58424  0.88583  Biso   1.000  H
  C259     1.0000 0.97259  0.49163  0.91832  Biso   1.000  C
  H289     1.0000 0.81507  0.40713  0.85323  Biso   1.000  H
  H290     1.0000 0.85103  0.50280  0.86684  Biso   1.000  H
  C260     1.0000 0.81646  0.41013  0.89993  Biso   1.000  C
  C261     1.0000 0.62636  0.91881  0.73513  Biso   1.000  C
  H291     1.0000 0.72871  0.93697  0.66184  Biso   1.000  H
  C262     1.0000 0.84276  0.93115  0.67033  Biso   1.000  C
  H292     1.0000 0.78799  0.00384  0.68804  Biso   1.000  H
  H293     1.0000 0.77556  0.82921  0.64103  Biso   1.000  H
  H294     1.0000 0.86215  0.83385  0.65433  Biso   1.000  H
  H295     1.0000 0.64913  0.45781  0.90163  Biso   1.000  H
  H296     1.0000 0.59426  0.35305  0.90264  Biso   1.000  H
  C263     1.0000 0.53027  0.41013  0.92482  Biso   1.000  C
  C264     1.0000 0.38194  0.53402  0.88753  Biso   1.000  C
  H297     1.0000 0.46486  0.47681  0.93364  Biso   1.000  H
  H298     1.0000 0.56179  0.53866  0.92083  Biso   1.000  H
  H299     1.0000 0.02748  0.90366  0.65364  Biso   1.000  H
  H300     1.0000 0.05588  0.93840  0.68804  Biso   1.000  H
  C265     1.0000 0.15937  0.97086  0.65972  Biso   1.000  C
  C266     1.0000 0.34494  0.90412  0.71003  Biso   1.000  C
  H301     1.0000 0.21310  0.00920  0.70214  Biso   1.000  H
  H302     1.0000 0.28285  0.02213  0.67623  Biso   1.000  H
  C267     1.0000 0.15205  0.61800  0.88753  Biso   1.000  C
  H303     1.0000 0.01198  0.53513  0.93364  Biso   1.000  H
  C268     1.0000 0.87986  0.46976  0.92482  Biso   1.000  C
  H304     1.0000 0.97687  0.43821  0.92083  Biso   1.000  H
  H305     1.0000 0.80864  0.35083  0.90163  Biso   1.000  H
  H306     1.0000 0.75878  0.40576  0.90264  Biso   1.000  H
  C269     1.0000 0.55653  0.93670  0.74404  Biso   1.000  C
  H307     1.0000 0.67179  0.93285  0.74953  Biso   1.000  H
  H308     1.0000 0.87619  0.97256  0.65364  Biso   1.000  H
  H309     1.0000 0.88257  0.94415  0.68804  Biso   1.000  H
  H310     1.0000 0.47560  0.35305  0.92592  Biso   1.000  H
  H311     1.0000 0.55975  0.42123  0.94503  Biso   1.000  H
  C270     1.0000 0.35629  0.60285  0.88774  Biso   1.000  C
  H312     1.0000 0.33695  0.47505  0.89003  Biso   1.000  H
  H313     1.0000 0.17074  0.94630  0.64103  Biso   1.000  H
  H314     1.0000 0.16622  0.02833  0.65433  Biso   1.000  H
  C271     1.0000 0.41898  0.92835  0.73212  Biso   1.000  C
  H315     1.0000 0.34766  0.88400  0.69003  Biso   1.000  H
  C272     1.0000 0.24659  0.64374  0.88774  Biso   1.000  C
  H316     1.0000 0.13807  0.66300  0.89003  Biso   1.000  H
  H317     1.0000 0.87745  0.52442  0.92592  Biso   1.000  H
  H318     1.0000 0.86149  0.44024  0.94503  Biso   1.000  H
  C273     1.0000 0.48878  0.91705  0.72344  Biso   1.000  C
  C274     1.0000 0.55717  0.96831  0.77203  Biso   1.000  C
  C275     1.0000 0.26859  0.57836  0.88843  Biso   1.000  C
  C276     1.0000 0.42164  0.69023  0.88843  Biso   1.000  C
  C277     1.0000 0.41938  0.96002  0.76073  Biso   1.000  C
  C278     1.0000 0.30979  0.73144  0.88843  Biso   1.000  C
  H319     1.0000 0.49000  0.89595  0.70344  Biso   1.000  H
  C279     1.0000 0.49063  0.98431  0.78154  Biso   1.000  C
  H320     1.0000 0.60369  0.98013  0.78574  Biso   1.000  H
  H321     1.0000 0.22466  0.51854  0.88923  Biso   1.000  H
  C280     1.0000 0.39720  0.75345  0.88774  Biso   1.000  C
  H322     1.0000 0.48144  0.70610  0.88923  Biso   1.000  H
  H323     1.0000 0.37126  0.96603  0.76703  Biso   1.000  H
  H324     1.0000 0.29389  0.77533  0.88923  Biso   1.000  H
  C281     1.0000 0.48590  0.01331  0.81164  Biso   1.000  C
  C282     1.0000 0.46600  0.84795  0.88753  Biso   1.000  C
  N47      1.0000 0.53743  0.02644  0.83263  Biso   1.000  N
  H325     1.0000 0.43890  0.02350  0.81573  Biso   1.000  H
  N48      1.0000 0.45126  0.90986  0.88443  Biso   1.000  N
  H326     1.0000 0.52496  0.86193  0.89003  Biso   1.000  H
  C283     1.0000 0.52546  0.05680  0.86303  Biso   1.000  C
  C284     1.0000 0.52508  0.99835  0.88732  Biso   1.000  C
  H327     1.0000 0.46807  0.05491  0.86312  Biso   1.000  H
  C285     1.0000 0.59486  0.14641  0.86923  Biso   1.000  C
  H328     1.0000 0.58024  0.99600  0.88583  Biso   1.000  H
  C286     1.0000 0.51908  0.02742  0.91832  Biso   1.000  C
  H329     1.0000 0.59207  0.18494  0.85323  Biso   1.000  H
  H330     1.0000 0.65176  0.14889  0.86684  Biso   1.000  H
  C287     1.0000 0.59367  0.18350  0.89993  Biso   1.000  C
  H331     1.0000 0.52315  0.98804  0.93364  Biso   1.000  H
  C288     1.0000 0.58983  0.12015  0.92482  Biso   1.000  C
  H332     1.0000 0.46139  0.02311  0.92083  Biso   1.000  H
  H333     1.0000 0.54217  0.19134  0.90163  Biso   1.000  H
  H334     1.0000 0.64697  0.24123  0.90264  Biso   1.000  H
  H335     1.0000 0.64699  0.12250  0.92592  Biso   1.000  H
  H336     1.0000 0.57875  0.13850  0.94503  Biso   1.000  H
  C289     1.0000 0.47318  0.24301  0.74053  Biso   1.000  C
  C290     1.0000 0.37468  0.17372  0.74073  Biso   1.000  C
  C291     1.0000 0.52026  0.22642  0.76613  Biso   1.000  C
  H337     1.0000 0.49903  0.24131  0.72064  Biso   1.000  H
  H338     1.0000 0.48024  0.30192  0.74303  Biso   1.000  H
  H339     1.0000 0.34507  0.18541  0.72363  Biso   1.000  H
  H340     1.0000 0.36755  0.11501  0.73754  Biso   1.000  H
  C292     1.0000 0.33205  0.17522  0.77127  Biso   1.000  C
  C293     1.0000 0.47845  0.22831  0.79653  Biso   1.000  C
  H341     1.0000 0.58289  0.27194  0.76613  Biso   1.000  H
  H342     1.0000 0.51595  0.16882  0.76333  Biso   1.000  H
  N49      1.0000 0.24198  0.10514  0.77079  Biso   1.000  N
  C294     1.0000 0.38208  0.16124  0.79773  Biso   1.000  C
  H343     1.0000 0.33457  0.23263  0.77382  Biso   1.000  H
  H344     1.0000 0.50878  0.21715  0.81352  Biso   1.000  H
  H345     1.0000 0.48607  0.28722  0.79963  Biso   1.000  H
  C295     1.0000 0.18369  0.12657  0.76893  Biso   1.000  C
  N50      1.0000 0.34948  0.16934  0.82716  Biso   1.000  N
  H346     1.0000 0.37467  0.10142  0.79594  Biso   1.000  H
  C296     1.0000 0.08918  0.06106  0.76774  Biso   1.000  C
  H347     1.0000 0.20105  0.18684  0.76824  Biso   1.000  H
  C297     1.0000 0.32976  0.11057  0.84703  Biso   1.000  C
  C298     1.0000 0.03047  0.09104  0.76693  Biso   1.000  C
  C299     1.0000 0.06063  0.96957  0.76693  Biso   1.000  C
  C300     1.0000 0.30449  0.11285  0.87793  Biso   1.000  C
  H348     1.0000 0.33198  0.06015  0.84083  Biso   1.000  H
  H349     1.0000 0.05024  0.15184  0.76583  Biso   1.000  H
  C301     1.0000 0.93896  0.02815  0.76774  Biso   1.000  C
  C302     1.0000 0.97183  0.91086  0.76774  Biso   1.000  C
  H350     1.0000 0.10158  0.94978  0.76583  Biso   1.000  H
  C303     1.0000 0.27918  0.04493  0.89809  Biso   1.000  C
  C304     1.0000 0.30025  0.18763  0.88829  Biso   1.000  C
  C305     1.0000 0.90893  0.93946  0.76693  Biso   1.000  C
  C306     1.0000 0.87349  0.05714  0.76893  Biso   1.000  C
  C307     1.0000 0.94290  0.81636  0.76893  Biso   1.000  C
  C308     1.0000 0.25426  0.04565  0.92834  Biso   1.000  C
  H351     1.0000 0.27868  0.99393  0.89093  Biso   1.000  H
  H352     1.0000 0.31707  0.23530  0.87463  Biso   1.000  H
  C309     1.0000 0.27266  0.19285  0.91763  Biso   1.000  C
  H353     1.0000 0.84821  0.89845  0.76583  Biso   1.000  H
  N51      1.0000 0.89483  0.13682  0.77079  Biso   1.000  N
  H354     1.0000 0.81318  0.01424  0.76824  Biso   1.000  H
  N52      1.0000 0.86313  0.75804  0.77079  Biso   1.000  N
  H355     1.0000 0.98577  0.79892  0.76824  Biso   1.000  H
  C310     1.0000 0.24897  0.12082  0.93805  Biso   1.000  C
  C311     1.0000 0.22396  0.97375  0.94999  Biso   1.000  C
  C312     1.0000 0.27039  0.27122  0.92629  Biso   1.000  C
  C313     1.0000 0.82474  0.15680  0.77127  Biso   1.000  C
  C314     1.0000 0.84321  0.66798  0.77127  Biso   1.000  C
  H356     1.0000 0.22947  0.12265  0.95823  Biso   1.000  H
  N53      1.0000 0.22133  0.90354  0.94383  Biso   1.000  N
  H357     1.0000 0.20533  0.98047  0.96974  Biso   1.000  H
  N54      1.0000 0.23809  0.27834  0.95242  Biso   1.000  N
  H358     1.0000 0.29317  0.31916  0.91242  Biso   1.000  H
  C315     1.0000 0.83875  0.22080  0.79773  Biso   1.000  C
  C316     1.0000 0.82628  0.20095  0.74073  Biso   1.000  C
  H359     1.0000 0.76739  0.10194  0.77382  Biso   1.000  H
  C317     1.0000 0.77923  0.61795  0.79773  Biso   1.000  C
  C318     1.0000 0.79909  0.62533  0.74073  Biso   1.000  C
  H360     1.0000 0.89804  0.66543  0.77382  Biso   1.000  H
  C319     1.0000 0.19171  0.83797  0.96813  Biso   1.000  C
  C320     1.0000 0.24825  0.36324  0.95835  Biso   1.000  C
  N55      1.0000 0.83068  0.18012  0.82716  Biso   1.000  N
  H361     1.0000 0.89857  0.27325  0.79594  Biso   1.000  H
  C321     1.0000 0.77169  0.25013  0.79653  Biso   1.000  C
  C322     1.0000 0.75695  0.23014  0.74053  Biso   1.000  C
  H362     1.0000 0.81455  0.15961  0.72363  Biso   1.000  H
  H363     1.0000 0.88500  0.25254  0.73754  Biso   1.000  H
  N56      1.0000 0.81984  0.65054  0.82716  Biso   1.000  N
  H364     1.0000 0.72681  0.62533  0.79594  Biso   1.000  H
  C323     1.0000 0.74986  0.52156  0.79653  Biso   1.000  C
  C324     1.0000 0.76993  0.52685  0.74053  Biso   1.000  C
  H365     1.0000 0.84041  0.65492  0.72363  Biso   1.000  H
  H366     1.0000 0.74745  0.63245  0.73754  Biso   1.000  H
  C325     1.0000 0.11501  0.75177  0.95835  Biso   1.000  C
  C326     1.0000 0.27336  0.83046  0.97683  Biso   1.000  C
  H367     1.0000 0.17419  0.86018  0.98634  Biso   1.000  H
  H368     1.0000 0.26696  0.39772  0.93883  Biso   1.000  H
  C327     1.0000 0.31668  0.41176  0.98223  Biso   1.000  C
  C328     1.0000 0.16203  0.35371  0.96813  Biso   1.000  C
  C329     1.0000 0.88950  0.21924  0.84703  Biso   1.000  C
  H369     1.0000 0.78290  0.29166  0.81352  Biso   1.000  H
  H370     1.0000 0.71280  0.19886  0.79963  Biso   1.000  H
  C330     1.0000 0.77357  0.29382  0.76613  Biso   1.000  C
  H371     1.0000 0.75862  0.25770  0.72064  Biso   1.000  H
  H372     1.0000 0.69808  0.17835  0.74303  Biso   1.000  H
  C331     1.0000 0.78078  0.67026  0.84703  Biso   1.000  C
  H373     1.0000 0.70841  0.49126  0.81352  Biso   1.000  H
  H374     1.0000 0.80113  0.51392  0.79963  Biso   1.000  H
  C332     1.0000 0.70617  0.47976  0.76613  Biso   1.000  C
  H375     1.0000 0.74232  0.50092  0.72064  Biso   1.000  H
  H376     1.0000 0.82168  0.51973  0.74303  Biso   1.000  H
  N57      1.0000 0.04030  0.76195  0.95242  Biso   1.000  N
  H377     1.0000 0.13081  0.73302  0.93883  Biso   1.000  H
  C333     1.0000 0.09510  0.68332  0.98223  Biso   1.000  C
  H378     1.0000 0.29787  0.81897  0.95814  Biso   1.000  H
  H379     1.0000 0.31869  0.88617  0.98592  Biso   1.000  H
  C334     1.0000 0.24758  0.75595  0.00002  Biso   1.000  C
  H380     1.0000 0.37295  0.41934  0.97474  Biso   1.000  H
  C335     1.0000 0.32957  0.50032  0.99063  Biso   1.000  C
  H381     1.0000 0.30087  0.37552  0.00103  Biso   1.000  H
  N58      1.0000 0.09648  0.31772  0.94383  Biso   1.000  N
  C336     1.0000 0.16954  0.44291  0.97683  Biso   1.000  C
  H382     1.0000 0.13989  0.31406  0.98634  Biso   1.000  H
  C337     1.0000 0.88716  0.19161  0.87793  Biso   1.000  C
  H383     1.0000 0.93988  0.27181  0.84083  Biso   1.000  H
  H384     1.0000 0.72806  0.31093  0.76613  Biso   1.000  H
  H385     1.0000 0.83115  0.34711  0.76333  Biso   1.000  H
  C338     1.0000 0.80835  0.69554  0.87793  Biso   1.000  C
  H386     1.0000 0.72820  0.66804  0.84083  Biso   1.000  H
  H387     1.0000 0.68911  0.41713  0.76613  Biso   1.000  H
  H388     1.0000 0.65284  0.48407  0.76333  Biso   1.000  H
  C339     1.0000 0.00084  0.72963  0.92629  Biso   1.000  C
  H389     1.0000 0.04636  0.62703  0.97474  Biso   1.000  H
  C340     1.0000 0.17079  0.67046  0.99063  Biso   1.000  C
  H390     1.0000 0.07461  0.69913  0.00103  Biso   1.000  H
  H391     1.0000 0.29840  0.74752  0.00324  Biso   1.000  H
  H392     1.0000 0.23414  0.77364  0.01993  Biso   1.000  H
  H393     1.0000 0.35339  0.54016  0.97274  Biso   1.000  H
  H394     1.0000 0.37199  0.52566  0.00774  Biso   1.000  H
  C341     1.0000 0.24406  0.49163  0.00002  Biso   1.000  C
  C342     1.0000 0.02627  0.25026  0.94999  Biso   1.000  C
  H395     1.0000 0.18106  0.47896  0.95814  Biso   1.000  H
  H396     1.0000 0.11384  0.43253  0.98592  Biso   1.000  H
  C343     1.0000 0.95509  0.23426  0.89809  Biso   1.000  C
  C344     1.0000 0.81239  0.11266  0.88829  Biso   1.000  C
  C345     1.0000 0.76582  0.72088  0.89809  Biso   1.000  C
  C346     1.0000 0.88736  0.69972  0.88829  Biso   1.000  C
  C347     1.0000 0.92017  0.72734  0.91763  Biso   1.000  C
  H397     1.0000 0.02592  0.70683  0.91242  Biso   1.000  H
  H398     1.0000 0.18675  0.64662  0.97274  Biso   1.000  H
  H399     1.0000 0.15367  0.62807  0.00774  Biso   1.000  H
  H400     1.0000 0.25244  0.55080  0.00324  Biso   1.000  H
  H401     1.0000 0.22637  0.46055  0.01993  Biso   1.000  H
  H402     1.0000 0.01956  0.22485  0.96974  Biso   1.000  H
  C348     1.0000 0.95439  0.20866  0.92834  Biso   1.000  C
  H403     1.0000 0.00607  0.28474  0.89093  Biso   1.000  H
  H404     1.0000 0.76471  0.08176  0.87463  Biso   1.000  H
  C349     1.0000 0.80717  0.07981  0.91763  Biso   1.000  C
  C350     1.0000 0.79132  0.74576  0.92834  Biso   1.000  C
  H405     1.0000 0.71526  0.72133  0.89093  Biso   1.000  H
  H406     1.0000 0.91822  0.68293  0.87463  Biso   1.000  H
  C351     1.0000 0.87185  0.75105  0.93805  Biso   1.000  C
  C352     1.0000 0.87918  0.12813  0.93805  Biso   1.000  C
  C353     1.0000 0.72878  0.99915  0.92629  Biso   1.000  C
  C354     1.0000 0.74975  0.77606  0.94999  Biso   1.000  C
  H407     1.0000 0.89321  0.77058  0.95823  Biso   1.000  H
  H408     1.0000 0.87736  0.10684  0.95823  Biso   1.000  H
  N59      1.0000 0.72164  0.95977  0.95242  Biso   1.000  N
  H409     1.0000 0.68089  0.97407  0.91242  Biso   1.000  H
  N60      1.0000 0.68225  0.77874  0.94383  Biso   1.000  N
  H410     1.0000 0.77520  0.79474  0.96974  Biso   1.000  H
  C355     1.0000 0.63683  0.88506  0.95835  Biso   1.000  C
  C356     1.0000 0.64631  0.80832  0.96813  Biso   1.000  C
  H411     1.0000 0.60224  0.86925  0.93883  Biso   1.000  H
  C357     1.0000 0.58831  0.90498  0.98223  Biso   1.000  C
  C358     1.0000 0.55705  0.72662  0.97683  Biso   1.000  C
  H412     1.0000 0.68595  0.82583  0.98634  Biso   1.000  H
  H413     1.0000 0.58063  0.95363  0.97474  Biso   1.000  H
  C359     1.0000 0.49965  0.82922  0.99063  Biso   1.000  C
  H414     1.0000 0.62452  0.92535  0.00103  Biso   1.000  H
  H415     1.0000 0.52105  0.70213  0.95814  Biso   1.000  H
  H416     1.0000 0.56751  0.68137  0.98592  Biso   1.000  H
  C360     1.0000 0.50841  0.75242  0.00002  Biso   1.000  C
  H417     1.0000 0.45986  0.81322  0.97274  Biso   1.000  H
  H418     1.0000 0.47432  0.84633  0.00774  Biso   1.000  H
  H419     1.0000 0.44922  0.70168  0.00324  Biso   1.000  H
  H420     1.0000 0.53952  0.76587  0.01993  Biso   1.000  H
  C361     1.0000 0.54659  0.80310  0.25816  Biso   1.000  C
  C362     1.0000 0.48313  0.74347  0.23327  Biso   1.000  C
  C363     1.0000 0.63926  0.82498  0.25166  Biso   1.000  C
  H421     1.0000 0.54417  0.85776  0.25927  Biso   1.000  H
  H422     1.0000 0.52810  0.77358  0.27837  Biso   1.000  H
  C364     1.0000 0.52022  0.78181  0.20257  Biso   1.000  C
  H423     1.0000 0.47537  0.68417  0.23497  Biso   1.000  H
  H424     1.0000 0.42546  0.73910  0.23596  Biso   1.000  H
  C365     1.0000 0.66831  0.86011  0.22067  Biso   1.000  C
  H425     1.0000 0.67865  0.86847  0.26696  Biso   1.000  H
  H426     1.0000 0.64354  0.77155  0.25417  Biso   1.000  H
  C366     1.0000 0.60989  0.80199  0.19637  Biso   1.000  C
  H427     1.0000 0.48174  0.74047  0.18657  Biso   1.000  H
  H428     1.0000 0.51773  0.83621  0.20016  Biso   1.000  H
  N61      1.0000 0.75687  0.87481  0.21777  Biso   1.000  N
  H429     1.0000 0.67063  0.91758  0.21917  Biso   1.000  H
  N62      1.0000 0.64019  0.84437  0.16597  Biso   1.000  N
  H430     1.0000 0.61171  0.74648  0.19646  Biso   1.000  H
  C367     1.0000 0.81870  0.95141  0.22087  Biso   1.000  C
  C368     1.0000 0.65336  0.80591  0.14496  Biso   1.000  C
  C369     1.0000 0.91320  0.97708  0.22106  Biso   1.000  C
  H431     1.0000 0.80478  0.99641  0.22338  Biso   1.000  H
  C370     1.0000 0.68235  0.83967  0.11486  Biso   1.000  C
  H432     1.0000 0.64312  0.74876  0.14907  Biso   1.000  H
  C371     1.0000 0.97646  0.06478  0.22177  Biso   1.000  C
  C372     1.0000 0.93527  0.91170  0.22177  Biso   1.000  C
  C373     1.0000 0.69837  0.92215  0.10537  Biso   1.000  C
  C374     1.0000 0.70657  0.79265  0.09408  Biso   1.000  C
  H433     1.0000 0.96056  0.10867  0.22257  Biso   1.000  H
  C375     1.0000 0.06387  0.08679  0.22106  Biso   1.000  C
  H434     1.0000 0.89138  0.85188  0.22257  Biso   1.000  H
  C376     1.0000 0.02296  0.93619  0.22106  Biso   1.000  C
  C377     1.0000 0.72988  0.95317  0.07736  Biso   1.000  C
  H435     1.0000 0.68655  0.95690  0.11906  Biso   1.000  H
  C378     1.0000 0.73837  0.82400  0.06546  Biso   1.000  C
  H436     1.0000 0.70069  0.73857  0.10037  Biso   1.000  H
  C379     1.0000 0.08831  0.02358  0.22177  Biso   1.000  C
  C380     1.0000 0.13267  0.18129  0.22087  Biso   1.000  C
  C381     1.0000 0.04861  0.86736  0.22087  Biso   1.000  C
  C382     1.0000 0.74783  0.04088  0.06847  Biso   1.000  C
  C383     1.0000 0.74968  0.90511  0.05676  Biso   1.000  C
  C384     1.0000 0.76254  0.77417  0.04335  Biso   1.000  C
  H437     1.0000 0.14811  0.03945  0.22257  Biso   1.000  H
  N63      1.0000 0.11789  0.24314  0.21777  Biso   1.000  N
  H438     1.0000 0.19163  0.19527  0.22338  Biso   1.000  H
  N64      1.0000 0.12524  0.88205  0.21777  Biso   1.000  N
  H439     1.0000 0.00362  0.80839  0.22338  Biso   1.000  H
  N65      1.0000 0.77977  0.07739  0.04358  Biso   1.000  N
  H440     1.0000 0.73385  0.07230  0.08287  Biso   1.000  H
  H441     1.0000 0.77077  0.92738  0.03676  Biso   1.000  H
  N66      1.0000 0.75642  0.70266  0.05093  Biso   1.000  N
  H442     1.0000 0.78265  0.79696  0.02338  Biso   1.000  H
  C385     1.0000 0.19175  0.33170  0.22067  Biso   1.000  C
  C386     1.0000 0.13998  0.80826  0.22067  Biso   1.000  C
  C387     1.0000 0.79033  0.16568  0.03835  Biso   1.000  C
  C388     1.0000 0.77212  0.65407  0.02622  Biso   1.000  C
  C389     1.0000 0.19213  0.39015  0.19637  Biso   1.000  C
  C390     1.0000 0.18575  0.36076  0.25166  Biso   1.000  C
  H443     1.0000 0.24691  0.32935  0.21917  Biso   1.000  H
  C391     1.0000 0.19803  0.80787  0.19637  Biso   1.000  C
  C392     1.0000 0.17505  0.81427  0.25166  Biso   1.000  C
  H444     1.0000 0.08246  0.75307  0.21917  Biso   1.000  H
  H445     1.0000 0.77941  0.18887  0.05777  Biso   1.000  H
  C393     1.0000 0.72262  0.15458  0.01327  Biso   1.000  C
  C394     1.0000 0.88193  0.22786  0.02622  Biso   1.000  C
  C395     1.0000 0.83434  0.62468  0.03835  Biso   1.000  C
  C396     1.0000 0.68453  0.57426  0.01706  Biso   1.000  C
  H446     1.0000 0.79869  0.69286  0.00797  Biso   1.000  H
  N67      1.0000 0.20415  0.35978  0.16597  Biso   1.000  N
  H447     1.0000 0.13474  0.38825  0.19646  Biso   1.000  H
  C397     1.0000 0.26154  0.47975  0.20257  Biso   1.000  C
  C398     1.0000 0.25655  0.45349  0.25816  Biso   1.000  C
  H448     1.0000 0.18982  0.32138  0.26696  Biso   1.000  H
  H449     1.0000 0.12800  0.35645  0.25417  Biso   1.000  H
  N68      1.0000 0.15566  0.79585  0.16597  Biso   1.000  N
  H450     1.0000 0.25354  0.86527  0.19646  Biso   1.000  H
  C399     1.0000 0.21827  0.73851  0.20257  Biso   1.000  C
  C400     1.0000 0.19689  0.74347  0.25816  Biso   1.000  C
  H451     1.0000 0.13148  0.81015  0.26696  Biso   1.000  H
  H452     1.0000 0.22846  0.87200  0.25417  Biso   1.000  H
  H453     1.0000 0.66284  0.11749  0.02138  Biso   1.000  H
  C401     1.0000 0.73552  0.24497  0.00367  Biso   1.000  C
  H454     1.0000 0.72975  0.12506  0.99518  Biso   1.000  H
  N69      1.0000 0.94624  0.24360  0.05093  Biso   1.000  N
  C402     1.0000 0.88969  0.31543  0.01706  Biso   1.000  C
  H455     1.0000 0.89415  0.20128  0.00797  Biso   1.000  H
  N70      1.0000 0.92269  0.70239  0.04358  Biso   1.000  N
  H456     1.0000 0.81119  0.59059  0.05777  Biso   1.000  H
  C403     1.0000 0.84545  0.56806  0.01327  Biso   1.000  C
  C404     1.0000 0.69579  0.52188  0.99307  Biso   1.000  C
  H457     1.0000 0.65740  0.53730  0.03548  Biso   1.000  H
  H458     1.0000 0.64454  0.59405  0.00958  Biso   1.000  H
  C405     1.0000 0.15251  0.34665  0.14496  Biso   1.000  C
  H459     1.0000 0.25874  0.51828  0.18657  Biso   1.000  H
  H460     1.0000 0.31846  0.48230  0.20016  Biso   1.000  H
  C406     1.0000 0.26034  0.51684  0.23327  Biso   1.000  C
  H461     1.0000 0.31361  0.45585  0.25927  Biso   1.000  H
  H462     1.0000 0.24542  0.47185  0.27837  Biso   1.000  H
  C407     1.0000 0.19416  0.84751  0.14496  Biso   1.000  C
  H463     1.0000 0.25957  0.74125  0.18657  Biso   1.000  H
  H464     1.0000 0.16378  0.68156  0.20016  Biso   1.000  H
  C408     1.0000 0.25653  0.73968  0.23327  Biso   1.000  C
  H465     1.0000 0.14222  0.68639  0.25927  Biso   1.000  H
  H466     1.0000 0.22648  0.75457  0.27837  Biso   1.000  H
  H467     1.0000 0.72255  0.27174  0.02138  Biso   1.000  H
  H468     1.0000 0.69411  0.23694  0.98696  Biso   1.000  H
  C409     1.0000 0.82601  0.30414  0.99307  Biso   1.000  C
  C410     1.0000 0.01161  0.23746  0.04335  Biso   1.000  C
  H469     1.0000 0.87983  0.34254  0.03548  Biso   1.000  H
  H470     1.0000 0.94952  0.35547  0.00958  Biso   1.000  H
  C411     1.0000 0.95913  0.70697  0.06847  Biso   1.000  C
  H471     1.0000 0.87497  0.60469  0.99518  Biso   1.000  H
  H472     1.0000 0.88253  0.54540  0.02138  Biso   1.000  H
  C412     1.0000 0.75509  0.49060  0.00367  Biso   1.000  C
  H473     1.0000 0.72031  0.55780  0.97437  Biso   1.000  H
  H474     1.0000 0.63832  0.47121  0.98767  Biso   1.000  H
  C413     1.0000 0.15730  0.31766  0.11486  Biso   1.000  C
  H475     1.0000 0.10563  0.35684  0.14907  Biso   1.000  H
  H476     1.0000 0.20884  0.52468  0.23497  Biso   1.000  H
  H477     1.0000 0.31364  0.57457  0.23596  Biso   1.000  H
  C414     1.0000 0.16035  0.84267  0.11486  Biso   1.000  C
  H478     1.0000 0.25120  0.89440  0.14907  Biso   1.000  H
  H479     1.0000 0.31580  0.79115  0.23497  Biso   1.000  H
  H480     1.0000 0.26093  0.68639  0.23596  Biso   1.000  H
  H481     1.0000 0.83741  0.27965  0.97437  Biso   1.000  H
  H482     1.0000 0.83284  0.36167  0.98767  Biso   1.000  H
  C415     1.0000 0.08565  0.26169  0.06546  Biso   1.000  C
  H483     1.0000 0.01433  0.21734  0.02338  Biso   1.000  H
  H484     1.0000 0.92773  0.66158  0.08287  Biso   1.000  H
  C416     1.0000 0.04686  0.77678  0.07736  Biso   1.000  C
  H485     1.0000 0.76308  0.45716  0.98696  Biso   1.000  H
  H486     1.0000 0.72827  0.45076  0.02138  Biso   1.000  H
  C417     1.0000 0.08605  0.29336  0.09408  Biso   1.000  C
  C418     1.0000 0.22384  0.30165  0.10537  Biso   1.000  C
  C419     1.0000 0.07779  0.77619  0.10537  Biso   1.000  C
  C420     1.0000 0.20738  0.91399  0.09408  Biso   1.000  C
  C421     1.0000 0.15545  0.25039  0.05676  Biso   1.000  C
  C422     1.0000 0.09490  0.84457  0.05676  Biso   1.000  C
  H487     1.0000 0.03793  0.29937  0.10037  Biso   1.000  H
  C423     1.0000 0.22320  0.27005  0.07736  Biso   1.000  C
  H488     1.0000 0.27036  0.31348  0.11906  Biso   1.000  H
  H489     1.0000 0.04317  0.72969  0.11906  Biso   1.000  H
  C424     1.0000 0.17601  0.91438  0.06546  Biso   1.000  C
  H490     1.0000 0.26144  0.96206  0.10037  Biso   1.000  H
  H491     1.0000 0.15667  0.22929  0.03676  Biso   1.000  H
  H492     1.0000 0.07259  0.84339  0.03676  Biso   1.000  H
  C425     1.0000 0.29303  0.25215  0.06847  Biso   1.000  C
  C426     1.0000 0.22579  0.98838  0.04335  Biso   1.000  C
  N71      1.0000 0.29763  0.22028  0.04358  Biso   1.000  N
  H493     1.0000 0.33846  0.26619  0.08287  Biso   1.000  H
  N72      1.0000 0.29733  0.05375  0.05093  Biso   1.000  N
  H494     1.0000 0.20307  0.98570  0.02338  Biso   1.000  H
  C427     1.0000 0.37533  0.20964  0.03835  Biso   1.000  C
  C428     1.0000 0.34596  0.11808  0.02622  Biso   1.000  C
  H495     1.0000 0.40941  0.22054  0.05777  Biso   1.000  H
  C429     1.0000 0.43193  0.27736  0.01327  Biso   1.000  C
  C430     1.0000 0.42574  0.11024  0.01706  Biso   1.000  C
  H496     1.0000 0.30716  0.10586  0.00797  Biso   1.000  H
  H497     1.0000 0.39534  0.27024  0.99518  Biso   1.000  H
  H498     1.0000 0.45466  0.33718  0.02138  Biso   1.000  H
  C431     1.0000 0.50943  0.26450  0.00367  Biso   1.000  C
  C432     1.0000 0.47814  0.17398  0.99307  Biso   1.000  C
  H499     1.0000 0.46272  0.12017  0.03548  Biso   1.000  H
  H500     1.0000 0.40593  0.05048  0.00958  Biso   1.000  H
  H501     1.0000 0.54283  0.30583  0.98696  Biso   1.000  H
  H502     1.0000 0.54924  0.27749  0.02138  Biso   1.000  H
  H503     1.0000 0.44223  0.16255  0.97437  Biso   1.000  H
  H504     1.0000 0.52882  0.16719  0.98767  Biso   1.000  H
