data_image0
_cell_length_a       24.938
_cell_length_b       24.938
_cell_length_c       24.938
_cell_angle_alpha    90
_cell_angle_beta     90
_cell_angle_gamma    90

_symmetry_space_group_name_H-M    "P 1"
_symmetry_int_tables_number       1

loop_
  _symmetry_equiv_pos_as_xyz
  'x, y, z'

loop_
  _atom_site_label
  _atom_site_occupancy
  _atom_site_fract_x
  _atom_site_fract_y
  _atom_site_fract_z
  _atom_site_thermal_displace_type
  _atom_site_B_iso_or_equiv
  _atom_site_type_symbol
  C1       1.0000 0.37882  0.24100  0.27781  Biso   1.000  C
  C2       1.0000 0.43019  0.20772  0.28679  Biso   1.000  C
  H1       1.0000 0.34670  0.21890  0.28499  Biso   1.000  H
  H2       1.0000 0.37830  0.27232  0.30231  Biso   1.000  H
  C3       1.0000 0.37882  0.25900  0.22219  Biso   1.000  C
  C4       1.0000 0.47987  0.23811  0.27721  Biso   1.000  C
  H3       1.0000 0.43039  0.19428  0.32408  Biso   1.000  H
  H4       1.0000 0.42951  0.17632  0.26261  Biso   1.000  H
  C5       1.0000 0.43019  0.29228  0.21321  Biso   1.000  C
  H5       1.0000 0.34670  0.28110  0.21501  Biso   1.000  H
  H6       1.0000 0.37830  0.22768  0.19769  Biso   1.000  H
  N1       1.0000 0.52627  0.20350  0.28619  Biso   1.000  N
  H7       1.0000 0.48139  0.26798  0.30379  Biso   1.000  H
  C6       1.0000 0.47987  0.26189  0.22279  Biso   1.000  C
  H8       1.0000 0.43039  0.30572  0.17592  Biso   1.000  H
  H9       1.0000 0.42951  0.32368  0.23739  Biso   1.000  H
  C7       1.0000 0.55642  0.21209  0.32569  Biso   1.000  C
  N2       1.0000 0.52627  0.29650  0.21381  Biso   1.000  N
  H10      1.0000 0.48139  0.23202  0.19621  Biso   1.000  H
  C8       1.0000 0.60310  0.17800  0.33940  Biso   1.000  C
  H11      1.0000 0.54880  0.24208  0.34790  Biso   1.000  H
  C9       1.0000 0.55642  0.28791  0.17431  Biso   1.000  C
  C10      1.0000 0.61460  0.13301  0.30949  Biso   1.000  C
  C11      1.0000 0.63301  0.19051  0.38540  Biso   1.000  C
  C12      1.0000 0.60310  0.32200  0.16060  Biso   1.000  C
  H12      1.0000 0.54880  0.25792  0.15210  Biso   1.000  H
  H13      1.0000 0.59191  0.12250  0.28082  Biso   1.000  H
  C13      1.0000 0.66060  0.10310  0.32200  Biso   1.000  C
  H14      1.0000 0.62250  0.21918  0.40809  Biso   1.000  H
  C14      1.0000 0.67800  0.16060  0.39690  Biso   1.000  C
  C15      1.0000 0.61460  0.36699  0.19051  Biso   1.000  C
  C16      1.0000 0.63301  0.30949  0.11460  Biso   1.000  C
  C17      1.0000 0.69051  0.11460  0.36699  Biso   1.000  C
  C18      1.0000 0.67431  0.05642  0.28791  Biso   1.000  C
  C19      1.0000 0.71209  0.17431  0.44358  Biso   1.000  C
  H15      1.0000 0.59191  0.37750  0.21918  Biso   1.000  H
  C20      1.0000 0.66060  0.39690  0.17800  Biso   1.000  C
  H16      1.0000 0.62250  0.28082  0.09191  Biso   1.000  H
  C21      1.0000 0.67800  0.33940  0.10310  Biso   1.000  C
  H17      1.0000 0.71918  0.09191  0.37750  Biso   1.000  H
  N3       1.0000 0.71381  0.02627  0.29650  Biso   1.000  N
  H18      1.0000 0.65210  0.04880  0.25792  Biso   1.000  H
  N4       1.0000 0.70350  0.21381  0.47373  Biso   1.000  N
  H19      1.0000 0.74208  0.15210  0.45120  Biso   1.000  H
  C22      1.0000 0.69051  0.38540  0.13301  Biso   1.000  C
  C23      1.0000 0.67431  0.44358  0.21209  Biso   1.000  C
  C24      1.0000 0.71209  0.32569  0.05642  Biso   1.000  C
  C25      1.0000 0.72279  0.97987  0.26189  Biso   1.000  C
  C26      1.0000 0.73811  0.22279  0.52013  Biso   1.000  C
  H20      1.0000 0.71918  0.40809  0.12250  Biso   1.000  H
  N5       1.0000 0.71381  0.47373  0.20350  Biso   1.000  N
  H21      1.0000 0.65210  0.45120  0.24208  Biso   1.000  H
  N6       1.0000 0.70350  0.28619  0.02627  Biso   1.000  N
  H22      1.0000 0.74208  0.34790  0.04880  Biso   1.000  H
  H23      1.0000 0.69621  0.98139  0.23202  Biso   1.000  H
  C27      1.0000 0.71321  0.93019  0.29228  Biso   1.000  C
  C28      1.0000 0.77721  0.97987  0.23811  Biso   1.000  C
  H24      1.0000 0.76798  0.19621  0.51861  Biso   1.000  H
  C29      1.0000 0.70772  0.21321  0.56981  Biso   1.000  C
  C30      1.0000 0.76189  0.27721  0.52013  Biso   1.000  C
  C31      1.0000 0.72279  0.52013  0.23811  Biso   1.000  C
  C32      1.0000 0.73811  0.27721  0.97987  Biso   1.000  C
  H25      1.0000 0.67592  0.93039  0.30572  Biso   1.000  H
  H26      1.0000 0.73739  0.92951  0.32368  Biso   1.000  H
  C33      1.0000 0.72219  0.87882  0.25900  Biso   1.000  C
  N7       1.0000 0.78619  0.02627  0.20350  Biso   1.000  N
  H27      1.0000 0.80379  0.98139  0.26798  Biso   1.000  H
  C34      1.0000 0.78679  0.93019  0.20772  Biso   1.000  C
  H28      1.0000 0.69428  0.17592  0.56961  Biso   1.000  H
  H29      1.0000 0.67632  0.23739  0.57049  Biso   1.000  H
  C35      1.0000 0.74100  0.22219  0.62118  Biso   1.000  C
  N8       1.0000 0.79650  0.28619  0.47373  Biso   1.000  N
  H30      1.0000 0.73202  0.30379  0.51861  Biso   1.000  H
  C36      1.0000 0.79228  0.28679  0.56981  Biso   1.000  C
  H31      1.0000 0.69621  0.51861  0.26798  Biso   1.000  H
  C37      1.0000 0.71321  0.56981  0.20772  Biso   1.000  C
  C38      1.0000 0.77721  0.52013  0.26189  Biso   1.000  C
  H32      1.0000 0.76798  0.30379  0.98139  Biso   1.000  H
  C39      1.0000 0.70772  0.28679  0.93019  Biso   1.000  C
  C40      1.0000 0.76189  0.22279  0.97987  Biso   1.000  C
  H33      1.0000 0.71501  0.84670  0.28110  Biso   1.000  H
  H34      1.0000 0.69769  0.87830  0.22768  Biso   1.000  H
  C41      1.0000 0.77781  0.87882  0.24100  Biso   1.000  C
  C42      1.0000 0.82569  0.05642  0.21209  Biso   1.000  C
  H35      1.0000 0.82408  0.93039  0.19428  Biso   1.000  H
  H36      1.0000 0.76261  0.92951  0.17632  Biso   1.000  H
  H37      1.0000 0.71890  0.21501  0.65330  Biso   1.000  H
  H38      1.0000 0.77232  0.19769  0.62170  Biso   1.000  H
  C43      1.0000 0.75900  0.27781  0.62118  Biso   1.000  C
  C44      1.0000 0.78791  0.32569  0.44358  Biso   1.000  C
  H39      1.0000 0.80572  0.32408  0.56961  Biso   1.000  H
  H40      1.0000 0.82368  0.26261  0.57049  Biso   1.000  H
  H41      1.0000 0.67592  0.56961  0.19428  Biso   1.000  H
  H42      1.0000 0.73739  0.57049  0.17632  Biso   1.000  H
  C45      1.0000 0.72219  0.62118  0.24100  Biso   1.000  C
  N9       1.0000 0.78619  0.47373  0.29650  Biso   1.000  N
  H43      1.0000 0.80379  0.51861  0.23202  Biso   1.000  H
  C46      1.0000 0.78679  0.56981  0.29228  Biso   1.000  C
  H44      1.0000 0.69428  0.32408  0.93039  Biso   1.000  H
  H45      1.0000 0.67632  0.26261  0.92951  Biso   1.000  H
  C47      1.0000 0.74100  0.27781  0.87882  Biso   1.000  C
  N10      1.0000 0.79650  0.21381  0.02627  Biso   1.000  N
  H46      1.0000 0.73202  0.19621  0.98139  Biso   1.000  H
  C48      1.0000 0.79228  0.21321  0.93019  Biso   1.000  C
  H47      1.0000 0.78499  0.84670  0.21890  Biso   1.000  H
  H48      1.0000 0.80231  0.87830  0.27232  Biso   1.000  H
  C49      1.0000 0.83940  0.10310  0.17800  Biso   1.000  C
  H49      1.0000 0.84790  0.04880  0.24208  Biso   1.000  H
  H50      1.0000 0.78110  0.28499  0.65330  Biso   1.000  H
  H51      1.0000 0.72768  0.30231  0.62170  Biso   1.000  H
  C50      1.0000 0.82200  0.33940  0.39690  Biso   1.000  C
  H52      1.0000 0.75792  0.34790  0.45120  Biso   1.000  H
  H53      1.0000 0.71501  0.65330  0.21890  Biso   1.000  H
  H54      1.0000 0.69769  0.62170  0.27232  Biso   1.000  H
  C51      1.0000 0.77781  0.62118  0.25900  Biso   1.000  C
  C52      1.0000 0.82569  0.44358  0.28791  Biso   1.000  C
  H55      1.0000 0.82408  0.56961  0.30572  Biso   1.000  H
  H56      1.0000 0.76261  0.57049  0.32368  Biso   1.000  H
  H57      1.0000 0.71890  0.28499  0.84670  Biso   1.000  H
  H58      1.0000 0.77232  0.30231  0.87830  Biso   1.000  H
  C53      1.0000 0.75900  0.22219  0.87882  Biso   1.000  C
  C54      1.0000 0.78791  0.17431  0.05642  Biso   1.000  C
  H59      1.0000 0.80572  0.17592  0.93039  Biso   1.000  H
  H60      1.0000 0.82368  0.23739  0.92951  Biso   1.000  H
  C55      1.0000 0.80949  0.11460  0.13301  Biso   1.000  C
  C56      1.0000 0.88540  0.13301  0.19051  Biso   1.000  C
  C57      1.0000 0.86699  0.30949  0.38540  Biso   1.000  C
  C58      1.0000 0.80949  0.38540  0.36699  Biso   1.000  C
  H61      1.0000 0.78499  0.65330  0.28110  Biso   1.000  H
  H62      1.0000 0.80231  0.62170  0.22768  Biso   1.000  H
  C59      1.0000 0.83940  0.39690  0.32200  Biso   1.000  C
  H63      1.0000 0.84790  0.45120  0.25792  Biso   1.000  H
  H64      1.0000 0.78110  0.21501  0.84670  Biso   1.000  H
  H65      1.0000 0.72768  0.19769  0.87830  Biso   1.000  H
  C60      1.0000 0.82200  0.16060  0.10310  Biso   1.000  C
  H66      1.0000 0.75792  0.15210  0.04880  Biso   1.000  H
  H67      1.0000 0.78082  0.09191  0.12250  Biso   1.000  H
  H68      1.0000 0.90809  0.12250  0.21918  Biso   1.000  H
  C61      1.0000 0.89690  0.17800  0.16060  Biso   1.000  C
  H69      1.0000 0.87750  0.28082  0.40809  Biso   1.000  H
  C62      1.0000 0.89690  0.32200  0.33940  Biso   1.000  C
  H70      1.0000 0.78082  0.40809  0.37750  Biso   1.000  H
  C63      1.0000 0.88540  0.36699  0.30949  Biso   1.000  C
  C64      1.0000 0.86699  0.19051  0.11460  Biso   1.000  C
  C65      1.0000 0.94358  0.21209  0.17431  Biso   1.000  C
  C66      1.0000 0.94358  0.28791  0.32569  Biso   1.000  C
  H71      1.0000 0.90809  0.37750  0.28082  Biso   1.000  H
  H72      1.0000 0.87750  0.21918  0.09191  Biso   1.000  H
  N11      1.0000 0.97373  0.20350  0.21381  Biso   1.000  N
  H73      1.0000 0.95120  0.24208  0.15210  Biso   1.000  H
  N12      1.0000 0.97373  0.29650  0.28619  Biso   1.000  N
  H74      1.0000 0.95120  0.25792  0.34790  Biso   1.000  H
  C67      1.0000 0.02013  0.23811  0.22279  Biso   1.000  C
  C68      1.0000 0.02013  0.26189  0.27721  Biso   1.000  C
  H75      1.0000 0.01861  0.26798  0.19621  Biso   1.000  H
  C69      1.0000 0.06981  0.20772  0.21321  Biso   1.000  C
  H76      1.0000 0.01861  0.23202  0.30379  Biso   1.000  H
  C70      1.0000 0.06981  0.29228  0.28679  Biso   1.000  C
  H77      1.0000 0.06961  0.19428  0.17592  Biso   1.000  H
  H78      1.0000 0.07049  0.17632  0.23739  Biso   1.000  H
  C71      1.0000 0.12118  0.24100  0.22219  Biso   1.000  C
  H79      1.0000 0.06961  0.30572  0.32408  Biso   1.000  H
  H80      1.0000 0.07049  0.32368  0.26261  Biso   1.000  H
  C72      1.0000 0.12118  0.25900  0.27781  Biso   1.000  C
  H81      1.0000 0.15330  0.21890  0.21501  Biso   1.000  H
  H82      1.0000 0.12170  0.27232  0.19769  Biso   1.000  H
  H83      1.0000 0.15330  0.28110  0.28499  Biso   1.000  H
  H84      1.0000 0.12170  0.22768  0.30231  Biso   1.000  H
  C73      1.0000 0.27781  0.37882  0.24100  Biso   1.000  C
  C74      1.0000 0.22219  0.37882  0.25900  Biso   1.000  C
  C75      1.0000 0.28679  0.43019  0.20772  Biso   1.000  C
  H85      1.0000 0.28499  0.34670  0.21890  Biso   1.000  H
  H86      1.0000 0.30231  0.37830  0.27232  Biso   1.000  H
  C76      1.0000 0.21321  0.43019  0.29228  Biso   1.000  C
  H87      1.0000 0.21501  0.34670  0.28110  Biso   1.000  H
  H88      1.0000 0.19769  0.37830  0.22768  Biso   1.000  H
  C77      1.0000 0.27721  0.47987  0.23811  Biso   1.000  C
  H89      1.0000 0.32408  0.43039  0.19428  Biso   1.000  H
  H90      1.0000 0.26261  0.42951  0.17632  Biso   1.000  H
  C78      1.0000 0.22279  0.47987  0.26189  Biso   1.000  C
  H91      1.0000 0.17592  0.43039  0.30572  Biso   1.000  H
  H92      1.0000 0.23739  0.42951  0.32368  Biso   1.000  H
  N13      1.0000 0.28619  0.52627  0.20350  Biso   1.000  N
  H93      1.0000 0.30379  0.48139  0.26798  Biso   1.000  H
  N14      1.0000 0.21381  0.52627  0.29650  Biso   1.000  N
  H94      1.0000 0.19621  0.48139  0.23202  Biso   1.000  H
  C79      1.0000 0.32569  0.55642  0.21209  Biso   1.000  C
  C80      1.0000 0.17431  0.55642  0.28791  Biso   1.000  C
  C81      1.0000 0.33940  0.60310  0.17800  Biso   1.000  C
  H95      1.0000 0.34790  0.54880  0.24208  Biso   1.000  H
  C82      1.0000 0.16060  0.60310  0.32200  Biso   1.000  C
  H96      1.0000 0.15210  0.54880  0.25792  Biso   1.000  H
  C83      1.0000 0.30949  0.61460  0.13301  Biso   1.000  C
  C84      1.0000 0.38540  0.63301  0.19051  Biso   1.000  C
  C85      1.0000 0.11460  0.63301  0.30949  Biso   1.000  C
  C86      1.0000 0.19051  0.61460  0.36699  Biso   1.000  C
  H97      1.0000 0.28082  0.59191  0.12250  Biso   1.000  H
  C87      1.0000 0.32200  0.66060  0.10310  Biso   1.000  C
  H98      1.0000 0.40809  0.62250  0.21918  Biso   1.000  H
  C88      1.0000 0.39690  0.67800  0.16060  Biso   1.000  C
  H99      1.0000 0.09191  0.62250  0.28082  Biso   1.000  H
  C89      1.0000 0.10310  0.67800  0.33940  Biso   1.000  C
  H100     1.0000 0.21918  0.59191  0.37750  Biso   1.000  H
  C90      1.0000 0.17800  0.66060  0.39690  Biso   1.000  C
  C91      1.0000 0.36699  0.69051  0.11460  Biso   1.000  C
  C92      1.0000 0.28791  0.67431  0.05642  Biso   1.000  C
  C93      1.0000 0.44358  0.71209  0.17431  Biso   1.000  C
  C94      1.0000 0.05642  0.71209  0.32569  Biso   1.000  C
  C95      1.0000 0.13301  0.69051  0.38540  Biso   1.000  C
  C96      1.0000 0.21209  0.67431  0.44358  Biso   1.000  C
  H101     1.0000 0.37750  0.71918  0.09191  Biso   1.000  H
  N15      1.0000 0.29650  0.71381  0.02627  Biso   1.000  N
  H102     1.0000 0.25792  0.65210  0.04880  Biso   1.000  H
  N16      1.0000 0.47373  0.70350  0.21381  Biso   1.000  N
  H103     1.0000 0.45120  0.74208  0.15210  Biso   1.000  H
  N17      1.0000 0.02627  0.70350  0.28619  Biso   1.000  N
  H104     1.0000 0.04880  0.74208  0.34790  Biso   1.000  H
  H105     1.0000 0.12250  0.71918  0.40809  Biso   1.000  H
  N18      1.0000 0.20350  0.71381  0.47373  Biso   1.000  N
  H106     1.0000 0.24208  0.65210  0.45120  Biso   1.000  H
  C97      1.0000 0.26189  0.72279  0.97987  Biso   1.000  C
  C98      1.0000 0.52013  0.73811  0.22279  Biso   1.000  C
  C99      1.0000 0.97987  0.73811  0.27721  Biso   1.000  C
  C100     1.0000 0.23811  0.72279  0.52013  Biso   1.000  C
  C101     1.0000 0.23811  0.77721  0.97987  Biso   1.000  C
  H107     1.0000 0.23202  0.69621  0.98139  Biso   1.000  H
  C102     1.0000 0.29228  0.71321  0.93019  Biso   1.000  C
  C103     1.0000 0.52013  0.76189  0.27721  Biso   1.000  C
  H108     1.0000 0.51861  0.76798  0.19621  Biso   1.000  H
  C104     1.0000 0.56981  0.70772  0.21321  Biso   1.000  C
  H109     1.0000 0.98139  0.76798  0.30379  Biso   1.000  H
  C105     1.0000 0.93019  0.70772  0.28679  Biso   1.000  C
  C106     1.0000 0.97987  0.76189  0.22279  Biso   1.000  C
  H110     1.0000 0.26798  0.69621  0.51861  Biso   1.000  H
  C107     1.0000 0.20772  0.71321  0.56981  Biso   1.000  C
  C108     1.0000 0.26189  0.77721  0.52013  Biso   1.000  C
  N19      1.0000 0.20350  0.78619  0.02627  Biso   1.000  N
  H111     1.0000 0.26798  0.80379  0.98139  Biso   1.000  H
  C109     1.0000 0.20772  0.78679  0.93019  Biso   1.000  C
  H112     1.0000 0.30572  0.67592  0.93039  Biso   1.000  H
  H113     1.0000 0.32368  0.73739  0.92951  Biso   1.000  H
  C110     1.0000 0.25900  0.72219  0.87882  Biso   1.000  C
  N20      1.0000 0.47373  0.79650  0.28619  Biso   1.000  N
  H114     1.0000 0.51861  0.73202  0.30379  Biso   1.000  H
  C111     1.0000 0.56981  0.79228  0.28679  Biso   1.000  C
  H115     1.0000 0.56961  0.69428  0.17592  Biso   1.000  H
  H116     1.0000 0.57049  0.67632  0.23739  Biso   1.000  H
  C112     1.0000 0.62118  0.74100  0.22219  Biso   1.000  C
  H117     1.0000 0.93039  0.69428  0.32408  Biso   1.000  H
  H118     1.0000 0.92951  0.67632  0.26261  Biso   1.000  H
  C113     1.0000 0.87882  0.74100  0.27781  Biso   1.000  C
  N21      1.0000 0.02627  0.79650  0.21381  Biso   1.000  N
  H119     1.0000 0.98139  0.73202  0.19621  Biso   1.000  H
  C114     1.0000 0.93019  0.79228  0.21321  Biso   1.000  C
  H120     1.0000 0.19428  0.67592  0.56961  Biso   1.000  H
  H121     1.0000 0.17632  0.73739  0.57049  Biso   1.000  H
  C115     1.0000 0.24100  0.72219  0.62118  Biso   1.000  C
  N22      1.0000 0.29650  0.78619  0.47373  Biso   1.000  N
  H122     1.0000 0.23202  0.80379  0.51861  Biso   1.000  H
  C116     1.0000 0.29228  0.78679  0.56981  Biso   1.000  C
  C117     1.0000 0.21209  0.82569  0.05642  Biso   1.000  C
  H123     1.0000 0.19428  0.82408  0.93039  Biso   1.000  H
  H124     1.0000 0.17632  0.76261  0.92951  Biso   1.000  H
  C118     1.0000 0.24100  0.77781  0.87882  Biso   1.000  C
  H125     1.0000 0.28110  0.71501  0.84670  Biso   1.000  H
  H126     1.0000 0.22768  0.69769  0.87830  Biso   1.000  H
  C119     1.0000 0.44358  0.78791  0.32569  Biso   1.000  C
  H127     1.0000 0.56961  0.80572  0.32408  Biso   1.000  H
  H128     1.0000 0.57049  0.82368  0.26261  Biso   1.000  H
  C120     1.0000 0.62118  0.75900  0.27781  Biso   1.000  C
  H129     1.0000 0.65330  0.71890  0.21501  Biso   1.000  H
  H130     1.0000 0.62170  0.77232  0.19769  Biso   1.000  H
  H131     1.0000 0.84670  0.71890  0.28499  Biso   1.000  H
  H132     1.0000 0.87830  0.77232  0.30231  Biso   1.000  H
  C121     1.0000 0.87882  0.75900  0.22219  Biso   1.000  C
  C122     1.0000 0.05642  0.78791  0.17431  Biso   1.000  C
  H133     1.0000 0.93039  0.80572  0.17592  Biso   1.000  H
  H134     1.0000 0.92951  0.82368  0.23739  Biso   1.000  H
  H135     1.0000 0.21890  0.71501  0.65330  Biso   1.000  H
  H136     1.0000 0.27232  0.69769  0.62170  Biso   1.000  H
  C123     1.0000 0.25900  0.77781  0.62118  Biso   1.000  C
  C124     1.0000 0.28791  0.82569  0.44358  Biso   1.000  C
  H137     1.0000 0.30572  0.82408  0.56961  Biso   1.000  H
  H138     1.0000 0.32368  0.76261  0.57049  Biso   1.000  H
  C125     1.0000 0.17800  0.83940  0.10310  Biso   1.000  C
  H139     1.0000 0.24208  0.84790  0.04880  Biso   1.000  H
  H140     1.0000 0.21890  0.78499  0.84670  Biso   1.000  H
  H141     1.0000 0.27232  0.80231  0.87830  Biso   1.000  H
  C126     1.0000 0.39690  0.82200  0.33940  Biso   1.000  C
  H142     1.0000 0.45120  0.75792  0.34790  Biso   1.000  H
  H143     1.0000 0.65330  0.78110  0.28499  Biso   1.000  H
  H144     1.0000 0.62170  0.72768  0.30231  Biso   1.000  H
  H145     1.0000 0.84670  0.78110  0.21501  Biso   1.000  H
  H146     1.0000 0.87830  0.72768  0.19769  Biso   1.000  H
  C127     1.0000 0.10310  0.82200  0.16060  Biso   1.000  C
  H147     1.0000 0.04880  0.75792  0.15210  Biso   1.000  H
  H148     1.0000 0.28110  0.78499  0.65330  Biso   1.000  H
  H149     1.0000 0.22768  0.80231  0.62170  Biso   1.000  H
  C128     1.0000 0.32200  0.83940  0.39690  Biso   1.000  C
  H150     1.0000 0.25792  0.84790  0.45120  Biso   1.000  H
  C129     1.0000 0.19051  0.88540  0.13301  Biso   1.000  C
  C130     1.0000 0.13301  0.80949  0.11460  Biso   1.000  C
  C131     1.0000 0.36699  0.80949  0.38540  Biso   1.000  C
  C132     1.0000 0.38540  0.86699  0.30949  Biso   1.000  C
  C133     1.0000 0.11460  0.86699  0.19051  Biso   1.000  C
  C134     1.0000 0.30949  0.88540  0.36699  Biso   1.000  C
  H151     1.0000 0.21918  0.90809  0.12250  Biso   1.000  H
  C135     1.0000 0.16060  0.89690  0.17800  Biso   1.000  C
  H152     1.0000 0.12250  0.78082  0.09191  Biso   1.000  H
  H153     1.0000 0.37750  0.78082  0.40809  Biso   1.000  H
  C136     1.0000 0.33940  0.89690  0.32200  Biso   1.000  C
  H154     1.0000 0.40809  0.87750  0.28082  Biso   1.000  H
  H155     1.0000 0.09191  0.87750  0.21918  Biso   1.000  H
  H156     1.0000 0.28082  0.90809  0.37750  Biso   1.000  H
  C137     1.0000 0.17431  0.94358  0.21209  Biso   1.000  C
  C138     1.0000 0.32569  0.94358  0.28791  Biso   1.000  C
  N23      1.0000 0.21381  0.97373  0.20350  Biso   1.000  N
  H157     1.0000 0.15210  0.95120  0.24208  Biso   1.000  H
  N24      1.0000 0.28619  0.97373  0.29650  Biso   1.000  N
  H158     1.0000 0.34790  0.95120  0.25792  Biso   1.000  H
  C139     1.0000 0.22279  0.02013  0.23811  Biso   1.000  C
  C140     1.0000 0.27721  0.02013  0.26189  Biso   1.000  C
  H159     1.0000 0.19621  0.01861  0.26798  Biso   1.000  H
  C141     1.0000 0.21321  0.06981  0.20772  Biso   1.000  C
  H160     1.0000 0.30379  0.01861  0.23202  Biso   1.000  H
  C142     1.0000 0.28679  0.06981  0.29228  Biso   1.000  C
  H161     1.0000 0.17592  0.06961  0.19428  Biso   1.000  H
  H162     1.0000 0.23739  0.07049  0.17632  Biso   1.000  H
  C143     1.0000 0.22219  0.12118  0.24100  Biso   1.000  C
  H163     1.0000 0.32408  0.06961  0.30572  Biso   1.000  H
  H164     1.0000 0.26261  0.07049  0.32368  Biso   1.000  H
  C144     1.0000 0.27781  0.12118  0.25900  Biso   1.000  C
  H165     1.0000 0.21501  0.15330  0.21890  Biso   1.000  H
  H166     1.0000 0.19769  0.12170  0.27232  Biso   1.000  H
  H167     1.0000 0.28499  0.15330  0.28110  Biso   1.000  H
  H168     1.0000 0.30231  0.12170  0.22768  Biso   1.000  H
  C145     1.0000 0.24100  0.27781  0.37882  Biso   1.000  C
  C146     1.0000 0.25900  0.22219  0.37882  Biso   1.000  C
  C147     1.0000 0.20772  0.28679  0.43019  Biso   1.000  C
  H169     1.0000 0.21890  0.28499  0.34670  Biso   1.000  H
  H170     1.0000 0.27232  0.30231  0.37830  Biso   1.000  H
  C148     1.0000 0.29228  0.21321  0.43019  Biso   1.000  C
  H171     1.0000 0.28110  0.21501  0.34670  Biso   1.000  H
  H172     1.0000 0.22768  0.19769  0.37830  Biso   1.000  H
  C149     1.0000 0.23811  0.27721  0.47987  Biso   1.000  C
  H173     1.0000 0.19428  0.32408  0.43039  Biso   1.000  H
  H174     1.0000 0.17632  0.26261  0.42951  Biso   1.000  H
  C150     1.0000 0.26189  0.22279  0.47987  Biso   1.000  C
  H175     1.0000 0.30572  0.17592  0.43039  Biso   1.000  H
  H176     1.0000 0.32368  0.23739  0.42951  Biso   1.000  H
  N25      1.0000 0.20350  0.28619  0.52627  Biso   1.000  N
  H177     1.0000 0.26798  0.30379  0.48139  Biso   1.000  H
  N26      1.0000 0.29650  0.21381  0.52627  Biso   1.000  N
  H178     1.0000 0.23202  0.19621  0.48139  Biso   1.000  H
  C151     1.0000 0.21209  0.32569  0.55642  Biso   1.000  C
  C152     1.0000 0.28791  0.17431  0.55642  Biso   1.000  C
  C153     1.0000 0.17800  0.33940  0.60310  Biso   1.000  C
  H179     1.0000 0.24208  0.34790  0.54880  Biso   1.000  H
  C154     1.0000 0.32200  0.16060  0.60310  Biso   1.000  C
  H180     1.0000 0.25792  0.15210  0.54880  Biso   1.000  H
  C155     1.0000 0.19051  0.38540  0.63301  Biso   1.000  C
  C156     1.0000 0.13301  0.30949  0.61460  Biso   1.000  C
  C157     1.0000 0.30949  0.11460  0.63301  Biso   1.000  C
  C158     1.0000 0.36699  0.19051  0.61460  Biso   1.000  C
  H181     1.0000 0.21918  0.40809  0.62250  Biso   1.000  H
  C159     1.0000 0.16060  0.39690  0.67800  Biso   1.000  C
  C160     1.0000 0.10310  0.32200  0.66060  Biso   1.000  C
  H182     1.0000 0.12250  0.28082  0.59191  Biso   1.000  H
  H183     1.0000 0.28082  0.09191  0.62250  Biso   1.000  H
  C161     1.0000 0.33940  0.10310  0.67800  Biso   1.000  C
  H184     1.0000 0.37750  0.21918  0.59191  Biso   1.000  H
  C162     1.0000 0.39690  0.17800  0.66060  Biso   1.000  C
  C163     1.0000 0.11460  0.36699  0.69051  Biso   1.000  C
  C164     1.0000 0.17431  0.44358  0.71209  Biso   1.000  C
  C165     1.0000 0.05642  0.28791  0.67431  Biso   1.000  C
  C166     1.0000 0.32569  0.05642  0.71209  Biso   1.000  C
  C167     1.0000 0.38540  0.13301  0.69051  Biso   1.000  C
  C168     1.0000 0.44358  0.21209  0.67431  Biso   1.000  C
  H185     1.0000 0.09191  0.37750  0.71918  Biso   1.000  H
  N27      1.0000 0.21381  0.47373  0.70350  Biso   1.000  N
  H186     1.0000 0.15210  0.45120  0.74208  Biso   1.000  H
  N28      1.0000 0.02627  0.29650  0.71381  Biso   1.000  N
  H187     1.0000 0.04880  0.25792  0.65210  Biso   1.000  H
  N29      1.0000 0.28619  0.02627  0.70350  Biso   1.000  N
  H188     1.0000 0.34790  0.04880  0.74208  Biso   1.000  H
  H189     1.0000 0.40809  0.12250  0.71918  Biso   1.000  H
  N30      1.0000 0.47373  0.20350  0.71381  Biso   1.000  N
  H190     1.0000 0.45120  0.24208  0.65210  Biso   1.000  H
  C169     1.0000 0.22279  0.52013  0.73811  Biso   1.000  C
  C170     1.0000 0.97987  0.26189  0.72279  Biso   1.000  C
  C171     1.0000 0.27721  0.97987  0.73811  Biso   1.000  C
  C172     1.0000 0.52013  0.23811  0.72279  Biso   1.000  C
  H191     1.0000 0.19621  0.51861  0.76798  Biso   1.000  H
  C173     1.0000 0.21321  0.56981  0.70772  Biso   1.000  C
  C174     1.0000 0.27721  0.52013  0.76189  Biso   1.000  C
  C175     1.0000 0.97987  0.23811  0.77721  Biso   1.000  C
  H192     1.0000 0.98139  0.23202  0.69621  Biso   1.000  H
  C176     1.0000 0.93019  0.29228  0.71321  Biso   1.000  C
  C177     1.0000 0.22279  0.97987  0.76189  Biso   1.000  C
  H193     1.0000 0.30379  0.98139  0.76798  Biso   1.000  H
  C178     1.0000 0.28679  0.93019  0.70772  Biso   1.000  C
  C179     1.0000 0.52013  0.26189  0.77721  Biso   1.000  C
  H194     1.0000 0.51861  0.26798  0.69621  Biso   1.000  H
  C180     1.0000 0.56981  0.20772  0.71321  Biso   1.000  C
  H195     1.0000 0.17592  0.56961  0.69428  Biso   1.000  H
  H196     1.0000 0.23739  0.57049  0.67632  Biso   1.000  H
  C181     1.0000 0.22219  0.62118  0.74100  Biso   1.000  C
  N31      1.0000 0.28619  0.47373  0.79650  Biso   1.000  N
  H197     1.0000 0.30379  0.51861  0.73202  Biso   1.000  H
  C182     1.0000 0.28679  0.56981  0.79228  Biso   1.000  C
  N32      1.0000 0.02627  0.20350  0.78619  Biso   1.000  N
  H198     1.0000 0.98139  0.26798  0.80379  Biso   1.000  H
  C183     1.0000 0.93019  0.20772  0.78679  Biso   1.000  C
  H199     1.0000 0.93039  0.30572  0.67592  Biso   1.000  H
  H200     1.0000 0.92951  0.32368  0.73739  Biso   1.000  H
  C184     1.0000 0.87882  0.25900  0.72219  Biso   1.000  C
  N33      1.0000 0.21381  0.02627  0.79650  Biso   1.000  N
  H201     1.0000 0.19621  0.98139  0.73202  Biso   1.000  H
  C185     1.0000 0.21321  0.93019  0.79228  Biso   1.000  C
  H202     1.0000 0.32408  0.93039  0.69428  Biso   1.000  H
  H203     1.0000 0.26261  0.92951  0.67632  Biso   1.000  H
  C186     1.0000 0.27781  0.87882  0.74100  Biso   1.000  C
  N34      1.0000 0.47373  0.29650  0.78619  Biso   1.000  N
  H204     1.0000 0.51861  0.23202  0.80379  Biso   1.000  H
  C187     1.0000 0.56981  0.29228  0.78679  Biso   1.000  C
  H205     1.0000 0.56961  0.19428  0.67592  Biso   1.000  H
  H206     1.0000 0.57049  0.17632  0.73739  Biso   1.000  H
  C188     1.0000 0.62118  0.24100  0.72219  Biso   1.000  C
  H207     1.0000 0.21501  0.65330  0.71890  Biso   1.000  H
  H208     1.0000 0.19769  0.62170  0.77232  Biso   1.000  H
  C189     1.0000 0.27781  0.62118  0.75900  Biso   1.000  C
  C190     1.0000 0.32569  0.44358  0.78791  Biso   1.000  C
  H209     1.0000 0.32408  0.56961  0.80572  Biso   1.000  H
  H210     1.0000 0.26261  0.57049  0.82368  Biso   1.000  H
  C191     1.0000 0.05642  0.21209  0.82569  Biso   1.000  C
  H211     1.0000 0.93039  0.19428  0.82408  Biso   1.000  H
  H212     1.0000 0.92951  0.17632  0.76261  Biso   1.000  H
  C192     1.0000 0.87882  0.24100  0.77781  Biso   1.000  C
  H213     1.0000 0.84670  0.28110  0.71501  Biso   1.000  H
  H214     1.0000 0.87830  0.22768  0.69769  Biso   1.000  H
  C193     1.0000 0.17431  0.05642  0.78791  Biso   1.000  C
  H215     1.0000 0.17592  0.93039  0.80572  Biso   1.000  H
  H216     1.0000 0.23739  0.92951  0.82368  Biso   1.000  H
  C194     1.0000 0.22219  0.87882  0.75900  Biso   1.000  C
  H217     1.0000 0.28499  0.84670  0.71890  Biso   1.000  H
  H218     1.0000 0.30231  0.87830  0.77232  Biso   1.000  H
  C195     1.0000 0.44358  0.28791  0.82569  Biso   1.000  C
  H219     1.0000 0.56961  0.30572  0.82408  Biso   1.000  H
  H220     1.0000 0.57049  0.32368  0.76261  Biso   1.000  H
  C196     1.0000 0.62118  0.25900  0.77781  Biso   1.000  C
  H221     1.0000 0.65330  0.21890  0.71501  Biso   1.000  H
  H222     1.0000 0.62170  0.27232  0.69769  Biso   1.000  H
  H223     1.0000 0.28499  0.65330  0.78110  Biso   1.000  H
  H224     1.0000 0.30231  0.62170  0.72768  Biso   1.000  H
  C197     1.0000 0.33940  0.39690  0.82200  Biso   1.000  C
  H225     1.0000 0.34790  0.45120  0.75792  Biso   1.000  H
  C198     1.0000 0.10310  0.17800  0.83940  Biso   1.000  C
  H226     1.0000 0.04880  0.24208  0.84790  Biso   1.000  H
  H227     1.0000 0.84670  0.21890  0.78499  Biso   1.000  H
  H228     1.0000 0.87830  0.27232  0.80231  Biso   1.000  H
  C199     1.0000 0.16060  0.10310  0.82200  Biso   1.000  C
  H229     1.0000 0.15210  0.04880  0.75792  Biso   1.000  H
  H230     1.0000 0.21501  0.84670  0.78110  Biso   1.000  H
  H231     1.0000 0.19769  0.87830  0.72768  Biso   1.000  H
  C200     1.0000 0.39690  0.32200  0.83940  Biso   1.000  C
  H232     1.0000 0.45120  0.25792  0.84790  Biso   1.000  H
  H233     1.0000 0.65330  0.28110  0.78499  Biso   1.000  H
  H234     1.0000 0.62170  0.22768  0.80231  Biso   1.000  H
  C201     1.0000 0.38540  0.36699  0.80949  Biso   1.000  C
  C202     1.0000 0.30949  0.38540  0.86699  Biso   1.000  C
  C203     1.0000 0.11460  0.13301  0.80949  Biso   1.000  C
  C204     1.0000 0.13301  0.19051  0.88540  Biso   1.000  C
  C205     1.0000 0.19051  0.11460  0.86699  Biso   1.000  C
  C206     1.0000 0.36699  0.30949  0.88540  Biso   1.000  C
  H235     1.0000 0.40809  0.37750  0.78082  Biso   1.000  H
  C207     1.0000 0.32200  0.33940  0.89690  Biso   1.000  C
  H236     1.0000 0.28082  0.40809  0.87750  Biso   1.000  H
  H237     1.0000 0.09191  0.12250  0.78082  Biso   1.000  H
  C208     1.0000 0.17800  0.16060  0.89690  Biso   1.000  C
  H238     1.0000 0.12250  0.21918  0.90809  Biso   1.000  H
  H239     1.0000 0.21918  0.09191  0.87750  Biso   1.000  H
  H240     1.0000 0.37750  0.28082  0.90809  Biso   1.000  H
  C209     1.0000 0.28791  0.32569  0.94358  Biso   1.000  C
  C210     1.0000 0.21209  0.17431  0.94358  Biso   1.000  C
  N35      1.0000 0.29650  0.28619  0.97373  Biso   1.000  N
  H241     1.0000 0.25792  0.34790  0.95120  Biso   1.000  H
  N36      1.0000 0.20350  0.21381  0.97373  Biso   1.000  N
  H242     1.0000 0.24208  0.15210  0.95120  Biso   1.000  H
  C211     1.0000 0.26189  0.27721  0.02013  Biso   1.000  C
  C212     1.0000 0.23811  0.22279  0.02013  Biso   1.000  C
  H243     1.0000 0.23202  0.30379  0.01861  Biso   1.000  H
  C213     1.0000 0.29228  0.28679  0.06981  Biso   1.000  C
  H244     1.0000 0.26798  0.19621  0.01861  Biso   1.000  H
  C214     1.0000 0.20772  0.21321  0.06981  Biso   1.000  C
  H245     1.0000 0.30572  0.32408  0.06961  Biso   1.000  H
  H246     1.0000 0.32368  0.26261  0.07049  Biso   1.000  H
  C215     1.0000 0.25900  0.27781  0.12118  Biso   1.000  C
  H247     1.0000 0.19428  0.17592  0.06961  Biso   1.000  H
  H248     1.0000 0.17632  0.23739  0.07049  Biso   1.000  H
  C216     1.0000 0.24100  0.22219  0.12118  Biso   1.000  C
  H249     1.0000 0.28110  0.28499  0.15330  Biso   1.000  H
  H250     1.0000 0.22768  0.30231  0.12170  Biso   1.000  H
  H251     1.0000 0.21890  0.21501  0.15330  Biso   1.000  H
  H252     1.0000 0.27232  0.19769  0.12170  Biso   1.000  H
  C217     1.0000 0.44049  0.38299  0.36458  Biso   1.000  C
  H253     1.0000 0.46920  0.37248  0.34189  Biso   1.000  H
  C218     1.0000 0.41062  0.42798  0.35312  Biso   1.000  C
  C219     1.0000 0.42798  0.35312  0.41062  Biso   1.000  C
  C220     1.0000 0.36458  0.44049  0.38299  Biso   1.000  C
  C221     1.0000 0.42429  0.46211  0.30640  Biso   1.000  C
  C222     1.0000 0.38299  0.36458  0.44049  Biso   1.000  C
  C223     1.0000 0.46211  0.30640  0.42429  Biso   1.000  C
  H254     1.0000 0.34189  0.46920  0.37248  Biso   1.000  H
  C224     1.0000 0.35312  0.41062  0.42798  Biso   1.000  C
  N37      1.0000 0.46379  0.45348  0.27629  Biso   1.000  N
  H255     1.0000 0.40212  0.49210  0.29878  Biso   1.000  H
  H256     1.0000 0.37248  0.34189  0.46920  Biso   1.000  H
  N38      1.0000 0.45348  0.27629  0.46379  Biso   1.000  N
  H257     1.0000 0.49210  0.29878  0.40212  Biso   1.000  H
  C225     1.0000 0.30640  0.42429  0.46211  Biso   1.000  C
  C226     1.0000 0.47281  0.48809  0.22989  Biso   1.000  C
  C227     1.0000 0.48809  0.22989  0.47281  Biso   1.000  C
  N39      1.0000 0.27629  0.46379  0.45348  Biso   1.000  N
  H258     1.0000 0.29878  0.40212  0.49210  Biso   1.000  H
  C228     1.0000 0.52719  0.51191  0.22989  Biso   1.000  C
  H259     1.0000 0.44619  0.51800  0.23141  Biso   1.000  H
  C229     1.0000 0.46319  0.45770  0.18021  Biso   1.000  C
  C230     1.0000 0.51191  0.22989  0.52719  Biso   1.000  C
  H260     1.0000 0.51800  0.23141  0.44619  Biso   1.000  H
  C231     1.0000 0.45770  0.18021  0.46319  Biso   1.000  C
  C232     1.0000 0.22989  0.47281  0.48809  Biso   1.000  C
  N40      1.0000 0.53621  0.54652  0.27629  Biso   1.000  N
  H261     1.0000 0.55381  0.48200  0.23141  Biso   1.000  H
  C233     1.0000 0.53681  0.54230  0.18021  Biso   1.000  C
  H262     1.0000 0.42590  0.44430  0.18041  Biso   1.000  H
  H263     1.0000 0.48741  0.42630  0.17949  Biso   1.000  H
  C234     1.0000 0.47221  0.49102  0.12880  Biso   1.000  C
  N41      1.0000 0.54652  0.27629  0.53621  Biso   1.000  N
  H264     1.0000 0.48200  0.23141  0.55381  Biso   1.000  H
  C235     1.0000 0.54230  0.18021  0.53681  Biso   1.000  C
  H265     1.0000 0.44430  0.18041  0.42590  Biso   1.000  H
  H266     1.0000 0.42630  0.17949  0.48741  Biso   1.000  H
  C236     1.0000 0.49102  0.12880  0.47221  Biso   1.000  C
  C237     1.0000 0.22989  0.52719  0.51191  Biso   1.000  C
  H267     1.0000 0.23141  0.44619  0.51800  Biso   1.000  H
  C238     1.0000 0.18021  0.46319  0.45770  Biso   1.000  C
  C239     1.0000 0.57571  0.53789  0.30640  Biso   1.000  C
  H268     1.0000 0.57410  0.55570  0.18041  Biso   1.000  H
  H269     1.0000 0.51259  0.57370  0.17949  Biso   1.000  H
  C240     1.0000 0.52779  0.50898  0.12880  Biso   1.000  C
  H270     1.0000 0.46499  0.46888  0.09672  Biso   1.000  H
  H271     1.0000 0.44771  0.52230  0.12832  Biso   1.000  H
  C241     1.0000 0.53789  0.30640  0.57571  Biso   1.000  C
  H272     1.0000 0.55570  0.18041  0.57410  Biso   1.000  H
  H273     1.0000 0.57370  0.17949  0.51259  Biso   1.000  H
  C242     1.0000 0.50898  0.12880  0.52779  Biso   1.000  C
  H274     1.0000 0.46888  0.09672  0.46499  Biso   1.000  H
  H275     1.0000 0.52230  0.12832  0.44771  Biso   1.000  H
  N42      1.0000 0.27629  0.53621  0.54652  Biso   1.000  N
  H276     1.0000 0.23141  0.55381  0.48200  Biso   1.000  H
  C243     1.0000 0.18021  0.53681  0.54230  Biso   1.000  C
  H277     1.0000 0.18041  0.42590  0.44430  Biso   1.000  H
  H278     1.0000 0.17949  0.48741  0.42630  Biso   1.000  H
  C244     1.0000 0.12880  0.47221  0.49102  Biso   1.000  C
  C245     1.0000 0.58938  0.57202  0.35312  Biso   1.000  C
  H279     1.0000 0.59788  0.50790  0.29878  Biso   1.000  H
  H280     1.0000 0.53501  0.53112  0.09672  Biso   1.000  H
  H281     1.0000 0.55229  0.47770  0.12832  Biso   1.000  H
  C246     1.0000 0.57202  0.35312  0.58938  Biso   1.000  C
  H282     1.0000 0.50790  0.29878  0.59788  Biso   1.000  H
  H283     1.0000 0.53112  0.09672  0.53501  Biso   1.000  H
  H284     1.0000 0.47770  0.12832  0.55229  Biso   1.000  H
  C247     1.0000 0.30640  0.57571  0.53789  Biso   1.000  C
  H285     1.0000 0.18041  0.57410  0.55570  Biso   1.000  H
  H286     1.0000 0.17949  0.51259  0.57370  Biso   1.000  H
  C248     1.0000 0.12880  0.52779  0.50898  Biso   1.000  C
  H287     1.0000 0.09672  0.46499  0.46888  Biso   1.000  H
  H288     1.0000 0.12832  0.44771  0.52230  Biso   1.000  H
  C249     1.0000 0.63542  0.55951  0.38299  Biso   1.000  C
  C250     1.0000 0.55951  0.61701  0.36458  Biso   1.000  C
  C251     1.0000 0.55951  0.38299  0.63542  Biso   1.000  C
  C252     1.0000 0.61701  0.36458  0.55951  Biso   1.000  C
  C253     1.0000 0.35312  0.58938  0.57202  Biso   1.000  C
  H289     1.0000 0.29878  0.59788  0.50790  Biso   1.000  H
  H290     1.0000 0.09672  0.53501  0.53112  Biso   1.000  H
  H291     1.0000 0.12832  0.55229  0.47770  Biso   1.000  H
  H292     1.0000 0.65811  0.53080  0.37248  Biso   1.000  H
  C254     1.0000 0.64688  0.58938  0.42798  Biso   1.000  C
  C255     1.0000 0.57202  0.64688  0.41062  Biso   1.000  C
  H293     1.0000 0.53080  0.62752  0.34189  Biso   1.000  H
  H294     1.0000 0.53080  0.37248  0.65811  Biso   1.000  H
  C256     1.0000 0.58938  0.42798  0.64688  Biso   1.000  C
  C257     1.0000 0.64688  0.41062  0.57202  Biso   1.000  C
  H295     1.0000 0.62752  0.34189  0.53080  Biso   1.000  H
  C258     1.0000 0.38299  0.63542  0.55951  Biso   1.000  C
  C259     1.0000 0.36458  0.55951  0.61701  Biso   1.000  C
  C260     1.0000 0.61701  0.63542  0.44049  Biso   1.000  C
  C261     1.0000 0.69360  0.57571  0.46211  Biso   1.000  C
  C262     1.0000 0.53789  0.69360  0.42429  Biso   1.000  C
  C263     1.0000 0.57571  0.46211  0.69360  Biso   1.000  C
  C264     1.0000 0.63542  0.44049  0.61701  Biso   1.000  C
  C265     1.0000 0.69360  0.42429  0.53789  Biso   1.000  C
  H296     1.0000 0.37248  0.65811  0.53080  Biso   1.000  H
  C266     1.0000 0.42798  0.64688  0.58938  Biso   1.000  C
  H297     1.0000 0.34189  0.53080  0.62752  Biso   1.000  H
  C267     1.0000 0.41062  0.57202  0.64688  Biso   1.000  C
  H298     1.0000 0.62752  0.65811  0.46920  Biso   1.000  H
  N43      1.0000 0.72371  0.53621  0.45348  Biso   1.000  N
  H299     1.0000 0.70122  0.59788  0.49210  Biso   1.000  H
  N44      1.0000 0.54652  0.72371  0.46379  Biso   1.000  N
  H300     1.0000 0.50790  0.70122  0.40212  Biso   1.000  H
  N45      1.0000 0.53621  0.45348  0.72371  Biso   1.000  N
  H301     1.0000 0.59788  0.49210  0.70122  Biso   1.000  H
  H302     1.0000 0.65811  0.46920  0.62752  Biso   1.000  H
  N46      1.0000 0.72371  0.46379  0.54652  Biso   1.000  N
  H303     1.0000 0.70122  0.40212  0.50790  Biso   1.000  H
  C268     1.0000 0.46211  0.69360  0.57571  Biso   1.000  C
  C269     1.0000 0.44049  0.61701  0.63542  Biso   1.000  C
  C270     1.0000 0.42429  0.53789  0.69360  Biso   1.000  C
  C271     1.0000 0.77011  0.52719  0.48809  Biso   1.000  C
  C272     1.0000 0.51191  0.77011  0.47281  Biso   1.000  C
  C273     1.0000 0.52719  0.48809  0.77011  Biso   1.000  C
  C274     1.0000 0.77011  0.47281  0.51191  Biso   1.000  C
  N47      1.0000 0.45348  0.72371  0.53621  Biso   1.000  N
  H304     1.0000 0.49210  0.70122  0.59788  Biso   1.000  H
  H305     1.0000 0.46920  0.62752  0.65811  Biso   1.000  H
  N48      1.0000 0.46379  0.54652  0.72371  Biso   1.000  N
  H306     1.0000 0.40212  0.50790  0.70122  Biso   1.000  H
  H307     1.0000 0.76859  0.55381  0.51800  Biso   1.000  H
  C275     1.0000 0.81979  0.53681  0.45770  Biso   1.000  C
  C276     1.0000 0.48809  0.77011  0.52719  Biso   1.000  C
  H308     1.0000 0.48200  0.76859  0.44619  Biso   1.000  H
  C277     1.0000 0.54230  0.81979  0.46319  Biso   1.000  C
  C278     1.0000 0.47281  0.51191  0.77011  Biso   1.000  C
  H309     1.0000 0.55381  0.51800  0.76859  Biso   1.000  H
  C279     1.0000 0.53681  0.45770  0.81979  Biso   1.000  C
  H310     1.0000 0.76859  0.44619  0.48200  Biso   1.000  H
  C280     1.0000 0.81979  0.46319  0.54230  Biso   1.000  C
  H311     1.0000 0.81959  0.57410  0.44430  Biso   1.000  H
  H312     1.0000 0.82051  0.51259  0.42630  Biso   1.000  H
  C281     1.0000 0.87120  0.52779  0.49102  Biso   1.000  C
  H313     1.0000 0.51800  0.76859  0.55381  Biso   1.000  H
  C282     1.0000 0.45770  0.81979  0.53681  Biso   1.000  C
  H314     1.0000 0.55570  0.81959  0.42590  Biso   1.000  H
  H315     1.0000 0.57370  0.82051  0.48741  Biso   1.000  H
  C283     1.0000 0.50898  0.87120  0.47221  Biso   1.000  C
  H316     1.0000 0.44619  0.48200  0.76859  Biso   1.000  H
  C284     1.0000 0.46319  0.54230  0.81979  Biso   1.000  C
  H317     1.0000 0.57410  0.44430  0.81959  Biso   1.000  H
  H318     1.0000 0.51259  0.42630  0.82051  Biso   1.000  H
  C285     1.0000 0.52779  0.49102  0.87120  Biso   1.000  C
  H319     1.0000 0.81959  0.42590  0.55570  Biso   1.000  H
  H320     1.0000 0.82051  0.48741  0.57370  Biso   1.000  H
  C286     1.0000 0.87120  0.47221  0.50898  Biso   1.000  C
  H321     1.0000 0.90328  0.53501  0.46888  Biso   1.000  H
  H322     1.0000 0.87168  0.55229  0.52230  Biso   1.000  H
  H323     1.0000 0.44430  0.81959  0.57410  Biso   1.000  H
  H324     1.0000 0.42630  0.82051  0.51259  Biso   1.000  H
  C287     1.0000 0.49102  0.87120  0.52779  Biso   1.000  C
  H325     1.0000 0.53112  0.90328  0.46499  Biso   1.000  H
  H326     1.0000 0.47770  0.87168  0.44771  Biso   1.000  H
  H327     1.0000 0.42590  0.55570  0.81959  Biso   1.000  H
  H328     1.0000 0.48741  0.57370  0.82051  Biso   1.000  H
  C288     1.0000 0.47221  0.50898  0.87120  Biso   1.000  C
  H329     1.0000 0.53501  0.46888  0.90328  Biso   1.000  H
  H330     1.0000 0.55229  0.52230  0.87168  Biso   1.000  H
  H331     1.0000 0.90328  0.46499  0.53112  Biso   1.000  H
  H332     1.0000 0.87168  0.44771  0.47770  Biso   1.000  H
  H333     1.0000 0.46888  0.90328  0.53501  Biso   1.000  H
  H334     1.0000 0.52230  0.87168  0.55229  Biso   1.000  H
  H335     1.0000 0.46499  0.53112  0.90328  Biso   1.000  H
  H336     1.0000 0.44771  0.47770  0.87168  Biso   1.000  H
  C289     1.0000 0.44049  0.11701  0.13542  Biso   1.000  C
  C290     1.0000 0.42798  0.14688  0.08938  Biso   1.000  C
  H337     1.0000 0.46920  0.12752  0.15811  Biso   1.000  H
  C291     1.0000 0.41062  0.07202  0.14688  Biso   1.000  C
  C292     1.0000 0.38299  0.13542  0.05951  Biso   1.000  C
  C293     1.0000 0.46211  0.19360  0.07571  Biso   1.000  C
  C294     1.0000 0.36458  0.05951  0.11701  Biso   1.000  C
  C295     1.0000 0.42429  0.03789  0.19360  Biso   1.000  C
  H338     1.0000 0.37248  0.15811  0.03080  Biso   1.000  H
  C296     1.0000 0.35312  0.08938  0.07202  Biso   1.000  C
  N49      1.0000 0.45348  0.22371  0.03621  Biso   1.000  N
  H339     1.0000 0.49210  0.20122  0.09788  Biso   1.000  H
  H340     1.0000 0.34189  0.03080  0.12752  Biso   1.000  H
  N50      1.0000 0.46379  0.04652  0.22371  Biso   1.000  N
  H341     1.0000 0.40212  0.00790  0.20122  Biso   1.000  H
  C297     1.0000 0.30640  0.07571  0.03789  Biso   1.000  C
  C298     1.0000 0.48809  0.27011  0.02719  Biso   1.000  C
  C299     1.0000 0.47281  0.01191  0.27011  Biso   1.000  C
  N51      1.0000 0.27629  0.03621  0.04652  Biso   1.000  N
  H342     1.0000 0.29878  0.09788  0.00790  Biso   1.000  H
  H343     1.0000 0.51800  0.26859  0.05381  Biso   1.000  H
  C300     1.0000 0.45770  0.31979  0.03681  Biso   1.000  C
  C301     1.0000 0.51191  0.27011  0.97281  Biso   1.000  C
  C302     1.0000 0.46319  0.04230  0.31979  Biso   1.000  C
  H344     1.0000 0.44619  0.98200  0.26859  Biso   1.000  H
  C303     1.0000 0.52719  0.98809  0.27011  Biso   1.000  C
  C304     1.0000 0.22989  0.02719  0.01191  Biso   1.000  C
  H345     1.0000 0.44430  0.31959  0.07410  Biso   1.000  H
  H346     1.0000 0.42630  0.32051  0.01259  Biso   1.000  H
  C305     1.0000 0.49102  0.37120  0.02779  Biso   1.000  C
  N52      1.0000 0.54652  0.22371  0.96379  Biso   1.000  N
  H347     1.0000 0.48200  0.26859  0.94619  Biso   1.000  H
  C306     1.0000 0.54230  0.31979  0.96319  Biso   1.000  C
  H348     1.0000 0.42590  0.05570  0.31959  Biso   1.000  H
  H349     1.0000 0.48741  0.07370  0.32051  Biso   1.000  H
  C307     1.0000 0.47221  0.00898  0.37120  Biso   1.000  C
  H350     1.0000 0.55381  0.01800  0.26859  Biso   1.000  H
  N53      1.0000 0.53621  0.95348  0.22371  Biso   1.000  N
  C308     1.0000 0.53681  0.95770  0.31979  Biso   1.000  C
  C309     1.0000 0.18021  0.03681  0.04230  Biso   1.000  C
  C310     1.0000 0.22989  0.97281  0.98809  Biso   1.000  C
  H351     1.0000 0.23141  0.05381  0.98200  Biso   1.000  H
  H352     1.0000 0.46888  0.40328  0.03501  Biso   1.000  H
  H353     1.0000 0.52230  0.37168  0.05229  Biso   1.000  H
  C311     1.0000 0.50898  0.37120  0.97221  Biso   1.000  C
  C312     1.0000 0.53789  0.19360  0.92429  Biso   1.000  C
  H354     1.0000 0.55570  0.31959  0.92590  Biso   1.000  H
  H355     1.0000 0.57370  0.32051  0.98741  Biso   1.000  H
  H356     1.0000 0.46499  0.03112  0.40328  Biso   1.000  H
  H357     1.0000 0.44771  0.97770  0.37168  Biso   1.000  H
  C313     1.0000 0.52779  0.99102  0.37120  Biso   1.000  C
  C314     1.0000 0.57571  0.96211  0.19360  Biso   1.000  C
  H358     1.0000 0.57410  0.94430  0.31959  Biso   1.000  H
  H359     1.0000 0.51259  0.92630  0.32051  Biso   1.000  H
  H360     1.0000 0.18041  0.07410  0.05570  Biso   1.000  H
  H361     1.0000 0.17949  0.01259  0.07370  Biso   1.000  H
  C315     1.0000 0.12880  0.02779  0.00898  Biso   1.000  C
  N54      1.0000 0.27629  0.96379  0.95348  Biso   1.000  N
  C316     1.0000 0.18021  0.96319  0.95770  Biso   1.000  C
  H362     1.0000 0.23141  0.94619  0.01800  Biso   1.000  H
  H363     1.0000 0.53112  0.40328  0.96499  Biso   1.000  H
  H364     1.0000 0.47770  0.37168  0.94771  Biso   1.000  H
  C317     1.0000 0.57202  0.14688  0.91062  Biso   1.000  C
  H365     1.0000 0.50790  0.20122  0.90212  Biso   1.000  H
  H366     1.0000 0.55229  0.02230  0.37168  Biso   1.000  H
  H367     1.0000 0.53501  0.96888  0.40328  Biso   1.000  H
  C318     1.0000 0.58938  0.92798  0.14688  Biso   1.000  C
  H368     1.0000 0.59788  0.99210  0.20122  Biso   1.000  H
  H369     1.0000 0.09672  0.03501  0.03112  Biso   1.000  H
  C319     1.0000 0.12880  0.97221  0.99102  Biso   1.000  C
  H370     1.0000 0.12832  0.05229  0.97770  Biso   1.000  H
  C320     1.0000 0.30640  0.92429  0.96211  Biso   1.000  C
  H371     1.0000 0.18041  0.92590  0.94430  Biso   1.000  H
  H372     1.0000 0.17949  0.98741  0.92630  Biso   1.000  H
  C321     1.0000 0.61701  0.13542  0.94049  Biso   1.000  C
  C322     1.0000 0.55951  0.11701  0.86458  Biso   1.000  C
  C323     1.0000 0.55951  0.88299  0.13542  Biso   1.000  C
  C324     1.0000 0.63542  0.94049  0.11701  Biso   1.000  C
  H373     1.0000 0.09672  0.96499  0.96888  Biso   1.000  H
  H374     1.0000 0.12832  0.94771  0.02230  Biso   1.000  H
  C325     1.0000 0.35312  0.91062  0.92798  Biso   1.000  C
  H375     1.0000 0.29878  0.90212  0.99210  Biso   1.000  H
  H376     1.0000 0.62752  0.15811  0.96920  Biso   1.000  H
  C326     1.0000 0.64688  0.08938  0.92798  Biso   1.000  C
  H377     1.0000 0.53080  0.12752  0.84189  Biso   1.000  H
  C327     1.0000 0.58938  0.07202  0.85312  Biso   1.000  C
  H378     1.0000 0.53080  0.87248  0.15811  Biso   1.000  H
  C328     1.0000 0.57202  0.85312  0.08938  Biso   1.000  C
  H379     1.0000 0.65811  0.96920  0.12752  Biso   1.000  H
  C329     1.0000 0.64688  0.91062  0.07202  Biso   1.000  C
  C330     1.0000 0.36458  0.94049  0.88299  Biso   1.000  C
  C331     1.0000 0.38299  0.86458  0.94049  Biso   1.000  C
  C332     1.0000 0.63542  0.05951  0.88299  Biso   1.000  C
  C333     1.0000 0.69360  0.07571  0.96211  Biso   1.000  C
  C334     1.0000 0.57571  0.03789  0.80640  Biso   1.000  C
  C335     1.0000 0.61701  0.86458  0.05951  Biso   1.000  C
  C336     1.0000 0.53789  0.80640  0.07571  Biso   1.000  C
  C337     1.0000 0.69360  0.92429  0.03789  Biso   1.000  C
  H380     1.0000 0.34189  0.96920  0.87248  Biso   1.000  H
  C338     1.0000 0.41062  0.92798  0.85312  Biso   1.000  C
  H381     1.0000 0.37248  0.84189  0.96920  Biso   1.000  H
  C339     1.0000 0.42798  0.85312  0.91062  Biso   1.000  C
  H382     1.0000 0.65811  0.03080  0.87248  Biso   1.000  H
  N55      1.0000 0.72371  0.03621  0.95348  Biso   1.000  N
  H383     1.0000 0.70122  0.09788  0.99210  Biso   1.000  H
  N56      1.0000 0.53621  0.04652  0.77629  Biso   1.000  N
  H384     1.0000 0.59788  0.00790  0.79878  Biso   1.000  H
  H385     1.0000 0.62752  0.84189  0.03080  Biso   1.000  H
  N57      1.0000 0.54652  0.77629  0.03621  Biso   1.000  N
  H386     1.0000 0.50790  0.79878  0.09788  Biso   1.000  H
  N58      1.0000 0.72371  0.96379  0.04652  Biso   1.000  N
  H387     1.0000 0.70122  0.90212  0.00790  Biso   1.000  H
  C340     1.0000 0.44049  0.88299  0.86458  Biso   1.000  C
  C341     1.0000 0.42429  0.96211  0.80640  Biso   1.000  C
  C342     1.0000 0.46211  0.80640  0.92429  Biso   1.000  C
  C343     1.0000 0.77011  0.02719  0.98809  Biso   1.000  C
  C344     1.0000 0.52719  0.01191  0.72989  Biso   1.000  C
  C345     1.0000 0.51191  0.72989  0.02719  Biso   1.000  C
  C346     1.0000 0.77011  0.97281  0.01191  Biso   1.000  C
  H388     1.0000 0.46920  0.87248  0.84189  Biso   1.000  H
  N59      1.0000 0.46379  0.95348  0.77629  Biso   1.000  N
  H389     1.0000 0.40212  0.99210  0.79878  Biso   1.000  H
  N60      1.0000 0.45348  0.77629  0.96379  Biso   1.000  N
  H390     1.0000 0.49210  0.79878  0.90212  Biso   1.000  H
  H391     1.0000 0.76859  0.05381  0.01800  Biso   1.000  H
  C347     1.0000 0.81979  0.03681  0.95770  Biso   1.000  C
  H392     1.0000 0.55381  0.98200  0.73141  Biso   1.000  H
  C348     1.0000 0.47281  0.98809  0.72989  Biso   1.000  C
  C349     1.0000 0.53681  0.04230  0.68021  Biso   1.000  C
  C350     1.0000 0.48809  0.72989  0.97281  Biso   1.000  C
  H393     1.0000 0.48200  0.73141  0.05381  Biso   1.000  H
  C351     1.0000 0.54230  0.68021  0.03681  Biso   1.000  C
  H394     1.0000 0.76859  0.94619  0.98200  Biso   1.000  H
  C352     1.0000 0.81979  0.96319  0.04230  Biso   1.000  C
  H395     1.0000 0.81959  0.07410  0.94430  Biso   1.000  H
  H396     1.0000 0.82051  0.01259  0.92630  Biso   1.000  H
  C353     1.0000 0.87120  0.02779  0.99102  Biso   1.000  C
  C354     1.0000 0.46319  0.95770  0.68021  Biso   1.000  C
  H397     1.0000 0.44619  0.01800  0.73141  Biso   1.000  H
  H398     1.0000 0.57410  0.05570  0.68041  Biso   1.000  H
  H399     1.0000 0.51259  0.07370  0.67949  Biso   1.000  H
  C355     1.0000 0.52779  0.00898  0.62880  Biso   1.000  C
  H400     1.0000 0.51800  0.73141  0.94619  Biso   1.000  H
  C356     1.0000 0.45770  0.68021  0.96319  Biso   1.000  C
  H401     1.0000 0.55570  0.68041  0.07410  Biso   1.000  H
  H402     1.0000 0.57370  0.67949  0.01259  Biso   1.000  H
  C357     1.0000 0.50898  0.62880  0.02779  Biso   1.000  C
  H403     1.0000 0.81959  0.92590  0.05570  Biso   1.000  H
  H404     1.0000 0.82051  0.98741  0.07370  Biso   1.000  H
  C358     1.0000 0.87120  0.97221  0.00898  Biso   1.000  C
  H405     1.0000 0.87168  0.05229  0.02230  Biso   1.000  H
  H406     1.0000 0.90328  0.03501  0.96888  Biso   1.000  H
  H407     1.0000 0.42590  0.94430  0.68041  Biso   1.000  H
  H408     1.0000 0.48741  0.92630  0.67949  Biso   1.000  H
  C359     1.0000 0.47221  0.99102  0.62880  Biso   1.000  C
  H409     1.0000 0.55229  0.97770  0.62832  Biso   1.000  H
  H410     1.0000 0.53501  0.03112  0.59672  Biso   1.000  H
  H411     1.0000 0.44430  0.68041  0.92590  Biso   1.000  H
  H412     1.0000 0.42630  0.67949  0.98741  Biso   1.000  H
  C360     1.0000 0.49102  0.62880  0.97221  Biso   1.000  C
  H413     1.0000 0.53112  0.59672  0.03501  Biso   1.000  H
  H414     1.0000 0.47770  0.62832  0.05229  Biso   1.000  H
  H415     1.0000 0.87168  0.94771  0.97770  Biso   1.000  H
  H416     1.0000 0.90328  0.96499  0.03112  Biso   1.000  H
  H417     1.0000 0.46499  0.96888  0.59672  Biso   1.000  H
  H418     1.0000 0.44771  0.02230  0.62832  Biso   1.000  H
  H419     1.0000 0.46888  0.59672  0.96499  Biso   1.000  H
  H420     1.0000 0.52230  0.62832  0.94771  Biso   1.000  H
  C361     1.0000 0.13542  0.44049  0.11701  Biso   1.000  C
  C362     1.0000 0.08938  0.42798  0.14688  Biso   1.000  C
  H421     1.0000 0.15811  0.46920  0.12752  Biso   1.000  H
  C363     1.0000 0.14688  0.41062  0.07202  Biso   1.000  C
  C364     1.0000 0.05951  0.38299  0.13542  Biso   1.000  C
  C365     1.0000 0.07571  0.46211  0.19360  Biso   1.000  C
  C366     1.0000 0.19360  0.42429  0.03789  Biso   1.000  C
  C367     1.0000 0.11701  0.36458  0.05951  Biso   1.000  C
  H422     1.0000 0.03080  0.37248  0.15811  Biso   1.000  H
  C368     1.0000 0.07202  0.35312  0.08938  Biso   1.000  C
  N61      1.0000 0.03621  0.45348  0.22371  Biso   1.000  N
  H423     1.0000 0.09788  0.49210  0.20122  Biso   1.000  H
  N62      1.0000 0.22371  0.46379  0.04652  Biso   1.000  N
  H424     1.0000 0.20122  0.40212  0.00790  Biso   1.000  H
  H425     1.0000 0.12752  0.34189  0.03080  Biso   1.000  H
  C369     1.0000 0.03789  0.30640  0.07571  Biso   1.000  C
  C370     1.0000 0.02719  0.48809  0.27011  Biso   1.000  C
  C371     1.0000 0.27011  0.47281  0.01191  Biso   1.000  C
  N63      1.0000 0.04652  0.27629  0.03621  Biso   1.000  N
  H426     1.0000 0.00790  0.29878  0.09788  Biso   1.000  H
  H427     1.0000 0.05381  0.51800  0.26859  Biso   1.000  H
  C372     1.0000 0.03681  0.45770  0.31979  Biso   1.000  C
  C373     1.0000 0.97281  0.51191  0.27011  Biso   1.000  C
  C374     1.0000 0.31979  0.46319  0.04230  Biso   1.000  C
  C375     1.0000 0.27011  0.52719  0.98809  Biso   1.000  C
  H428     1.0000 0.26859  0.44619  0.98200  Biso   1.000  H
  C376     1.0000 0.01191  0.22989  0.02719  Biso   1.000  C
  H429     1.0000 0.07410  0.44430  0.31959  Biso   1.000  H
  H430     1.0000 0.01259  0.42630  0.32051  Biso   1.000  H
  C377     1.0000 0.02779  0.49102  0.37120  Biso   1.000  C
  N64      1.0000 0.96379  0.54652  0.22371  Biso   1.000  N
  H431     1.0000 0.94619  0.48200  0.26859  Biso   1.000  H
  C378     1.0000 0.96319  0.54230  0.31979  Biso   1.000  C
  H432     1.0000 0.31959  0.42590  0.05570  Biso   1.000  H
  H433     1.0000 0.32051  0.48741  0.07370  Biso   1.000  H
  C379     1.0000 0.37120  0.47221  0.00898  Biso   1.000  C
  H434     1.0000 0.26859  0.55381  0.01800  Biso   1.000  H
  N65      1.0000 0.22371  0.53621  0.95348  Biso   1.000  N
  C380     1.0000 0.31979  0.53681  0.95770  Biso   1.000  C
  C381     1.0000 0.04230  0.18021  0.03681  Biso   1.000  C
  C382     1.0000 0.98809  0.22989  0.97281  Biso   1.000  C
  H435     1.0000 0.98200  0.23141  0.05381  Biso   1.000  H
  H436     1.0000 0.03501  0.46888  0.40328  Biso   1.000  H
  H437     1.0000 0.05229  0.52230  0.37168  Biso   1.000  H
  C383     1.0000 0.97221  0.50898  0.37120  Biso   1.000  C
  C384     1.0000 0.92429  0.53789  0.19360  Biso   1.000  C
  H438     1.0000 0.92590  0.55570  0.31959  Biso   1.000  H
  H439     1.0000 0.98741  0.57370  0.32051  Biso   1.000  H
  H440     1.0000 0.40328  0.46499  0.03112  Biso   1.000  H
  C385     1.0000 0.37120  0.52779  0.99102  Biso   1.000  C
  H441     1.0000 0.37168  0.44771  0.97770  Biso   1.000  H
  C386     1.0000 0.19360  0.57571  0.96211  Biso   1.000  C
  H442     1.0000 0.31959  0.57410  0.94430  Biso   1.000  H
  H443     1.0000 0.32051  0.51259  0.92630  Biso   1.000  H
  H444     1.0000 0.05570  0.18041  0.07410  Biso   1.000  H
  H445     1.0000 0.07370  0.17949  0.01259  Biso   1.000  H
  C387     1.0000 0.00898  0.12880  0.02779  Biso   1.000  C
  N66      1.0000 0.95348  0.27629  0.96379  Biso   1.000  N
  C388     1.0000 0.95770  0.18021  0.96319  Biso   1.000  C
  H446     1.0000 0.01800  0.23141  0.94619  Biso   1.000  H
  H447     1.0000 0.96499  0.53112  0.40328  Biso   1.000  H
  H448     1.0000 0.94771  0.47770  0.37168  Biso   1.000  H
  C389     1.0000 0.91062  0.57202  0.14688  Biso   1.000  C
  H449     1.0000 0.90212  0.50790  0.20122  Biso   1.000  H
  H450     1.0000 0.37168  0.55229  0.02230  Biso   1.000  H
  H451     1.0000 0.40328  0.53501  0.96888  Biso   1.000  H
  C390     1.0000 0.14688  0.58938  0.92798  Biso   1.000  C
  H452     1.0000 0.20122  0.59788  0.99210  Biso   1.000  H
  H453     1.0000 0.03112  0.09672  0.03501  Biso   1.000  H
  C391     1.0000 0.99102  0.12880  0.97221  Biso   1.000  C
  H454     1.0000 0.97770  0.12832  0.05229  Biso   1.000  H
  C392     1.0000 0.96211  0.30640  0.92429  Biso   1.000  C
  H455     1.0000 0.94430  0.18041  0.92590  Biso   1.000  H
  H456     1.0000 0.92630  0.17949  0.98741  Biso   1.000  H
  C393     1.0000 0.86458  0.55951  0.11701  Biso   1.000  C
  C394     1.0000 0.94049  0.61701  0.13542  Biso   1.000  C
  C395     1.0000 0.11701  0.63542  0.94049  Biso   1.000  C
  C396     1.0000 0.13542  0.55951  0.88299  Biso   1.000  C
  H457     1.0000 0.96888  0.09672  0.96499  Biso   1.000  H
  H458     1.0000 0.02230  0.12832  0.94771  Biso   1.000  H
  C397     1.0000 0.92798  0.35312  0.91062  Biso   1.000  C
  H459     1.0000 0.99210  0.29878  0.90212  Biso   1.000  H
  H460     1.0000 0.84189  0.53080  0.12752  Biso   1.000  H
  C398     1.0000 0.85312  0.58938  0.07202  Biso   1.000  C
  C399     1.0000 0.92798  0.64688  0.08938  Biso   1.000  C
  H461     1.0000 0.96920  0.62752  0.15811  Biso   1.000  H
  H462     1.0000 0.12752  0.65811  0.96920  Biso   1.000  H
  C400     1.0000 0.07202  0.64688  0.91062  Biso   1.000  C
  H463     1.0000 0.15811  0.53080  0.87248  Biso   1.000  H
  C401     1.0000 0.08938  0.57202  0.85312  Biso   1.000  C
  C402     1.0000 0.94049  0.38299  0.86458  Biso   1.000  C
  C403     1.0000 0.88299  0.36458  0.94049  Biso   1.000  C
  C404     1.0000 0.88299  0.63542  0.05951  Biso   1.000  C
  C405     1.0000 0.80640  0.57571  0.03789  Biso   1.000  C
  C406     1.0000 0.96211  0.69360  0.07571  Biso   1.000  C
  C407     1.0000 0.03789  0.69360  0.92429  Biso   1.000  C
  C408     1.0000 0.05951  0.61701  0.86458  Biso   1.000  C
  C409     1.0000 0.07571  0.53789  0.80640  Biso   1.000  C
  H464     1.0000 0.96920  0.37248  0.84189  Biso   1.000  H
  C410     1.0000 0.91062  0.42798  0.85312  Biso   1.000  C
  C411     1.0000 0.85312  0.41062  0.92798  Biso   1.000  C
  H465     1.0000 0.87248  0.34189  0.96920  Biso   1.000  H
  H466     1.0000 0.87248  0.65811  0.03080  Biso   1.000  H
  N67      1.0000 0.77629  0.53621  0.04652  Biso   1.000  N
  H467     1.0000 0.79878  0.59788  0.00790  Biso   1.000  H
  N68      1.0000 0.95348  0.72371  0.03621  Biso   1.000  N
  H468     1.0000 0.99210  0.70122  0.09788  Biso   1.000  H
  N69      1.0000 0.04652  0.72371  0.96379  Biso   1.000  N
  H469     1.0000 0.00790  0.70122  0.90212  Biso   1.000  H
  H470     1.0000 0.03080  0.62752  0.84189  Biso   1.000  H
  N70      1.0000 0.03621  0.54652  0.77629  Biso   1.000  N
  H471     1.0000 0.09788  0.50790  0.79878  Biso   1.000  H
  C412     1.0000 0.86458  0.44049  0.88299  Biso   1.000  C
  C413     1.0000 0.92429  0.46211  0.80640  Biso   1.000  C
  C414     1.0000 0.80640  0.42429  0.96211  Biso   1.000  C
  C415     1.0000 0.72989  0.52719  0.01191  Biso   1.000  C
  C416     1.0000 0.98809  0.77011  0.02719  Biso   1.000  C
  C417     1.0000 0.01191  0.77011  0.97281  Biso   1.000  C
  C418     1.0000 0.02719  0.51191  0.72989  Biso   1.000  C
  H472     1.0000 0.84189  0.46920  0.87248  Biso   1.000  H
  N71      1.0000 0.96379  0.45348  0.77629  Biso   1.000  N
  H473     1.0000 0.90212  0.49210  0.79878  Biso   1.000  H
  N72      1.0000 0.77629  0.46379  0.95348  Biso   1.000  N
  H474     1.0000 0.79878  0.40212  0.99210  Biso   1.000  H
  H475     1.0000 0.73141  0.55381  0.98200  Biso   1.000  H
  C419     1.0000 0.72989  0.47281  0.98809  Biso   1.000  C
  C420     1.0000 0.68021  0.53681  0.04230  Biso   1.000  C
  H476     1.0000 0.01800  0.76859  0.05381  Biso   1.000  H
  C421     1.0000 0.95770  0.81979  0.03681  Biso   1.000  C
  H477     1.0000 0.98200  0.76859  0.94619  Biso   1.000  H
  C422     1.0000 0.04230  0.81979  0.96319  Biso   1.000  C
  C423     1.0000 0.97281  0.48809  0.72989  Biso   1.000  C
  H478     1.0000 0.05381  0.48200  0.73141  Biso   1.000  H
  C424     1.0000 0.03681  0.54230  0.68021  Biso   1.000  C
  C425     1.0000 0.68021  0.46319  0.95770  Biso   1.000  C
  H479     1.0000 0.73141  0.44619  0.01800  Biso   1.000  H
  H480     1.0000 0.68041  0.57410  0.05570  Biso   1.000  H
  H481     1.0000 0.67949  0.51259  0.07370  Biso   1.000  H
  C426     1.0000 0.62880  0.52779  0.00898  Biso   1.000  C
  H482     1.0000 0.94430  0.81959  0.07410  Biso   1.000  H
  H483     1.0000 0.92630  0.82051  0.01259  Biso   1.000  H
  C427     1.0000 0.99102  0.87120  0.02779  Biso   1.000  C
  H484     1.0000 0.05570  0.81959  0.92590  Biso   1.000  H
  H485     1.0000 0.07370  0.82051  0.98741  Biso   1.000  H
  C428     1.0000 0.00898  0.87120  0.97221  Biso   1.000  C
  H486     1.0000 0.94619  0.51800  0.73141  Biso   1.000  H
  C429     1.0000 0.96319  0.45770  0.68021  Biso   1.000  C
  H487     1.0000 0.07410  0.55570  0.68041  Biso   1.000  H
  H488     1.0000 0.01259  0.57370  0.67949  Biso   1.000  H
  C430     1.0000 0.02779  0.50898  0.62880  Biso   1.000  C
  H489     1.0000 0.68041  0.42590  0.94430  Biso   1.000  H
  H490     1.0000 0.67949  0.48741  0.92630  Biso   1.000  H
  C431     1.0000 0.62880  0.47221  0.99102  Biso   1.000  C
  H491     1.0000 0.62832  0.55229  0.97770  Biso   1.000  H
  H492     1.0000 0.59672  0.53501  0.03112  Biso   1.000  H
  H493     1.0000 0.02230  0.87168  0.05229  Biso   1.000  H
  H494     1.0000 0.96888  0.90328  0.03501  Biso   1.000  H
  H495     1.0000 0.97770  0.87168  0.94771  Biso   1.000  H
  H496     1.0000 0.03112  0.90328  0.96499  Biso   1.000  H
  H497     1.0000 0.92590  0.44430  0.68041  Biso   1.000  H
  H498     1.0000 0.98741  0.42630  0.67949  Biso   1.000  H
  C432     1.0000 0.97221  0.49102  0.62880  Biso   1.000  C
  H499     1.0000 0.03501  0.53112  0.59672  Biso   1.000  H
  H500     1.0000 0.05229  0.47770  0.62832  Biso   1.000  H
  H501     1.0000 0.59672  0.46499  0.96888  Biso   1.000  H
  H502     1.0000 0.62832  0.44771  0.02230  Biso   1.000  H
  H503     1.0000 0.96499  0.46888  0.59672  Biso   1.000  H
  H504     1.0000 0.94771  0.52230  0.62832  Biso   1.000  H
  C433     1.0000 0.11701  0.13542  0.44049  Biso   1.000  C
  C434     1.0000 0.14688  0.08938  0.42798  Biso   1.000  C
  H505     1.0000 0.12752  0.15811  0.46920  Biso   1.000  H
  C435     1.0000 0.07202  0.14688  0.41062  Biso   1.000  C
  C436     1.0000 0.13542  0.05951  0.38299  Biso   1.000  C
  C437     1.0000 0.19360  0.07571  0.46211  Biso   1.000  C
  C438     1.0000 0.05951  0.11701  0.36458  Biso   1.000  C
  C439     1.0000 0.03789  0.19360  0.42429  Biso   1.000  C
  H506     1.0000 0.15811  0.03080  0.37248  Biso   1.000  H
  C440     1.0000 0.08938  0.07202  0.35312  Biso   1.000  C
  N73      1.0000 0.22371  0.03621  0.45348  Biso   1.000  N
  H507     1.0000 0.20122  0.09788  0.49210  Biso   1.000  H
  H508     1.0000 0.03080  0.12752  0.34189  Biso   1.000  H
  N74      1.0000 0.04652  0.22371  0.46379  Biso   1.000  N
  H509     1.0000 0.00790  0.20122  0.40212  Biso   1.000  H
  C441     1.0000 0.07571  0.03789  0.30640  Biso   1.000  C
  C442     1.0000 0.27011  0.02719  0.48809  Biso   1.000  C
  C443     1.0000 0.01191  0.27011  0.47281  Biso   1.000  C
  N75      1.0000 0.03621  0.04652  0.27629  Biso   1.000  N
  H510     1.0000 0.09788  0.00790  0.29878  Biso   1.000  H
  H511     1.0000 0.26859  0.05381  0.51800  Biso   1.000  H
  C444     1.0000 0.31979  0.03681  0.45770  Biso   1.000  C
  C445     1.0000 0.27011  0.97281  0.51191  Biso   1.000  C
  C446     1.0000 0.04230  0.31979  0.46319  Biso   1.000  C
  C447     1.0000 0.98809  0.27011  0.52719  Biso   1.000  C
  H512     1.0000 0.98200  0.26859  0.44619  Biso   1.000  H
  C448     1.0000 0.02719  0.01191  0.22989  Biso   1.000  C
  H513     1.0000 0.31959  0.07410  0.44430  Biso   1.000  H
  H514     1.0000 0.32051  0.01259  0.42630  Biso   1.000  H
  C449     1.0000 0.37120  0.02779  0.49102  Biso   1.000  C
  N76      1.0000 0.22371  0.96379  0.54652  Biso   1.000  N
  H515     1.0000 0.26859  0.94619  0.48200  Biso   1.000  H
  C450     1.0000 0.31979  0.96319  0.54230  Biso   1.000  C
  H516     1.0000 0.05570  0.31959  0.42590  Biso   1.000  H
  H517     1.0000 0.07370  0.32051  0.48741  Biso   1.000  H
  C451     1.0000 0.00898  0.37120  0.47221  Biso   1.000  C
  H518     1.0000 0.01800  0.26859  0.55381  Biso   1.000  H
  N77      1.0000 0.95348  0.22371  0.53621  Biso   1.000  N
  C452     1.0000 0.95770  0.31979  0.53681  Biso   1.000  C
  C453     1.0000 0.03681  0.04230  0.18021  Biso   1.000  C
  C454     1.0000 0.97281  0.98809  0.22989  Biso   1.000  C
  H519     1.0000 0.05381  0.98200  0.23141  Biso   1.000  H
  H520     1.0000 0.40328  0.03501  0.46888  Biso   1.000  H
  H521     1.0000 0.37168  0.05229  0.52230  Biso   1.000  H
  C455     1.0000 0.37120  0.97221  0.50898  Biso   1.000  C
  C456     1.0000 0.19360  0.92429  0.53789  Biso   1.000  C
  H522     1.0000 0.31959  0.92590  0.55570  Biso   1.000  H
  H523     1.0000 0.32051  0.98741  0.57370  Biso   1.000  H
  H524     1.0000 0.03112  0.40328  0.46499  Biso   1.000  H
  C457     1.0000 0.99102  0.37120  0.52779  Biso   1.000  C
  H525     1.0000 0.97770  0.37168  0.44771  Biso   1.000  H
  C458     1.0000 0.96211  0.19360  0.57571  Biso   1.000  C
  H526     1.0000 0.94430  0.31959  0.57410  Biso   1.000  H
  H527     1.0000 0.92630  0.32051  0.51259  Biso   1.000  H
  H528     1.0000 0.07410  0.05570  0.18041  Biso   1.000  H
  H529     1.0000 0.01259  0.07370  0.17949  Biso   1.000  H
  C459     1.0000 0.02779  0.00898  0.12880  Biso   1.000  C
  N78      1.0000 0.96379  0.95348  0.27629  Biso   1.000  N
  C460     1.0000 0.96319  0.95770  0.18021  Biso   1.000  C
  H530     1.0000 0.94619  0.01800  0.23141  Biso   1.000  H
  H531     1.0000 0.40328  0.96499  0.53112  Biso   1.000  H
  H532     1.0000 0.37168  0.94771  0.47770  Biso   1.000  H
  C461     1.0000 0.14688  0.91062  0.57202  Biso   1.000  C
  H533     1.0000 0.20122  0.90212  0.50790  Biso   1.000  H
  H534     1.0000 0.02230  0.37168  0.55229  Biso   1.000  H
  H535     1.0000 0.96888  0.40328  0.53501  Biso   1.000  H
  C462     1.0000 0.92798  0.14688  0.58938  Biso   1.000  C
  H536     1.0000 0.99210  0.20122  0.59788  Biso   1.000  H
  H537     1.0000 0.03501  0.03112  0.09672  Biso   1.000  H
  C463     1.0000 0.97221  0.99102  0.12880  Biso   1.000  C
  H538     1.0000 0.05229  0.97770  0.12832  Biso   1.000  H
  C464     1.0000 0.92429  0.96211  0.30640  Biso   1.000  C
  H539     1.0000 0.92590  0.94430  0.18041  Biso   1.000  H
  H540     1.0000 0.98741  0.92630  0.17949  Biso   1.000  H
  C465     1.0000 0.13542  0.94049  0.61701  Biso   1.000  C
  C466     1.0000 0.11701  0.86458  0.55951  Biso   1.000  C
  C467     1.0000 0.88299  0.13542  0.55951  Biso   1.000  C
  C468     1.0000 0.94049  0.11701  0.63542  Biso   1.000  C
  H541     1.0000 0.96499  0.96888  0.09672  Biso   1.000  H
  H542     1.0000 0.94771  0.02230  0.12832  Biso   1.000  H
  C469     1.0000 0.91062  0.92798  0.35312  Biso   1.000  C
  H543     1.0000 0.90212  0.99210  0.29878  Biso   1.000  H
  C470     1.0000 0.08938  0.92798  0.64688  Biso   1.000  C
  H544     1.0000 0.15811  0.96920  0.62752  Biso   1.000  H
  H545     1.0000 0.12752  0.84189  0.53080  Biso   1.000  H
  C471     1.0000 0.07202  0.85312  0.58938  Biso   1.000  C
  H546     1.0000 0.87248  0.15811  0.53080  Biso   1.000  H
  C472     1.0000 0.85312  0.08938  0.57202  Biso   1.000  C
  H547     1.0000 0.96920  0.12752  0.65811  Biso   1.000  H
  C473     1.0000 0.91062  0.07202  0.64688  Biso   1.000  C
  C474     1.0000 0.86458  0.94049  0.38299  Biso   1.000  C
  C475     1.0000 0.94049  0.88299  0.36458  Biso   1.000  C
  C476     1.0000 0.05951  0.88299  0.63542  Biso   1.000  C
  C477     1.0000 0.07571  0.96211  0.69360  Biso   1.000  C
  C478     1.0000 0.03789  0.80640  0.57571  Biso   1.000  C
  C479     1.0000 0.86458  0.05951  0.61701  Biso   1.000  C
  C480     1.0000 0.80640  0.07571  0.53789  Biso   1.000  C
  C481     1.0000 0.92429  0.03789  0.69360  Biso   1.000  C
  H548     1.0000 0.84189  0.96920  0.37248  Biso   1.000  H
  C482     1.0000 0.85312  0.91062  0.42798  Biso   1.000  C
  H549     1.0000 0.96920  0.87248  0.34189  Biso   1.000  H
  C483     1.0000 0.92798  0.85312  0.41062  Biso   1.000  C
  H550     1.0000 0.03080  0.87248  0.65811  Biso   1.000  H
  N79      1.0000 0.03621  0.95348  0.72371  Biso   1.000  N
  H551     1.0000 0.09788  0.99210  0.70122  Biso   1.000  H
  N80      1.0000 0.04652  0.77629  0.53621  Biso   1.000  N
  H552     1.0000 0.00790  0.79878  0.59788  Biso   1.000  H
  H553     1.0000 0.84189  0.03080  0.62752  Biso   1.000  H
  N81      1.0000 0.77629  0.03621  0.54652  Biso   1.000  N
  H554     1.0000 0.79878  0.09788  0.50790  Biso   1.000  H
  N82      1.0000 0.96379  0.04652  0.72371  Biso   1.000  N
  H555     1.0000 0.90212  0.00790  0.70122  Biso   1.000  H
  C484     1.0000 0.80640  0.92429  0.46211  Biso   1.000  C
  C485     1.0000 0.88299  0.86458  0.44049  Biso   1.000  C
  C486     1.0000 0.96211  0.80640  0.42429  Biso   1.000  C
  C487     1.0000 0.02719  0.98809  0.77011  Biso   1.000  C
  C488     1.0000 0.01191  0.72989  0.52719  Biso   1.000  C
  C489     1.0000 0.72989  0.02719  0.51191  Biso   1.000  C
  C490     1.0000 0.97281  0.01191  0.77011  Biso   1.000  C
  N83      1.0000 0.77629  0.96379  0.45348  Biso   1.000  N
  H556     1.0000 0.79878  0.90212  0.49210  Biso   1.000  H
  H557     1.0000 0.87248  0.84189  0.46920  Biso   1.000  H
  N84      1.0000 0.95348  0.77629  0.46379  Biso   1.000  N
  H558     1.0000 0.99210  0.79878  0.40212  Biso   1.000  H
  H559     1.0000 0.05381  0.01800  0.76859  Biso   1.000  H
  C491     1.0000 0.03681  0.95770  0.81979  Biso   1.000  C
  C492     1.0000 0.98809  0.72989  0.47281  Biso   1.000  C
  H560     1.0000 0.98200  0.73141  0.55381  Biso   1.000  H
  C493     1.0000 0.04230  0.68021  0.53681  Biso   1.000  C
  C494     1.0000 0.72989  0.97281  0.48809  Biso   1.000  C
  H561     1.0000 0.73141  0.05381  0.48200  Biso   1.000  H
  C495     1.0000 0.68021  0.03681  0.54230  Biso   1.000  C
  H562     1.0000 0.94619  0.98200  0.76859  Biso   1.000  H
  C496     1.0000 0.96319  0.04230  0.81979  Biso   1.000  C
  H563     1.0000 0.07410  0.94430  0.81959  Biso   1.000  H
  H564     1.0000 0.01259  0.92630  0.82051  Biso   1.000  H
  C497     1.0000 0.02779  0.99102  0.87120  Biso   1.000  C
  C498     1.0000 0.95770  0.68021  0.46319  Biso   1.000  C
  H565     1.0000 0.01800  0.73141  0.44619  Biso   1.000  H
  H566     1.0000 0.05570  0.68041  0.57410  Biso   1.000  H
  H567     1.0000 0.07370  0.67949  0.51259  Biso   1.000  H
  C499     1.0000 0.00898  0.62880  0.52779  Biso   1.000  C
  H568     1.0000 0.73141  0.94619  0.51800  Biso   1.000  H
  C500     1.0000 0.68021  0.96319  0.45770  Biso   1.000  C
  C501     1.0000 0.62880  0.02779  0.50898  Biso   1.000  C
  H569     1.0000 0.68041  0.07410  0.55570  Biso   1.000  H
  H570     1.0000 0.67949  0.01259  0.57370  Biso   1.000  H
  H571     1.0000 0.92590  0.05570  0.81959  Biso   1.000  H
  H572     1.0000 0.98741  0.07370  0.82051  Biso   1.000  H
  C502     1.0000 0.97221  0.00898  0.87120  Biso   1.000  C
  H573     1.0000 0.05229  0.02230  0.87168  Biso   1.000  H
  H574     1.0000 0.03501  0.96888  0.90328  Biso   1.000  H
  H575     1.0000 0.94430  0.68041  0.42590  Biso   1.000  H
  H576     1.0000 0.92630  0.67949  0.48741  Biso   1.000  H
  C503     1.0000 0.99102  0.62880  0.47221  Biso   1.000  C
  H577     1.0000 0.97770  0.62832  0.55229  Biso   1.000  H
  H578     1.0000 0.03112  0.59672  0.53501  Biso   1.000  H
  H579     1.0000 0.68041  0.92590  0.44430  Biso   1.000  H
  H580     1.0000 0.67949  0.98741  0.42630  Biso   1.000  H
  C504     1.0000 0.62880  0.97221  0.49102  Biso   1.000  C
  H581     1.0000 0.59672  0.03501  0.53112  Biso   1.000  H
  H582     1.0000 0.62832  0.05229  0.47770  Biso   1.000  H
  H583     1.0000 0.94771  0.97770  0.87168  Biso   1.000  H
  H584     1.0000 0.96499  0.03112  0.90328  Biso   1.000  H
  H585     1.0000 0.96888  0.59672  0.46499  Biso   1.000  H
  H586     1.0000 0.02230  0.62832  0.44771  Biso   1.000  H
  H587     1.0000 0.59672  0.96499  0.46888  Biso   1.000  H
  H588     1.0000 0.62832  0.94771  0.52230  Biso   1.000  H
  C505     1.0000 0.75900  0.72219  0.37882  Biso   1.000  C
  C506     1.0000 0.74100  0.77781  0.37882  Biso   1.000  C
  C507     1.0000 0.79228  0.71321  0.43019  Biso   1.000  C
  H589     1.0000 0.78110  0.71501  0.34670  Biso   1.000  H
  H590     1.0000 0.72768  0.69769  0.37830  Biso   1.000  H
  C508     1.0000 0.70772  0.78679  0.43019  Biso   1.000  C
  H591     1.0000 0.71890  0.78499  0.34670  Biso   1.000  H
  H592     1.0000 0.77232  0.80231  0.37830  Biso   1.000  H
  C509     1.0000 0.76189  0.72279  0.47987  Biso   1.000  C
  H593     1.0000 0.80572  0.67592  0.43039  Biso   1.000  H
  H594     1.0000 0.82368  0.73739  0.42951  Biso   1.000  H
  C510     1.0000 0.73811  0.77721  0.47987  Biso   1.000  C
  H595     1.0000 0.69428  0.82408  0.43039  Biso   1.000  H
  H596     1.0000 0.67632  0.76261  0.42951  Biso   1.000  H
  N85      1.0000 0.79650  0.71381  0.52627  Biso   1.000  N
  H597     1.0000 0.73202  0.69621  0.48139  Biso   1.000  H
  N86      1.0000 0.70350  0.78619  0.52627  Biso   1.000  N
  H598     1.0000 0.76798  0.80379  0.48139  Biso   1.000  H
  C511     1.0000 0.78791  0.67431  0.55642  Biso   1.000  C
  C512     1.0000 0.71209  0.82569  0.55642  Biso   1.000  C
  C513     1.0000 0.82200  0.66060  0.60310  Biso   1.000  C
  H599     1.0000 0.75792  0.65210  0.54880  Biso   1.000  H
  C514     1.0000 0.67800  0.83940  0.60310  Biso   1.000  C
  H600     1.0000 0.74208  0.84790  0.54880  Biso   1.000  H
  C515     1.0000 0.80949  0.61460  0.63301  Biso   1.000  C
  C516     1.0000 0.86699  0.69051  0.61460  Biso   1.000  C
  C517     1.0000 0.69051  0.88540  0.63301  Biso   1.000  C
  C518     1.0000 0.63301  0.80949  0.61460  Biso   1.000  C
  H601     1.0000 0.78082  0.59191  0.62250  Biso   1.000  H
  C519     1.0000 0.83940  0.60310  0.67800  Biso   1.000  C
  H602     1.0000 0.87750  0.71918  0.59191  Biso   1.000  H
  C520     1.0000 0.89690  0.67800  0.66060  Biso   1.000  C
  H603     1.0000 0.71918  0.90809  0.62250  Biso   1.000  H
  C521     1.0000 0.66060  0.89690  0.67800  Biso   1.000  C
  C522     1.0000 0.60310  0.82200  0.66060  Biso   1.000  C
  H604     1.0000 0.62250  0.78082  0.59191  Biso   1.000  H
  C523     1.0000 0.82569  0.55642  0.71209  Biso   1.000  C
  C524     1.0000 0.88540  0.63301  0.69051  Biso   1.000  C
  C525     1.0000 0.94358  0.71209  0.67431  Biso   1.000  C
  C526     1.0000 0.61460  0.86699  0.69051  Biso   1.000  C
  C527     1.0000 0.67431  0.94358  0.71209  Biso   1.000  C
  C528     1.0000 0.55642  0.78791  0.67431  Biso   1.000  C
  N87      1.0000 0.78619  0.52627  0.70350  Biso   1.000  N
  H605     1.0000 0.84790  0.54880  0.74208  Biso   1.000  H
  H606     1.0000 0.90809  0.62250  0.71918  Biso   1.000  H
  N88      1.0000 0.97373  0.70350  0.71381  Biso   1.000  N
  H607     1.0000 0.95120  0.74208  0.65210  Biso   1.000  H
  H608     1.0000 0.59191  0.87750  0.71918  Biso   1.000  H
  N89      1.0000 0.71381  0.97373  0.70350  Biso   1.000  N
  H609     1.0000 0.65210  0.95120  0.74208  Biso   1.000  H
  N90      1.0000 0.52627  0.79650  0.71381  Biso   1.000  N
  H610     1.0000 0.54880  0.75792  0.65210  Biso   1.000  H
  C529     1.0000 0.77721  0.47987  0.73811  Biso   1.000  C
  C530     1.0000 0.02013  0.73811  0.72279  Biso   1.000  C
  C531     1.0000 0.72279  0.02013  0.73811  Biso   1.000  C
  C532     1.0000 0.47987  0.76189  0.72279  Biso   1.000  C
  C533     1.0000 0.72279  0.47987  0.76189  Biso   1.000  C
  H611     1.0000 0.80379  0.48139  0.76798  Biso   1.000  H
  C534     1.0000 0.78679  0.43019  0.70772  Biso   1.000  C
  C535     1.0000 0.02013  0.76189  0.77721  Biso   1.000  C
  H612     1.0000 0.01861  0.76798  0.69621  Biso   1.000  H
  C536     1.0000 0.06981  0.70772  0.71321  Biso   1.000  C
  H613     1.0000 0.69621  0.01861  0.76798  Biso   1.000  H
  C537     1.0000 0.71321  0.06981  0.70772  Biso   1.000  C
  C538     1.0000 0.77721  0.02013  0.76189  Biso   1.000  C
  C539     1.0000 0.47987  0.73811  0.77721  Biso   1.000  C
  H614     1.0000 0.48139  0.73202  0.69621  Biso   1.000  H
  C540     1.0000 0.43019  0.79228  0.71321  Biso   1.000  C
  N91      1.0000 0.71381  0.52627  0.79650  Biso   1.000  N
  H615     1.0000 0.69621  0.48139  0.73202  Biso   1.000  H
  C541     1.0000 0.71321  0.43019  0.79228  Biso   1.000  C
  H616     1.0000 0.82408  0.43039  0.69428  Biso   1.000  H
  H617     1.0000 0.76261  0.42951  0.67632  Biso   1.000  H
  C542     1.0000 0.77781  0.37882  0.74100  Biso   1.000  C
  N92      1.0000 0.97373  0.79650  0.78619  Biso   1.000  N
  H618     1.0000 0.01861  0.73202  0.80379  Biso   1.000  H
  C543     1.0000 0.06981  0.79228  0.78679  Biso   1.000  C
  H619     1.0000 0.06961  0.69428  0.67592  Biso   1.000  H
  H620     1.0000 0.07049  0.67632  0.73739  Biso   1.000  H
  C544     1.0000 0.12118  0.74100  0.72219  Biso   1.000  C
  H621     1.0000 0.67592  0.06961  0.69428  Biso   1.000  H
  H622     1.0000 0.73739  0.07049  0.67632  Biso   1.000  H
  C545     1.0000 0.72219  0.12118  0.74100  Biso   1.000  C
  N93      1.0000 0.78619  0.97373  0.79650  Biso   1.000  N
  H623     1.0000 0.80379  0.01861  0.73202  Biso   1.000  H
  C546     1.0000 0.78679  0.06981  0.79228  Biso   1.000  C
  N94      1.0000 0.52627  0.70350  0.78619  Biso   1.000  N
  H624     1.0000 0.48139  0.76798  0.80379  Biso   1.000  H
  C547     1.0000 0.43019  0.70772  0.78679  Biso   1.000  C
  H625     1.0000 0.43039  0.80572  0.67592  Biso   1.000  H
  H626     1.0000 0.42951  0.82368  0.73739  Biso   1.000  H
  C548     1.0000 0.37882  0.75900  0.72219  Biso   1.000  C
  C549     1.0000 0.67431  0.55642  0.78791  Biso   1.000  C
  H627     1.0000 0.67592  0.43039  0.80572  Biso   1.000  H
  H628     1.0000 0.73739  0.42951  0.82368  Biso   1.000  H
  C550     1.0000 0.72219  0.37882  0.75900  Biso   1.000  C
  H629     1.0000 0.78499  0.34670  0.71890  Biso   1.000  H
  H630     1.0000 0.80231  0.37830  0.77232  Biso   1.000  H
  C551     1.0000 0.94358  0.78791  0.82569  Biso   1.000  C
  H631     1.0000 0.06961  0.80572  0.82408  Biso   1.000  H
  H632     1.0000 0.07049  0.82368  0.76261  Biso   1.000  H
  C552     1.0000 0.12118  0.75900  0.77781  Biso   1.000  C
  H633     1.0000 0.15330  0.71890  0.71501  Biso   1.000  H
  H634     1.0000 0.12170  0.77232  0.69769  Biso   1.000  H
  H635     1.0000 0.71501  0.15330  0.71890  Biso   1.000  H
  H636     1.0000 0.69769  0.12170  0.77232  Biso   1.000  H
  C553     1.0000 0.77781  0.12118  0.75900  Biso   1.000  C
  C554     1.0000 0.82569  0.94358  0.78791  Biso   1.000  C
  H637     1.0000 0.82408  0.06961  0.80572  Biso   1.000  H
  H638     1.0000 0.76261  0.07049  0.82368  Biso   1.000  H
  C555     1.0000 0.55642  0.71209  0.82569  Biso   1.000  C
  H639     1.0000 0.43039  0.69428  0.82408  Biso   1.000  H
  H640     1.0000 0.42951  0.67632  0.76261  Biso   1.000  H
  C556     1.0000 0.37882  0.74100  0.77781  Biso   1.000  C
  H641     1.0000 0.34670  0.78110  0.71501  Biso   1.000  H
  H642     1.0000 0.37830  0.72768  0.69769  Biso   1.000  H
  C557     1.0000 0.66060  0.60310  0.82200  Biso   1.000  C
  H643     1.0000 0.65210  0.54880  0.75792  Biso   1.000  H
  H644     1.0000 0.71501  0.34670  0.78110  Biso   1.000  H
  H645     1.0000 0.69769  0.37830  0.72768  Biso   1.000  H
  C558     1.0000 0.89690  0.82200  0.83940  Biso   1.000  C
  H646     1.0000 0.95120  0.75792  0.84790  Biso   1.000  H
  H647     1.0000 0.15330  0.78110  0.78499  Biso   1.000  H
  H648     1.0000 0.12170  0.72768  0.80231  Biso   1.000  H
  H649     1.0000 0.78499  0.15330  0.78110  Biso   1.000  H
  H650     1.0000 0.80231  0.12170  0.72768  Biso   1.000  H
  C559     1.0000 0.83940  0.89690  0.82200  Biso   1.000  C
  H651     1.0000 0.84790  0.95120  0.75792  Biso   1.000  H
  C560     1.0000 0.60310  0.67800  0.83940  Biso   1.000  C
  H652     1.0000 0.54880  0.74208  0.84790  Biso   1.000  H
  H653     1.0000 0.34670  0.71890  0.78499  Biso   1.000  H
  H654     1.0000 0.37830  0.77232  0.80231  Biso   1.000  H
  C561     1.0000 0.61460  0.63301  0.80949  Biso   1.000  C
  C562     1.0000 0.69051  0.61460  0.86699  Biso   1.000  C
  C563     1.0000 0.86699  0.80949  0.88540  Biso   1.000  C
  C564     1.0000 0.88540  0.86699  0.80949  Biso   1.000  C
  C565     1.0000 0.80949  0.88540  0.86699  Biso   1.000  C
  C566     1.0000 0.63301  0.69051  0.88540  Biso   1.000  C
  H655     1.0000 0.59191  0.62250  0.78082  Biso   1.000  H
  H656     1.0000 0.71918  0.59191  0.87750  Biso   1.000  H
  C567     1.0000 0.67800  0.66060  0.89690  Biso   1.000  C
  H657     1.0000 0.87750  0.78082  0.90809  Biso   1.000  H
  C568     1.0000 0.82200  0.83940  0.89690  Biso   1.000  C
  H658     1.0000 0.90809  0.87750  0.78082  Biso   1.000  H
  H659     1.0000 0.78082  0.90809  0.87750  Biso   1.000  H
  H660     1.0000 0.62250  0.71918  0.90809  Biso   1.000  H
  C569     1.0000 0.71209  0.67431  0.94358  Biso   1.000  C
  C570     1.0000 0.78791  0.82569  0.94358  Biso   1.000  C
  N95      1.0000 0.70350  0.71381  0.97373  Biso   1.000  N
  H661     1.0000 0.74208  0.65210  0.95120  Biso   1.000  H
  N96      1.0000 0.79650  0.78619  0.97373  Biso   1.000  N
  H662     1.0000 0.75792  0.84790  0.95120  Biso   1.000  H
  C571     1.0000 0.73811  0.72279  0.02013  Biso   1.000  C
  C572     1.0000 0.76189  0.77721  0.02013  Biso   1.000  C
  H663     1.0000 0.76798  0.69621  0.01861  Biso   1.000  H
  C573     1.0000 0.70772  0.71321  0.06981  Biso   1.000  C
  H664     1.0000 0.73202  0.80379  0.01861  Biso   1.000  H
  C574     1.0000 0.79228  0.78679  0.06981  Biso   1.000  C
  H665     1.0000 0.69428  0.67592  0.06961  Biso   1.000  H
  H666     1.0000 0.67632  0.73739  0.07049  Biso   1.000  H
  C575     1.0000 0.74100  0.72219  0.12118  Biso   1.000  C
  H667     1.0000 0.80572  0.82408  0.06961  Biso   1.000  H
  H668     1.0000 0.82368  0.76261  0.07049  Biso   1.000  H
  C576     1.0000 0.75900  0.77781  0.12118  Biso   1.000  C
  H669     1.0000 0.71890  0.71501  0.15330  Biso   1.000  H
  H670     1.0000 0.77232  0.69769  0.12170  Biso   1.000  H
  H671     1.0000 0.78110  0.78499  0.15330  Biso   1.000  H
  H672     1.0000 0.72768  0.80231  0.12170  Biso   1.000  H
