data_image0
_cell_length_a       24.938
_cell_length_b       24.938
_cell_length_c       24.938
_cell_angle_alpha    90
_cell_angle_beta     90
_cell_angle_gamma    90

_symmetry_space_group_name_H-M    "P 1"
_symmetry_int_tables_number       1

loop_
  _symmetry_equiv_pos_as_xyz
  'x, y, z'

loop_
  _atom_site_label
  _atom_site_occupancy
  _atom_site_fract_x
  _atom_site_fract_y
  _atom_site_fract_z
  _atom_site_thermal_displace_type
  _atom_site_B_iso_or_equiv
  _atom_site_type_symbol
  C1       1.0000 0.44049  0.38299  0.36458  Biso   1.000  C
  H1       1.0000 0.46920  0.37248  0.34189  Biso   1.000  H
  C2       1.0000 0.42798  0.35312  0.41062  Biso   1.000  C
  C3       1.0000 0.41062  0.42798  0.35312  Biso   1.000  C
  C4       1.0000 0.38299  0.36458  0.44049  Biso   1.000  C
  C5       1.0000 0.46211  0.30640  0.42429  Biso   1.000  C
  C6       1.0000 0.36458  0.44049  0.38299  Biso   1.000  C
  C7       1.0000 0.42429  0.46211  0.30640  Biso   1.000  C
  H2       1.0000 0.37248  0.34189  0.46920  Biso   1.000  H
  C8       1.0000 0.35312  0.41062  0.42798  Biso   1.000  C
  N1       1.0000 0.45348  0.27629  0.46379  Biso   1.000  N
  H3       1.0000 0.49210  0.29878  0.40212  Biso   1.000  H
  H4       1.0000 0.34189  0.46920  0.37248  Biso   1.000  H
  N2       1.0000 0.46379  0.45348  0.27629  Biso   1.000  N
  H5       1.0000 0.40212  0.49210  0.29878  Biso   1.000  H
  C9       1.0000 0.30640  0.42429  0.46211  Biso   1.000  C
  C10      1.0000 0.48809  0.22989  0.47281  Biso   1.000  C
  C11      1.0000 0.47281  0.48809  0.22989  Biso   1.000  C
  N3       1.0000 0.27629  0.46379  0.45348  Biso   1.000  N
  H6       1.0000 0.29878  0.40212  0.49210  Biso   1.000  H
  C12      1.0000 0.51191  0.22989  0.52719  Biso   1.000  C
  H7       1.0000 0.51800  0.23141  0.44619  Biso   1.000  H
  C13      1.0000 0.45770  0.18021  0.46319  Biso   1.000  C
  C14      1.0000 0.52719  0.51191  0.22989  Biso   1.000  C
  H8       1.0000 0.44619  0.51800  0.23141  Biso   1.000  H
  C15      1.0000 0.46319  0.45770  0.18021  Biso   1.000  C
  C16      1.0000 0.22989  0.47281  0.48809  Biso   1.000  C
  N4       1.0000 0.54652  0.27629  0.53621  Biso   1.000  N
  H9       1.0000 0.48200  0.23141  0.55381  Biso   1.000  H
  C17      1.0000 0.54230  0.18021  0.53681  Biso   1.000  C
  H10      1.0000 0.44430  0.18041  0.42590  Biso   1.000  H
  H11      1.0000 0.42630  0.17949  0.48741  Biso   1.000  H
  C18      1.0000 0.49102  0.12880  0.47221  Biso   1.000  C
  N5       1.0000 0.53621  0.54652  0.27629  Biso   1.000  N
  H12      1.0000 0.55381  0.48200  0.23141  Biso   1.000  H
  C19      1.0000 0.53681  0.54230  0.18021  Biso   1.000  C
  H13      1.0000 0.42590  0.44430  0.18041  Biso   1.000  H
  H14      1.0000 0.48741  0.42630  0.17949  Biso   1.000  H
  C20      1.0000 0.47221  0.49102  0.12880  Biso   1.000  C
  C21      1.0000 0.22989  0.52719  0.51191  Biso   1.000  C
  H15      1.0000 0.23141  0.44619  0.51800  Biso   1.000  H
  C22      1.0000 0.18021  0.46319  0.45770  Biso   1.000  C
  C23      1.0000 0.53789  0.30640  0.57571  Biso   1.000  C
  H16      1.0000 0.55570  0.18041  0.57410  Biso   1.000  H
  H17      1.0000 0.57370  0.17949  0.51259  Biso   1.000  H
  C24      1.0000 0.50898  0.12880  0.52779  Biso   1.000  C
  H18      1.0000 0.46888  0.09672  0.46499  Biso   1.000  H
  H19      1.0000 0.52230  0.12832  0.44771  Biso   1.000  H
  C25      1.0000 0.57571  0.53789  0.30640  Biso   1.000  C
  H20      1.0000 0.57410  0.55570  0.18041  Biso   1.000  H
  H21      1.0000 0.51259  0.57370  0.17949  Biso   1.000  H
  C26      1.0000 0.52779  0.50898  0.12880  Biso   1.000  C
  H22      1.0000 0.46499  0.46888  0.09672  Biso   1.000  H
  H23      1.0000 0.44771  0.52230  0.12832  Biso   1.000  H
  N6       1.0000 0.27629  0.53621  0.54652  Biso   1.000  N
  H24      1.0000 0.23141  0.55381  0.48200  Biso   1.000  H
  C27      1.0000 0.18021  0.53681  0.54230  Biso   1.000  C
  H25      1.0000 0.18041  0.42590  0.44430  Biso   1.000  H
  H26      1.0000 0.17949  0.48741  0.42630  Biso   1.000  H
  C28      1.0000 0.12880  0.47221  0.49102  Biso   1.000  C
  C29      1.0000 0.57202  0.35312  0.58938  Biso   1.000  C
  H27      1.0000 0.50790  0.29878  0.59788  Biso   1.000  H
  H28      1.0000 0.53112  0.09672  0.53501  Biso   1.000  H
  H29      1.0000 0.47770  0.12832  0.55229  Biso   1.000  H
  C30      1.0000 0.58938  0.57202  0.35312  Biso   1.000  C
  H30      1.0000 0.59788  0.50790  0.29878  Biso   1.000  H
  H31      1.0000 0.53501  0.53112  0.09672  Biso   1.000  H
  H32      1.0000 0.55229  0.47770  0.12832  Biso   1.000  H
  C31      1.0000 0.30640  0.57571  0.53789  Biso   1.000  C
  H33      1.0000 0.18041  0.57410  0.55570  Biso   1.000  H
  H34      1.0000 0.17949  0.51259  0.57370  Biso   1.000  H
  C32      1.0000 0.12880  0.52779  0.50898  Biso   1.000  C
  H35      1.0000 0.09672  0.46499  0.46888  Biso   1.000  H
  H36      1.0000 0.12832  0.44771  0.52230  Biso   1.000  H
  C33      1.0000 0.61701  0.36458  0.55951  Biso   1.000  C
  C34      1.0000 0.55951  0.38299  0.63542  Biso   1.000  C
  C35      1.0000 0.63542  0.55951  0.38299  Biso   1.000  C
  C36      1.0000 0.55951  0.61701  0.36458  Biso   1.000  C
  C37      1.0000 0.35312  0.58938  0.57202  Biso   1.000  C
  H37      1.0000 0.29878  0.59788  0.50790  Biso   1.000  H
  H38      1.0000 0.09672  0.53501  0.53112  Biso   1.000  H
  H39      1.0000 0.12832  0.55229  0.47770  Biso   1.000  H
  H40      1.0000 0.62752  0.34189  0.53080  Biso   1.000  H
  C38      1.0000 0.64688  0.41062  0.57202  Biso   1.000  C
  H41      1.0000 0.53080  0.37248  0.65811  Biso   1.000  H
  C39      1.0000 0.58938  0.42798  0.64688  Biso   1.000  C
  H42      1.0000 0.65811  0.53080  0.37248  Biso   1.000  H
  C40      1.0000 0.64688  0.58938  0.42798  Biso   1.000  C
  H43      1.0000 0.53080  0.62752  0.34189  Biso   1.000  H
  C41      1.0000 0.57202  0.64688  0.41062  Biso   1.000  C
  C42      1.0000 0.38299  0.63542  0.55951  Biso   1.000  C
  C43      1.0000 0.36458  0.55951  0.61701  Biso   1.000  C
  C44      1.0000 0.63542  0.44049  0.61701  Biso   1.000  C
  C45      1.0000 0.69360  0.42429  0.53789  Biso   1.000  C
  C46      1.0000 0.57571  0.46211  0.69360  Biso   1.000  C
  C47      1.0000 0.61701  0.63542  0.44049  Biso   1.000  C
  C48      1.0000 0.69360  0.57571  0.46211  Biso   1.000  C
  C49      1.0000 0.53789  0.69360  0.42429  Biso   1.000  C
  H44      1.0000 0.37248  0.65811  0.53080  Biso   1.000  H
  C50      1.0000 0.42798  0.64688  0.58938  Biso   1.000  C
  H45      1.0000 0.34189  0.53080  0.62752  Biso   1.000  H
  C51      1.0000 0.41062  0.57202  0.64688  Biso   1.000  C
  H46      1.0000 0.65811  0.46920  0.62752  Biso   1.000  H
  N7       1.0000 0.72371  0.46379  0.54652  Biso   1.000  N
  H47      1.0000 0.70122  0.40212  0.50790  Biso   1.000  H
  N8       1.0000 0.53621  0.45348  0.72371  Biso   1.000  N
  H48      1.0000 0.59788  0.49210  0.70122  Biso   1.000  H
  H49      1.0000 0.62752  0.65811  0.46920  Biso   1.000  H
  N9       1.0000 0.72371  0.53621  0.45348  Biso   1.000  N
  H50      1.0000 0.70122  0.59788  0.49210  Biso   1.000  H
  N10      1.0000 0.54652  0.72371  0.46379  Biso   1.000  N
  H51      1.0000 0.50790  0.70122  0.40212  Biso   1.000  H
  C52      1.0000 0.44049  0.61701  0.63542  Biso   1.000  C
  C53      1.0000 0.46211  0.69360  0.57571  Biso   1.000  C
  C54      1.0000 0.42429  0.53789  0.69360  Biso   1.000  C
  C55      1.0000 0.77011  0.47281  0.51191  Biso   1.000  C
  C56      1.0000 0.52719  0.48809  0.77011  Biso   1.000  C
  C57      1.0000 0.77011  0.52719  0.48809  Biso   1.000  C
  C58      1.0000 0.51191  0.77011  0.47281  Biso   1.000  C
  H52      1.0000 0.46920  0.62752  0.65811  Biso   1.000  H
  N11      1.0000 0.45348  0.72371  0.53621  Biso   1.000  N
  H53      1.0000 0.49210  0.70122  0.59788  Biso   1.000  H
  N12      1.0000 0.46379  0.54652  0.72371  Biso   1.000  N
  H54      1.0000 0.40212  0.50790  0.70122  Biso   1.000  H
  H55      1.0000 0.76859  0.44619  0.48200  Biso   1.000  H
  C59      1.0000 0.81979  0.46319  0.54230  Biso   1.000  C
  C60      1.0000 0.47281  0.51191  0.77011  Biso   1.000  C
  H56      1.0000 0.55381  0.51800  0.76859  Biso   1.000  H
  C61      1.0000 0.53681  0.45770  0.81979  Biso   1.000  C
  H57      1.0000 0.76859  0.55381  0.51800  Biso   1.000  H
  C62      1.0000 0.81979  0.53681  0.45770  Biso   1.000  C
  C63      1.0000 0.48809  0.77011  0.52719  Biso   1.000  C
  H58      1.0000 0.48200  0.76859  0.44619  Biso   1.000  H
  C64      1.0000 0.54230  0.81979  0.46319  Biso   1.000  C
  H59      1.0000 0.81959  0.42590  0.55570  Biso   1.000  H
  H60      1.0000 0.82051  0.48741  0.57370  Biso   1.000  H
  C65      1.0000 0.87120  0.47221  0.50898  Biso   1.000  C
  H61      1.0000 0.44619  0.48200  0.76859  Biso   1.000  H
  C66      1.0000 0.46319  0.54230  0.81979  Biso   1.000  C
  H62      1.0000 0.57410  0.44430  0.81959  Biso   1.000  H
  H63      1.0000 0.51259  0.42630  0.82051  Biso   1.000  H
  C67      1.0000 0.52779  0.49102  0.87120  Biso   1.000  C
  H64      1.0000 0.81959  0.57410  0.44430  Biso   1.000  H
  H65      1.0000 0.82051  0.51259  0.42630  Biso   1.000  H
  C68      1.0000 0.87120  0.52779  0.49102  Biso   1.000  C
  H66      1.0000 0.51800  0.76859  0.55381  Biso   1.000  H
  C69      1.0000 0.45770  0.81979  0.53681  Biso   1.000  C
  H67      1.0000 0.55570  0.81959  0.42590  Biso   1.000  H
  H68      1.0000 0.57370  0.82051  0.48741  Biso   1.000  H
  C70      1.0000 0.50898  0.87120  0.47221  Biso   1.000  C
  H69      1.0000 0.90328  0.46499  0.53112  Biso   1.000  H
  H70      1.0000 0.87168  0.44771  0.47770  Biso   1.000  H
  H71      1.0000 0.42590  0.55570  0.81959  Biso   1.000  H
  H72      1.0000 0.48741  0.57370  0.82051  Biso   1.000  H
  C71      1.0000 0.47221  0.50898  0.87120  Biso   1.000  C
  H73      1.0000 0.53501  0.46888  0.90328  Biso   1.000  H
  H74      1.0000 0.55229  0.52230  0.87168  Biso   1.000  H
  H75      1.0000 0.90328  0.53501  0.46888  Biso   1.000  H
  H76      1.0000 0.87168  0.55229  0.52230  Biso   1.000  H
  H77      1.0000 0.44430  0.81959  0.57410  Biso   1.000  H
  H78      1.0000 0.42630  0.82051  0.51259  Biso   1.000  H
  C72      1.0000 0.49102  0.87120  0.52779  Biso   1.000  C
  H79      1.0000 0.53112  0.90328  0.46499  Biso   1.000  H
  H80      1.0000 0.47770  0.87168  0.44771  Biso   1.000  H
  H81      1.0000 0.46499  0.53112  0.90328  Biso   1.000  H
  H82      1.0000 0.44771  0.47770  0.87168  Biso   1.000  H
  H83      1.0000 0.46888  0.90328  0.53501  Biso   1.000  H
  H84      1.0000 0.52230  0.87168  0.55229  Biso   1.000  H
  C73      1.0000 0.37882  0.24100  0.27781  Biso   1.000  C
  C74      1.0000 0.43019  0.20772  0.28679  Biso   1.000  C
  C75      1.0000 0.37882  0.25900  0.22219  Biso   1.000  C
  H85      1.0000 0.34670  0.21890  0.28499  Biso   1.000  H
  H86      1.0000 0.37830  0.27232  0.30231  Biso   1.000  H
  C76      1.0000 0.47987  0.23811  0.27721  Biso   1.000  C
  H87      1.0000 0.43039  0.19428  0.32408  Biso   1.000  H
  H88      1.0000 0.42951  0.17632  0.26261  Biso   1.000  H
  C77      1.0000 0.43019  0.29228  0.21321  Biso   1.000  C
  H89      1.0000 0.34670  0.28110  0.21501  Biso   1.000  H
  H90      1.0000 0.37830  0.22768  0.19769  Biso   1.000  H
  N13      1.0000 0.52627  0.20350  0.28619  Biso   1.000  N
  C78      1.0000 0.47987  0.26189  0.22279  Biso   1.000  C
  H91      1.0000 0.48139  0.26798  0.30379  Biso   1.000  H
  H92      1.0000 0.43039  0.30572  0.17592  Biso   1.000  H
  H93      1.0000 0.42951  0.32368  0.23739  Biso   1.000  H
  C79      1.0000 0.55642  0.21209  0.32569  Biso   1.000  C
  N14      1.0000 0.52627  0.29650  0.21381  Biso   1.000  N
  H94      1.0000 0.48139  0.23202  0.19621  Biso   1.000  H
  C80      1.0000 0.60310  0.17800  0.33940  Biso   1.000  C
  H95      1.0000 0.54880  0.24208  0.34790  Biso   1.000  H
  C81      1.0000 0.55642  0.28791  0.17431  Biso   1.000  C
  C82      1.0000 0.61460  0.13301  0.30949  Biso   1.000  C
  C83      1.0000 0.63301  0.19051  0.38540  Biso   1.000  C
  C84      1.0000 0.60310  0.32200  0.16060  Biso   1.000  C
  H96      1.0000 0.54880  0.25792  0.15210  Biso   1.000  H
  H97      1.0000 0.59191  0.12250  0.28082  Biso   1.000  H
  C85      1.0000 0.66060  0.10310  0.32200  Biso   1.000  C
  H98      1.0000 0.62250  0.21918  0.40809  Biso   1.000  H
  C86      1.0000 0.67800  0.16060  0.39690  Biso   1.000  C
  C87      1.0000 0.63301  0.30949  0.11460  Biso   1.000  C
  C88      1.0000 0.61460  0.36699  0.19051  Biso   1.000  C
  C89      1.0000 0.69051  0.11460  0.36699  Biso   1.000  C
  C90      1.0000 0.67431  0.05642  0.28791  Biso   1.000  C
  C91      1.0000 0.71209  0.17431  0.44358  Biso   1.000  C
  H99      1.0000 0.62250  0.28082  0.09191  Biso   1.000  H
  C92      1.0000 0.67800  0.33940  0.10310  Biso   1.000  C
  H100     1.0000 0.59191  0.37750  0.21918  Biso   1.000  H
  C93      1.0000 0.66060  0.39690  0.17800  Biso   1.000  C
  H101     1.0000 0.71918  0.09191  0.37750  Biso   1.000  H
  N15      1.0000 0.71381  0.02627  0.29650  Biso   1.000  N
  H102     1.0000 0.65210  0.04880  0.25792  Biso   1.000  H
  N16      1.0000 0.70350  0.21381  0.47373  Biso   1.000  N
  H103     1.0000 0.74208  0.15210  0.45120  Biso   1.000  H
  C94      1.0000 0.69051  0.38540  0.13301  Biso   1.000  C
  C95      1.0000 0.71209  0.32569  0.05642  Biso   1.000  C
  C96      1.0000 0.67431  0.44358  0.21209  Biso   1.000  C
  C97      1.0000 0.72279  0.97987  0.26189  Biso   1.000  C
  C98      1.0000 0.73811  0.22279  0.52013  Biso   1.000  C
  H104     1.0000 0.71918  0.40809  0.12250  Biso   1.000  H
  N17      1.0000 0.70350  0.28619  0.02627  Biso   1.000  N
  H105     1.0000 0.74208  0.34790  0.04880  Biso   1.000  H
  N18      1.0000 0.71381  0.47373  0.20350  Biso   1.000  N
  H106     1.0000 0.65210  0.45120  0.24208  Biso   1.000  H
  C99      1.0000 0.77721  0.97987  0.23811  Biso   1.000  C
  H107     1.0000 0.69621  0.98139  0.23202  Biso   1.000  H
  C100     1.0000 0.71321  0.93019  0.29228  Biso   1.000  C
  C101     1.0000 0.76189  0.27721  0.52013  Biso   1.000  C
  H108     1.0000 0.76798  0.19621  0.51861  Biso   1.000  H
  C102     1.0000 0.70772  0.21321  0.56981  Biso   1.000  C
  C103     1.0000 0.73811  0.27721  0.97987  Biso   1.000  C
  C104     1.0000 0.72279  0.52013  0.23811  Biso   1.000  C
  N19      1.0000 0.78619  0.02627  0.20350  Biso   1.000  N
  H109     1.0000 0.80379  0.98139  0.26798  Biso   1.000  H
  C105     1.0000 0.78679  0.93019  0.20772  Biso   1.000  C
  H110     1.0000 0.67592  0.93039  0.30572  Biso   1.000  H
  H111     1.0000 0.73739  0.92951  0.32368  Biso   1.000  H
  C106     1.0000 0.72219  0.87882  0.25900  Biso   1.000  C
  N20      1.0000 0.79650  0.28619  0.47373  Biso   1.000  N
  H112     1.0000 0.73202  0.30379  0.51861  Biso   1.000  H
  C107     1.0000 0.79228  0.28679  0.56981  Biso   1.000  C
  H113     1.0000 0.69428  0.17592  0.56961  Biso   1.000  H
  H114     1.0000 0.67632  0.23739  0.57049  Biso   1.000  H
  C108     1.0000 0.74100  0.22219  0.62118  Biso   1.000  C
  C109     1.0000 0.76189  0.22279  0.97987  Biso   1.000  C
  H115     1.0000 0.76798  0.30379  0.98139  Biso   1.000  H
  C110     1.0000 0.70772  0.28679  0.93019  Biso   1.000  C
  C111     1.0000 0.77721  0.52013  0.26189  Biso   1.000  C
  H116     1.0000 0.69621  0.51861  0.26798  Biso   1.000  H
  C112     1.0000 0.71321  0.56981  0.20772  Biso   1.000  C
  C113     1.0000 0.82569  0.05642  0.21209  Biso   1.000  C
  H117     1.0000 0.82408  0.93039  0.19428  Biso   1.000  H
  H118     1.0000 0.76261  0.92951  0.17632  Biso   1.000  H
  C114     1.0000 0.77781  0.87882  0.24100  Biso   1.000  C
  H119     1.0000 0.71501  0.84670  0.28110  Biso   1.000  H
  H120     1.0000 0.69769  0.87830  0.22768  Biso   1.000  H
  C115     1.0000 0.78791  0.32569  0.44358  Biso   1.000  C
  H121     1.0000 0.80572  0.32408  0.56961  Biso   1.000  H
  H122     1.0000 0.82368  0.26261  0.57049  Biso   1.000  H
  C116     1.0000 0.75900  0.27781  0.62118  Biso   1.000  C
  H123     1.0000 0.71890  0.21501  0.65330  Biso   1.000  H
  H124     1.0000 0.77232  0.19769  0.62170  Biso   1.000  H
  N21      1.0000 0.79650  0.21381  0.02627  Biso   1.000  N
  H125     1.0000 0.73202  0.19621  0.98139  Biso   1.000  H
  C117     1.0000 0.79228  0.21321  0.93019  Biso   1.000  C
  H126     1.0000 0.69428  0.32408  0.93039  Biso   1.000  H
  H127     1.0000 0.67632  0.26261  0.92951  Biso   1.000  H
  C118     1.0000 0.74100  0.27781  0.87882  Biso   1.000  C
  N22      1.0000 0.78619  0.47373  0.29650  Biso   1.000  N
  H128     1.0000 0.80379  0.51861  0.23202  Biso   1.000  H
  C119     1.0000 0.78679  0.56981  0.29228  Biso   1.000  C
  H129     1.0000 0.67592  0.56961  0.19428  Biso   1.000  H
  H130     1.0000 0.73739  0.57049  0.17632  Biso   1.000  H
  C120     1.0000 0.72219  0.62118  0.24100  Biso   1.000  C
  C121     1.0000 0.83940  0.10310  0.17800  Biso   1.000  C
  H131     1.0000 0.84790  0.04880  0.24208  Biso   1.000  H
  H132     1.0000 0.78499  0.84670  0.21890  Biso   1.000  H
  H133     1.0000 0.80231  0.87830  0.27232  Biso   1.000  H
  C122     1.0000 0.82200  0.33940  0.39690  Biso   1.000  C
  H134     1.0000 0.75792  0.34790  0.45120  Biso   1.000  H
  H135     1.0000 0.78110  0.28499  0.65330  Biso   1.000  H
  H136     1.0000 0.72768  0.30231  0.62170  Biso   1.000  H
  C123     1.0000 0.78791  0.17431  0.05642  Biso   1.000  C
  H137     1.0000 0.80572  0.17592  0.93039  Biso   1.000  H
  H138     1.0000 0.82368  0.23739  0.92951  Biso   1.000  H
  C124     1.0000 0.75900  0.22219  0.87882  Biso   1.000  C
  H139     1.0000 0.71890  0.28499  0.84670  Biso   1.000  H
  H140     1.0000 0.77232  0.30231  0.87830  Biso   1.000  H
  C125     1.0000 0.82569  0.44358  0.28791  Biso   1.000  C
  H141     1.0000 0.82408  0.56961  0.30572  Biso   1.000  H
  H142     1.0000 0.76261  0.57049  0.32368  Biso   1.000  H
  C126     1.0000 0.77781  0.62118  0.25900  Biso   1.000  C
  H143     1.0000 0.71501  0.65330  0.21890  Biso   1.000  H
  H144     1.0000 0.69769  0.62170  0.27232  Biso   1.000  H
  C127     1.0000 0.88540  0.13301  0.19051  Biso   1.000  C
  C128     1.0000 0.80949  0.11460  0.13301  Biso   1.000  C
  C129     1.0000 0.80949  0.38540  0.36699  Biso   1.000  C
  C130     1.0000 0.86699  0.30949  0.38540  Biso   1.000  C
  C131     1.0000 0.82200  0.16060  0.10310  Biso   1.000  C
  H145     1.0000 0.75792  0.15210  0.04880  Biso   1.000  H
  H146     1.0000 0.78110  0.21501  0.84670  Biso   1.000  H
  H147     1.0000 0.72768  0.19769  0.87830  Biso   1.000  H
  C132     1.0000 0.83940  0.39690  0.32200  Biso   1.000  C
  H148     1.0000 0.84790  0.45120  0.25792  Biso   1.000  H
  H149     1.0000 0.78499  0.65330  0.28110  Biso   1.000  H
  H150     1.0000 0.80231  0.62170  0.22768  Biso   1.000  H
  H151     1.0000 0.90809  0.12250  0.21918  Biso   1.000  H
  C133     1.0000 0.89690  0.17800  0.16060  Biso   1.000  C
  H152     1.0000 0.78082  0.09191  0.12250  Biso   1.000  H
  H153     1.0000 0.78082  0.40809  0.37750  Biso   1.000  H
  H154     1.0000 0.87750  0.28082  0.40809  Biso   1.000  H
  C134     1.0000 0.89690  0.32200  0.33940  Biso   1.000  C
  C135     1.0000 0.86699  0.19051  0.11460  Biso   1.000  C
  C136     1.0000 0.88540  0.36699  0.30949  Biso   1.000  C
  C137     1.0000 0.94358  0.21209  0.17431  Biso   1.000  C
  C138     1.0000 0.94358  0.28791  0.32569  Biso   1.000  C
  H155     1.0000 0.87750  0.21918  0.09191  Biso   1.000  H
  H156     1.0000 0.90809  0.37750  0.28082  Biso   1.000  H
  N23      1.0000 0.97373  0.20350  0.21381  Biso   1.000  N
  H157     1.0000 0.95120  0.24208  0.15210  Biso   1.000  H
  N24      1.0000 0.97373  0.29650  0.28619  Biso   1.000  N
  H158     1.0000 0.95120  0.25792  0.34790  Biso   1.000  H
  C139     1.0000 0.02013  0.23811  0.22279  Biso   1.000  C
  C140     1.0000 0.02013  0.26189  0.27721  Biso   1.000  C
  H159     1.0000 0.01861  0.26798  0.19621  Biso   1.000  H
  C141     1.0000 0.06981  0.20772  0.21321  Biso   1.000  C
  H160     1.0000 0.01861  0.23202  0.30379  Biso   1.000  H
  C142     1.0000 0.06981  0.29228  0.28679  Biso   1.000  C
  H161     1.0000 0.06961  0.19428  0.17592  Biso   1.000  H
  H162     1.0000 0.07049  0.17632  0.23739  Biso   1.000  H
  C143     1.0000 0.12118  0.24100  0.22219  Biso   1.000  C
  H163     1.0000 0.06961  0.30572  0.32408  Biso   1.000  H
  H164     1.0000 0.07049  0.32368  0.26261  Biso   1.000  H
  C144     1.0000 0.12118  0.25900  0.27781  Biso   1.000  C
  H165     1.0000 0.15330  0.21890  0.21501  Biso   1.000  H
  H166     1.0000 0.12170  0.27232  0.19769  Biso   1.000  H
  H167     1.0000 0.15330  0.28110  0.28499  Biso   1.000  H
  H168     1.0000 0.12170  0.22768  0.30231  Biso   1.000  H
  C145     1.0000 0.27781  0.37882  0.24100  Biso   1.000  C
  C146     1.0000 0.28679  0.43019  0.20772  Biso   1.000  C
  C147     1.0000 0.22219  0.37882  0.25900  Biso   1.000  C
  H169     1.0000 0.28499  0.34670  0.21890  Biso   1.000  H
  H170     1.0000 0.30231  0.37830  0.27232  Biso   1.000  H
  C148     1.0000 0.27721  0.47987  0.23811  Biso   1.000  C
  H171     1.0000 0.32408  0.43039  0.19428  Biso   1.000  H
  H172     1.0000 0.26261  0.42951  0.17632  Biso   1.000  H
  C149     1.0000 0.21321  0.43019  0.29228  Biso   1.000  C
  H173     1.0000 0.21501  0.34670  0.28110  Biso   1.000  H
  H174     1.0000 0.19769  0.37830  0.22768  Biso   1.000  H
  N25      1.0000 0.28619  0.52627  0.20350  Biso   1.000  N
  C150     1.0000 0.22279  0.47987  0.26189  Biso   1.000  C
  H175     1.0000 0.30379  0.48139  0.26798  Biso   1.000  H
  H176     1.0000 0.17592  0.43039  0.30572  Biso   1.000  H
  H177     1.0000 0.23739  0.42951  0.32368  Biso   1.000  H
  C151     1.0000 0.32569  0.55642  0.21209  Biso   1.000  C
  N26      1.0000 0.21381  0.52627  0.29650  Biso   1.000  N
  H178     1.0000 0.19621  0.48139  0.23202  Biso   1.000  H
  C152     1.0000 0.33940  0.60310  0.17800  Biso   1.000  C
  H179     1.0000 0.34790  0.54880  0.24208  Biso   1.000  H
  C153     1.0000 0.17431  0.55642  0.28791  Biso   1.000  C
  C154     1.0000 0.38540  0.63301  0.19051  Biso   1.000  C
  C155     1.0000 0.30949  0.61460  0.13301  Biso   1.000  C
  C156     1.0000 0.16060  0.60310  0.32200  Biso   1.000  C
  H180     1.0000 0.15210  0.54880  0.25792  Biso   1.000  H
  H181     1.0000 0.40809  0.62250  0.21918  Biso   1.000  H
  C157     1.0000 0.39690  0.67800  0.16060  Biso   1.000  C
  H182     1.0000 0.28082  0.59191  0.12250  Biso   1.000  H
  C158     1.0000 0.32200  0.66060  0.10310  Biso   1.000  C
  C159     1.0000 0.11460  0.63301  0.30949  Biso   1.000  C
  C160     1.0000 0.19051  0.61460  0.36699  Biso   1.000  C
  C161     1.0000 0.36699  0.69051  0.11460  Biso   1.000  C
  C162     1.0000 0.44358  0.71209  0.17431  Biso   1.000  C
  C163     1.0000 0.28791  0.67431  0.05642  Biso   1.000  C
  H183     1.0000 0.09191  0.62250  0.28082  Biso   1.000  H
  C164     1.0000 0.10310  0.67800  0.33940  Biso   1.000  C
  H184     1.0000 0.21918  0.59191  0.37750  Biso   1.000  H
  C165     1.0000 0.17800  0.66060  0.39690  Biso   1.000  C
  H185     1.0000 0.37750  0.71918  0.09191  Biso   1.000  H
  N27      1.0000 0.47373  0.70350  0.21381  Biso   1.000  N
  H186     1.0000 0.45120  0.74208  0.15210  Biso   1.000  H
  N28      1.0000 0.29650  0.71381  0.02627  Biso   1.000  N
  H187     1.0000 0.25792  0.65210  0.04880  Biso   1.000  H
  C166     1.0000 0.13301  0.69051  0.38540  Biso   1.000  C
  C167     1.0000 0.05642  0.71209  0.32569  Biso   1.000  C
  C168     1.0000 0.21209  0.67431  0.44358  Biso   1.000  C
  C169     1.0000 0.52013  0.73811  0.22279  Biso   1.000  C
  C170     1.0000 0.26189  0.72279  0.97987  Biso   1.000  C
  H188     1.0000 0.12250  0.71918  0.40809  Biso   1.000  H
  N29      1.0000 0.02627  0.70350  0.28619  Biso   1.000  N
  H189     1.0000 0.04880  0.74208  0.34790  Biso   1.000  H
  N30      1.0000 0.20350  0.71381  0.47373  Biso   1.000  N
  H190     1.0000 0.24208  0.65210  0.45120  Biso   1.000  H
  C171     1.0000 0.52013  0.76189  0.27721  Biso   1.000  C
  H191     1.0000 0.51861  0.76798  0.19621  Biso   1.000  H
  C172     1.0000 0.56981  0.70772  0.21321  Biso   1.000  C
  C173     1.0000 0.23811  0.77721  0.97987  Biso   1.000  C
  H192     1.0000 0.23202  0.69621  0.98139  Biso   1.000  H
  C174     1.0000 0.29228  0.71321  0.93019  Biso   1.000  C
  C175     1.0000 0.97987  0.73811  0.27721  Biso   1.000  C
  C176     1.0000 0.23811  0.72279  0.52013  Biso   1.000  C
  N31      1.0000 0.47373  0.79650  0.28619  Biso   1.000  N
  H193     1.0000 0.51861  0.73202  0.30379  Biso   1.000  H
  C177     1.0000 0.56981  0.79228  0.28679  Biso   1.000  C
  H194     1.0000 0.56961  0.69428  0.17592  Biso   1.000  H
  H195     1.0000 0.57049  0.67632  0.23739  Biso   1.000  H
  C178     1.0000 0.62118  0.74100  0.22219  Biso   1.000  C
  N32      1.0000 0.20350  0.78619  0.02627  Biso   1.000  N
  H196     1.0000 0.26798  0.80379  0.98139  Biso   1.000  H
  C179     1.0000 0.20772  0.78679  0.93019  Biso   1.000  C
  H197     1.0000 0.30572  0.67592  0.93039  Biso   1.000  H
  H198     1.0000 0.32368  0.73739  0.92951  Biso   1.000  H
  C180     1.0000 0.25900  0.72219  0.87882  Biso   1.000  C
  C181     1.0000 0.97987  0.76189  0.22279  Biso   1.000  C
  H199     1.0000 0.98139  0.76798  0.30379  Biso   1.000  H
  C182     1.0000 0.93019  0.70772  0.28679  Biso   1.000  C
  C183     1.0000 0.26189  0.77721  0.52013  Biso   1.000  C
  H200     1.0000 0.26798  0.69621  0.51861  Biso   1.000  H
  C184     1.0000 0.20772  0.71321  0.56981  Biso   1.000  C
  C185     1.0000 0.44358  0.78791  0.32569  Biso   1.000  C
  H201     1.0000 0.56961  0.80572  0.32408  Biso   1.000  H
  H202     1.0000 0.57049  0.82368  0.26261  Biso   1.000  H
  C186     1.0000 0.62118  0.75900  0.27781  Biso   1.000  C
  H203     1.0000 0.65330  0.71890  0.21501  Biso   1.000  H
  H204     1.0000 0.62170  0.77232  0.19769  Biso   1.000  H
  C187     1.0000 0.21209  0.82569  0.05642  Biso   1.000  C
  H205     1.0000 0.19428  0.82408  0.93039  Biso   1.000  H
  H206     1.0000 0.17632  0.76261  0.92951  Biso   1.000  H
  C188     1.0000 0.24100  0.77781  0.87882  Biso   1.000  C
  H207     1.0000 0.28110  0.71501  0.84670  Biso   1.000  H
  H208     1.0000 0.22768  0.69769  0.87830  Biso   1.000  H
  N33      1.0000 0.02627  0.79650  0.21381  Biso   1.000  N
  H209     1.0000 0.98139  0.73202  0.19621  Biso   1.000  H
  C189     1.0000 0.93019  0.79228  0.21321  Biso   1.000  C
  H210     1.0000 0.93039  0.69428  0.32408  Biso   1.000  H
  H211     1.0000 0.92951  0.67632  0.26261  Biso   1.000  H
  C190     1.0000 0.87882  0.74100  0.27781  Biso   1.000  C
  N34      1.0000 0.29650  0.78619  0.47373  Biso   1.000  N
  H212     1.0000 0.23202  0.80379  0.51861  Biso   1.000  H
  C191     1.0000 0.29228  0.78679  0.56981  Biso   1.000  C
  H213     1.0000 0.19428  0.67592  0.56961  Biso   1.000  H
  H214     1.0000 0.17632  0.73739  0.57049  Biso   1.000  H
  C192     1.0000 0.24100  0.72219  0.62118  Biso   1.000  C
  C193     1.0000 0.39690  0.82200  0.33940  Biso   1.000  C
  H215     1.0000 0.45120  0.75792  0.34790  Biso   1.000  H
  H216     1.0000 0.65330  0.78110  0.28499  Biso   1.000  H
  H217     1.0000 0.62170  0.72768  0.30231  Biso   1.000  H
  C194     1.0000 0.17800  0.83940  0.10310  Biso   1.000  C
  H218     1.0000 0.24208  0.84790  0.04880  Biso   1.000  H
  H219     1.0000 0.21890  0.78499  0.84670  Biso   1.000  H
  H220     1.0000 0.27232  0.80231  0.87830  Biso   1.000  H
  C195     1.0000 0.05642  0.78791  0.17431  Biso   1.000  C
  H221     1.0000 0.93039  0.80572  0.17592  Biso   1.000  H
  H222     1.0000 0.92951  0.82368  0.23739  Biso   1.000  H
  C196     1.0000 0.87882  0.75900  0.22219  Biso   1.000  C
  H223     1.0000 0.84670  0.71890  0.28499  Biso   1.000  H
  H224     1.0000 0.87830  0.77232  0.30231  Biso   1.000  H
  C197     1.0000 0.28791  0.82569  0.44358  Biso   1.000  C
  H225     1.0000 0.30572  0.82408  0.56961  Biso   1.000  H
  H226     1.0000 0.32368  0.76261  0.57049  Biso   1.000  H
  C198     1.0000 0.25900  0.77781  0.62118  Biso   1.000  C
  H227     1.0000 0.21890  0.71501  0.65330  Biso   1.000  H
  H228     1.0000 0.27232  0.69769  0.62170  Biso   1.000  H
  C199     1.0000 0.38540  0.86699  0.30949  Biso   1.000  C
  C200     1.0000 0.36699  0.80949  0.38540  Biso   1.000  C
  C201     1.0000 0.13301  0.80949  0.11460  Biso   1.000  C
  C202     1.0000 0.19051  0.88540  0.13301  Biso   1.000  C
  C203     1.0000 0.10310  0.82200  0.16060  Biso   1.000  C
  H229     1.0000 0.04880  0.75792  0.15210  Biso   1.000  H
  H230     1.0000 0.84670  0.78110  0.21501  Biso   1.000  H
  H231     1.0000 0.87830  0.72768  0.19769  Biso   1.000  H
  C204     1.0000 0.32200  0.83940  0.39690  Biso   1.000  C
  H232     1.0000 0.25792  0.84790  0.45120  Biso   1.000  H
  H233     1.0000 0.28110  0.78499  0.65330  Biso   1.000  H
  H234     1.0000 0.22768  0.80231  0.62170  Biso   1.000  H
  H235     1.0000 0.40809  0.87750  0.28082  Biso   1.000  H
  C205     1.0000 0.33940  0.89690  0.32200  Biso   1.000  C
  H236     1.0000 0.37750  0.78082  0.40809  Biso   1.000  H
  H237     1.0000 0.12250  0.78082  0.09191  Biso   1.000  H
  H238     1.0000 0.21918  0.90809  0.12250  Biso   1.000  H
  C206     1.0000 0.16060  0.89690  0.17800  Biso   1.000  C
  C207     1.0000 0.11460  0.86699  0.19051  Biso   1.000  C
  C208     1.0000 0.30949  0.88540  0.36699  Biso   1.000  C
  C209     1.0000 0.32569  0.94358  0.28791  Biso   1.000  C
  C210     1.0000 0.17431  0.94358  0.21209  Biso   1.000  C
  H239     1.0000 0.09191  0.87750  0.21918  Biso   1.000  H
  H240     1.0000 0.28082  0.90809  0.37750  Biso   1.000  H
  N35      1.0000 0.28619  0.97373  0.29650  Biso   1.000  N
  H241     1.0000 0.34790  0.95120  0.25792  Biso   1.000  H
  N36      1.0000 0.21381  0.97373  0.20350  Biso   1.000  N
  H242     1.0000 0.15210  0.95120  0.24208  Biso   1.000  H
  C211     1.0000 0.27721  0.02013  0.26189  Biso   1.000  C
  C212     1.0000 0.22279  0.02013  0.23811  Biso   1.000  C
  H243     1.0000 0.30379  0.01861  0.23202  Biso   1.000  H
  C213     1.0000 0.28679  0.06981  0.29228  Biso   1.000  C
  H244     1.0000 0.19621  0.01861  0.26798  Biso   1.000  H
  C214     1.0000 0.21321  0.06981  0.20772  Biso   1.000  C
  H245     1.0000 0.32408  0.06961  0.30572  Biso   1.000  H
  H246     1.0000 0.26261  0.07049  0.32368  Biso   1.000  H
  C215     1.0000 0.27781  0.12118  0.25900  Biso   1.000  C
  H247     1.0000 0.17592  0.06961  0.19428  Biso   1.000  H
  H248     1.0000 0.23739  0.07049  0.17632  Biso   1.000  H
  C216     1.0000 0.22219  0.12118  0.24100  Biso   1.000  C
  H249     1.0000 0.28499  0.15330  0.28110  Biso   1.000  H
  H250     1.0000 0.30231  0.12170  0.22768  Biso   1.000  H
  H251     1.0000 0.21501  0.15330  0.21890  Biso   1.000  H
  H252     1.0000 0.19769  0.12170  0.27232  Biso   1.000  H
  C217     1.0000 0.24100  0.27781  0.37882  Biso   1.000  C
  C218     1.0000 0.25900  0.22219  0.37882  Biso   1.000  C
  C219     1.0000 0.20772  0.28679  0.43019  Biso   1.000  C
  H253     1.0000 0.21890  0.28499  0.34670  Biso   1.000  H
  H254     1.0000 0.27232  0.30231  0.37830  Biso   1.000  H
  C220     1.0000 0.29228  0.21321  0.43019  Biso   1.000  C
  H255     1.0000 0.28110  0.21501  0.34670  Biso   1.000  H
  H256     1.0000 0.22768  0.19769  0.37830  Biso   1.000  H
  C221     1.0000 0.23811  0.27721  0.47987  Biso   1.000  C
  H257     1.0000 0.19428  0.32408  0.43039  Biso   1.000  H
  H258     1.0000 0.17632  0.26261  0.42951  Biso   1.000  H
  C222     1.0000 0.26189  0.22279  0.47987  Biso   1.000  C
  H259     1.0000 0.30572  0.17592  0.43039  Biso   1.000  H
  H260     1.0000 0.32368  0.23739  0.42951  Biso   1.000  H
  N37      1.0000 0.20350  0.28619  0.52627  Biso   1.000  N
  H261     1.0000 0.26798  0.30379  0.48139  Biso   1.000  H
  N38      1.0000 0.29650  0.21381  0.52627  Biso   1.000  N
  H262     1.0000 0.23202  0.19621  0.48139  Biso   1.000  H
  C223     1.0000 0.21209  0.32569  0.55642  Biso   1.000  C
  C224     1.0000 0.28791  0.17431  0.55642  Biso   1.000  C
  C225     1.0000 0.17800  0.33940  0.60310  Biso   1.000  C
  H263     1.0000 0.24208  0.34790  0.54880  Biso   1.000  H
  C226     1.0000 0.32200  0.16060  0.60310  Biso   1.000  C
  H264     1.0000 0.25792  0.15210  0.54880  Biso   1.000  H
  C227     1.0000 0.13301  0.30949  0.61460  Biso   1.000  C
  C228     1.0000 0.19051  0.38540  0.63301  Biso   1.000  C
  C229     1.0000 0.36699  0.19051  0.61460  Biso   1.000  C
  C230     1.0000 0.30949  0.11460  0.63301  Biso   1.000  C
  H265     1.0000 0.12250  0.28082  0.59191  Biso   1.000  H
  C231     1.0000 0.10310  0.32200  0.66060  Biso   1.000  C
  H266     1.0000 0.21918  0.40809  0.62250  Biso   1.000  H
  C232     1.0000 0.16060  0.39690  0.67800  Biso   1.000  C
  H267     1.0000 0.37750  0.21918  0.59191  Biso   1.000  H
  C233     1.0000 0.39690  0.17800  0.66060  Biso   1.000  C
  H268     1.0000 0.28082  0.09191  0.62250  Biso   1.000  H
  C234     1.0000 0.33940  0.10310  0.67800  Biso   1.000  C
  C235     1.0000 0.11460  0.36699  0.69051  Biso   1.000  C
  C236     1.0000 0.05642  0.28791  0.67431  Biso   1.000  C
  C237     1.0000 0.17431  0.44358  0.71209  Biso   1.000  C
  C238     1.0000 0.38540  0.13301  0.69051  Biso   1.000  C
  C239     1.0000 0.44358  0.21209  0.67431  Biso   1.000  C
  C240     1.0000 0.32569  0.05642  0.71209  Biso   1.000  C
  H269     1.0000 0.09191  0.37750  0.71918  Biso   1.000  H
  N39      1.0000 0.02627  0.29650  0.71381  Biso   1.000  N
  H270     1.0000 0.04880  0.25792  0.65210  Biso   1.000  H
  N40      1.0000 0.21381  0.47373  0.70350  Biso   1.000  N
  H271     1.0000 0.15210  0.45120  0.74208  Biso   1.000  H
  H272     1.0000 0.40809  0.12250  0.71918  Biso   1.000  H
  N41      1.0000 0.47373  0.20350  0.71381  Biso   1.000  N
  H273     1.0000 0.45120  0.24208  0.65210  Biso   1.000  H
  N42      1.0000 0.28619  0.02627  0.70350  Biso   1.000  N
  H274     1.0000 0.34790  0.04880  0.74208  Biso   1.000  H
  C241     1.0000 0.97987  0.26189  0.72279  Biso   1.000  C
  C242     1.0000 0.22279  0.52013  0.73811  Biso   1.000  C
  C243     1.0000 0.52013  0.23811  0.72279  Biso   1.000  C
  C244     1.0000 0.27721  0.97987  0.73811  Biso   1.000  C
  C245     1.0000 0.97987  0.23811  0.77721  Biso   1.000  C
  H275     1.0000 0.98139  0.23202  0.69621  Biso   1.000  H
  C246     1.0000 0.93019  0.29228  0.71321  Biso   1.000  C
  C247     1.0000 0.27721  0.52013  0.76189  Biso   1.000  C
  H276     1.0000 0.19621  0.51861  0.76798  Biso   1.000  H
  C248     1.0000 0.21321  0.56981  0.70772  Biso   1.000  C
  C249     1.0000 0.52013  0.26189  0.77721  Biso   1.000  C
  H277     1.0000 0.51861  0.26798  0.69621  Biso   1.000  H
  C250     1.0000 0.56981  0.20772  0.71321  Biso   1.000  C
  C251     1.0000 0.22279  0.97987  0.76189  Biso   1.000  C
  H278     1.0000 0.30379  0.98139  0.76798  Biso   1.000  H
  C252     1.0000 0.28679  0.93019  0.70772  Biso   1.000  C
  N43      1.0000 0.02627  0.20350  0.78619  Biso   1.000  N
  H279     1.0000 0.98139  0.26798  0.80379  Biso   1.000  H
  C253     1.0000 0.93019  0.20772  0.78679  Biso   1.000  C
  H280     1.0000 0.93039  0.30572  0.67592  Biso   1.000  H
  H281     1.0000 0.92951  0.32368  0.73739  Biso   1.000  H
  C254     1.0000 0.87882  0.25900  0.72219  Biso   1.000  C
  N44      1.0000 0.28619  0.47373  0.79650  Biso   1.000  N
  H282     1.0000 0.30379  0.51861  0.73202  Biso   1.000  H
  C255     1.0000 0.28679  0.56981  0.79228  Biso   1.000  C
  H283     1.0000 0.17592  0.56961  0.69428  Biso   1.000  H
  H284     1.0000 0.23739  0.57049  0.67632  Biso   1.000  H
  C256     1.0000 0.22219  0.62118  0.74100  Biso   1.000  C
  N45      1.0000 0.47373  0.29650  0.78619  Biso   1.000  N
  H285     1.0000 0.51861  0.23202  0.80379  Biso   1.000  H
  C257     1.0000 0.56981  0.29228  0.78679  Biso   1.000  C
  H286     1.0000 0.56961  0.19428  0.67592  Biso   1.000  H
  H287     1.0000 0.57049  0.17632  0.73739  Biso   1.000  H
  C258     1.0000 0.62118  0.24100  0.72219  Biso   1.000  C
  N46      1.0000 0.21381  0.02627  0.79650  Biso   1.000  N
  H288     1.0000 0.19621  0.98139  0.73202  Biso   1.000  H
  C259     1.0000 0.21321  0.93019  0.79228  Biso   1.000  C
  H289     1.0000 0.32408  0.93039  0.69428  Biso   1.000  H
  H290     1.0000 0.26261  0.92951  0.67632  Biso   1.000  H
  C260     1.0000 0.27781  0.87882  0.74100  Biso   1.000  C
  C261     1.0000 0.05642  0.21209  0.82569  Biso   1.000  C
  H291     1.0000 0.93039  0.19428  0.82408  Biso   1.000  H
  H292     1.0000 0.92951  0.17632  0.76261  Biso   1.000  H
  C262     1.0000 0.87882  0.24100  0.77781  Biso   1.000  C
  H293     1.0000 0.84670  0.28110  0.71501  Biso   1.000  H
  H294     1.0000 0.87830  0.22768  0.69769  Biso   1.000  H
  C263     1.0000 0.32569  0.44358  0.78791  Biso   1.000  C
  H295     1.0000 0.32408  0.56961  0.80572  Biso   1.000  H
  H296     1.0000 0.26261  0.57049  0.82368  Biso   1.000  H
  C264     1.0000 0.27781  0.62118  0.75900  Biso   1.000  C
  H297     1.0000 0.21501  0.65330  0.71890  Biso   1.000  H
  H298     1.0000 0.19769  0.62170  0.77232  Biso   1.000  H
  C265     1.0000 0.44358  0.28791  0.82569  Biso   1.000  C
  H299     1.0000 0.56961  0.30572  0.82408  Biso   1.000  H
  H300     1.0000 0.57049  0.32368  0.76261  Biso   1.000  H
  C266     1.0000 0.62118  0.25900  0.77781  Biso   1.000  C
  H301     1.0000 0.65330  0.21890  0.71501  Biso   1.000  H
  H302     1.0000 0.62170  0.27232  0.69769  Biso   1.000  H
  C267     1.0000 0.17431  0.05642  0.78791  Biso   1.000  C
  H303     1.0000 0.17592  0.93039  0.80572  Biso   1.000  H
  H304     1.0000 0.23739  0.92951  0.82368  Biso   1.000  H
  C268     1.0000 0.22219  0.87882  0.75900  Biso   1.000  C
  H305     1.0000 0.28499  0.84670  0.71890  Biso   1.000  H
  H306     1.0000 0.30231  0.87830  0.77232  Biso   1.000  H
  C269     1.0000 0.10310  0.17800  0.83940  Biso   1.000  C
  H307     1.0000 0.04880  0.24208  0.84790  Biso   1.000  H
  H308     1.0000 0.84670  0.21890  0.78499  Biso   1.000  H
  H309     1.0000 0.87830  0.27232  0.80231  Biso   1.000  H
  C270     1.0000 0.33940  0.39690  0.82200  Biso   1.000  C
  H310     1.0000 0.34790  0.45120  0.75792  Biso   1.000  H
  H311     1.0000 0.28499  0.65330  0.78110  Biso   1.000  H
  H312     1.0000 0.30231  0.62170  0.72768  Biso   1.000  H
  C271     1.0000 0.39690  0.32200  0.83940  Biso   1.000  C
  H313     1.0000 0.45120  0.25792  0.84790  Biso   1.000  H
  H314     1.0000 0.65330  0.28110  0.78499  Biso   1.000  H
  H315     1.0000 0.62170  0.22768  0.80231  Biso   1.000  H
  C272     1.0000 0.16060  0.10310  0.82200  Biso   1.000  C
  H316     1.0000 0.15210  0.04880  0.75792  Biso   1.000  H
  H317     1.0000 0.21501  0.84670  0.78110  Biso   1.000  H
  H318     1.0000 0.19769  0.87830  0.72768  Biso   1.000  H
  C273     1.0000 0.11460  0.13301  0.80949  Biso   1.000  C
  C274     1.0000 0.13301  0.19051  0.88540  Biso   1.000  C
  C275     1.0000 0.38540  0.36699  0.80949  Biso   1.000  C
  C276     1.0000 0.30949  0.38540  0.86699  Biso   1.000  C
  C277     1.0000 0.36699  0.30949  0.88540  Biso   1.000  C
  C278     1.0000 0.19051  0.11460  0.86699  Biso   1.000  C
  H319     1.0000 0.09191  0.12250  0.78082  Biso   1.000  H
  C279     1.0000 0.17800  0.16060  0.89690  Biso   1.000  C
  H320     1.0000 0.12250  0.21918  0.90809  Biso   1.000  H
  H321     1.0000 0.40809  0.37750  0.78082  Biso   1.000  H
  C280     1.0000 0.32200  0.33940  0.89690  Biso   1.000  C
  H322     1.0000 0.28082  0.40809  0.87750  Biso   1.000  H
  H323     1.0000 0.37750  0.28082  0.90809  Biso   1.000  H
  H324     1.0000 0.21918  0.09191  0.87750  Biso   1.000  H
  C281     1.0000 0.21209  0.17431  0.94358  Biso   1.000  C
  C282     1.0000 0.28791  0.32569  0.94358  Biso   1.000  C
  N47      1.0000 0.20350  0.21381  0.97373  Biso   1.000  N
  H325     1.0000 0.24208  0.15210  0.95120  Biso   1.000  H
  N48      1.0000 0.29650  0.28619  0.97373  Biso   1.000  N
  H326     1.0000 0.25792  0.34790  0.95120  Biso   1.000  H
  C283     1.0000 0.23811  0.22279  0.02013  Biso   1.000  C
  C284     1.0000 0.26189  0.27721  0.02013  Biso   1.000  C
  H327     1.0000 0.26798  0.19621  0.01861  Biso   1.000  H
  C285     1.0000 0.20772  0.21321  0.06981  Biso   1.000  C
  H328     1.0000 0.23202  0.30379  0.01861  Biso   1.000  H
  C286     1.0000 0.29228  0.28679  0.06981  Biso   1.000  C
  H329     1.0000 0.19428  0.17592  0.06961  Biso   1.000  H
  H330     1.0000 0.17632  0.23739  0.07049  Biso   1.000  H
  C287     1.0000 0.24100  0.22219  0.12118  Biso   1.000  C
  H331     1.0000 0.30572  0.32408  0.06961  Biso   1.000  H
  H332     1.0000 0.32368  0.26261  0.07049  Biso   1.000  H
  C288     1.0000 0.25900  0.27781  0.12118  Biso   1.000  C
  H333     1.0000 0.21890  0.21501  0.15330  Biso   1.000  H
  H334     1.0000 0.27232  0.19769  0.12170  Biso   1.000  H
  H335     1.0000 0.28110  0.28499  0.15330  Biso   1.000  H
  H336     1.0000 0.22768  0.30231  0.12170  Biso   1.000  H
  C289     1.0000 0.46319  0.04230  0.31979  Biso   1.000  C
  C290     1.0000 0.47281  0.01191  0.27011  Biso   1.000  C
  H337     1.0000 0.42590  0.05570  0.31959  Biso   1.000  H
  H338     1.0000 0.48741  0.07370  0.32051  Biso   1.000  H
  C291     1.0000 0.47221  0.00898  0.37120  Biso   1.000  C
  N49      1.0000 0.46379  0.04652  0.22371  Biso   1.000  N
  C292     1.0000 0.52719  0.98809  0.27011  Biso   1.000  C
  H339     1.0000 0.44619  0.98200  0.26859  Biso   1.000  H
  H340     1.0000 0.46499  0.03112  0.40328  Biso   1.000  H
  C293     1.0000 0.52779  0.99102  0.37120  Biso   1.000  C
  H341     1.0000 0.44771  0.97770  0.37168  Biso   1.000  H
  C294     1.0000 0.42429  0.03789  0.19360  Biso   1.000  C
  H342     1.0000 0.55381  0.01800  0.26859  Biso   1.000  H
  N50      1.0000 0.53621  0.95348  0.22371  Biso   1.000  N
  C295     1.0000 0.53681  0.95770  0.31979  Biso   1.000  C
  H343     1.0000 0.55229  0.02230  0.37168  Biso   1.000  H
  H344     1.0000 0.53501  0.96888  0.40328  Biso   1.000  H
  C296     1.0000 0.41062  0.07202  0.14688  Biso   1.000  C
  H345     1.0000 0.40212  0.00790  0.20122  Biso   1.000  H
  C297     1.0000 0.57571  0.96211  0.19360  Biso   1.000  C
  H346     1.0000 0.57410  0.94430  0.31959  Biso   1.000  H
  H347     1.0000 0.51259  0.92630  0.32051  Biso   1.000  H
  C298     1.0000 0.44049  0.11701  0.13542  Biso   1.000  C
  C299     1.0000 0.36458  0.05951  0.11701  Biso   1.000  C
  C300     1.0000 0.58938  0.92798  0.14688  Biso   1.000  C
  H348     1.0000 0.59788  0.99210  0.20122  Biso   1.000  H
  H349     1.0000 0.46920  0.12752  0.15811  Biso   1.000  H
  C301     1.0000 0.42798  0.14688  0.08938  Biso   1.000  C
  C302     1.0000 0.35312  0.08938  0.07202  Biso   1.000  C
  H350     1.0000 0.34189  0.03080  0.12752  Biso   1.000  H
  C303     1.0000 0.55951  0.88299  0.13542  Biso   1.000  C
  C304     1.0000 0.63542  0.94049  0.11701  Biso   1.000  C
  C305     1.0000 0.38299  0.13542  0.05951  Biso   1.000  C
  C306     1.0000 0.46211  0.19360  0.07571  Biso   1.000  C
  C307     1.0000 0.30640  0.07571  0.03789  Biso   1.000  C
  H351     1.0000 0.53080  0.87248  0.15811  Biso   1.000  H
  C308     1.0000 0.57202  0.85312  0.08938  Biso   1.000  C
  H352     1.0000 0.65811  0.96920  0.12752  Biso   1.000  H
  C309     1.0000 0.64688  0.91062  0.07202  Biso   1.000  C
  H353     1.0000 0.37248  0.15811  0.03080  Biso   1.000  H
  N51      1.0000 0.45348  0.22371  0.03621  Biso   1.000  N
  H354     1.0000 0.49210  0.20122  0.09788  Biso   1.000  H
  N52      1.0000 0.27629  0.03621  0.04652  Biso   1.000  N
  H355     1.0000 0.29878  0.09788  0.00790  Biso   1.000  H
  C310     1.0000 0.61701  0.86458  0.05951  Biso   1.000  C
  C311     1.0000 0.53789  0.80640  0.07571  Biso   1.000  C
  C312     1.0000 0.69360  0.92429  0.03789  Biso   1.000  C
  C313     1.0000 0.48809  0.27011  0.02719  Biso   1.000  C
  C314     1.0000 0.22989  0.02719  0.01191  Biso   1.000  C
  H356     1.0000 0.62752  0.84189  0.03080  Biso   1.000  H
  N53      1.0000 0.54652  0.77629  0.03621  Biso   1.000  N
  H357     1.0000 0.50790  0.79878  0.09788  Biso   1.000  H
  N54      1.0000 0.72371  0.96379  0.04652  Biso   1.000  N
  H358     1.0000 0.70122  0.90212  0.00790  Biso   1.000  H
  H359     1.0000 0.51800  0.26859  0.05381  Biso   1.000  H
  C315     1.0000 0.45770  0.31979  0.03681  Biso   1.000  C
  C316     1.0000 0.51191  0.27011  0.97281  Biso   1.000  C
  C317     1.0000 0.18021  0.03681  0.04230  Biso   1.000  C
  C318     1.0000 0.22989  0.97281  0.98809  Biso   1.000  C
  H360     1.0000 0.23141  0.05381  0.98200  Biso   1.000  H
  C319     1.0000 0.51191  0.72989  0.02719  Biso   1.000  C
  C320     1.0000 0.77011  0.97281  0.01191  Biso   1.000  C
  H361     1.0000 0.44430  0.31959  0.07410  Biso   1.000  H
  H362     1.0000 0.42630  0.32051  0.01259  Biso   1.000  H
  C321     1.0000 0.49102  0.37120  0.02779  Biso   1.000  C
  N55      1.0000 0.54652  0.22371  0.96379  Biso   1.000  N
  H363     1.0000 0.48200  0.26859  0.94619  Biso   1.000  H
  C322     1.0000 0.54230  0.31979  0.96319  Biso   1.000  C
  H364     1.0000 0.18041  0.07410  0.05570  Biso   1.000  H
  H365     1.0000 0.17949  0.01259  0.07370  Biso   1.000  H
  C323     1.0000 0.12880  0.02779  0.00898  Biso   1.000  C
  N56      1.0000 0.27629  0.96379  0.95348  Biso   1.000  N
  C324     1.0000 0.18021  0.96319  0.95770  Biso   1.000  C
  H366     1.0000 0.23141  0.94619  0.01800  Biso   1.000  H
  C325     1.0000 0.48809  0.72989  0.97281  Biso   1.000  C
  H367     1.0000 0.48200  0.73141  0.05381  Biso   1.000  H
  C326     1.0000 0.54230  0.68021  0.03681  Biso   1.000  C
  C327     1.0000 0.77011  0.02719  0.98809  Biso   1.000  C
  H368     1.0000 0.76859  0.94619  0.98200  Biso   1.000  H
  C328     1.0000 0.81979  0.96319  0.04230  Biso   1.000  C
  H369     1.0000 0.46888  0.40328  0.03501  Biso   1.000  H
  H370     1.0000 0.52230  0.37168  0.05229  Biso   1.000  H
  C329     1.0000 0.50898  0.37120  0.97221  Biso   1.000  C
  C330     1.0000 0.53789  0.19360  0.92429  Biso   1.000  C
  H371     1.0000 0.55570  0.31959  0.92590  Biso   1.000  H
  H372     1.0000 0.57370  0.32051  0.98741  Biso   1.000  H
  H373     1.0000 0.09672  0.03501  0.03112  Biso   1.000  H
  C331     1.0000 0.12880  0.97221  0.99102  Biso   1.000  C
  H374     1.0000 0.12832  0.05229  0.97770  Biso   1.000  H
  C332     1.0000 0.30640  0.92429  0.96211  Biso   1.000  C
  H375     1.0000 0.18041  0.92590  0.94430  Biso   1.000  H
  H376     1.0000 0.17949  0.98741  0.92630  Biso   1.000  H
  N57      1.0000 0.45348  0.77629  0.96379  Biso   1.000  N
  H377     1.0000 0.51800  0.73141  0.94619  Biso   1.000  H
  C333     1.0000 0.45770  0.68021  0.96319  Biso   1.000  C
  H378     1.0000 0.55570  0.68041  0.07410  Biso   1.000  H
  H379     1.0000 0.57370  0.67949  0.01259  Biso   1.000  H
  C334     1.0000 0.50898  0.62880  0.02779  Biso   1.000  C
  N58      1.0000 0.72371  0.03621  0.95348  Biso   1.000  N
  H380     1.0000 0.76859  0.05381  0.01800  Biso   1.000  H
  C335     1.0000 0.81979  0.03681  0.95770  Biso   1.000  C
  H381     1.0000 0.81959  0.92590  0.05570  Biso   1.000  H
  H382     1.0000 0.82051  0.98741  0.07370  Biso   1.000  H
  C336     1.0000 0.87120  0.97221  0.00898  Biso   1.000  C
  H383     1.0000 0.53112  0.40328  0.96499  Biso   1.000  H
  H384     1.0000 0.47770  0.37168  0.94771  Biso   1.000  H
  C337     1.0000 0.57202  0.14688  0.91062  Biso   1.000  C
  H385     1.0000 0.50790  0.20122  0.90212  Biso   1.000  H
  H386     1.0000 0.09672  0.96499  0.96888  Biso   1.000  H
  H387     1.0000 0.12832  0.94771  0.02230  Biso   1.000  H
  C338     1.0000 0.35312  0.91062  0.92798  Biso   1.000  C
  H388     1.0000 0.29878  0.90212  0.99210  Biso   1.000  H
  C339     1.0000 0.46211  0.80640  0.92429  Biso   1.000  C
  H389     1.0000 0.44430  0.68041  0.92590  Biso   1.000  H
  H390     1.0000 0.42630  0.67949  0.98741  Biso   1.000  H
  C340     1.0000 0.49102  0.62880  0.97221  Biso   1.000  C
  H391     1.0000 0.53112  0.59672  0.03501  Biso   1.000  H
  H392     1.0000 0.47770  0.62832  0.05229  Biso   1.000  H
  C341     1.0000 0.69360  0.07571  0.96211  Biso   1.000  C
  H393     1.0000 0.81959  0.07410  0.94430  Biso   1.000  H
  H394     1.0000 0.82051  0.01259  0.92630  Biso   1.000  H
  C342     1.0000 0.87120  0.02779  0.99102  Biso   1.000  C
  H395     1.0000 0.87168  0.94771  0.97770  Biso   1.000  H
  H396     1.0000 0.90328  0.96499  0.03112  Biso   1.000  H
  C343     1.0000 0.61701  0.13542  0.94049  Biso   1.000  C
  C344     1.0000 0.55951  0.11701  0.86458  Biso   1.000  C
  C345     1.0000 0.38299  0.86458  0.94049  Biso   1.000  C
  C346     1.0000 0.36458  0.94049  0.88299  Biso   1.000  C
  C347     1.0000 0.42798  0.85312  0.91062  Biso   1.000  C
  H397     1.0000 0.49210  0.79878  0.90212  Biso   1.000  H
  H398     1.0000 0.46888  0.59672  0.96499  Biso   1.000  H
  H399     1.0000 0.52230  0.62832  0.94771  Biso   1.000  H
  C348     1.0000 0.64688  0.08938  0.92798  Biso   1.000  C
  H400     1.0000 0.70122  0.09788  0.99210  Biso   1.000  H
  H401     1.0000 0.87168  0.05229  0.02230  Biso   1.000  H
  H402     1.0000 0.90328  0.03501  0.96888  Biso   1.000  H
  H403     1.0000 0.62752  0.15811  0.96920  Biso   1.000  H
  H404     1.0000 0.53080  0.12752  0.84189  Biso   1.000  H
  C349     1.0000 0.58938  0.07202  0.85312  Biso   1.000  C
  H405     1.0000 0.37248  0.84189  0.96920  Biso   1.000  H
  H406     1.0000 0.34189  0.96920  0.87248  Biso   1.000  H
  C350     1.0000 0.41062  0.92798  0.85312  Biso   1.000  C
  C351     1.0000 0.44049  0.88299  0.86458  Biso   1.000  C
  C352     1.0000 0.63542  0.05951  0.88299  Biso   1.000  C
  C353     1.0000 0.57571  0.03789  0.80640  Biso   1.000  C
  C354     1.0000 0.42429  0.96211  0.80640  Biso   1.000  C
  H407     1.0000 0.46920  0.87248  0.84189  Biso   1.000  H
  H408     1.0000 0.65811  0.03080  0.87248  Biso   1.000  H
  N59      1.0000 0.53621  0.04652  0.77629  Biso   1.000  N
  H409     1.0000 0.59788  0.00790  0.79878  Biso   1.000  H
  N60      1.0000 0.46379  0.95348  0.77629  Biso   1.000  N
  H410     1.0000 0.40212  0.99210  0.79878  Biso   1.000  H
  C355     1.0000 0.52719  0.01191  0.72989  Biso   1.000  C
  C356     1.0000 0.47281  0.98809  0.72989  Biso   1.000  C
  H411     1.0000 0.55381  0.98200  0.73141  Biso   1.000  H
  C357     1.0000 0.53681  0.04230  0.68021  Biso   1.000  C
  C358     1.0000 0.46319  0.95770  0.68021  Biso   1.000  C
  H412     1.0000 0.44619  0.01800  0.73141  Biso   1.000  H
  H413     1.0000 0.57410  0.05570  0.68041  Biso   1.000  H
  H414     1.0000 0.51259  0.07370  0.67949  Biso   1.000  H
  C359     1.0000 0.52779  0.00898  0.62880  Biso   1.000  C
  H415     1.0000 0.42590  0.94430  0.68041  Biso   1.000  H
  H416     1.0000 0.48741  0.92630  0.67949  Biso   1.000  H
  C360     1.0000 0.47221  0.99102  0.62880  Biso   1.000  C
  H417     1.0000 0.55229  0.97770  0.62832  Biso   1.000  H
  H418     1.0000 0.53501  0.03112  0.59672  Biso   1.000  H
  H419     1.0000 0.46499  0.96888  0.59672  Biso   1.000  H
  H420     1.0000 0.44771  0.02230  0.62832  Biso   1.000  H
  C361     1.0000 0.31979  0.46319  0.04230  Biso   1.000  C
  C362     1.0000 0.27011  0.47281  0.01191  Biso   1.000  C
  H421     1.0000 0.31959  0.42590  0.05570  Biso   1.000  H
  H422     1.0000 0.32051  0.48741  0.07370  Biso   1.000  H
  C363     1.0000 0.37120  0.47221  0.00898  Biso   1.000  C
  N61      1.0000 0.22371  0.46379  0.04652  Biso   1.000  N
  C364     1.0000 0.27011  0.52719  0.98809  Biso   1.000  C
  H423     1.0000 0.26859  0.44619  0.98200  Biso   1.000  H
  H424     1.0000 0.40328  0.46499  0.03112  Biso   1.000  H
  C365     1.0000 0.37120  0.52779  0.99102  Biso   1.000  C
  H425     1.0000 0.37168  0.44771  0.97770  Biso   1.000  H
  C366     1.0000 0.19360  0.42429  0.03789  Biso   1.000  C
  H426     1.0000 0.26859  0.55381  0.01800  Biso   1.000  H
  N62      1.0000 0.22371  0.53621  0.95348  Biso   1.000  N
  C367     1.0000 0.31979  0.53681  0.95770  Biso   1.000  C
  H427     1.0000 0.37168  0.55229  0.02230  Biso   1.000  H
  H428     1.0000 0.40328  0.53501  0.96888  Biso   1.000  H
  C368     1.0000 0.14688  0.41062  0.07202  Biso   1.000  C
  H429     1.0000 0.20122  0.40212  0.00790  Biso   1.000  H
  C369     1.0000 0.19360  0.57571  0.96211  Biso   1.000  C
  H430     1.0000 0.31959  0.57410  0.94430  Biso   1.000  H
  H431     1.0000 0.32051  0.51259  0.92630  Biso   1.000  H
  C370     1.0000 0.13542  0.44049  0.11701  Biso   1.000  C
  C371     1.0000 0.11701  0.36458  0.05951  Biso   1.000  C
  C372     1.0000 0.14688  0.58938  0.92798  Biso   1.000  C
  H432     1.0000 0.20122  0.59788  0.99210  Biso   1.000  H
  H433     1.0000 0.15811  0.46920  0.12752  Biso   1.000  H
  C373     1.0000 0.08938  0.42798  0.14688  Biso   1.000  C
  C374     1.0000 0.07202  0.35312  0.08938  Biso   1.000  C
  H434     1.0000 0.12752  0.34189  0.03080  Biso   1.000  H
  C375     1.0000 0.11701  0.63542  0.94049  Biso   1.000  C
  C376     1.0000 0.13542  0.55951  0.88299  Biso   1.000  C
  C377     1.0000 0.05951  0.38299  0.13542  Biso   1.000  C
  C378     1.0000 0.07571  0.46211  0.19360  Biso   1.000  C
  C379     1.0000 0.03789  0.30640  0.07571  Biso   1.000  C
  H435     1.0000 0.12752  0.65811  0.96920  Biso   1.000  H
  C380     1.0000 0.07202  0.64688  0.91062  Biso   1.000  C
  H436     1.0000 0.15811  0.53080  0.87248  Biso   1.000  H
  C381     1.0000 0.08938  0.57202  0.85312  Biso   1.000  C
  H437     1.0000 0.03080  0.37248  0.15811  Biso   1.000  H
  N63      1.0000 0.03621  0.45348  0.22371  Biso   1.000  N
  H438     1.0000 0.09788  0.49210  0.20122  Biso   1.000  H
  N64      1.0000 0.04652  0.27629  0.03621  Biso   1.000  N
  H439     1.0000 0.00790  0.29878  0.09788  Biso   1.000  H
  C382     1.0000 0.05951  0.61701  0.86458  Biso   1.000  C
  C383     1.0000 0.03789  0.69360  0.92429  Biso   1.000  C
  C384     1.0000 0.07571  0.53789  0.80640  Biso   1.000  C
  C385     1.0000 0.02719  0.48809  0.27011  Biso   1.000  C
  C386     1.0000 0.01191  0.22989  0.02719  Biso   1.000  C
  H440     1.0000 0.03080  0.62752  0.84189  Biso   1.000  H
  N65      1.0000 0.04652  0.72371  0.96379  Biso   1.000  N
  H441     1.0000 0.00790  0.70122  0.90212  Biso   1.000  H
  N66      1.0000 0.03621  0.54652  0.77629  Biso   1.000  N
  H442     1.0000 0.09788  0.50790  0.79878  Biso   1.000  H
  H443     1.0000 0.05381  0.51800  0.26859  Biso   1.000  H
  C387     1.0000 0.03681  0.45770  0.31979  Biso   1.000  C
  C388     1.0000 0.97281  0.51191  0.27011  Biso   1.000  C
  C389     1.0000 0.04230  0.18021  0.03681  Biso   1.000  C
  C390     1.0000 0.98809  0.22989  0.97281  Biso   1.000  C
  H444     1.0000 0.98200  0.23141  0.05381  Biso   1.000  H
  C391     1.0000 0.01191  0.77011  0.97281  Biso   1.000  C
  C392     1.0000 0.02719  0.51191  0.72989  Biso   1.000  C
  H445     1.0000 0.07410  0.44430  0.31959  Biso   1.000  H
  H446     1.0000 0.01259  0.42630  0.32051  Biso   1.000  H
  C393     1.0000 0.02779  0.49102  0.37120  Biso   1.000  C
  N67      1.0000 0.96379  0.54652  0.22371  Biso   1.000  N
  H447     1.0000 0.94619  0.48200  0.26859  Biso   1.000  H
  C394     1.0000 0.96319  0.54230  0.31979  Biso   1.000  C
  H448     1.0000 0.05570  0.18041  0.07410  Biso   1.000  H
  H449     1.0000 0.07370  0.17949  0.01259  Biso   1.000  H
  C395     1.0000 0.00898  0.12880  0.02779  Biso   1.000  C
  N68      1.0000 0.95348  0.27629  0.96379  Biso   1.000  N
  C396     1.0000 0.95770  0.18021  0.96319  Biso   1.000  C
  H450     1.0000 0.01800  0.23141  0.94619  Biso   1.000  H
  C397     1.0000 0.98809  0.77011  0.02719  Biso   1.000  C
  H451     1.0000 0.98200  0.76859  0.94619  Biso   1.000  H
  C398     1.0000 0.04230  0.81979  0.96319  Biso   1.000  C
  C399     1.0000 0.97281  0.48809  0.72989  Biso   1.000  C
  H452     1.0000 0.05381  0.48200  0.73141  Biso   1.000  H
  C400     1.0000 0.03681  0.54230  0.68021  Biso   1.000  C
  H453     1.0000 0.03501  0.46888  0.40328  Biso   1.000  H
  H454     1.0000 0.05229  0.52230  0.37168  Biso   1.000  H
  C401     1.0000 0.97221  0.50898  0.37120  Biso   1.000  C
  C402     1.0000 0.92429  0.53789  0.19360  Biso   1.000  C
  H455     1.0000 0.92590  0.55570  0.31959  Biso   1.000  H
  H456     1.0000 0.98741  0.57370  0.32051  Biso   1.000  H
  H457     1.0000 0.03112  0.09672  0.03501  Biso   1.000  H
  C403     1.0000 0.99102  0.12880  0.97221  Biso   1.000  C
  H458     1.0000 0.97770  0.12832  0.05229  Biso   1.000  H
  C404     1.0000 0.96211  0.30640  0.92429  Biso   1.000  C
  H459     1.0000 0.94430  0.18041  0.92590  Biso   1.000  H
  H460     1.0000 0.92630  0.17949  0.98741  Biso   1.000  H
  N69      1.0000 0.95348  0.72371  0.03621  Biso   1.000  N
  H461     1.0000 0.01800  0.76859  0.05381  Biso   1.000  H
  C405     1.0000 0.95770  0.81979  0.03681  Biso   1.000  C
  H462     1.0000 0.05570  0.81959  0.92590  Biso   1.000  H
  H463     1.0000 0.07370  0.82051  0.98741  Biso   1.000  H
  C406     1.0000 0.00898  0.87120  0.97221  Biso   1.000  C
  N70      1.0000 0.96379  0.45348  0.77629  Biso   1.000  N
  H464     1.0000 0.94619  0.51800  0.73141  Biso   1.000  H
  C407     1.0000 0.96319  0.45770  0.68021  Biso   1.000  C
  H465     1.0000 0.07410  0.55570  0.68041  Biso   1.000  H
  H466     1.0000 0.01259  0.57370  0.67949  Biso   1.000  H
  C408     1.0000 0.02779  0.50898  0.62880  Biso   1.000  C
  H467     1.0000 0.96499  0.53112  0.40328  Biso   1.000  H
  H468     1.0000 0.94771  0.47770  0.37168  Biso   1.000  H
  C409     1.0000 0.91062  0.57202  0.14688  Biso   1.000  C
  H469     1.0000 0.90212  0.50790  0.20122  Biso   1.000  H
  H470     1.0000 0.96888  0.09672  0.96499  Biso   1.000  H
  H471     1.0000 0.02230  0.12832  0.94771  Biso   1.000  H
  C410     1.0000 0.92798  0.35312  0.91062  Biso   1.000  C
  H472     1.0000 0.99210  0.29878  0.90212  Biso   1.000  H
  C411     1.0000 0.96211  0.69360  0.07571  Biso   1.000  C
  H473     1.0000 0.94430  0.81959  0.07410  Biso   1.000  H
  H474     1.0000 0.92630  0.82051  0.01259  Biso   1.000  H
  C412     1.0000 0.99102  0.87120  0.02779  Biso   1.000  C
  H475     1.0000 0.97770  0.87168  0.94771  Biso   1.000  H
  H476     1.0000 0.03112  0.90328  0.96499  Biso   1.000  H
  C413     1.0000 0.92429  0.46211  0.80640  Biso   1.000  C
  H477     1.0000 0.92590  0.44430  0.68041  Biso   1.000  H
  H478     1.0000 0.98741  0.42630  0.67949  Biso   1.000  H
  C414     1.0000 0.97221  0.49102  0.62880  Biso   1.000  C
  H479     1.0000 0.03501  0.53112  0.59672  Biso   1.000  H
  H480     1.0000 0.05229  0.47770  0.62832  Biso   1.000  H
  C415     1.0000 0.86458  0.55951  0.11701  Biso   1.000  C
  C416     1.0000 0.94049  0.61701  0.13542  Biso   1.000  C
  C417     1.0000 0.88299  0.36458  0.94049  Biso   1.000  C
  C418     1.0000 0.94049  0.38299  0.86458  Biso   1.000  C
  C419     1.0000 0.92798  0.64688  0.08938  Biso   1.000  C
  H481     1.0000 0.99210  0.70122  0.09788  Biso   1.000  H
  H482     1.0000 0.02230  0.87168  0.05229  Biso   1.000  H
  H483     1.0000 0.96888  0.90328  0.03501  Biso   1.000  H
  C420     1.0000 0.91062  0.42798  0.85312  Biso   1.000  C
  H484     1.0000 0.90212  0.49210  0.79878  Biso   1.000  H
  H485     1.0000 0.96499  0.46888  0.59672  Biso   1.000  H
  H486     1.0000 0.94771  0.52230  0.62832  Biso   1.000  H
  H487     1.0000 0.84189  0.53080  0.12752  Biso   1.000  H
  C421     1.0000 0.85312  0.58938  0.07202  Biso   1.000  C
  H488     1.0000 0.96920  0.62752  0.15811  Biso   1.000  H
  H489     1.0000 0.87248  0.34189  0.96920  Biso   1.000  H
  C422     1.0000 0.85312  0.41062  0.92798  Biso   1.000  C
  H490     1.0000 0.96920  0.37248  0.84189  Biso   1.000  H
  C423     1.0000 0.88299  0.63542  0.05951  Biso   1.000  C
  C424     1.0000 0.86458  0.44049  0.88299  Biso   1.000  C
  C425     1.0000 0.80640  0.57571  0.03789  Biso   1.000  C
  C426     1.0000 0.80640  0.42429  0.96211  Biso   1.000  C
  H491     1.0000 0.87248  0.65811  0.03080  Biso   1.000  H
  H492     1.0000 0.84189  0.46920  0.87248  Biso   1.000  H
  N71      1.0000 0.77629  0.53621  0.04652  Biso   1.000  N
  H493     1.0000 0.79878  0.59788  0.00790  Biso   1.000  H
  N72      1.0000 0.77629  0.46379  0.95348  Biso   1.000  N
  H494     1.0000 0.79878  0.40212  0.99210  Biso   1.000  H
  C427     1.0000 0.72989  0.52719  0.01191  Biso   1.000  C
  C428     1.0000 0.72989  0.47281  0.98809  Biso   1.000  C
  H495     1.0000 0.73141  0.55381  0.98200  Biso   1.000  H
  C429     1.0000 0.68021  0.53681  0.04230  Biso   1.000  C
  C430     1.0000 0.68021  0.46319  0.95770  Biso   1.000  C
  H496     1.0000 0.73141  0.44619  0.01800  Biso   1.000  H
  H497     1.0000 0.68041  0.57410  0.05570  Biso   1.000  H
  H498     1.0000 0.67949  0.51259  0.07370  Biso   1.000  H
  C431     1.0000 0.62880  0.52779  0.00898  Biso   1.000  C
  H499     1.0000 0.68041  0.42590  0.94430  Biso   1.000  H
  H500     1.0000 0.67949  0.48741  0.92630  Biso   1.000  H
  C432     1.0000 0.62880  0.47221  0.99102  Biso   1.000  C
  H501     1.0000 0.62832  0.55229  0.97770  Biso   1.000  H
  H502     1.0000 0.59672  0.53501  0.03112  Biso   1.000  H
  H503     1.0000 0.59672  0.46499  0.96888  Biso   1.000  H
  H504     1.0000 0.62832  0.44771  0.02230  Biso   1.000  H
  C433     1.0000 0.04230  0.31979  0.46319  Biso   1.000  C
  C434     1.0000 0.01191  0.27011  0.47281  Biso   1.000  C
  H505     1.0000 0.05570  0.31959  0.42590  Biso   1.000  H
  H506     1.0000 0.07370  0.32051  0.48741  Biso   1.000  H
  C435     1.0000 0.00898  0.37120  0.47221  Biso   1.000  C
  N73      1.0000 0.04652  0.22371  0.46379  Biso   1.000  N
  C436     1.0000 0.98809  0.27011  0.52719  Biso   1.000  C
  H507     1.0000 0.98200  0.26859  0.44619  Biso   1.000  H
  H508     1.0000 0.03112  0.40328  0.46499  Biso   1.000  H
  C437     1.0000 0.99102  0.37120  0.52779  Biso   1.000  C
  H509     1.0000 0.97770  0.37168  0.44771  Biso   1.000  H
  C438     1.0000 0.03789  0.19360  0.42429  Biso   1.000  C
  H510     1.0000 0.01800  0.26859  0.55381  Biso   1.000  H
  N74      1.0000 0.95348  0.22371  0.53621  Biso   1.000  N
  C439     1.0000 0.95770  0.31979  0.53681  Biso   1.000  C
  H511     1.0000 0.02230  0.37168  0.55229  Biso   1.000  H
  H512     1.0000 0.96888  0.40328  0.53501  Biso   1.000  H
  C440     1.0000 0.07202  0.14688  0.41062  Biso   1.000  C
  H513     1.0000 0.00790  0.20122  0.40212  Biso   1.000  H
  C441     1.0000 0.96211  0.19360  0.57571  Biso   1.000  C
  H514     1.0000 0.94430  0.31959  0.57410  Biso   1.000  H
  H515     1.0000 0.92630  0.32051  0.51259  Biso   1.000  H
  C442     1.0000 0.11701  0.13542  0.44049  Biso   1.000  C
  C443     1.0000 0.05951  0.11701  0.36458  Biso   1.000  C
  C444     1.0000 0.92798  0.14688  0.58938  Biso   1.000  C
  H516     1.0000 0.99210  0.20122  0.59788  Biso   1.000  H
  C445     1.0000 0.14688  0.08938  0.42798  Biso   1.000  C
  H517     1.0000 0.12752  0.15811  0.46920  Biso   1.000  H
  C446     1.0000 0.08938  0.07202  0.35312  Biso   1.000  C
  H518     1.0000 0.03080  0.12752  0.34189  Biso   1.000  H
  C447     1.0000 0.88299  0.13542  0.55951  Biso   1.000  C
  C448     1.0000 0.94049  0.11701  0.63542  Biso   1.000  C
  C449     1.0000 0.13542  0.05951  0.38299  Biso   1.000  C
  C450     1.0000 0.19360  0.07571  0.46211  Biso   1.000  C
  C451     1.0000 0.07571  0.03789  0.30640  Biso   1.000  C
  H519     1.0000 0.87248  0.15811  0.53080  Biso   1.000  H
  C452     1.0000 0.85312  0.08938  0.57202  Biso   1.000  C
  H520     1.0000 0.96920  0.12752  0.65811  Biso   1.000  H
  C453     1.0000 0.91062  0.07202  0.64688  Biso   1.000  C
  H521     1.0000 0.15811  0.03080  0.37248  Biso   1.000  H
  N75      1.0000 0.22371  0.03621  0.45348  Biso   1.000  N
  H522     1.0000 0.20122  0.09788  0.49210  Biso   1.000  H
  N76      1.0000 0.03621  0.04652  0.27629  Biso   1.000  N
  H523     1.0000 0.09788  0.00790  0.29878  Biso   1.000  H
  C454     1.0000 0.86458  0.05951  0.61701  Biso   1.000  C
  C455     1.0000 0.80640  0.07571  0.53789  Biso   1.000  C
  C456     1.0000 0.92429  0.03789  0.69360  Biso   1.000  C
  C457     1.0000 0.27011  0.02719  0.48809  Biso   1.000  C
  C458     1.0000 0.02719  0.01191  0.22989  Biso   1.000  C
  H524     1.0000 0.84189  0.03080  0.62752  Biso   1.000  H
  N77      1.0000 0.77629  0.03621  0.54652  Biso   1.000  N
  H525     1.0000 0.79878  0.09788  0.50790  Biso   1.000  H
  N78      1.0000 0.96379  0.04652  0.72371  Biso   1.000  N
  H526     1.0000 0.90212  0.00790  0.70122  Biso   1.000  H
  H527     1.0000 0.26859  0.05381  0.51800  Biso   1.000  H
  C459     1.0000 0.31979  0.03681  0.45770  Biso   1.000  C
  C460     1.0000 0.27011  0.97281  0.51191  Biso   1.000  C
  C461     1.0000 0.03681  0.04230  0.18021  Biso   1.000  C
  C462     1.0000 0.97281  0.98809  0.22989  Biso   1.000  C
  H528     1.0000 0.05381  0.98200  0.23141  Biso   1.000  H
  C463     1.0000 0.72989  0.02719  0.51191  Biso   1.000  C
  C464     1.0000 0.97281  0.01191  0.77011  Biso   1.000  C
  H529     1.0000 0.31959  0.07410  0.44430  Biso   1.000  H
  H530     1.0000 0.32051  0.01259  0.42630  Biso   1.000  H
  C465     1.0000 0.37120  0.02779  0.49102  Biso   1.000  C
  N79      1.0000 0.22371  0.96379  0.54652  Biso   1.000  N
  H531     1.0000 0.26859  0.94619  0.48200  Biso   1.000  H
  C466     1.0000 0.31979  0.96319  0.54230  Biso   1.000  C
  H532     1.0000 0.07410  0.05570  0.18041  Biso   1.000  H
  H533     1.0000 0.01259  0.07370  0.17949  Biso   1.000  H
  C467     1.0000 0.02779  0.00898  0.12880  Biso   1.000  C
  N80      1.0000 0.96379  0.95348  0.27629  Biso   1.000  N
  C468     1.0000 0.96319  0.95770  0.18021  Biso   1.000  C
  H534     1.0000 0.94619  0.01800  0.23141  Biso   1.000  H
  C469     1.0000 0.72989  0.97281  0.48809  Biso   1.000  C
  H535     1.0000 0.73141  0.05381  0.48200  Biso   1.000  H
  C470     1.0000 0.68021  0.03681  0.54230  Biso   1.000  C
  C471     1.0000 0.02719  0.98809  0.77011  Biso   1.000  C
  H536     1.0000 0.94619  0.98200  0.76859  Biso   1.000  H
  C472     1.0000 0.96319  0.04230  0.81979  Biso   1.000  C
  H537     1.0000 0.40328  0.03501  0.46888  Biso   1.000  H
  H538     1.0000 0.37168  0.05229  0.52230  Biso   1.000  H
  C473     1.0000 0.37120  0.97221  0.50898  Biso   1.000  C
  C474     1.0000 0.19360  0.92429  0.53789  Biso   1.000  C
  H539     1.0000 0.31959  0.92590  0.55570  Biso   1.000  H
  H540     1.0000 0.32051  0.98741  0.57370  Biso   1.000  H
  H541     1.0000 0.03501  0.03112  0.09672  Biso   1.000  H
  C475     1.0000 0.97221  0.99102  0.12880  Biso   1.000  C
  H542     1.0000 0.05229  0.97770  0.12832  Biso   1.000  H
  C476     1.0000 0.92429  0.96211  0.30640  Biso   1.000  C
  H543     1.0000 0.92590  0.94430  0.18041  Biso   1.000  H
  H544     1.0000 0.98741  0.92630  0.17949  Biso   1.000  H
  N81      1.0000 0.77629  0.96379  0.45348  Biso   1.000  N
  H545     1.0000 0.73141  0.94619  0.51800  Biso   1.000  H
  C477     1.0000 0.68021  0.96319  0.45770  Biso   1.000  C
  C478     1.0000 0.62880  0.02779  0.50898  Biso   1.000  C
  H546     1.0000 0.68041  0.07410  0.55570  Biso   1.000  H
  H547     1.0000 0.67949  0.01259  0.57370  Biso   1.000  H
  N82      1.0000 0.03621  0.95348  0.72371  Biso   1.000  N
  H548     1.0000 0.05381  0.01800  0.76859  Biso   1.000  H
  C479     1.0000 0.03681  0.95770  0.81979  Biso   1.000  C
  H549     1.0000 0.92590  0.05570  0.81959  Biso   1.000  H
  H550     1.0000 0.98741  0.07370  0.82051  Biso   1.000  H
  C480     1.0000 0.97221  0.00898  0.87120  Biso   1.000  C
  H551     1.0000 0.40328  0.96499  0.53112  Biso   1.000  H
  H552     1.0000 0.37168  0.94771  0.47770  Biso   1.000  H
  C481     1.0000 0.14688  0.91062  0.57202  Biso   1.000  C
  H553     1.0000 0.20122  0.90212  0.50790  Biso   1.000  H
  H554     1.0000 0.96499  0.96888  0.09672  Biso   1.000  H
  H555     1.0000 0.94771  0.02230  0.12832  Biso   1.000  H
  C482     1.0000 0.91062  0.92798  0.35312  Biso   1.000  C
  H556     1.0000 0.90212  0.99210  0.29878  Biso   1.000  H
  C483     1.0000 0.80640  0.92429  0.46211  Biso   1.000  C
  H557     1.0000 0.68041  0.92590  0.44430  Biso   1.000  H
  H558     1.0000 0.67949  0.98741  0.42630  Biso   1.000  H
  C484     1.0000 0.62880  0.97221  0.49102  Biso   1.000  C
  H559     1.0000 0.59672  0.03501  0.53112  Biso   1.000  H
  H560     1.0000 0.62832  0.05229  0.47770  Biso   1.000  H
  C485     1.0000 0.07571  0.96211  0.69360  Biso   1.000  C
  H561     1.0000 0.07410  0.94430  0.81959  Biso   1.000  H
  H562     1.0000 0.01259  0.92630  0.82051  Biso   1.000  H
  C486     1.0000 0.02779  0.99102  0.87120  Biso   1.000  C
  H563     1.0000 0.94771  0.97770  0.87168  Biso   1.000  H
  H564     1.0000 0.96499  0.03112  0.90328  Biso   1.000  H
  C487     1.0000 0.11701  0.86458  0.55951  Biso   1.000  C
  C488     1.0000 0.13542  0.94049  0.61701  Biso   1.000  C
  C489     1.0000 0.86458  0.94049  0.38299  Biso   1.000  C
  C490     1.0000 0.94049  0.88299  0.36458  Biso   1.000  C
  C491     1.0000 0.85312  0.91062  0.42798  Biso   1.000  C
  H565     1.0000 0.79878  0.90212  0.49210  Biso   1.000  H
  H566     1.0000 0.59672  0.96499  0.46888  Biso   1.000  H
  H567     1.0000 0.62832  0.94771  0.52230  Biso   1.000  H
  C492     1.0000 0.08938  0.92798  0.64688  Biso   1.000  C
  H568     1.0000 0.09788  0.99210  0.70122  Biso   1.000  H
  H569     1.0000 0.05229  0.02230  0.87168  Biso   1.000  H
  H570     1.0000 0.03501  0.96888  0.90328  Biso   1.000  H
  H571     1.0000 0.12752  0.84189  0.53080  Biso   1.000  H
  C493     1.0000 0.07202  0.85312  0.58938  Biso   1.000  C
  H572     1.0000 0.15811  0.96920  0.62752  Biso   1.000  H
  H573     1.0000 0.84189  0.96920  0.37248  Biso   1.000  H
  H574     1.0000 0.96920  0.87248  0.34189  Biso   1.000  H
  C494     1.0000 0.92798  0.85312  0.41062  Biso   1.000  C
  C495     1.0000 0.88299  0.86458  0.44049  Biso   1.000  C
  C496     1.0000 0.05951  0.88299  0.63542  Biso   1.000  C
  C497     1.0000 0.03789  0.80640  0.57571  Biso   1.000  C
  C498     1.0000 0.96211  0.80640  0.42429  Biso   1.000  C
  H575     1.0000 0.87248  0.84189  0.46920  Biso   1.000  H
  H576     1.0000 0.03080  0.87248  0.65811  Biso   1.000  H
  N83      1.0000 0.04652  0.77629  0.53621  Biso   1.000  N
  H577     1.0000 0.00790  0.79878  0.59788  Biso   1.000  H
  N84      1.0000 0.95348  0.77629  0.46379  Biso   1.000  N
  H578     1.0000 0.99210  0.79878  0.40212  Biso   1.000  H
  C499     1.0000 0.01191  0.72989  0.52719  Biso   1.000  C
  C500     1.0000 0.98809  0.72989  0.47281  Biso   1.000  C
  H579     1.0000 0.98200  0.73141  0.55381  Biso   1.000  H
  C501     1.0000 0.04230  0.68021  0.53681  Biso   1.000  C
  C502     1.0000 0.95770  0.68021  0.46319  Biso   1.000  C
  H580     1.0000 0.01800  0.73141  0.44619  Biso   1.000  H
  H581     1.0000 0.05570  0.68041  0.57410  Biso   1.000  H
  H582     1.0000 0.07370  0.67949  0.51259  Biso   1.000  H
  C503     1.0000 0.00898  0.62880  0.52779  Biso   1.000  C
  H583     1.0000 0.94430  0.68041  0.42590  Biso   1.000  H
  H584     1.0000 0.92630  0.67949  0.48741  Biso   1.000  H
  C504     1.0000 0.99102  0.62880  0.47221  Biso   1.000  C
  H585     1.0000 0.97770  0.62832  0.55229  Biso   1.000  H
  H586     1.0000 0.03112  0.59672  0.53501  Biso   1.000  H
  H587     1.0000 0.96888  0.59672  0.46499  Biso   1.000  H
  H588     1.0000 0.02230  0.62832  0.44771  Biso   1.000  H
  C505     1.0000 0.75900  0.72219  0.37882  Biso   1.000  C
  C506     1.0000 0.79228  0.71321  0.43019  Biso   1.000  C
  C507     1.0000 0.74100  0.77781  0.37882  Biso   1.000  C
  H589     1.0000 0.78110  0.71501  0.34670  Biso   1.000  H
  H590     1.0000 0.72768  0.69769  0.37830  Biso   1.000  H
  C508     1.0000 0.76189  0.72279  0.47987  Biso   1.000  C
  H591     1.0000 0.80572  0.67592  0.43039  Biso   1.000  H
  H592     1.0000 0.82368  0.73739  0.42951  Biso   1.000  H
  C509     1.0000 0.70772  0.78679  0.43019  Biso   1.000  C
  H593     1.0000 0.71890  0.78499  0.34670  Biso   1.000  H
  H594     1.0000 0.77232  0.80231  0.37830  Biso   1.000  H
  N85      1.0000 0.79650  0.71381  0.52627  Biso   1.000  N
  C510     1.0000 0.73811  0.77721  0.47987  Biso   1.000  C
  H595     1.0000 0.73202  0.69621  0.48139  Biso   1.000  H
  H596     1.0000 0.69428  0.82408  0.43039  Biso   1.000  H
  H597     1.0000 0.67632  0.76261  0.42951  Biso   1.000  H
  C511     1.0000 0.78791  0.67431  0.55642  Biso   1.000  C
  N86      1.0000 0.70350  0.78619  0.52627  Biso   1.000  N
  H598     1.0000 0.76798  0.80379  0.48139  Biso   1.000  H
  C512     1.0000 0.82200  0.66060  0.60310  Biso   1.000  C
  H599     1.0000 0.75792  0.65210  0.54880  Biso   1.000  H
  C513     1.0000 0.71209  0.82569  0.55642  Biso   1.000  C
  C514     1.0000 0.86699  0.69051  0.61460  Biso   1.000  C
  C515     1.0000 0.80949  0.61460  0.63301  Biso   1.000  C
  C516     1.0000 0.67800  0.83940  0.60310  Biso   1.000  C
  H600     1.0000 0.74208  0.84790  0.54880  Biso   1.000  H
  H601     1.0000 0.87750  0.71918  0.59191  Biso   1.000  H
  C517     1.0000 0.89690  0.67800  0.66060  Biso   1.000  C
  H602     1.0000 0.78082  0.59191  0.62250  Biso   1.000  H
  C518     1.0000 0.83940  0.60310  0.67800  Biso   1.000  C
  C519     1.0000 0.63301  0.80949  0.61460  Biso   1.000  C
  C520     1.0000 0.69051  0.88540  0.63301  Biso   1.000  C
  C521     1.0000 0.88540  0.63301  0.69051  Biso   1.000  C
  C522     1.0000 0.94358  0.71209  0.67431  Biso   1.000  C
  C523     1.0000 0.82569  0.55642  0.71209  Biso   1.000  C
  H603     1.0000 0.62250  0.78082  0.59191  Biso   1.000  H
  C524     1.0000 0.60310  0.82200  0.66060  Biso   1.000  C
  H604     1.0000 0.71918  0.90809  0.62250  Biso   1.000  H
  C525     1.0000 0.66060  0.89690  0.67800  Biso   1.000  C
  H605     1.0000 0.90809  0.62250  0.71918  Biso   1.000  H
  N87      1.0000 0.97373  0.70350  0.71381  Biso   1.000  N
  H606     1.0000 0.95120  0.74208  0.65210  Biso   1.000  H
  N88      1.0000 0.78619  0.52627  0.70350  Biso   1.000  N
  H607     1.0000 0.84790  0.54880  0.74208  Biso   1.000  H
  C526     1.0000 0.61460  0.86699  0.69051  Biso   1.000  C
  C527     1.0000 0.55642  0.78791  0.67431  Biso   1.000  C
  C528     1.0000 0.67431  0.94358  0.71209  Biso   1.000  C
  C529     1.0000 0.02013  0.73811  0.72279  Biso   1.000  C
  C530     1.0000 0.77721  0.47987  0.73811  Biso   1.000  C
  H608     1.0000 0.59191  0.87750  0.71918  Biso   1.000  H
  N89      1.0000 0.52627  0.79650  0.71381  Biso   1.000  N
  H609     1.0000 0.54880  0.75792  0.65210  Biso   1.000  H
  N90      1.0000 0.71381  0.97373  0.70350  Biso   1.000  N
  H610     1.0000 0.65210  0.95120  0.74208  Biso   1.000  H
  C531     1.0000 0.02013  0.76189  0.77721  Biso   1.000  C
  H611     1.0000 0.01861  0.76798  0.69621  Biso   1.000  H
  C532     1.0000 0.06981  0.70772  0.71321  Biso   1.000  C
  C533     1.0000 0.72279  0.47987  0.76189  Biso   1.000  C
  H612     1.0000 0.80379  0.48139  0.76798  Biso   1.000  H
  C534     1.0000 0.78679  0.43019  0.70772  Biso   1.000  C
  C535     1.0000 0.47987  0.76189  0.72279  Biso   1.000  C
  C536     1.0000 0.72279  0.02013  0.73811  Biso   1.000  C
  N91      1.0000 0.97373  0.79650  0.78619  Biso   1.000  N
  H613     1.0000 0.01861  0.73202  0.80379  Biso   1.000  H
  C537     1.0000 0.06981  0.79228  0.78679  Biso   1.000  C
  H614     1.0000 0.06961  0.69428  0.67592  Biso   1.000  H
  H615     1.0000 0.07049  0.67632  0.73739  Biso   1.000  H
  C538     1.0000 0.12118  0.74100  0.72219  Biso   1.000  C
  N92      1.0000 0.71381  0.52627  0.79650  Biso   1.000  N
  H616     1.0000 0.69621  0.48139  0.73202  Biso   1.000  H
  C539     1.0000 0.71321  0.43019  0.79228  Biso   1.000  C
  H617     1.0000 0.82408  0.43039  0.69428  Biso   1.000  H
  H618     1.0000 0.76261  0.42951  0.67632  Biso   1.000  H
  C540     1.0000 0.77781  0.37882  0.74100  Biso   1.000  C
  C541     1.0000 0.47987  0.73811  0.77721  Biso   1.000  C
  H619     1.0000 0.48139  0.73202  0.69621  Biso   1.000  H
  C542     1.0000 0.43019  0.79228  0.71321  Biso   1.000  C
  C543     1.0000 0.77721  0.02013  0.76189  Biso   1.000  C
  H620     1.0000 0.69621  0.01861  0.76798  Biso   1.000  H
  C544     1.0000 0.71321  0.06981  0.70772  Biso   1.000  C
  C545     1.0000 0.94358  0.78791  0.82569  Biso   1.000  C
  H621     1.0000 0.06961  0.80572  0.82408  Biso   1.000  H
  H622     1.0000 0.07049  0.82368  0.76261  Biso   1.000  H
  C546     1.0000 0.12118  0.75900  0.77781  Biso   1.000  C
  H623     1.0000 0.15330  0.71890  0.71501  Biso   1.000  H
  H624     1.0000 0.12170  0.77232  0.69769  Biso   1.000  H
  C547     1.0000 0.67431  0.55642  0.78791  Biso   1.000  C
  H625     1.0000 0.67592  0.43039  0.80572  Biso   1.000  H
  H626     1.0000 0.73739  0.42951  0.82368  Biso   1.000  H
  C548     1.0000 0.72219  0.37882  0.75900  Biso   1.000  C
  H627     1.0000 0.78499  0.34670  0.71890  Biso   1.000  H
  H628     1.0000 0.80231  0.37830  0.77232  Biso   1.000  H
  N93      1.0000 0.52627  0.70350  0.78619  Biso   1.000  N
  H629     1.0000 0.48139  0.76798  0.80379  Biso   1.000  H
  C549     1.0000 0.43019  0.70772  0.78679  Biso   1.000  C
  H630     1.0000 0.43039  0.80572  0.67592  Biso   1.000  H
  H631     1.0000 0.42951  0.82368  0.73739  Biso   1.000  H
  C550     1.0000 0.37882  0.75900  0.72219  Biso   1.000  C
  N94      1.0000 0.78619  0.97373  0.79650  Biso   1.000  N
  H632     1.0000 0.80379  0.01861  0.73202  Biso   1.000  H
  C551     1.0000 0.78679  0.06981  0.79228  Biso   1.000  C
  H633     1.0000 0.67592  0.06961  0.69428  Biso   1.000  H
  H634     1.0000 0.73739  0.07049  0.67632  Biso   1.000  H
  C552     1.0000 0.72219  0.12118  0.74100  Biso   1.000  C
  C553     1.0000 0.89690  0.82200  0.83940  Biso   1.000  C
  H635     1.0000 0.95120  0.75792  0.84790  Biso   1.000  H
  H636     1.0000 0.15330  0.78110  0.78499  Biso   1.000  H
  H637     1.0000 0.12170  0.72768  0.80231  Biso   1.000  H
  C554     1.0000 0.66060  0.60310  0.82200  Biso   1.000  C
  H638     1.0000 0.65210  0.54880  0.75792  Biso   1.000  H
  H639     1.0000 0.71501  0.34670  0.78110  Biso   1.000  H
  H640     1.0000 0.69769  0.37830  0.72768  Biso   1.000  H
  C555     1.0000 0.55642  0.71209  0.82569  Biso   1.000  C
  H641     1.0000 0.43039  0.69428  0.82408  Biso   1.000  H
  H642     1.0000 0.42951  0.67632  0.76261  Biso   1.000  H
  C556     1.0000 0.37882  0.74100  0.77781  Biso   1.000  C
  H643     1.0000 0.34670  0.78110  0.71501  Biso   1.000  H
  H644     1.0000 0.37830  0.72768  0.69769  Biso   1.000  H
  C557     1.0000 0.82569  0.94358  0.78791  Biso   1.000  C
  H645     1.0000 0.82408  0.06961  0.80572  Biso   1.000  H
  H646     1.0000 0.76261  0.07049  0.82368  Biso   1.000  H
  C558     1.0000 0.77781  0.12118  0.75900  Biso   1.000  C
  H647     1.0000 0.71501  0.15330  0.71890  Biso   1.000  H
  H648     1.0000 0.69769  0.12170  0.77232  Biso   1.000  H
  C559     1.0000 0.88540  0.86699  0.80949  Biso   1.000  C
  C560     1.0000 0.86699  0.80949  0.88540  Biso   1.000  C
  C561     1.0000 0.61460  0.63301  0.80949  Biso   1.000  C
  C562     1.0000 0.69051  0.61460  0.86699  Biso   1.000  C
  C563     1.0000 0.60310  0.67800  0.83940  Biso   1.000  C
  H649     1.0000 0.54880  0.74208  0.84790  Biso   1.000  H
  H650     1.0000 0.34670  0.71890  0.78499  Biso   1.000  H
  H651     1.0000 0.37830  0.77232  0.80231  Biso   1.000  H
  C564     1.0000 0.83940  0.89690  0.82200  Biso   1.000  C
  H652     1.0000 0.84790  0.95120  0.75792  Biso   1.000  H
  H653     1.0000 0.78499  0.15330  0.78110  Biso   1.000  H
  H654     1.0000 0.80231  0.12170  0.72768  Biso   1.000  H
  H655     1.0000 0.90809  0.87750  0.78082  Biso   1.000  H
  H656     1.0000 0.87750  0.78082  0.90809  Biso   1.000  H
  C565     1.0000 0.82200  0.83940  0.89690  Biso   1.000  C
  H657     1.0000 0.59191  0.62250  0.78082  Biso   1.000  H
  H658     1.0000 0.71918  0.59191  0.87750  Biso   1.000  H
  C566     1.0000 0.67800  0.66060  0.89690  Biso   1.000  C
  C567     1.0000 0.63301  0.69051  0.88540  Biso   1.000  C
  C568     1.0000 0.80949  0.88540  0.86699  Biso   1.000  C
  C569     1.0000 0.78791  0.82569  0.94358  Biso   1.000  C
  C570     1.0000 0.71209  0.67431  0.94358  Biso   1.000  C
  H659     1.0000 0.62250  0.71918  0.90809  Biso   1.000  H
  H660     1.0000 0.78082  0.90809  0.87750  Biso   1.000  H
  N95      1.0000 0.79650  0.78619  0.97373  Biso   1.000  N
  H661     1.0000 0.75792  0.84790  0.95120  Biso   1.000  H
  N96      1.0000 0.70350  0.71381  0.97373  Biso   1.000  N
  H662     1.0000 0.74208  0.65210  0.95120  Biso   1.000  H
  C571     1.0000 0.76189  0.77721  0.02013  Biso   1.000  C
  C572     1.0000 0.73811  0.72279  0.02013  Biso   1.000  C
  H663     1.0000 0.73202  0.80379  0.01861  Biso   1.000  H
  C573     1.0000 0.79228  0.78679  0.06981  Biso   1.000  C
  H664     1.0000 0.76798  0.69621  0.01861  Biso   1.000  H
  C574     1.0000 0.70772  0.71321  0.06981  Biso   1.000  C
  H665     1.0000 0.80572  0.82408  0.06961  Biso   1.000  H
  H666     1.0000 0.82368  0.76261  0.07049  Biso   1.000  H
  C575     1.0000 0.75900  0.77781  0.12118  Biso   1.000  C
  H667     1.0000 0.69428  0.67592  0.06961  Biso   1.000  H
  H668     1.0000 0.67632  0.73739  0.07049  Biso   1.000  H
  C576     1.0000 0.74100  0.72219  0.12118  Biso   1.000  C
  H669     1.0000 0.78110  0.78499  0.15330  Biso   1.000  H
  H670     1.0000 0.72768  0.80231  0.12170  Biso   1.000  H
  H671     1.0000 0.71890  0.71501  0.15330  Biso   1.000  H
  H672     1.0000 0.77232  0.69769  0.12170  Biso   1.000  H
  Ne1      1.0000 0.75000  0.25000  0.25000  Biso   1.000  Ne
  He1      1.0000 0.68300  0.31700  0.31700  Biso   1.000  He
  He2      1.0000 0.81656  0.18344  0.31657  Biso   1.000  He
  He3      1.0000 0.81909  0.31909  0.18091  Biso   1.000  He
  He4      1.0000 0.68031  0.18031  0.18031  Biso   1.000  He
  Ar1      1.0000 0.75000  0.25000  0.25000  Biso   1.000  Ar
  Ne2      1.0000 0.25000  0.75000  0.25000  Biso   1.000  Ne
  He5      1.0000 0.18300  0.81700  0.31700  Biso   1.000  He
  He6      1.0000 0.31656  0.68344  0.31657  Biso   1.000  He
  He7      1.0000 0.31909  0.81909  0.18091  Biso   1.000  He
  He8      1.0000 0.18031  0.68031  0.18031  Biso   1.000  He
  Ar2      1.0000 0.25000  0.75000  0.25000  Biso   1.000  Ar
  Ne3      1.0000 0.25000  0.25000  0.75000  Biso   1.000  Ne
  He9      1.0000 0.18300  0.31700  0.81700  Biso   1.000  He
  He10     1.0000 0.31656  0.18344  0.81657  Biso   1.000  He
  He11     1.0000 0.31909  0.31909  0.68091  Biso   1.000  He
  He12     1.0000 0.18031  0.18031  0.68031  Biso   1.000  He
  Ar3      1.0000 0.25000  0.25000  0.75000  Biso   1.000  Ar
  Ne4      1.0000 0.50000  0.00000  0.00000  Biso   1.000  Ne
  He13     1.0000 0.43121  0.93121  0.06879  Biso   1.000  He
  He14     1.0000 0.56799  0.06800  0.06799  Biso   1.000  He
  He15     1.0000 0.56476  0.93524  0.93524  Biso   1.000  He
  He16     1.0000 0.43106  0.06894  0.93106  Biso   1.000  He
  Ar4      1.0000 0.50000  0.00000  0.00000  Biso   1.000  Ar
  Ne5      1.0000 0.50000  0.50000  0.50000  Biso   1.000  Ne
  He17     1.0000 0.43121  0.43121  0.56879  Biso   1.000  He
  He18     1.0000 0.56799  0.56800  0.56799  Biso   1.000  He
  He19     1.0000 0.56476  0.43524  0.43524  Biso   1.000  He
  He20     1.0000 0.43106  0.56894  0.43106  Biso   1.000  He
  Ar5      1.0000 0.50000  0.50000  0.50000  Biso   1.000  Ar
  Ne6      1.0000 0.00000  0.00000  0.50000  Biso   1.000  Ne
  He21     1.0000 0.93121  0.93121  0.56879  Biso   1.000  He
  He22     1.0000 0.06799  0.06800  0.56799  Biso   1.000  He
  He23     1.0000 0.06476  0.93524  0.43524  Biso   1.000  He
  He24     1.0000 0.93106  0.06894  0.43106  Biso   1.000  He
  Ar6      1.0000 0.00000  0.00000  0.50000  Biso   1.000  Ar
  Ne7      1.0000 0.00000  0.50000  0.00000  Biso   1.000  Ne
  He25     1.0000 0.93121  0.43121  0.06879  Biso   1.000  He
  He26     1.0000 0.06799  0.56800  0.06799  Biso   1.000  He
  He27     1.0000 0.06476  0.43524  0.93524  Biso   1.000  He
  He28     1.0000 0.93106  0.56894  0.93106  Biso   1.000  He
  Ar7      1.0000 0.00000  0.50000  0.00000  Biso   1.000  Ar
  Ne8      1.0000 0.75000  0.75000  0.75000  Biso   1.000  Ne
  He29     1.0000 0.68300  0.81700  0.81700  Biso   1.000  He
  He30     1.0000 0.81656  0.68344  0.81657  Biso   1.000  He
  He31     1.0000 0.81909  0.81909  0.68091  Biso   1.000  He
  He32     1.0000 0.68031  0.68031  0.68031  Biso   1.000  He
  Ar8      1.0000 0.75000  0.75000  0.75000  Biso   1.000  Ar
