data_image0
_cell_length_a       24.938
_cell_length_b       24.938
_cell_length_c       24.938
_cell_angle_alpha    90
_cell_angle_beta     90
_cell_angle_gamma    90

_symmetry_space_group_name_H-M    "P 1"
_symmetry_int_tables_number       1

loop_
  _symmetry_equiv_pos_as_xyz
  'x, y, z'

loop_
  _atom_site_label
  _atom_site_occupancy
  _atom_site_fract_x
  _atom_site_fract_y
  _atom_site_fract_z
  _atom_site_thermal_displace_type
  _atom_site_B_iso_or_equiv
  _atom_site_type_symbol
  C1       1.0000 0.37882  0.24100  0.27781  Biso   1.000  C
  C2       1.0000 0.43019  0.20772  0.28679  Biso   1.000  C
  H1       1.0000 0.34670  0.21890  0.28499  Biso   1.000  H
  H2       1.0000 0.37830  0.27232  0.30231  Biso   1.000  H
  C3       1.0000 0.37882  0.25900  0.22219  Biso   1.000  C
  C4       1.0000 0.47987  0.23811  0.27721  Biso   1.000  C
  H3       1.0000 0.43039  0.19428  0.32408  Biso   1.000  H
  H4       1.0000 0.42951  0.17632  0.26261  Biso   1.000  H
  C5       1.0000 0.43019  0.29228  0.21321  Biso   1.000  C
  H5       1.0000 0.34670  0.28110  0.21501  Biso   1.000  H
  H6       1.0000 0.37830  0.22768  0.19769  Biso   1.000  H
  N1       1.0000 0.52627  0.20350  0.28619  Biso   1.000  N
  H7       1.0000 0.48139  0.26798  0.30379  Biso   1.000  H
  C6       1.0000 0.47987  0.26189  0.22279  Biso   1.000  C
  H8       1.0000 0.43039  0.30572  0.17592  Biso   1.000  H
  H9       1.0000 0.42951  0.32368  0.23739  Biso   1.000  H
  C7       1.0000 0.55642  0.21209  0.32569  Biso   1.000  C
  N2       1.0000 0.52627  0.29650  0.21381  Biso   1.000  N
  H10      1.0000 0.48139  0.23202  0.19621  Biso   1.000  H
  C8       1.0000 0.60310  0.17800  0.33940  Biso   1.000  C
  H11      1.0000 0.54880  0.24208  0.34790  Biso   1.000  H
  C9       1.0000 0.55642  0.28791  0.17431  Biso   1.000  C
  C10      1.0000 0.61460  0.13301  0.30949  Biso   1.000  C
  C11      1.0000 0.63301  0.19051  0.38540  Biso   1.000  C
  C12      1.0000 0.60310  0.32200  0.16060  Biso   1.000  C
  H12      1.0000 0.54880  0.25792  0.15210  Biso   1.000  H
  H13      1.0000 0.59191  0.12250  0.28082  Biso   1.000  H
  C13      1.0000 0.66060  0.10310  0.32200  Biso   1.000  C
  H14      1.0000 0.62250  0.21918  0.40809  Biso   1.000  H
  C14      1.0000 0.67800  0.16060  0.39690  Biso   1.000  C
  C15      1.0000 0.61460  0.36699  0.19051  Biso   1.000  C
  C16      1.0000 0.63301  0.30949  0.11460  Biso   1.000  C
  C17      1.0000 0.69051  0.11460  0.36699  Biso   1.000  C
  C18      1.0000 0.67431  0.05642  0.28791  Biso   1.000  C
  C19      1.0000 0.71209  0.17431  0.44358  Biso   1.000  C
  H15      1.0000 0.59191  0.37750  0.21918  Biso   1.000  H
  C20      1.0000 0.66060  0.39690  0.17800  Biso   1.000  C
  H16      1.0000 0.62250  0.28082  0.09191  Biso   1.000  H
  C21      1.0000 0.67800  0.33940  0.10310  Biso   1.000  C
  H17      1.0000 0.71918  0.09191  0.37750  Biso   1.000  H
  N3       1.0000 0.71381  0.02627  0.29650  Biso   1.000  N
  H18      1.0000 0.65210  0.04880  0.25792  Biso   1.000  H
  N4       1.0000 0.70350  0.21381  0.47373  Biso   1.000  N
  H19      1.0000 0.74208  0.15210  0.45120  Biso   1.000  H
  C22      1.0000 0.69051  0.38540  0.13301  Biso   1.000  C
  C23      1.0000 0.67431  0.44358  0.21209  Biso   1.000  C
  C24      1.0000 0.71209  0.32569  0.05642  Biso   1.000  C
  C25      1.0000 0.72279  0.97987  0.26189  Biso   1.000  C
  C26      1.0000 0.73811  0.22279  0.52013  Biso   1.000  C
  H20      1.0000 0.71918  0.40809  0.12250  Biso   1.000  H
  N5       1.0000 0.71381  0.47373  0.20350  Biso   1.000  N
  H21      1.0000 0.65210  0.45120  0.24208  Biso   1.000  H
  N6       1.0000 0.70350  0.28619  0.02627  Biso   1.000  N
  H22      1.0000 0.74208  0.34790  0.04880  Biso   1.000  H
  H23      1.0000 0.69621  0.98139  0.23202  Biso   1.000  H
  C27      1.0000 0.71321  0.93019  0.29228  Biso   1.000  C
  C28      1.0000 0.77721  0.97987  0.23811  Biso   1.000  C
  H24      1.0000 0.76798  0.19621  0.51861  Biso   1.000  H
  C29      1.0000 0.70772  0.21321  0.56981  Biso   1.000  C
  C30      1.0000 0.76189  0.27721  0.52013  Biso   1.000  C
  C31      1.0000 0.72279  0.52013  0.23811  Biso   1.000  C
  C32      1.0000 0.73811  0.27721  0.97987  Biso   1.000  C
  H25      1.0000 0.67592  0.93039  0.30572  Biso   1.000  H
  H26      1.0000 0.73739  0.92951  0.32368  Biso   1.000  H
  C33      1.0000 0.72219  0.87882  0.25900  Biso   1.000  C
  N7       1.0000 0.78619  0.02627  0.20350  Biso   1.000  N
  H27      1.0000 0.80379  0.98139  0.26798  Biso   1.000  H
  C34      1.0000 0.78679  0.93019  0.20772  Biso   1.000  C
  H28      1.0000 0.69428  0.17592  0.56961  Biso   1.000  H
  H29      1.0000 0.67632  0.23739  0.57049  Biso   1.000  H
  C35      1.0000 0.74100  0.22219  0.62118  Biso   1.000  C
  N8       1.0000 0.79650  0.28619  0.47373  Biso   1.000  N
  H30      1.0000 0.73202  0.30379  0.51861  Biso   1.000  H
  C36      1.0000 0.79228  0.28679  0.56981  Biso   1.000  C
  H31      1.0000 0.69621  0.51861  0.26798  Biso   1.000  H
  C37      1.0000 0.71321  0.56981  0.20772  Biso   1.000  C
  C38      1.0000 0.77721  0.52013  0.26189  Biso   1.000  C
  H32      1.0000 0.76798  0.30379  0.98139  Biso   1.000  H
  C39      1.0000 0.70772  0.28679  0.93019  Biso   1.000  C
  C40      1.0000 0.76189  0.22279  0.97987  Biso   1.000  C
  H33      1.0000 0.71501  0.84670  0.28110  Biso   1.000  H
  H34      1.0000 0.69769  0.87830  0.22768  Biso   1.000  H
  C41      1.0000 0.77781  0.87882  0.24100  Biso   1.000  C
  C42      1.0000 0.82569  0.05642  0.21209  Biso   1.000  C
  H35      1.0000 0.82408  0.93039  0.19428  Biso   1.000  H
  H36      1.0000 0.76261  0.92951  0.17632  Biso   1.000  H
  H37      1.0000 0.71890  0.21501  0.65330  Biso   1.000  H
  H38      1.0000 0.77232  0.19769  0.62170  Biso   1.000  H
  C43      1.0000 0.75900  0.27781  0.62118  Biso   1.000  C
  C44      1.0000 0.78791  0.32569  0.44358  Biso   1.000  C
  H39      1.0000 0.80572  0.32408  0.56961  Biso   1.000  H
  H40      1.0000 0.82368  0.26261  0.57049  Biso   1.000  H
  H41      1.0000 0.67592  0.56961  0.19428  Biso   1.000  H
  H42      1.0000 0.73739  0.57049  0.17632  Biso   1.000  H
  C45      1.0000 0.72219  0.62118  0.24100  Biso   1.000  C
  N9       1.0000 0.78619  0.47373  0.29650  Biso   1.000  N
  H43      1.0000 0.80379  0.51861  0.23202  Biso   1.000  H
  C46      1.0000 0.78679  0.56981  0.29228  Biso   1.000  C
  H44      1.0000 0.69428  0.32408  0.93039  Biso   1.000  H
  H45      1.0000 0.67632  0.26261  0.92951  Biso   1.000  H
  C47      1.0000 0.74100  0.27781  0.87882  Biso   1.000  C
  N10      1.0000 0.79650  0.21381  0.02627  Biso   1.000  N
  H46      1.0000 0.73202  0.19621  0.98139  Biso   1.000  H
  C48      1.0000 0.79228  0.21321  0.93019  Biso   1.000  C
  H47      1.0000 0.78499  0.84670  0.21890  Biso   1.000  H
  H48      1.0000 0.80231  0.87830  0.27232  Biso   1.000  H
  C49      1.0000 0.83940  0.10310  0.17800  Biso   1.000  C
  H49      1.0000 0.84790  0.04880  0.24208  Biso   1.000  H
  H50      1.0000 0.78110  0.28499  0.65330  Biso   1.000  H
  H51      1.0000 0.72768  0.30231  0.62170  Biso   1.000  H
  C50      1.0000 0.82200  0.33940  0.39690  Biso   1.000  C
  H52      1.0000 0.75792  0.34790  0.45120  Biso   1.000  H
  H53      1.0000 0.71501  0.65330  0.21890  Biso   1.000  H
  H54      1.0000 0.69769  0.62170  0.27232  Biso   1.000  H
  C51      1.0000 0.77781  0.62118  0.25900  Biso   1.000  C
  C52      1.0000 0.82569  0.44358  0.28791  Biso   1.000  C
  H55      1.0000 0.82408  0.56961  0.30572  Biso   1.000  H
  H56      1.0000 0.76261  0.57049  0.32368  Biso   1.000  H
  H57      1.0000 0.71890  0.28499  0.84670  Biso   1.000  H
  H58      1.0000 0.77232  0.30231  0.87830  Biso   1.000  H
  C53      1.0000 0.75900  0.22219  0.87882  Biso   1.000  C
  C54      1.0000 0.78791  0.17431  0.05642  Biso   1.000  C
  H59      1.0000 0.80572  0.17592  0.93039  Biso   1.000  H
  H60      1.0000 0.82368  0.23739  0.92951  Biso   1.000  H
  C55      1.0000 0.80949  0.11460  0.13301  Biso   1.000  C
  C56      1.0000 0.88540  0.13301  0.19051  Biso   1.000  C
  C57      1.0000 0.86699  0.30949  0.38540  Biso   1.000  C
  C58      1.0000 0.80949  0.38540  0.36699  Biso   1.000  C
  H61      1.0000 0.78499  0.65330  0.28110  Biso   1.000  H
  H62      1.0000 0.80231  0.62170  0.22768  Biso   1.000  H
  C59      1.0000 0.83940  0.39690  0.32200  Biso   1.000  C
  H63      1.0000 0.84790  0.45120  0.25792  Biso   1.000  H
  H64      1.0000 0.78110  0.21501  0.84670  Biso   1.000  H
  H65      1.0000 0.72768  0.19769  0.87830  Biso   1.000  H
  C60      1.0000 0.82200  0.16060  0.10310  Biso   1.000  C
  H66      1.0000 0.75792  0.15210  0.04880  Biso   1.000  H
  H67      1.0000 0.78082  0.09191  0.12250  Biso   1.000  H
  H68      1.0000 0.90809  0.12250  0.21918  Biso   1.000  H
  C61      1.0000 0.89690  0.17800  0.16060  Biso   1.000  C
  H69      1.0000 0.87750  0.28082  0.40809  Biso   1.000  H
  C62      1.0000 0.89690  0.32200  0.33940  Biso   1.000  C
  H70      1.0000 0.78082  0.40809  0.37750  Biso   1.000  H
  C63      1.0000 0.88540  0.36699  0.30949  Biso   1.000  C
  C64      1.0000 0.86699  0.19051  0.11460  Biso   1.000  C
  C65      1.0000 0.94358  0.21209  0.17431  Biso   1.000  C
  C66      1.0000 0.94358  0.28791  0.32569  Biso   1.000  C
  H71      1.0000 0.90809  0.37750  0.28082  Biso   1.000  H
  H72      1.0000 0.87750  0.21918  0.09191  Biso   1.000  H
  N11      1.0000 0.97373  0.20350  0.21381  Biso   1.000  N
  H73      1.0000 0.95120  0.24208  0.15210  Biso   1.000  H
  N12      1.0000 0.97373  0.29650  0.28619  Biso   1.000  N
  H74      1.0000 0.95120  0.25792  0.34790  Biso   1.000  H
  C67      1.0000 0.02013  0.23811  0.22279  Biso   1.000  C
  C68      1.0000 0.02013  0.26189  0.27721  Biso   1.000  C
  H75      1.0000 0.01861  0.26798  0.19621  Biso   1.000  H
  C69      1.0000 0.06981  0.20772  0.21321  Biso   1.000  C
  H76      1.0000 0.01861  0.23202  0.30379  Biso   1.000  H
  C70      1.0000 0.06981  0.29228  0.28679  Biso   1.000  C
  H77      1.0000 0.06961  0.19428  0.17592  Biso   1.000  H
  H78      1.0000 0.07049  0.17632  0.23739  Biso   1.000  H
  C71      1.0000 0.12118  0.24100  0.22219  Biso   1.000  C
  H79      1.0000 0.06961  0.30572  0.32408  Biso   1.000  H
  H80      1.0000 0.07049  0.32368  0.26261  Biso   1.000  H
  C72      1.0000 0.12118  0.25900  0.27781  Biso   1.000  C
  H81      1.0000 0.15330  0.21890  0.21501  Biso   1.000  H
  H82      1.0000 0.12170  0.27232  0.19769  Biso   1.000  H
  H83      1.0000 0.15330  0.28110  0.28499  Biso   1.000  H
  H84      1.0000 0.12170  0.22768  0.30231  Biso   1.000  H
  C73      1.0000 0.27781  0.37882  0.24100  Biso   1.000  C
  C74      1.0000 0.22219  0.37882  0.25900  Biso   1.000  C
  C75      1.0000 0.28679  0.43019  0.20772  Biso   1.000  C
  H85      1.0000 0.28499  0.34670  0.21890  Biso   1.000  H
  H86      1.0000 0.30231  0.37830  0.27232  Biso   1.000  H
  C76      1.0000 0.21321  0.43019  0.29228  Biso   1.000  C
  H87      1.0000 0.21501  0.34670  0.28110  Biso   1.000  H
  H88      1.0000 0.19769  0.37830  0.22768  Biso   1.000  H
  C77      1.0000 0.27721  0.47987  0.23811  Biso   1.000  C
  H89      1.0000 0.32408  0.43039  0.19428  Biso   1.000  H
  H90      1.0000 0.26261  0.42951  0.17632  Biso   1.000  H
  C78      1.0000 0.22279  0.47987  0.26189  Biso   1.000  C
  H91      1.0000 0.17592  0.43039  0.30572  Biso   1.000  H
  H92      1.0000 0.23739  0.42951  0.32368  Biso   1.000  H
  N13      1.0000 0.28619  0.52627  0.20350  Biso   1.000  N
  H93      1.0000 0.30379  0.48139  0.26798  Biso   1.000  H
  N14      1.0000 0.21381  0.52627  0.29650  Biso   1.000  N
  H94      1.0000 0.19621  0.48139  0.23202  Biso   1.000  H
  C79      1.0000 0.32569  0.55642  0.21209  Biso   1.000  C
  C80      1.0000 0.17431  0.55642  0.28791  Biso   1.000  C
  C81      1.0000 0.33940  0.60310  0.17800  Biso   1.000  C
  H95      1.0000 0.34790  0.54880  0.24208  Biso   1.000  H
  C82      1.0000 0.16060  0.60310  0.32200  Biso   1.000  C
  H96      1.0000 0.15210  0.54880  0.25792  Biso   1.000  H
  C83      1.0000 0.30949  0.61460  0.13301  Biso   1.000  C
  C84      1.0000 0.38540  0.63301  0.19051  Biso   1.000  C
  C85      1.0000 0.11460  0.63301  0.30949  Biso   1.000  C
  C86      1.0000 0.19051  0.61460  0.36699  Biso   1.000  C
  H97      1.0000 0.28082  0.59191  0.12250  Biso   1.000  H
  C87      1.0000 0.32200  0.66060  0.10310  Biso   1.000  C
  H98      1.0000 0.40809  0.62250  0.21918  Biso   1.000  H
  C88      1.0000 0.39690  0.67800  0.16060  Biso   1.000  C
  H99      1.0000 0.09191  0.62250  0.28082  Biso   1.000  H
  C89      1.0000 0.10310  0.67800  0.33940  Biso   1.000  C
  H100     1.0000 0.21918  0.59191  0.37750  Biso   1.000  H
  C90      1.0000 0.17800  0.66060  0.39690  Biso   1.000  C
  C91      1.0000 0.36699  0.69051  0.11460  Biso   1.000  C
  C92      1.0000 0.28791  0.67431  0.05642  Biso   1.000  C
  C93      1.0000 0.44358  0.71209  0.17431  Biso   1.000  C
  C94      1.0000 0.05642  0.71209  0.32569  Biso   1.000  C
  C95      1.0000 0.13301  0.69051  0.38540  Biso   1.000  C
  C96      1.0000 0.21209  0.67431  0.44358  Biso   1.000  C
  H101     1.0000 0.37750  0.71918  0.09191  Biso   1.000  H
  N15      1.0000 0.29650  0.71381  0.02627  Biso   1.000  N
  H102     1.0000 0.25792  0.65210  0.04880  Biso   1.000  H
  N16      1.0000 0.47373  0.70350  0.21381  Biso   1.000  N
  H103     1.0000 0.45120  0.74208  0.15210  Biso   1.000  H
  N17      1.0000 0.02627  0.70350  0.28619  Biso   1.000  N
  H104     1.0000 0.04880  0.74208  0.34790  Biso   1.000  H
  H105     1.0000 0.12250  0.71918  0.40809  Biso   1.000  H
  N18      1.0000 0.20350  0.71381  0.47373  Biso   1.000  N
  H106     1.0000 0.24208  0.65210  0.45120  Biso   1.000  H
  C97      1.0000 0.26189  0.72279  0.97987  Biso   1.000  C
  C98      1.0000 0.52013  0.73811  0.22279  Biso   1.000  C
  C99      1.0000 0.97987  0.73811  0.27721  Biso   1.000  C
  C100     1.0000 0.23811  0.72279  0.52013  Biso   1.000  C
  C101     1.0000 0.23811  0.77721  0.97987  Biso   1.000  C
  H107     1.0000 0.23202  0.69621  0.98139  Biso   1.000  H
  C102     1.0000 0.29228  0.71321  0.93019  Biso   1.000  C
  C103     1.0000 0.52013  0.76189  0.27721  Biso   1.000  C
  H108     1.0000 0.51861  0.76798  0.19621  Biso   1.000  H
  C104     1.0000 0.56981  0.70772  0.21321  Biso   1.000  C
  H109     1.0000 0.98139  0.76798  0.30379  Biso   1.000  H
  C105     1.0000 0.93019  0.70772  0.28679  Biso   1.000  C
  C106     1.0000 0.97987  0.76189  0.22279  Biso   1.000  C
  H110     1.0000 0.26798  0.69621  0.51861  Biso   1.000  H
  C107     1.0000 0.20772  0.71321  0.56981  Biso   1.000  C
  C108     1.0000 0.26189  0.77721  0.52013  Biso   1.000  C
  N19      1.0000 0.20350  0.78619  0.02627  Biso   1.000  N
  H111     1.0000 0.26798  0.80379  0.98139  Biso   1.000  H
  C109     1.0000 0.20772  0.78679  0.93019  Biso   1.000  C
  H112     1.0000 0.30572  0.67592  0.93039  Biso   1.000  H
  H113     1.0000 0.32368  0.73739  0.92951  Biso   1.000  H
  C110     1.0000 0.25900  0.72219  0.87882  Biso   1.000  C
  N20      1.0000 0.47373  0.79650  0.28619  Biso   1.000  N
  H114     1.0000 0.51861  0.73202  0.30379  Biso   1.000  H
  C111     1.0000 0.56981  0.79228  0.28679  Biso   1.000  C
  H115     1.0000 0.56961  0.69428  0.17592  Biso   1.000  H
  H116     1.0000 0.57049  0.67632  0.23739  Biso   1.000  H
  C112     1.0000 0.62118  0.74100  0.22219  Biso   1.000  C
  H117     1.0000 0.93039  0.69428  0.32408  Biso   1.000  H
  H118     1.0000 0.92951  0.67632  0.26261  Biso   1.000  H
  C113     1.0000 0.87882  0.74100  0.27781  Biso   1.000  C
  N21      1.0000 0.02627  0.79650  0.21381  Biso   1.000  N
  H119     1.0000 0.98139  0.73202  0.19621  Biso   1.000  H
  C114     1.0000 0.93019  0.79228  0.21321  Biso   1.000  C
  H120     1.0000 0.19428  0.67592  0.56961  Biso   1.000  H
  H121     1.0000 0.17632  0.73739  0.57049  Biso   1.000  H
  C115     1.0000 0.24100  0.72219  0.62118  Biso   1.000  C
  N22      1.0000 0.29650  0.78619  0.47373  Biso   1.000  N
  H122     1.0000 0.23202  0.80379  0.51861  Biso   1.000  H
  C116     1.0000 0.29228  0.78679  0.56981  Biso   1.000  C
  C117     1.0000 0.21209  0.82569  0.05642  Biso   1.000  C
  H123     1.0000 0.19428  0.82408  0.93039  Biso   1.000  H
  H124     1.0000 0.17632  0.76261  0.92951  Biso   1.000  H
  C118     1.0000 0.24100  0.77781  0.87882  Biso   1.000  C
  H125     1.0000 0.28110  0.71501  0.84670  Biso   1.000  H
  H126     1.0000 0.22768  0.69769  0.87830  Biso   1.000  H
  C119     1.0000 0.44358  0.78791  0.32569  Biso   1.000  C
  H127     1.0000 0.56961  0.80572  0.32408  Biso   1.000  H
  H128     1.0000 0.57049  0.82368  0.26261  Biso   1.000  H
  C120     1.0000 0.62118  0.75900  0.27781  Biso   1.000  C
  H129     1.0000 0.65330  0.71890  0.21501  Biso   1.000  H
  H130     1.0000 0.62170  0.77232  0.19769  Biso   1.000  H
  H131     1.0000 0.84670  0.71890  0.28499  Biso   1.000  H
  H132     1.0000 0.87830  0.77232  0.30231  Biso   1.000  H
  C121     1.0000 0.87882  0.75900  0.22219  Biso   1.000  C
  C122     1.0000 0.05642  0.78791  0.17431  Biso   1.000  C
  H133     1.0000 0.93039  0.80572  0.17592  Biso   1.000  H
  H134     1.0000 0.92951  0.82368  0.23739  Biso   1.000  H
  H135     1.0000 0.21890  0.71501  0.65330  Biso   1.000  H
  H136     1.0000 0.27232  0.69769  0.62170  Biso   1.000  H
  C123     1.0000 0.25900  0.77781  0.62118  Biso   1.000  C
  C124     1.0000 0.28791  0.82569  0.44358  Biso   1.000  C
  H137     1.0000 0.30572  0.82408  0.56961  Biso   1.000  H
  H138     1.0000 0.32368  0.76261  0.57049  Biso   1.000  H
  C125     1.0000 0.17800  0.83940  0.10310  Biso   1.000  C
  H139     1.0000 0.24208  0.84790  0.04880  Biso   1.000  H
  H140     1.0000 0.21890  0.78499  0.84670  Biso   1.000  H
  H141     1.0000 0.27232  0.80231  0.87830  Biso   1.000  H
  C126     1.0000 0.39690  0.82200  0.33940  Biso   1.000  C
  H142     1.0000 0.45120  0.75792  0.34790  Biso   1.000  H
  H143     1.0000 0.65330  0.78110  0.28499  Biso   1.000  H
  H144     1.0000 0.62170  0.72768  0.30231  Biso   1.000  H
  H145     1.0000 0.84670  0.78110  0.21501  Biso   1.000  H
  H146     1.0000 0.87830  0.72768  0.19769  Biso   1.000  H
  C127     1.0000 0.10310  0.82200  0.16060  Biso   1.000  C
  H147     1.0000 0.04880  0.75792  0.15210  Biso   1.000  H
  H148     1.0000 0.28110  0.78499  0.65330  Biso   1.000  H
  H149     1.0000 0.22768  0.80231  0.62170  Biso   1.000  H
  C128     1.0000 0.32200  0.83940  0.39690  Biso   1.000  C
  H150     1.0000 0.25792  0.84790  0.45120  Biso   1.000  H
  C129     1.0000 0.19051  0.88540  0.13301  Biso   1.000  C
  C130     1.0000 0.13301  0.80949  0.11460  Biso   1.000  C
  C131     1.0000 0.36699  0.80949  0.38540  Biso   1.000  C
  C132     1.0000 0.38540  0.86699  0.30949  Biso   1.000  C
  C133     1.0000 0.11460  0.86699  0.19051  Biso   1.000  C
  C134     1.0000 0.30949  0.88540  0.36699  Biso   1.000  C
  H151     1.0000 0.21918  0.90809  0.12250  Biso   1.000  H
  C135     1.0000 0.16060  0.89690  0.17800  Biso   1.000  C
  H152     1.0000 0.12250  0.78082  0.09191  Biso   1.000  H
  H153     1.0000 0.37750  0.78082  0.40809  Biso   1.000  H
  C136     1.0000 0.33940  0.89690  0.32200  Biso   1.000  C
  H154     1.0000 0.40809  0.87750  0.28082  Biso   1.000  H
  H155     1.0000 0.09191  0.87750  0.21918  Biso   1.000  H
  H156     1.0000 0.28082  0.90809  0.37750  Biso   1.000  H
  C137     1.0000 0.17431  0.94358  0.21209  Biso   1.000  C
  C138     1.0000 0.32569  0.94358  0.28791  Biso   1.000  C
  N23      1.0000 0.21381  0.97373  0.20350  Biso   1.000  N
  H157     1.0000 0.15210  0.95120  0.24208  Biso   1.000  H
  N24      1.0000 0.28619  0.97373  0.29650  Biso   1.000  N
  H158     1.0000 0.34790  0.95120  0.25792  Biso   1.000  H
  C139     1.0000 0.22279  0.02013  0.23811  Biso   1.000  C
  C140     1.0000 0.27721  0.02013  0.26189  Biso   1.000  C
  H159     1.0000 0.19621  0.01861  0.26798  Biso   1.000  H
  C141     1.0000 0.21321  0.06981  0.20772  Biso   1.000  C
  H160     1.0000 0.30379  0.01861  0.23202  Biso   1.000  H
  C142     1.0000 0.28679  0.06981  0.29228  Biso   1.000  C
  H161     1.0000 0.17592  0.06961  0.19428  Biso   1.000  H
  H162     1.0000 0.23739  0.07049  0.17632  Biso   1.000  H
  C143     1.0000 0.22219  0.12118  0.24100  Biso   1.000  C
  H163     1.0000 0.32408  0.06961  0.30572  Biso   1.000  H
  H164     1.0000 0.26261  0.07049  0.32368  Biso   1.000  H
  C144     1.0000 0.27781  0.12118  0.25900  Biso   1.000  C
  H165     1.0000 0.21501  0.15330  0.21890  Biso   1.000  H
  H166     1.0000 0.19769  0.12170  0.27232  Biso   1.000  H
  H167     1.0000 0.28499  0.15330  0.28110  Biso   1.000  H
  H168     1.0000 0.30231  0.12170  0.22768  Biso   1.000  H
  C145     1.0000 0.24100  0.27781  0.37882  Biso   1.000  C
  C146     1.0000 0.25900  0.22219  0.37882  Biso   1.000  C
  C147     1.0000 0.20772  0.28679  0.43019  Biso   1.000  C
  H169     1.0000 0.21890  0.28499  0.34670  Biso   1.000  H
  H170     1.0000 0.27232  0.30231  0.37830  Biso   1.000  H
  C148     1.0000 0.29228  0.21321  0.43019  Biso   1.000  C
  H171     1.0000 0.28110  0.21501  0.34670  Biso   1.000  H
  H172     1.0000 0.22768  0.19769  0.37830  Biso   1.000  H
  C149     1.0000 0.23811  0.27721  0.47987  Biso   1.000  C
  H173     1.0000 0.19428  0.32408  0.43039  Biso   1.000  H
  H174     1.0000 0.17632  0.26261  0.42951  Biso   1.000  H
  C150     1.0000 0.26189  0.22279  0.47987  Biso   1.000  C
  H175     1.0000 0.30572  0.17592  0.43039  Biso   1.000  H
  H176     1.0000 0.32368  0.23739  0.42951  Biso   1.000  H
  N25      1.0000 0.20350  0.28619  0.52627  Biso   1.000  N
  H177     1.0000 0.26798  0.30379  0.48139  Biso   1.000  H
  N26      1.0000 0.29650  0.21381  0.52627  Biso   1.000  N
  H178     1.0000 0.23202  0.19621  0.48139  Biso   1.000  H
  C151     1.0000 0.21209  0.32569  0.55642  Biso   1.000  C
  C152     1.0000 0.28791  0.17431  0.55642  Biso   1.000  C
  C153     1.0000 0.17800  0.33940  0.60310  Biso   1.000  C
  H179     1.0000 0.24208  0.34790  0.54880  Biso   1.000  H
  C154     1.0000 0.32200  0.16060  0.60310  Biso   1.000  C
  H180     1.0000 0.25792  0.15210  0.54880  Biso   1.000  H
  C155     1.0000 0.19051  0.38540  0.63301  Biso   1.000  C
  C156     1.0000 0.13301  0.30949  0.61460  Biso   1.000  C
  C157     1.0000 0.30949  0.11460  0.63301  Biso   1.000  C
  C158     1.0000 0.36699  0.19051  0.61460  Biso   1.000  C
  H181     1.0000 0.21918  0.40809  0.62250  Biso   1.000  H
  C159     1.0000 0.16060  0.39690  0.67800  Biso   1.000  C
  C160     1.0000 0.10310  0.32200  0.66060  Biso   1.000  C
  H182     1.0000 0.12250  0.28082  0.59191  Biso   1.000  H
  H183     1.0000 0.28082  0.09191  0.62250  Biso   1.000  H
  C161     1.0000 0.33940  0.10310  0.67800  Biso   1.000  C
  H184     1.0000 0.37750  0.21918  0.59191  Biso   1.000  H
  C162     1.0000 0.39690  0.17800  0.66060  Biso   1.000  C
  C163     1.0000 0.11460  0.36699  0.69051  Biso   1.000  C
  C164     1.0000 0.17431  0.44358  0.71209  Biso   1.000  C
  C165     1.0000 0.05642  0.28791  0.67431  Biso   1.000  C
  C166     1.0000 0.32569  0.05642  0.71209  Biso   1.000  C
  C167     1.0000 0.38540  0.13301  0.69051  Biso   1.000  C
  C168     1.0000 0.44358  0.21209  0.67431  Biso   1.000  C
  H185     1.0000 0.09191  0.37750  0.71918  Biso   1.000  H
  N27      1.0000 0.21381  0.47373  0.70350  Biso   1.000  N
  H186     1.0000 0.15210  0.45120  0.74208  Biso   1.000  H
  N28      1.0000 0.02627  0.29650  0.71381  Biso   1.000  N
  H187     1.0000 0.04880  0.25792  0.65210  Biso   1.000  H
  N29      1.0000 0.28619  0.02627  0.70350  Biso   1.000  N
  H188     1.0000 0.34790  0.04880  0.74208  Biso   1.000  H
  H189     1.0000 0.40809  0.12250  0.71918  Biso   1.000  H
  N30      1.0000 0.47373  0.20350  0.71381  Biso   1.000  N
  H190     1.0000 0.45120  0.24208  0.65210  Biso   1.000  H
  C169     1.0000 0.22279  0.52013  0.73811  Biso   1.000  C
  C170     1.0000 0.97987  0.26189  0.72279  Biso   1.000  C
  C171     1.0000 0.27721  0.97987  0.73811  Biso   1.000  C
  C172     1.0000 0.52013  0.23811  0.72279  Biso   1.000  C
  H191     1.0000 0.19621  0.51861  0.76798  Biso   1.000  H
  C173     1.0000 0.21321  0.56981  0.70772  Biso   1.000  C
  C174     1.0000 0.27721  0.52013  0.76189  Biso   1.000  C
  C175     1.0000 0.97987  0.23811  0.77721  Biso   1.000  C
  H192     1.0000 0.98139  0.23202  0.69621  Biso   1.000  H
  C176     1.0000 0.93019  0.29228  0.71321  Biso   1.000  C
  C177     1.0000 0.22279  0.97987  0.76189  Biso   1.000  C
  H193     1.0000 0.30379  0.98139  0.76798  Biso   1.000  H
  C178     1.0000 0.28679  0.93019  0.70772  Biso   1.000  C
  C179     1.0000 0.52013  0.26189  0.77721  Biso   1.000  C
  H194     1.0000 0.51861  0.26798  0.69621  Biso   1.000  H
  C180     1.0000 0.56981  0.20772  0.71321  Biso   1.000  C
  H195     1.0000 0.17592  0.56961  0.69428  Biso   1.000  H
  H196     1.0000 0.23739  0.57049  0.67632  Biso   1.000  H
  C181     1.0000 0.22219  0.62118  0.74100  Biso   1.000  C
  N31      1.0000 0.28619  0.47373  0.79650  Biso   1.000  N
  H197     1.0000 0.30379  0.51861  0.73202  Biso   1.000  H
  C182     1.0000 0.28679  0.56981  0.79228  Biso   1.000  C
  N32      1.0000 0.02627  0.20350  0.78619  Biso   1.000  N
  H198     1.0000 0.98139  0.26798  0.80379  Biso   1.000  H
  C183     1.0000 0.93019  0.20772  0.78679  Biso   1.000  C
  H199     1.0000 0.93039  0.30572  0.67592  Biso   1.000  H
  H200     1.0000 0.92951  0.32368  0.73739  Biso   1.000  H
  C184     1.0000 0.87882  0.25900  0.72219  Biso   1.000  C
  N33      1.0000 0.21381  0.02627  0.79650  Biso   1.000  N
  H201     1.0000 0.19621  0.98139  0.73202  Biso   1.000  H
  C185     1.0000 0.21321  0.93019  0.79228  Biso   1.000  C
  H202     1.0000 0.32408  0.93039  0.69428  Biso   1.000  H
  H203     1.0000 0.26261  0.92951  0.67632  Biso   1.000  H
  C186     1.0000 0.27781  0.87882  0.74100  Biso   1.000  C
  N34      1.0000 0.47373  0.29650  0.78619  Biso   1.000  N
  H204     1.0000 0.51861  0.23202  0.80379  Biso   1.000  H
  C187     1.0000 0.56981  0.29228  0.78679  Biso   1.000  C
  H205     1.0000 0.56961  0.19428  0.67592  Biso   1.000  H
  H206     1.0000 0.57049  0.17632  0.73739  Biso   1.000  H
  C188     1.0000 0.62118  0.24100  0.72219  Biso   1.000  C
  H207     1.0000 0.21501  0.65330  0.71890  Biso   1.000  H
  H208     1.0000 0.19769  0.62170  0.77232  Biso   1.000  H
  C189     1.0000 0.27781  0.62118  0.75900  Biso   1.000  C
  C190     1.0000 0.32569  0.44358  0.78791  Biso   1.000  C
  H209     1.0000 0.32408  0.56961  0.80572  Biso   1.000  H
  H210     1.0000 0.26261  0.57049  0.82368  Biso   1.000  H
  C191     1.0000 0.05642  0.21209  0.82569  Biso   1.000  C
  H211     1.0000 0.93039  0.19428  0.82408  Biso   1.000  H
  H212     1.0000 0.92951  0.17632  0.76261  Biso   1.000  H
  C192     1.0000 0.87882  0.24100  0.77781  Biso   1.000  C
  H213     1.0000 0.84670  0.28110  0.71501  Biso   1.000  H
  H214     1.0000 0.87830  0.22768  0.69769  Biso   1.000  H
  C193     1.0000 0.17431  0.05642  0.78791  Biso   1.000  C
  H215     1.0000 0.17592  0.93039  0.80572  Biso   1.000  H
  H216     1.0000 0.23739  0.92951  0.82368  Biso   1.000  H
  C194     1.0000 0.22219  0.87882  0.75900  Biso   1.000  C
  H217     1.0000 0.28499  0.84670  0.71890  Biso   1.000  H
  H218     1.0000 0.30231  0.87830  0.77232  Biso   1.000  H
  C195     1.0000 0.44358  0.28791  0.82569  Biso   1.000  C
  H219     1.0000 0.56961  0.30572  0.82408  Biso   1.000  H
  H220     1.0000 0.57049  0.32368  0.76261  Biso   1.000  H
  C196     1.0000 0.62118  0.25900  0.77781  Biso   1.000  C
  H221     1.0000 0.65330  0.21890  0.71501  Biso   1.000  H
  H222     1.0000 0.62170  0.27232  0.69769  Biso   1.000  H
  H223     1.0000 0.28499  0.65330  0.78110  Biso   1.000  H
  H224     1.0000 0.30231  0.62170  0.72768  Biso   1.000  H
  C197     1.0000 0.33940  0.39690  0.82200  Biso   1.000  C
  H225     1.0000 0.34790  0.45120  0.75792  Biso   1.000  H
  C198     1.0000 0.10310  0.17800  0.83940  Biso   1.000  C
  H226     1.0000 0.04880  0.24208  0.84790  Biso   1.000  H
  H227     1.0000 0.84670  0.21890  0.78499  Biso   1.000  H
  H228     1.0000 0.87830  0.27232  0.80231  Biso   1.000  H
  C199     1.0000 0.16060  0.10310  0.82200  Biso   1.000  C
  H229     1.0000 0.15210  0.04880  0.75792  Biso   1.000  H
  H230     1.0000 0.21501  0.84670  0.78110  Biso   1.000  H
  H231     1.0000 0.19769  0.87830  0.72768  Biso   1.000  H
  C200     1.0000 0.39690  0.32200  0.83940  Biso   1.000  C
  H232     1.0000 0.45120  0.25792  0.84790  Biso   1.000  H
  H233     1.0000 0.65330  0.28110  0.78499  Biso   1.000  H
  H234     1.0000 0.62170  0.22768  0.80231  Biso   1.000  H
  C201     1.0000 0.38540  0.36699  0.80949  Biso   1.000  C
  C202     1.0000 0.30949  0.38540  0.86699  Biso   1.000  C
  C203     1.0000 0.11460  0.13301  0.80949  Biso   1.000  C
  C204     1.0000 0.13301  0.19051  0.88540  Biso   1.000  C
  C205     1.0000 0.19051  0.11460  0.86699  Biso   1.000  C
  C206     1.0000 0.36699  0.30949  0.88540  Biso   1.000  C
  H235     1.0000 0.40809  0.37750  0.78082  Biso   1.000  H
  C207     1.0000 0.32200  0.33940  0.89690  Biso   1.000  C
  H236     1.0000 0.28082  0.40809  0.87750  Biso   1.000  H
  H237     1.0000 0.09191  0.12250  0.78082  Biso   1.000  H
  C208     1.0000 0.17800  0.16060  0.89690  Biso   1.000  C
  H238     1.0000 0.12250  0.21918  0.90809  Biso   1.000  H
  H239     1.0000 0.21918  0.09191  0.87750  Biso   1.000  H
  H240     1.0000 0.37750  0.28082  0.90809  Biso   1.000  H
  C209     1.0000 0.28791  0.32569  0.94358  Biso   1.000  C
  C210     1.0000 0.21209  0.17431  0.94358  Biso   1.000  C
  N35      1.0000 0.29650  0.28619  0.97373  Biso   1.000  N
  H241     1.0000 0.25792  0.34790  0.95120  Biso   1.000  H
  N36      1.0000 0.20350  0.21381  0.97373  Biso   1.000  N
  H242     1.0000 0.24208  0.15210  0.95120  Biso   1.000  H
  C211     1.0000 0.26189  0.27721  0.02013  Biso   1.000  C
  C212     1.0000 0.23811  0.22279  0.02013  Biso   1.000  C
  H243     1.0000 0.23202  0.30379  0.01861  Biso   1.000  H
  C213     1.0000 0.29228  0.28679  0.06981  Biso   1.000  C
  H244     1.0000 0.26798  0.19621  0.01861  Biso   1.000  H
  C214     1.0000 0.20772  0.21321  0.06981  Biso   1.000  C
  H245     1.0000 0.30572  0.32408  0.06961  Biso   1.000  H
  H246     1.0000 0.32368  0.26261  0.07049  Biso   1.000  H
  C215     1.0000 0.25900  0.27781  0.12118  Biso   1.000  C
  H247     1.0000 0.19428  0.17592  0.06961  Biso   1.000  H
  H248     1.0000 0.17632  0.23739  0.07049  Biso   1.000  H
  C216     1.0000 0.24100  0.22219  0.12118  Biso   1.000  C
  H249     1.0000 0.28110  0.28499  0.15330  Biso   1.000  H
  H250     1.0000 0.22768  0.30231  0.12170  Biso   1.000  H
  H251     1.0000 0.21890  0.21501  0.15330  Biso   1.000  H
  H252     1.0000 0.27232  0.19769  0.12170  Biso   1.000  H
  C217     1.0000 0.44049  0.38299  0.36458  Biso   1.000  C
  H253     1.0000 0.46920  0.37248  0.34189  Biso   1.000  H
  C218     1.0000 0.41062  0.42798  0.35312  Biso   1.000  C
  C219     1.0000 0.42798  0.35312  0.41062  Biso   1.000  C
  C220     1.0000 0.36458  0.44049  0.38299  Biso   1.000  C
  C221     1.0000 0.42429  0.46211  0.30640  Biso   1.000  C
  C222     1.0000 0.38299  0.36458  0.44049  Biso   1.000  C
  C223     1.0000 0.46211  0.30640  0.42429  Biso   1.000  C
  H254     1.0000 0.34189  0.46920  0.37248  Biso   1.000  H
  C224     1.0000 0.35312  0.41062  0.42798  Biso   1.000  C
  N37      1.0000 0.46379  0.45348  0.27629  Biso   1.000  N
  H255     1.0000 0.40212  0.49210  0.29878  Biso   1.000  H
  H256     1.0000 0.37248  0.34189  0.46920  Biso   1.000  H
  N38      1.0000 0.45348  0.27629  0.46379  Biso   1.000  N
  H257     1.0000 0.49210  0.29878  0.40212  Biso   1.000  H
  C225     1.0000 0.30640  0.42429  0.46211  Biso   1.000  C
  C226     1.0000 0.47281  0.48809  0.22989  Biso   1.000  C
  C227     1.0000 0.48809  0.22989  0.47281  Biso   1.000  C
  N39      1.0000 0.27629  0.46379  0.45348  Biso   1.000  N
  H258     1.0000 0.29878  0.40212  0.49210  Biso   1.000  H
  C228     1.0000 0.52719  0.51191  0.22989  Biso   1.000  C
  H259     1.0000 0.44619  0.51800  0.23141  Biso   1.000  H
  C229     1.0000 0.46319  0.45770  0.18021  Biso   1.000  C
  C230     1.0000 0.51191  0.22989  0.52719  Biso   1.000  C
  H260     1.0000 0.51800  0.23141  0.44619  Biso   1.000  H
  C231     1.0000 0.45770  0.18021  0.46319  Biso   1.000  C
  C232     1.0000 0.22989  0.47281  0.48809  Biso   1.000  C
  N40      1.0000 0.53621  0.54652  0.27629  Biso   1.000  N
  H261     1.0000 0.55381  0.48200  0.23141  Biso   1.000  H
  C233     1.0000 0.53681  0.54230  0.18021  Biso   1.000  C
  H262     1.0000 0.42590  0.44430  0.18041  Biso   1.000  H
  H263     1.0000 0.48741  0.42630  0.17949  Biso   1.000  H
  C234     1.0000 0.47221  0.49102  0.12880  Biso   1.000  C
  N41      1.0000 0.54652  0.27629  0.53621  Biso   1.000  N
  H264     1.0000 0.48200  0.23141  0.55381  Biso   1.000  H
  C235     1.0000 0.54230  0.18021  0.53681  Biso   1.000  C
  H265     1.0000 0.44430  0.18041  0.42590  Biso   1.000  H
  H266     1.0000 0.42630  0.17949  0.48741  Biso   1.000  H
  C236     1.0000 0.49102  0.12880  0.47221  Biso   1.000  C
  C237     1.0000 0.22989  0.52719  0.51191  Biso   1.000  C
  H267     1.0000 0.23141  0.44619  0.51800  Biso   1.000  H
  C238     1.0000 0.18021  0.46319  0.45770  Biso   1.000  C
  C239     1.0000 0.57571  0.53789  0.30640  Biso   1.000  C
  H268     1.0000 0.57410  0.55570  0.18041  Biso   1.000  H
  H269     1.0000 0.51259  0.57370  0.17949  Biso   1.000  H
  C240     1.0000 0.52779  0.50898  0.12880  Biso   1.000  C
  H270     1.0000 0.46499  0.46888  0.09672  Biso   1.000  H
  H271     1.0000 0.44771  0.52230  0.12832  Biso   1.000  H
  C241     1.0000 0.53789  0.30640  0.57571  Biso   1.000  C
  H272     1.0000 0.55570  0.18041  0.57410  Biso   1.000  H
  H273     1.0000 0.57370  0.17949  0.51259  Biso   1.000  H
  C242     1.0000 0.50898  0.12880  0.52779  Biso   1.000  C
  H274     1.0000 0.46888  0.09672  0.46499  Biso   1.000  H
  H275     1.0000 0.52230  0.12832  0.44771  Biso   1.000  H
  N42      1.0000 0.27629  0.53621  0.54652  Biso   1.000  N
  H276     1.0000 0.23141  0.55381  0.48200  Biso   1.000  H
  C243     1.0000 0.18021  0.53681  0.54230  Biso   1.000  C
  H277     1.0000 0.18041  0.42590  0.44430  Biso   1.000  H
  H278     1.0000 0.17949  0.48741  0.42630  Biso   1.000  H
  C244     1.0000 0.12880  0.47221  0.49102  Biso   1.000  C
  C245     1.0000 0.58938  0.57202  0.35312  Biso   1.000  C
  H279     1.0000 0.59788  0.50790  0.29878  Biso   1.000  H
  H280     1.0000 0.53501  0.53112  0.09672  Biso   1.000  H
  H281     1.0000 0.55229  0.47770  0.12832  Biso   1.000  H
  C246     1.0000 0.57202  0.35312  0.58938  Biso   1.000  C
  H282     1.0000 0.50790  0.29878  0.59788  Biso   1.000  H
  H283     1.0000 0.53112  0.09672  0.53501  Biso   1.000  H
  H284     1.0000 0.47770  0.12832  0.55229  Biso   1.000  H
  C247     1.0000 0.30640  0.57571  0.53789  Biso   1.000  C
  H285     1.0000 0.18041  0.57410  0.55570  Biso   1.000  H
  H286     1.0000 0.17949  0.51259  0.57370  Biso   1.000  H
  C248     1.0000 0.12880  0.52779  0.50898  Biso   1.000  C
  H287     1.0000 0.09672  0.46499  0.46888  Biso   1.000  H
  H288     1.0000 0.12832  0.44771  0.52230  Biso   1.000  H
  C249     1.0000 0.63542  0.55951  0.38299  Biso   1.000  C
  C250     1.0000 0.55951  0.61701  0.36458  Biso   1.000  C
  C251     1.0000 0.55951  0.38299  0.63542  Biso   1.000  C
  C252     1.0000 0.61701  0.36458  0.55951  Biso   1.000  C
  C253     1.0000 0.35312  0.58938  0.57202  Biso   1.000  C
  H289     1.0000 0.29878  0.59788  0.50790  Biso   1.000  H
  H290     1.0000 0.09672  0.53501  0.53112  Biso   1.000  H
  H291     1.0000 0.12832  0.55229  0.47770  Biso   1.000  H
  H292     1.0000 0.65811  0.53080  0.37248  Biso   1.000  H
  C254     1.0000 0.64688  0.58938  0.42798  Biso   1.000  C
  C255     1.0000 0.57202  0.64688  0.41062  Biso   1.000  C
  H293     1.0000 0.53080  0.62752  0.34189  Biso   1.000  H
  H294     1.0000 0.53080  0.37248  0.65811  Biso   1.000  H
  C256     1.0000 0.58938  0.42798  0.64688  Biso   1.000  C
  C257     1.0000 0.64688  0.41062  0.57202  Biso   1.000  C
  H295     1.0000 0.62752  0.34189  0.53080  Biso   1.000  H
  C258     1.0000 0.38299  0.63542  0.55951  Biso   1.000  C
  C259     1.0000 0.36458  0.55951  0.61701  Biso   1.000  C
  C260     1.0000 0.61701  0.63542  0.44049  Biso   1.000  C
  C261     1.0000 0.69360  0.57571  0.46211  Biso   1.000  C
  C262     1.0000 0.53789  0.69360  0.42429  Biso   1.000  C
  C263     1.0000 0.57571  0.46211  0.69360  Biso   1.000  C
  C264     1.0000 0.63542  0.44049  0.61701  Biso   1.000  C
  C265     1.0000 0.69360  0.42429  0.53789  Biso   1.000  C
  H296     1.0000 0.37248  0.65811  0.53080  Biso   1.000  H
  C266     1.0000 0.42798  0.64688  0.58938  Biso   1.000  C
  H297     1.0000 0.34189  0.53080  0.62752  Biso   1.000  H
  C267     1.0000 0.41062  0.57202  0.64688  Biso   1.000  C
  H298     1.0000 0.62752  0.65811  0.46920  Biso   1.000  H
  N43      1.0000 0.72371  0.53621  0.45348  Biso   1.000  N
  H299     1.0000 0.70122  0.59788  0.49210  Biso   1.000  H
  N44      1.0000 0.54652  0.72371  0.46379  Biso   1.000  N
  H300     1.0000 0.50790  0.70122  0.40212  Biso   1.000  H
  N45      1.0000 0.53621  0.45348  0.72371  Biso   1.000  N
  H301     1.0000 0.59788  0.49210  0.70122  Biso   1.000  H
  H302     1.0000 0.65811  0.46920  0.62752  Biso   1.000  H
  N46      1.0000 0.72371  0.46379  0.54652  Biso   1.000  N
  H303     1.0000 0.70122  0.40212  0.50790  Biso   1.000  H
  C268     1.0000 0.46211  0.69360  0.57571  Biso   1.000  C
  C269     1.0000 0.44049  0.61701  0.63542  Biso   1.000  C
  C270     1.0000 0.42429  0.53789  0.69360  Biso   1.000  C
  C271     1.0000 0.77011  0.52719  0.48809  Biso   1.000  C
  C272     1.0000 0.51191  0.77011  0.47281  Biso   1.000  C
  C273     1.0000 0.52719  0.48809  0.77011  Biso   1.000  C
  C274     1.0000 0.77011  0.47281  0.51191  Biso   1.000  C
  N47      1.0000 0.45348  0.72371  0.53621  Biso   1.000  N
  H304     1.0000 0.49210  0.70122  0.59788  Biso   1.000  H
  H305     1.0000 0.46920  0.62752  0.65811  Biso   1.000  H
  N48      1.0000 0.46379  0.54652  0.72371  Biso   1.000  N
  H306     1.0000 0.40212  0.50790  0.70122  Biso   1.000  H
  H307     1.0000 0.76859  0.55381  0.51800  Biso   1.000  H
  C275     1.0000 0.81979  0.53681  0.45770  Biso   1.000  C
  C276     1.0000 0.48809  0.77011  0.52719  Biso   1.000  C
  H308     1.0000 0.48200  0.76859  0.44619  Biso   1.000  H
  C277     1.0000 0.54230  0.81979  0.46319  Biso   1.000  C
  C278     1.0000 0.47281  0.51191  0.77011  Biso   1.000  C
  H309     1.0000 0.55381  0.51800  0.76859  Biso   1.000  H
  C279     1.0000 0.53681  0.45770  0.81979  Biso   1.000  C
  H310     1.0000 0.76859  0.44619  0.48200  Biso   1.000  H
  C280     1.0000 0.81979  0.46319  0.54230  Biso   1.000  C
  H311     1.0000 0.81959  0.57410  0.44430  Biso   1.000  H
  H312     1.0000 0.82051  0.51259  0.42630  Biso   1.000  H
  C281     1.0000 0.87120  0.52779  0.49102  Biso   1.000  C
  H313     1.0000 0.51800  0.76859  0.55381  Biso   1.000  H
  C282     1.0000 0.45770  0.81979  0.53681  Biso   1.000  C
  H314     1.0000 0.55570  0.81959  0.42590  Biso   1.000  H
  H315     1.0000 0.57370  0.82051  0.48741  Biso   1.000  H
  C283     1.0000 0.50898  0.87120  0.47221  Biso   1.000  C
  H316     1.0000 0.44619  0.48200  0.76859  Biso   1.000  H
  C284     1.0000 0.46319  0.54230  0.81979  Biso   1.000  C
  H317     1.0000 0.57410  0.44430  0.81959  Biso   1.000  H
  H318     1.0000 0.51259  0.42630  0.82051  Biso   1.000  H
  C285     1.0000 0.52779  0.49102  0.87120  Biso   1.000  C
  H319     1.0000 0.81959  0.42590  0.55570  Biso   1.000  H
  H320     1.0000 0.82051  0.48741  0.57370  Biso   1.000  H
  C286     1.0000 0.87120  0.47221  0.50898  Biso   1.000  C
  H321     1.0000 0.90328  0.53501  0.46888  Biso   1.000  H
  H322     1.0000 0.87168  0.55229  0.52230  Biso   1.000  H
  H323     1.0000 0.44430  0.81959  0.57410  Biso   1.000  H
  H324     1.0000 0.42630  0.82051  0.51259  Biso   1.000  H
  C287     1.0000 0.49102  0.87120  0.52779  Biso   1.000  C
  H325     1.0000 0.53112  0.90328  0.46499  Biso   1.000  H
  H326     1.0000 0.47770  0.87168  0.44771  Biso   1.000  H
  H327     1.0000 0.42590  0.55570  0.81959  Biso   1.000  H
  H328     1.0000 0.48741  0.57370  0.82051  Biso   1.000  H
  C288     1.0000 0.47221  0.50898  0.87120  Biso   1.000  C
  H329     1.0000 0.53501  0.46888  0.90328  Biso   1.000  H
  H330     1.0000 0.55229  0.52230  0.87168  Biso   1.000  H
  H331     1.0000 0.90328  0.46499  0.53112  Biso   1.000  H
  H332     1.0000 0.87168  0.44771  0.47770  Biso   1.000  H
  H333     1.0000 0.46888  0.90328  0.53501  Biso   1.000  H
  H334     1.0000 0.52230  0.87168  0.55229  Biso   1.000  H
  H335     1.0000 0.46499  0.53112  0.90328  Biso   1.000  H
  H336     1.0000 0.44771  0.47770  0.87168  Biso   1.000  H
  C289     1.0000 0.44049  0.11701  0.13542  Biso   1.000  C
  C290     1.0000 0.42798  0.14688  0.08938  Biso   1.000  C
  H337     1.0000 0.46920  0.12752  0.15811  Biso   1.000  H
  C291     1.0000 0.41062  0.07202  0.14688  Biso   1.000  C
  C292     1.0000 0.38299  0.13542  0.05951  Biso   1.000  C
  C293     1.0000 0.46211  0.19360  0.07571  Biso   1.000  C
  C294     1.0000 0.36458  0.05951  0.11701  Biso   1.000  C
  C295     1.0000 0.42429  0.03789  0.19360  Biso   1.000  C
  H338     1.0000 0.37248  0.15811  0.03080  Biso   1.000  H
  C296     1.0000 0.35312  0.08938  0.07202  Biso   1.000  C
  N49      1.0000 0.45348  0.22371  0.03621  Biso   1.000  N
  H339     1.0000 0.49210  0.20122  0.09788  Biso   1.000  H
  H340     1.0000 0.34189  0.03080  0.12752  Biso   1.000  H
  N50      1.0000 0.46379  0.04652  0.22371  Biso   1.000  N
  H341     1.0000 0.40212  0.00790  0.20122  Biso   1.000  H
  C297     1.0000 0.30640  0.07571  0.03789  Biso   1.000  C
  C298     1.0000 0.48809  0.27011  0.02719  Biso   1.000  C
  C299     1.0000 0.47281  0.01191  0.27011  Biso   1.000  C
  N51      1.0000 0.27629  0.03621  0.04652  Biso   1.000  N
  H342     1.0000 0.29878  0.09788  0.00790  Biso   1.000  H
  H343     1.0000 0.51800  0.26859  0.05381  Biso   1.000  H
  C300     1.0000 0.45770  0.31979  0.03681  Biso   1.000  C
  C301     1.0000 0.51191  0.27011  0.97281  Biso   1.000  C
  C302     1.0000 0.46319  0.04230  0.31979  Biso   1.000  C
  H344     1.0000 0.44619  0.98200  0.26859  Biso   1.000  H
  C303     1.0000 0.52719  0.98809  0.27011  Biso   1.000  C
  C304     1.0000 0.22989  0.02719  0.01191  Biso   1.000  C
  H345     1.0000 0.44430  0.31959  0.07410  Biso   1.000  H
  H346     1.0000 0.42630  0.32051  0.01259  Biso   1.000  H
  C305     1.0000 0.49102  0.37120  0.02779  Biso   1.000  C
  N52      1.0000 0.54652  0.22371  0.96379  Biso   1.000  N
  H347     1.0000 0.48200  0.26859  0.94619  Biso   1.000  H
  C306     1.0000 0.54230  0.31979  0.96319  Biso   1.000  C
  H348     1.0000 0.42590  0.05570  0.31959  Biso   1.000  H
  H349     1.0000 0.48741  0.07370  0.32051  Biso   1.000  H
  C307     1.0000 0.47221  0.00898  0.37120  Biso   1.000  C
  H350     1.0000 0.55381  0.01800  0.26859  Biso   1.000  H
  N53      1.0000 0.53621  0.95348  0.22371  Biso   1.000  N
  C308     1.0000 0.53681  0.95770  0.31979  Biso   1.000  C
  C309     1.0000 0.18021  0.03681  0.04230  Biso   1.000  C
  C310     1.0000 0.22989  0.97281  0.98809  Biso   1.000  C
  H351     1.0000 0.23141  0.05381  0.98200  Biso   1.000  H
  H352     1.0000 0.46888  0.40328  0.03501  Biso   1.000  H
  H353     1.0000 0.52230  0.37168  0.05229  Biso   1.000  H
  C311     1.0000 0.50898  0.37120  0.97221  Biso   1.000  C
  C312     1.0000 0.53789  0.19360  0.92429  Biso   1.000  C
  H354     1.0000 0.55570  0.31959  0.92590  Biso   1.000  H
  H355     1.0000 0.57370  0.32051  0.98741  Biso   1.000  H
  H356     1.0000 0.46499  0.03112  0.40328  Biso   1.000  H
  H357     1.0000 0.44771  0.97770  0.37168  Biso   1.000  H
  C313     1.0000 0.52779  0.99102  0.37120  Biso   1.000  C
  C314     1.0000 0.57571  0.96211  0.19360  Biso   1.000  C
  H358     1.0000 0.57410  0.94430  0.31959  Biso   1.000  H
  H359     1.0000 0.51259  0.92630  0.32051  Biso   1.000  H
  H360     1.0000 0.18041  0.07410  0.05570  Biso   1.000  H
  H361     1.0000 0.17949  0.01259  0.07370  Biso   1.000  H
  C315     1.0000 0.12880  0.02779  0.00898  Biso   1.000  C
  N54      1.0000 0.27629  0.96379  0.95348  Biso   1.000  N
  C316     1.0000 0.18021  0.96319  0.95770  Biso   1.000  C
  H362     1.0000 0.23141  0.94619  0.01800  Biso   1.000  H
  H363     1.0000 0.53112  0.40328  0.96499  Biso   1.000  H
  H364     1.0000 0.47770  0.37168  0.94771  Biso   1.000  H
  C317     1.0000 0.57202  0.14688  0.91062  Biso   1.000  C
  H365     1.0000 0.50790  0.20122  0.90212  Biso   1.000  H
  H366     1.0000 0.55229  0.02230  0.37168  Biso   1.000  H
  H367     1.0000 0.53501  0.96888  0.40328  Biso   1.000  H
  C318     1.0000 0.58938  0.92798  0.14688  Biso   1.000  C
  H368     1.0000 0.59788  0.99210  0.20122  Biso   1.000  H
  H369     1.0000 0.09672  0.03501  0.03112  Biso   1.000  H
  C319     1.0000 0.12880  0.97221  0.99102  Biso   1.000  C
  H370     1.0000 0.12832  0.05229  0.97770  Biso   1.000  H
  C320     1.0000 0.30640  0.92429  0.96211  Biso   1.000  C
  H371     1.0000 0.18041  0.92590  0.94430  Biso   1.000  H
  H372     1.0000 0.17949  0.98741  0.92630  Biso   1.000  H
  C321     1.0000 0.61701  0.13542  0.94049  Biso   1.000  C
  C322     1.0000 0.55951  0.11701  0.86458  Biso   1.000  C
  C323     1.0000 0.55951  0.88299  0.13542  Biso   1.000  C
  C324     1.0000 0.63542  0.94049  0.11701  Biso   1.000  C
  H373     1.0000 0.09672  0.96499  0.96888  Biso   1.000  H
  H374     1.0000 0.12832  0.94771  0.02230  Biso   1.000  H
  C325     1.0000 0.35312  0.91062  0.92798  Biso   1.000  C
  H375     1.0000 0.29878  0.90212  0.99210  Biso   1.000  H
  H376     1.0000 0.62752  0.15811  0.96920  Biso   1.000  H
  C326     1.0000 0.64688  0.08938  0.92798  Biso   1.000  C
  H377     1.0000 0.53080  0.12752  0.84189  Biso   1.000  H
  C327     1.0000 0.58938  0.07202  0.85312  Biso   1.000  C
  H378     1.0000 0.53080  0.87248  0.15811  Biso   1.000  H
  C328     1.0000 0.57202  0.85312  0.08938  Biso   1.000  C
  H379     1.0000 0.65811  0.96920  0.12752  Biso   1.000  H
  C329     1.0000 0.64688  0.91062  0.07202  Biso   1.000  C
  C330     1.0000 0.36458  0.94049  0.88299  Biso   1.000  C
  C331     1.0000 0.38299  0.86458  0.94049  Biso   1.000  C
  C332     1.0000 0.63542  0.05951  0.88299  Biso   1.000  C
  C333     1.0000 0.69360  0.07571  0.96211  Biso   1.000  C
  C334     1.0000 0.57571  0.03789  0.80640  Biso   1.000  C
  C335     1.0000 0.61701  0.86458  0.05951  Biso   1.000  C
  C336     1.0000 0.53789  0.80640  0.07571  Biso   1.000  C
  C337     1.0000 0.69360  0.92429  0.03789  Biso   1.000  C
  H380     1.0000 0.34189  0.96920  0.87248  Biso   1.000  H
  C338     1.0000 0.41062  0.92798  0.85312  Biso   1.000  C
  H381     1.0000 0.37248  0.84189  0.96920  Biso   1.000  H
  C339     1.0000 0.42798  0.85312  0.91062  Biso   1.000  C
  H382     1.0000 0.65811  0.03080  0.87248  Biso   1.000  H
  N55      1.0000 0.72371  0.03621  0.95348  Biso   1.000  N
  H383     1.0000 0.70122  0.09788  0.99210  Biso   1.000  H
  N56      1.0000 0.53621  0.04652  0.77629  Biso   1.000  N
  H384     1.0000 0.59788  0.00790  0.79878  Biso   1.000  H
  H385     1.0000 0.62752  0.84189  0.03080  Biso   1.000  H
  N57      1.0000 0.54652  0.77629  0.03621  Biso   1.000  N
  H386     1.0000 0.50790  0.79878  0.09788  Biso   1.000  H
  N58      1.0000 0.72371  0.96379  0.04652  Biso   1.000  N
  H387     1.0000 0.70122  0.90212  0.00790  Biso   1.000  H
  C340     1.0000 0.44049  0.88299  0.86458  Biso   1.000  C
  C341     1.0000 0.42429  0.96211  0.80640  Biso   1.000  C
  C342     1.0000 0.46211  0.80640  0.92429  Biso   1.000  C
  C343     1.0000 0.77011  0.02719  0.98809  Biso   1.000  C
  C344     1.0000 0.52719  0.01191  0.72989  Biso   1.000  C
  C345     1.0000 0.51191  0.72989  0.02719  Biso   1.000  C
  C346     1.0000 0.77011  0.97281  0.01191  Biso   1.000  C
  H388     1.0000 0.46920  0.87248  0.84189  Biso   1.000  H
  N59      1.0000 0.46379  0.95348  0.77629  Biso   1.000  N
  H389     1.0000 0.40212  0.99210  0.79878  Biso   1.000  H
  N60      1.0000 0.45348  0.77629  0.96379  Biso   1.000  N
  H390     1.0000 0.49210  0.79878  0.90212  Biso   1.000  H
  H391     1.0000 0.76859  0.05381  0.01800  Biso   1.000  H
  C347     1.0000 0.81979  0.03681  0.95770  Biso   1.000  C
  H392     1.0000 0.55381  0.98200  0.73141  Biso   1.000  H
  C348     1.0000 0.47281  0.98809  0.72989  Biso   1.000  C
  C349     1.0000 0.53681  0.04230  0.68021  Biso   1.000  C
  C350     1.0000 0.48809  0.72989  0.97281  Biso   1.000  C
  H393     1.0000 0.48200  0.73141  0.05381  Biso   1.000  H
  C351     1.0000 0.54230  0.68021  0.03681  Biso   1.000  C
  H394     1.0000 0.76859  0.94619  0.98200  Biso   1.000  H
  C352     1.0000 0.81979  0.96319  0.04230  Biso   1.000  C
  H395     1.0000 0.81959  0.07410  0.94430  Biso   1.000  H
  H396     1.0000 0.82051  0.01259  0.92630  Biso   1.000  H
  C353     1.0000 0.87120  0.02779  0.99102  Biso   1.000  C
  C354     1.0000 0.46319  0.95770  0.68021  Biso   1.000  C
  H397     1.0000 0.44619  0.01800  0.73141  Biso   1.000  H
  H398     1.0000 0.57410  0.05570  0.68041  Biso   1.000  H
  H399     1.0000 0.51259  0.07370  0.67949  Biso   1.000  H
  C355     1.0000 0.52779  0.00898  0.62880  Biso   1.000  C
  H400     1.0000 0.51800  0.73141  0.94619  Biso   1.000  H
  C356     1.0000 0.45770  0.68021  0.96319  Biso   1.000  C
  H401     1.0000 0.55570  0.68041  0.07410  Biso   1.000  H
  H402     1.0000 0.57370  0.67949  0.01259  Biso   1.000  H
  C357     1.0000 0.50898  0.62880  0.02779  Biso   1.000  C
  H403     1.0000 0.81959  0.92590  0.05570  Biso   1.000  H
  H404     1.0000 0.82051  0.98741  0.07370  Biso   1.000  H
  C358     1.0000 0.87120  0.97221  0.00898  Biso   1.000  C
  H405     1.0000 0.87168  0.05229  0.02230  Biso   1.000  H
  H406     1.0000 0.90328  0.03501  0.96888  Biso   1.000  H
  H407     1.0000 0.42590  0.94430  0.68041  Biso   1.000  H
  H408     1.0000 0.48741  0.92630  0.67949  Biso   1.000  H
  C359     1.0000 0.47221  0.99102  0.62880  Biso   1.000  C
  H409     1.0000 0.55229  0.97770  0.62832  Biso   1.000  H
  H410     1.0000 0.53501  0.03112  0.59672  Biso   1.000  H
  H411     1.0000 0.44430  0.68041  0.92590  Biso   1.000  H
  H412     1.0000 0.42630  0.67949  0.98741  Biso   1.000  H
  C360     1.0000 0.49102  0.62880  0.97221  Biso   1.000  C
  H413     1.0000 0.53112  0.59672  0.03501  Biso   1.000  H
  H414     1.0000 0.47770  0.62832  0.05229  Biso   1.000  H
  H415     1.0000 0.87168  0.94771  0.97770  Biso   1.000  H
  H416     1.0000 0.90328  0.96499  0.03112  Biso   1.000  H
  H417     1.0000 0.46499  0.96888  0.59672  Biso   1.000  H
  H418     1.0000 0.44771  0.02230  0.62832  Biso   1.000  H
  H419     1.0000 0.46888  0.59672  0.96499  Biso   1.000  H
  H420     1.0000 0.52230  0.62832  0.94771  Biso   1.000  H
  C361     1.0000 0.44049  0.11701  0.13542  Biso   1.000  C
  C362     1.0000 0.42798  0.14688  0.08938  Biso   1.000  C
  H421     1.0000 0.46920  0.12752  0.15811  Biso   1.000  H
  C363     1.0000 0.41062  0.07202  0.14688  Biso   1.000  C
  C364     1.0000 0.38299  0.13542  0.05951  Biso   1.000  C
  C365     1.0000 0.46211  0.19360  0.07571  Biso   1.000  C
  C366     1.0000 0.36458  0.05951  0.11701  Biso   1.000  C
  C367     1.0000 0.42429  0.03789  0.19360  Biso   1.000  C
  H422     1.0000 0.37248  0.15811  0.03080  Biso   1.000  H
  C368     1.0000 0.35312  0.08938  0.07202  Biso   1.000  C
  N61      1.0000 0.45348  0.22371  0.03621  Biso   1.000  N
  H423     1.0000 0.49210  0.20122  0.09788  Biso   1.000  H
  H424     1.0000 0.34189  0.03080  0.12752  Biso   1.000  H
  N62      1.0000 0.46379  0.04652  0.22371  Biso   1.000  N
  H425     1.0000 0.40212  0.00790  0.20122  Biso   1.000  H
  C369     1.0000 0.30640  0.07571  0.03789  Biso   1.000  C
  C370     1.0000 0.48809  0.27011  0.02719  Biso   1.000  C
  C371     1.0000 0.47281  0.01191  0.27011  Biso   1.000  C
  N63      1.0000 0.27629  0.03621  0.04652  Biso   1.000  N
  H426     1.0000 0.29878  0.09788  0.00790  Biso   1.000  H
  H427     1.0000 0.51800  0.26859  0.05381  Biso   1.000  H
  C372     1.0000 0.45770  0.31979  0.03681  Biso   1.000  C
  C373     1.0000 0.51191  0.27011  0.97281  Biso   1.000  C
  C374     1.0000 0.46319  0.04230  0.31979  Biso   1.000  C
  H428     1.0000 0.44619  0.98200  0.26859  Biso   1.000  H
  C375     1.0000 0.52719  0.98809  0.27011  Biso   1.000  C
  C376     1.0000 0.22989  0.02719  0.01191  Biso   1.000  C
  H429     1.0000 0.44430  0.31959  0.07410  Biso   1.000  H
  H430     1.0000 0.42630  0.32051  0.01259  Biso   1.000  H
  C377     1.0000 0.49102  0.37120  0.02779  Biso   1.000  C
  N64      1.0000 0.54652  0.22371  0.96379  Biso   1.000  N
  H431     1.0000 0.48200  0.26859  0.94619  Biso   1.000  H
  C378     1.0000 0.54230  0.31979  0.96319  Biso   1.000  C
  H432     1.0000 0.42590  0.05570  0.31959  Biso   1.000  H
  H433     1.0000 0.48741  0.07370  0.32051  Biso   1.000  H
  C379     1.0000 0.47221  0.00898  0.37120  Biso   1.000  C
  H434     1.0000 0.55381  0.01800  0.26859  Biso   1.000  H
  N65      1.0000 0.53621  0.95348  0.22371  Biso   1.000  N
  C380     1.0000 0.53681  0.95770  0.31979  Biso   1.000  C
  C381     1.0000 0.18021  0.03681  0.04230  Biso   1.000  C
  C382     1.0000 0.22989  0.97281  0.98809  Biso   1.000  C
  H435     1.0000 0.23141  0.05381  0.98200  Biso   1.000  H
  H436     1.0000 0.46888  0.40328  0.03501  Biso   1.000  H
  H437     1.0000 0.52230  0.37168  0.05229  Biso   1.000  H
  C383     1.0000 0.50898  0.37120  0.97221  Biso   1.000  C
  C384     1.0000 0.53789  0.19360  0.92429  Biso   1.000  C
  H438     1.0000 0.55570  0.31959  0.92590  Biso   1.000  H
  H439     1.0000 0.57370  0.32051  0.98741  Biso   1.000  H
  H440     1.0000 0.46499  0.03112  0.40328  Biso   1.000  H
  H441     1.0000 0.44771  0.97770  0.37168  Biso   1.000  H
  C385     1.0000 0.52779  0.99102  0.37120  Biso   1.000  C
  C386     1.0000 0.57571  0.96211  0.19360  Biso   1.000  C
  H442     1.0000 0.57410  0.94430  0.31959  Biso   1.000  H
  H443     1.0000 0.51259  0.92630  0.32051  Biso   1.000  H
  H444     1.0000 0.18041  0.07410  0.05570  Biso   1.000  H
  H445     1.0000 0.17949  0.01259  0.07370  Biso   1.000  H
  C387     1.0000 0.12880  0.02779  0.00898  Biso   1.000  C
  N66      1.0000 0.27629  0.96379  0.95348  Biso   1.000  N
  C388     1.0000 0.18021  0.96319  0.95770  Biso   1.000  C
  H446     1.0000 0.23141  0.94619  0.01800  Biso   1.000  H
  H447     1.0000 0.53112  0.40328  0.96499  Biso   1.000  H
  H448     1.0000 0.47770  0.37168  0.94771  Biso   1.000  H
  C389     1.0000 0.57202  0.14688  0.91062  Biso   1.000  C
  H449     1.0000 0.50790  0.20122  0.90212  Biso   1.000  H
  H450     1.0000 0.55229  0.02230  0.37168  Biso   1.000  H
  H451     1.0000 0.53501  0.96888  0.40328  Biso   1.000  H
  C390     1.0000 0.58938  0.92798  0.14688  Biso   1.000  C
  H452     1.0000 0.59788  0.99210  0.20122  Biso   1.000  H
  H453     1.0000 0.09672  0.03501  0.03112  Biso   1.000  H
  C391     1.0000 0.12880  0.97221  0.99102  Biso   1.000  C
  H454     1.0000 0.12832  0.05229  0.97770  Biso   1.000  H
  C392     1.0000 0.30640  0.92429  0.96211  Biso   1.000  C
  H455     1.0000 0.18041  0.92590  0.94430  Biso   1.000  H
  H456     1.0000 0.17949  0.98741  0.92630  Biso   1.000  H
  C393     1.0000 0.61701  0.13542  0.94049  Biso   1.000  C
  C394     1.0000 0.55951  0.11701  0.86458  Biso   1.000  C
  C395     1.0000 0.55951  0.88299  0.13542  Biso   1.000  C
  C396     1.0000 0.63542  0.94049  0.11701  Biso   1.000  C
  H457     1.0000 0.09672  0.96499  0.96888  Biso   1.000  H
  H458     1.0000 0.12832  0.94771  0.02230  Biso   1.000  H
  C397     1.0000 0.35312  0.91062  0.92798  Biso   1.000  C
  H459     1.0000 0.29878  0.90212  0.99210  Biso   1.000  H
  H460     1.0000 0.62752  0.15811  0.96920  Biso   1.000  H
  C398     1.0000 0.64688  0.08938  0.92798  Biso   1.000  C
  H461     1.0000 0.53080  0.12752  0.84189  Biso   1.000  H
  C399     1.0000 0.58938  0.07202  0.85312  Biso   1.000  C
  H462     1.0000 0.53080  0.87248  0.15811  Biso   1.000  H
  C400     1.0000 0.57202  0.85312  0.08938  Biso   1.000  C
  H463     1.0000 0.65811  0.96920  0.12752  Biso   1.000  H
  C401     1.0000 0.64688  0.91062  0.07202  Biso   1.000  C
  C402     1.0000 0.36458  0.94049  0.88299  Biso   1.000  C
  C403     1.0000 0.38299  0.86458  0.94049  Biso   1.000  C
  C404     1.0000 0.63542  0.05951  0.88299  Biso   1.000  C
  C405     1.0000 0.69360  0.07571  0.96211  Biso   1.000  C
  C406     1.0000 0.57571  0.03789  0.80640  Biso   1.000  C
  C407     1.0000 0.61701  0.86458  0.05951  Biso   1.000  C
  C408     1.0000 0.53789  0.80640  0.07571  Biso   1.000  C
  C409     1.0000 0.69360  0.92429  0.03789  Biso   1.000  C
  H464     1.0000 0.34189  0.96920  0.87248  Biso   1.000  H
  C410     1.0000 0.41062  0.92798  0.85312  Biso   1.000  C
  H465     1.0000 0.37248  0.84189  0.96920  Biso   1.000  H
  C411     1.0000 0.42798  0.85312  0.91062  Biso   1.000  C
  H466     1.0000 0.65811  0.03080  0.87248  Biso   1.000  H
  N67      1.0000 0.72371  0.03621  0.95348  Biso   1.000  N
  H467     1.0000 0.70122  0.09788  0.99210  Biso   1.000  H
  N68      1.0000 0.53621  0.04652  0.77629  Biso   1.000  N
  H468     1.0000 0.59788  0.00790  0.79878  Biso   1.000  H
  H469     1.0000 0.62752  0.84189  0.03080  Biso   1.000  H
  N69      1.0000 0.54652  0.77629  0.03621  Biso   1.000  N
  H470     1.0000 0.50790  0.79878  0.09788  Biso   1.000  H
  N70      1.0000 0.72371  0.96379  0.04652  Biso   1.000  N
  H471     1.0000 0.70122  0.90212  0.00790  Biso   1.000  H
  C412     1.0000 0.44049  0.88299  0.86458  Biso   1.000  C
  C413     1.0000 0.42429  0.96211  0.80640  Biso   1.000  C
  C414     1.0000 0.46211  0.80640  0.92429  Biso   1.000  C
  C415     1.0000 0.77011  0.02719  0.98809  Biso   1.000  C
  C416     1.0000 0.52719  0.01191  0.72989  Biso   1.000  C
  C417     1.0000 0.51191  0.72989  0.02719  Biso   1.000  C
  C418     1.0000 0.77011  0.97281  0.01191  Biso   1.000  C
  H472     1.0000 0.46920  0.87248  0.84189  Biso   1.000  H
  N71      1.0000 0.46379  0.95348  0.77629  Biso   1.000  N
  H473     1.0000 0.40212  0.99210  0.79878  Biso   1.000  H
  N72      1.0000 0.45348  0.77629  0.96379  Biso   1.000  N
  H474     1.0000 0.49210  0.79878  0.90212  Biso   1.000  H
  H475     1.0000 0.76859  0.05381  0.01800  Biso   1.000  H
  C419     1.0000 0.81979  0.03681  0.95770  Biso   1.000  C
  H476     1.0000 0.55381  0.98200  0.73141  Biso   1.000  H
  C420     1.0000 0.47281  0.98809  0.72989  Biso   1.000  C
  C421     1.0000 0.53681  0.04230  0.68021  Biso   1.000  C
  C422     1.0000 0.48809  0.72989  0.97281  Biso   1.000  C
  H477     1.0000 0.48200  0.73141  0.05381  Biso   1.000  H
  C423     1.0000 0.54230  0.68021  0.03681  Biso   1.000  C
  H478     1.0000 0.76859  0.94619  0.98200  Biso   1.000  H
  C424     1.0000 0.81979  0.96319  0.04230  Biso   1.000  C
  H479     1.0000 0.81959  0.07410  0.94430  Biso   1.000  H
  H480     1.0000 0.82051  0.01259  0.92630  Biso   1.000  H
  C425     1.0000 0.87120  0.02779  0.99102  Biso   1.000  C
  C426     1.0000 0.46319  0.95770  0.68021  Biso   1.000  C
  H481     1.0000 0.44619  0.01800  0.73141  Biso   1.000  H
  H482     1.0000 0.57410  0.05570  0.68041  Biso   1.000  H
  H483     1.0000 0.51259  0.07370  0.67949  Biso   1.000  H
  C427     1.0000 0.52779  0.00898  0.62880  Biso   1.000  C
  H484     1.0000 0.51800  0.73141  0.94619  Biso   1.000  H
  C428     1.0000 0.45770  0.68021  0.96319  Biso   1.000  C
  H485     1.0000 0.55570  0.68041  0.07410  Biso   1.000  H
  H486     1.0000 0.57370  0.67949  0.01259  Biso   1.000  H
  C429     1.0000 0.50898  0.62880  0.02779  Biso   1.000  C
  H487     1.0000 0.81959  0.92590  0.05570  Biso   1.000  H
  H488     1.0000 0.82051  0.98741  0.07370  Biso   1.000  H
  C430     1.0000 0.87120  0.97221  0.00898  Biso   1.000  C
  H489     1.0000 0.87168  0.05229  0.02230  Biso   1.000  H
  H490     1.0000 0.90328  0.03501  0.96888  Biso   1.000  H
  H491     1.0000 0.42590  0.94430  0.68041  Biso   1.000  H
  H492     1.0000 0.48741  0.92630  0.67949  Biso   1.000  H
  C431     1.0000 0.47221  0.99102  0.62880  Biso   1.000  C
  H493     1.0000 0.55229  0.97770  0.62832  Biso   1.000  H
  H494     1.0000 0.53501  0.03112  0.59672  Biso   1.000  H
  H495     1.0000 0.44430  0.68041  0.92590  Biso   1.000  H
  H496     1.0000 0.42630  0.67949  0.98741  Biso   1.000  H
  C432     1.0000 0.49102  0.62880  0.97221  Biso   1.000  C
  H497     1.0000 0.53112  0.59672  0.03501  Biso   1.000  H
  H498     1.0000 0.47770  0.62832  0.05229  Biso   1.000  H
  H499     1.0000 0.87168  0.94771  0.97770  Biso   1.000  H
  H500     1.0000 0.90328  0.96499  0.03112  Biso   1.000  H
  H501     1.0000 0.46499  0.96888  0.59672  Biso   1.000  H
  H502     1.0000 0.44771  0.02230  0.62832  Biso   1.000  H
  H503     1.0000 0.46888  0.59672  0.96499  Biso   1.000  H
  H504     1.0000 0.52230  0.62832  0.94771  Biso   1.000  H
  C433     1.0000 0.44049  0.11701  0.13542  Biso   1.000  C
  C434     1.0000 0.42798  0.14688  0.08938  Biso   1.000  C
  H505     1.0000 0.46920  0.12752  0.15811  Biso   1.000  H
  C435     1.0000 0.41062  0.07202  0.14688  Biso   1.000  C
  C436     1.0000 0.38299  0.13542  0.05951  Biso   1.000  C
  C437     1.0000 0.46211  0.19360  0.07571  Biso   1.000  C
  C438     1.0000 0.36458  0.05951  0.11701  Biso   1.000  C
  C439     1.0000 0.42429  0.03789  0.19360  Biso   1.000  C
  H506     1.0000 0.37248  0.15811  0.03080  Biso   1.000  H
  C440     1.0000 0.35312  0.08938  0.07202  Biso   1.000  C
  N73      1.0000 0.45348  0.22371  0.03621  Biso   1.000  N
  H507     1.0000 0.49210  0.20122  0.09788  Biso   1.000  H
  H508     1.0000 0.34189  0.03080  0.12752  Biso   1.000  H
  N74      1.0000 0.46379  0.04652  0.22371  Biso   1.000  N
  H509     1.0000 0.40212  0.00790  0.20122  Biso   1.000  H
  C441     1.0000 0.30640  0.07571  0.03789  Biso   1.000  C
  C442     1.0000 0.48809  0.27011  0.02719  Biso   1.000  C
  C443     1.0000 0.47281  0.01191  0.27011  Biso   1.000  C
  N75      1.0000 0.27629  0.03621  0.04652  Biso   1.000  N
  H510     1.0000 0.29878  0.09788  0.00790  Biso   1.000  H
  H511     1.0000 0.51800  0.26859  0.05381  Biso   1.000  H
  C444     1.0000 0.45770  0.31979  0.03681  Biso   1.000  C
  C445     1.0000 0.51191  0.27011  0.97281  Biso   1.000  C
  C446     1.0000 0.46319  0.04230  0.31979  Biso   1.000  C
  H512     1.0000 0.44619  0.98200  0.26859  Biso   1.000  H
  C447     1.0000 0.52719  0.98809  0.27011  Biso   1.000  C
  C448     1.0000 0.22989  0.02719  0.01191  Biso   1.000  C
  H513     1.0000 0.44430  0.31959  0.07410  Biso   1.000  H
  H514     1.0000 0.42630  0.32051  0.01259  Biso   1.000  H
  C449     1.0000 0.49102  0.37120  0.02779  Biso   1.000  C
  N76      1.0000 0.54652  0.22371  0.96379  Biso   1.000  N
  H515     1.0000 0.48200  0.26859  0.94619  Biso   1.000  H
  C450     1.0000 0.54230  0.31979  0.96319  Biso   1.000  C
  H516     1.0000 0.42590  0.05570  0.31959  Biso   1.000  H
  H517     1.0000 0.48741  0.07370  0.32051  Biso   1.000  H
  C451     1.0000 0.47221  0.00898  0.37120  Biso   1.000  C
  H518     1.0000 0.55381  0.01800  0.26859  Biso   1.000  H
  N77      1.0000 0.53621  0.95348  0.22371  Biso   1.000  N
  C452     1.0000 0.53681  0.95770  0.31979  Biso   1.000  C
  C453     1.0000 0.18021  0.03681  0.04230  Biso   1.000  C
  C454     1.0000 0.22989  0.97281  0.98809  Biso   1.000  C
  H519     1.0000 0.23141  0.05381  0.98200  Biso   1.000  H
  H520     1.0000 0.46888  0.40328  0.03501  Biso   1.000  H
  H521     1.0000 0.52230  0.37168  0.05229  Biso   1.000  H
  C455     1.0000 0.50898  0.37120  0.97221  Biso   1.000  C
  C456     1.0000 0.53789  0.19360  0.92429  Biso   1.000  C
  H522     1.0000 0.55570  0.31959  0.92590  Biso   1.000  H
  H523     1.0000 0.57370  0.32051  0.98741  Biso   1.000  H
  H524     1.0000 0.46499  0.03112  0.40328  Biso   1.000  H
  H525     1.0000 0.44771  0.97770  0.37168  Biso   1.000  H
  C457     1.0000 0.52779  0.99102  0.37120  Biso   1.000  C
  C458     1.0000 0.57571  0.96211  0.19360  Biso   1.000  C
  H526     1.0000 0.57410  0.94430  0.31959  Biso   1.000  H
  H527     1.0000 0.51259  0.92630  0.32051  Biso   1.000  H
  H528     1.0000 0.18041  0.07410  0.05570  Biso   1.000  H
  H529     1.0000 0.17949  0.01259  0.07370  Biso   1.000  H
  C459     1.0000 0.12880  0.02779  0.00898  Biso   1.000  C
  N78      1.0000 0.27629  0.96379  0.95348  Biso   1.000  N
  C460     1.0000 0.18021  0.96319  0.95770  Biso   1.000  C
  H530     1.0000 0.23141  0.94619  0.01800  Biso   1.000  H
  H531     1.0000 0.53112  0.40328  0.96499  Biso   1.000  H
  H532     1.0000 0.47770  0.37168  0.94771  Biso   1.000  H
  C461     1.0000 0.57202  0.14688  0.91062  Biso   1.000  C
  H533     1.0000 0.50790  0.20122  0.90212  Biso   1.000  H
  H534     1.0000 0.55229  0.02230  0.37168  Biso   1.000  H
  H535     1.0000 0.53501  0.96888  0.40328  Biso   1.000  H
  C462     1.0000 0.58938  0.92798  0.14688  Biso   1.000  C
  H536     1.0000 0.59788  0.99210  0.20122  Biso   1.000  H
  H537     1.0000 0.09672  0.03501  0.03112  Biso   1.000  H
  C463     1.0000 0.12880  0.97221  0.99102  Biso   1.000  C
  H538     1.0000 0.12832  0.05229  0.97770  Biso   1.000  H
  C464     1.0000 0.30640  0.92429  0.96211  Biso   1.000  C
  H539     1.0000 0.18041  0.92590  0.94430  Biso   1.000  H
  H540     1.0000 0.17949  0.98741  0.92630  Biso   1.000  H
  C465     1.0000 0.61701  0.13542  0.94049  Biso   1.000  C
  C466     1.0000 0.55951  0.11701  0.86458  Biso   1.000  C
  C467     1.0000 0.55951  0.88299  0.13542  Biso   1.000  C
  C468     1.0000 0.63542  0.94049  0.11701  Biso   1.000  C
  H541     1.0000 0.09672  0.96499  0.96888  Biso   1.000  H
  H542     1.0000 0.12832  0.94771  0.02230  Biso   1.000  H
  C469     1.0000 0.35312  0.91062  0.92798  Biso   1.000  C
  H543     1.0000 0.29878  0.90212  0.99210  Biso   1.000  H
  H544     1.0000 0.62752  0.15811  0.96920  Biso   1.000  H
  C470     1.0000 0.64688  0.08938  0.92798  Biso   1.000  C
  H545     1.0000 0.53080  0.12752  0.84189  Biso   1.000  H
  C471     1.0000 0.58938  0.07202  0.85312  Biso   1.000  C
  H546     1.0000 0.53080  0.87248  0.15811  Biso   1.000  H
  C472     1.0000 0.57202  0.85312  0.08938  Biso   1.000  C
  H547     1.0000 0.65811  0.96920  0.12752  Biso   1.000  H
  C473     1.0000 0.64688  0.91062  0.07202  Biso   1.000  C
  C474     1.0000 0.36458  0.94049  0.88299  Biso   1.000  C
  C475     1.0000 0.38299  0.86458  0.94049  Biso   1.000  C
  C476     1.0000 0.63542  0.05951  0.88299  Biso   1.000  C
  C477     1.0000 0.69360  0.07571  0.96211  Biso   1.000  C
  C478     1.0000 0.57571  0.03789  0.80640  Biso   1.000  C
  C479     1.0000 0.61701  0.86458  0.05951  Biso   1.000  C
  C480     1.0000 0.53789  0.80640  0.07571  Biso   1.000  C
  C481     1.0000 0.69360  0.92429  0.03789  Biso   1.000  C
  H548     1.0000 0.34189  0.96920  0.87248  Biso   1.000  H
  C482     1.0000 0.41062  0.92798  0.85312  Biso   1.000  C
  H549     1.0000 0.37248  0.84189  0.96920  Biso   1.000  H
  C483     1.0000 0.42798  0.85312  0.91062  Biso   1.000  C
  H550     1.0000 0.65811  0.03080  0.87248  Biso   1.000  H
  N79      1.0000 0.72371  0.03621  0.95348  Biso   1.000  N
  H551     1.0000 0.70122  0.09788  0.99210  Biso   1.000  H
  N80      1.0000 0.53621  0.04652  0.77629  Biso   1.000  N
  H552     1.0000 0.59788  0.00790  0.79878  Biso   1.000  H
  H553     1.0000 0.62752  0.84189  0.03080  Biso   1.000  H
  N81      1.0000 0.54652  0.77629  0.03621  Biso   1.000  N
  H554     1.0000 0.50790  0.79878  0.09788  Biso   1.000  H
  N82      1.0000 0.72371  0.96379  0.04652  Biso   1.000  N
  H555     1.0000 0.70122  0.90212  0.00790  Biso   1.000  H
  C484     1.0000 0.44049  0.88299  0.86458  Biso   1.000  C
  C485     1.0000 0.42429  0.96211  0.80640  Biso   1.000  C
  C486     1.0000 0.46211  0.80640  0.92429  Biso   1.000  C
  C487     1.0000 0.77011  0.02719  0.98809  Biso   1.000  C
  C488     1.0000 0.52719  0.01191  0.72989  Biso   1.000  C
  C489     1.0000 0.51191  0.72989  0.02719  Biso   1.000  C
  C490     1.0000 0.77011  0.97281  0.01191  Biso   1.000  C
  H556     1.0000 0.46920  0.87248  0.84189  Biso   1.000  H
  N83      1.0000 0.46379  0.95348  0.77629  Biso   1.000  N
  H557     1.0000 0.40212  0.99210  0.79878  Biso   1.000  H
  N84      1.0000 0.45348  0.77629  0.96379  Biso   1.000  N
  H558     1.0000 0.49210  0.79878  0.90212  Biso   1.000  H
  H559     1.0000 0.76859  0.05381  0.01800  Biso   1.000  H
  C491     1.0000 0.81979  0.03681  0.95770  Biso   1.000  C
  H560     1.0000 0.55381  0.98200  0.73141  Biso   1.000  H
  C492     1.0000 0.47281  0.98809  0.72989  Biso   1.000  C
  C493     1.0000 0.53681  0.04230  0.68021  Biso   1.000  C
  C494     1.0000 0.48809  0.72989  0.97281  Biso   1.000  C
  H561     1.0000 0.48200  0.73141  0.05381  Biso   1.000  H
  C495     1.0000 0.54230  0.68021  0.03681  Biso   1.000  C
  H562     1.0000 0.76859  0.94619  0.98200  Biso   1.000  H
  C496     1.0000 0.81979  0.96319  0.04230  Biso   1.000  C
  H563     1.0000 0.81959  0.07410  0.94430  Biso   1.000  H
  H564     1.0000 0.82051  0.01259  0.92630  Biso   1.000  H
  C497     1.0000 0.87120  0.02779  0.99102  Biso   1.000  C
  C498     1.0000 0.46319  0.95770  0.68021  Biso   1.000  C
  H565     1.0000 0.44619  0.01800  0.73141  Biso   1.000  H
  H566     1.0000 0.57410  0.05570  0.68041  Biso   1.000  H
  H567     1.0000 0.51259  0.07370  0.67949  Biso   1.000  H
  C499     1.0000 0.52779  0.00898  0.62880  Biso   1.000  C
  H568     1.0000 0.51800  0.73141  0.94619  Biso   1.000  H
  C500     1.0000 0.45770  0.68021  0.96319  Biso   1.000  C
  H569     1.0000 0.55570  0.68041  0.07410  Biso   1.000  H
  H570     1.0000 0.57370  0.67949  0.01259  Biso   1.000  H
  C501     1.0000 0.50898  0.62880  0.02779  Biso   1.000  C
  H571     1.0000 0.81959  0.92590  0.05570  Biso   1.000  H
  H572     1.0000 0.82051  0.98741  0.07370  Biso   1.000  H
  C502     1.0000 0.87120  0.97221  0.00898  Biso   1.000  C
  H573     1.0000 0.87168  0.05229  0.02230  Biso   1.000  H
  H574     1.0000 0.90328  0.03501  0.96888  Biso   1.000  H
  H575     1.0000 0.42590  0.94430  0.68041  Biso   1.000  H
  H576     1.0000 0.48741  0.92630  0.67949  Biso   1.000  H
  C503     1.0000 0.47221  0.99102  0.62880  Biso   1.000  C
  H577     1.0000 0.55229  0.97770  0.62832  Biso   1.000  H
  H578     1.0000 0.53501  0.03112  0.59672  Biso   1.000  H
  H579     1.0000 0.44430  0.68041  0.92590  Biso   1.000  H
  H580     1.0000 0.42630  0.67949  0.98741  Biso   1.000  H
  C504     1.0000 0.49102  0.62880  0.97221  Biso   1.000  C
  H581     1.0000 0.53112  0.59672  0.03501  Biso   1.000  H
  H582     1.0000 0.47770  0.62832  0.05229  Biso   1.000  H
  H583     1.0000 0.87168  0.94771  0.97770  Biso   1.000  H
  H584     1.0000 0.90328  0.96499  0.03112  Biso   1.000  H
  H585     1.0000 0.46499  0.96888  0.59672  Biso   1.000  H
  H586     1.0000 0.44771  0.02230  0.62832  Biso   1.000  H
  H587     1.0000 0.46888  0.59672  0.96499  Biso   1.000  H
  H588     1.0000 0.52230  0.62832  0.94771  Biso   1.000  H
  C505     1.0000 0.44049  0.11701  0.13542  Biso   1.000  C
  C506     1.0000 0.42798  0.14688  0.08938  Biso   1.000  C
  H589     1.0000 0.46920  0.12752  0.15811  Biso   1.000  H
  C507     1.0000 0.41062  0.07202  0.14688  Biso   1.000  C
  C508     1.0000 0.38299  0.13542  0.05951  Biso   1.000  C
  C509     1.0000 0.46211  0.19360  0.07571  Biso   1.000  C
  C510     1.0000 0.36458  0.05951  0.11701  Biso   1.000  C
  C511     1.0000 0.42429  0.03789  0.19360  Biso   1.000  C
  H590     1.0000 0.37248  0.15811  0.03080  Biso   1.000  H
  C512     1.0000 0.35312  0.08938  0.07202  Biso   1.000  C
  N85      1.0000 0.45348  0.22371  0.03621  Biso   1.000  N
  H591     1.0000 0.49210  0.20122  0.09788  Biso   1.000  H
  H592     1.0000 0.34189  0.03080  0.12752  Biso   1.000  H
  N86      1.0000 0.46379  0.04652  0.22371  Biso   1.000  N
  H593     1.0000 0.40212  0.00790  0.20122  Biso   1.000  H
  C513     1.0000 0.30640  0.07571  0.03789  Biso   1.000  C
  C514     1.0000 0.48809  0.27011  0.02719  Biso   1.000  C
  C515     1.0000 0.47281  0.01191  0.27011  Biso   1.000  C
  N87      1.0000 0.27629  0.03621  0.04652  Biso   1.000  N
  H594     1.0000 0.29878  0.09788  0.00790  Biso   1.000  H
  H595     1.0000 0.51800  0.26859  0.05381  Biso   1.000  H
  C516     1.0000 0.45770  0.31979  0.03681  Biso   1.000  C
  C517     1.0000 0.51191  0.27011  0.97281  Biso   1.000  C
  C518     1.0000 0.46319  0.04230  0.31979  Biso   1.000  C
  H596     1.0000 0.44619  0.98200  0.26859  Biso   1.000  H
  C519     1.0000 0.52719  0.98809  0.27011  Biso   1.000  C
  C520     1.0000 0.22989  0.02719  0.01191  Biso   1.000  C
  H597     1.0000 0.44430  0.31959  0.07410  Biso   1.000  H
  H598     1.0000 0.42630  0.32051  0.01259  Biso   1.000  H
  C521     1.0000 0.49102  0.37120  0.02779  Biso   1.000  C
  N88      1.0000 0.54652  0.22371  0.96379  Biso   1.000  N
  H599     1.0000 0.48200  0.26859  0.94619  Biso   1.000  H
  C522     1.0000 0.54230  0.31979  0.96319  Biso   1.000  C
  H600     1.0000 0.42590  0.05570  0.31959  Biso   1.000  H
  H601     1.0000 0.48741  0.07370  0.32051  Biso   1.000  H
  C523     1.0000 0.47221  0.00898  0.37120  Biso   1.000  C
  H602     1.0000 0.55381  0.01800  0.26859  Biso   1.000  H
  N89      1.0000 0.53621  0.95348  0.22371  Biso   1.000  N
  C524     1.0000 0.53681  0.95770  0.31979  Biso   1.000  C
  C525     1.0000 0.18021  0.03681  0.04230  Biso   1.000  C
  C526     1.0000 0.22989  0.97281  0.98809  Biso   1.000  C
  H603     1.0000 0.23141  0.05381  0.98200  Biso   1.000  H
  H604     1.0000 0.46888  0.40328  0.03501  Biso   1.000  H
  H605     1.0000 0.52230  0.37168  0.05229  Biso   1.000  H
  C527     1.0000 0.50898  0.37120  0.97221  Biso   1.000  C
  C528     1.0000 0.53789  0.19360  0.92429  Biso   1.000  C
  H606     1.0000 0.55570  0.31959  0.92590  Biso   1.000  H
  H607     1.0000 0.57370  0.32051  0.98741  Biso   1.000  H
  H608     1.0000 0.46499  0.03112  0.40328  Biso   1.000  H
  H609     1.0000 0.44771  0.97770  0.37168  Biso   1.000  H
  C529     1.0000 0.52779  0.99102  0.37120  Biso   1.000  C
  C530     1.0000 0.57571  0.96211  0.19360  Biso   1.000  C
  H610     1.0000 0.57410  0.94430  0.31959  Biso   1.000  H
  H611     1.0000 0.51259  0.92630  0.32051  Biso   1.000  H
  H612     1.0000 0.18041  0.07410  0.05570  Biso   1.000  H
  H613     1.0000 0.17949  0.01259  0.07370  Biso   1.000  H
  C531     1.0000 0.12880  0.02779  0.00898  Biso   1.000  C
  N90      1.0000 0.27629  0.96379  0.95348  Biso   1.000  N
  C532     1.0000 0.18021  0.96319  0.95770  Biso   1.000  C
  H614     1.0000 0.23141  0.94619  0.01800  Biso   1.000  H
  H615     1.0000 0.53112  0.40328  0.96499  Biso   1.000  H
  H616     1.0000 0.47770  0.37168  0.94771  Biso   1.000  H
  C533     1.0000 0.57202  0.14688  0.91062  Biso   1.000  C
  H617     1.0000 0.50790  0.20122  0.90212  Biso   1.000  H
  H618     1.0000 0.55229  0.02230  0.37168  Biso   1.000  H
  H619     1.0000 0.53501  0.96888  0.40328  Biso   1.000  H
  C534     1.0000 0.58938  0.92798  0.14688  Biso   1.000  C
  H620     1.0000 0.59788  0.99210  0.20122  Biso   1.000  H
  H621     1.0000 0.09672  0.03501  0.03112  Biso   1.000  H
  C535     1.0000 0.12880  0.97221  0.99102  Biso   1.000  C
  H622     1.0000 0.12832  0.05229  0.97770  Biso   1.000  H
  C536     1.0000 0.30640  0.92429  0.96211  Biso   1.000  C
  H623     1.0000 0.18041  0.92590  0.94430  Biso   1.000  H
  H624     1.0000 0.17949  0.98741  0.92630  Biso   1.000  H
  C537     1.0000 0.61701  0.13542  0.94049  Biso   1.000  C
  C538     1.0000 0.55951  0.11701  0.86458  Biso   1.000  C
  C539     1.0000 0.55951  0.88299  0.13542  Biso   1.000  C
  C540     1.0000 0.63542  0.94049  0.11701  Biso   1.000  C
  H625     1.0000 0.09672  0.96499  0.96888  Biso   1.000  H
  H626     1.0000 0.12832  0.94771  0.02230  Biso   1.000  H
  C541     1.0000 0.35312  0.91062  0.92798  Biso   1.000  C
  H627     1.0000 0.29878  0.90212  0.99210  Biso   1.000  H
  H628     1.0000 0.62752  0.15811  0.96920  Biso   1.000  H
  C542     1.0000 0.64688  0.08938  0.92798  Biso   1.000  C
  H629     1.0000 0.53080  0.12752  0.84189  Biso   1.000  H
  C543     1.0000 0.58938  0.07202  0.85312  Biso   1.000  C
  H630     1.0000 0.53080  0.87248  0.15811  Biso   1.000  H
  C544     1.0000 0.57202  0.85312  0.08938  Biso   1.000  C
  H631     1.0000 0.65811  0.96920  0.12752  Biso   1.000  H
  C545     1.0000 0.64688  0.91062  0.07202  Biso   1.000  C
  C546     1.0000 0.36458  0.94049  0.88299  Biso   1.000  C
  C547     1.0000 0.38299  0.86458  0.94049  Biso   1.000  C
  C548     1.0000 0.63542  0.05951  0.88299  Biso   1.000  C
  C549     1.0000 0.69360  0.07571  0.96211  Biso   1.000  C
  C550     1.0000 0.57571  0.03789  0.80640  Biso   1.000  C
  C551     1.0000 0.61701  0.86458  0.05951  Biso   1.000  C
  C552     1.0000 0.53789  0.80640  0.07571  Biso   1.000  C
  C553     1.0000 0.69360  0.92429  0.03789  Biso   1.000  C
  H632     1.0000 0.34189  0.96920  0.87248  Biso   1.000  H
  C554     1.0000 0.41062  0.92798  0.85312  Biso   1.000  C
  H633     1.0000 0.37248  0.84189  0.96920  Biso   1.000  H
  C555     1.0000 0.42798  0.85312  0.91062  Biso   1.000  C
  H634     1.0000 0.65811  0.03080  0.87248  Biso   1.000  H
  N91      1.0000 0.72371  0.03621  0.95348  Biso   1.000  N
  H635     1.0000 0.70122  0.09788  0.99210  Biso   1.000  H
  N92      1.0000 0.53621  0.04652  0.77629  Biso   1.000  N
  H636     1.0000 0.59788  0.00790  0.79878  Biso   1.000  H
  H637     1.0000 0.62752  0.84189  0.03080  Biso   1.000  H
  N93      1.0000 0.54652  0.77629  0.03621  Biso   1.000  N
  H638     1.0000 0.50790  0.79878  0.09788  Biso   1.000  H
  N94      1.0000 0.72371  0.96379  0.04652  Biso   1.000  N
  H639     1.0000 0.70122  0.90212  0.00790  Biso   1.000  H
  C556     1.0000 0.44049  0.88299  0.86458  Biso   1.000  C
  C557     1.0000 0.42429  0.96211  0.80640  Biso   1.000  C
  C558     1.0000 0.46211  0.80640  0.92429  Biso   1.000  C
  C559     1.0000 0.77011  0.02719  0.98809  Biso   1.000  C
  C560     1.0000 0.52719  0.01191  0.72989  Biso   1.000  C
  C561     1.0000 0.51191  0.72989  0.02719  Biso   1.000  C
  C562     1.0000 0.77011  0.97281  0.01191  Biso   1.000  C
  H640     1.0000 0.46920  0.87248  0.84189  Biso   1.000  H
  N95      1.0000 0.46379  0.95348  0.77629  Biso   1.000  N
  H641     1.0000 0.40212  0.99210  0.79878  Biso   1.000  H
  N96      1.0000 0.45348  0.77629  0.96379  Biso   1.000  N
  H642     1.0000 0.49210  0.79878  0.90212  Biso   1.000  H
  H643     1.0000 0.76859  0.05381  0.01800  Biso   1.000  H
  C563     1.0000 0.81979  0.03681  0.95770  Biso   1.000  C
  H644     1.0000 0.55381  0.98200  0.73141  Biso   1.000  H
  C564     1.0000 0.47281  0.98809  0.72989  Biso   1.000  C
  C565     1.0000 0.53681  0.04230  0.68021  Biso   1.000  C
  C566     1.0000 0.48809  0.72989  0.97281  Biso   1.000  C
  H645     1.0000 0.48200  0.73141  0.05381  Biso   1.000  H
  C567     1.0000 0.54230  0.68021  0.03681  Biso   1.000  C
  H646     1.0000 0.76859  0.94619  0.98200  Biso   1.000  H
  C568     1.0000 0.81979  0.96319  0.04230  Biso   1.000  C
  H647     1.0000 0.81959  0.07410  0.94430  Biso   1.000  H
  H648     1.0000 0.82051  0.01259  0.92630  Biso   1.000  H
  C569     1.0000 0.87120  0.02779  0.99102  Biso   1.000  C
  C570     1.0000 0.46319  0.95770  0.68021  Biso   1.000  C
  H649     1.0000 0.44619  0.01800  0.73141  Biso   1.000  H
  H650     1.0000 0.57410  0.05570  0.68041  Biso   1.000  H
  H651     1.0000 0.51259  0.07370  0.67949  Biso   1.000  H
  C571     1.0000 0.52779  0.00898  0.62880  Biso   1.000  C
  H652     1.0000 0.51800  0.73141  0.94619  Biso   1.000  H
  C572     1.0000 0.45770  0.68021  0.96319  Biso   1.000  C
  H653     1.0000 0.55570  0.68041  0.07410  Biso   1.000  H
  H654     1.0000 0.57370  0.67949  0.01259  Biso   1.000  H
  C573     1.0000 0.50898  0.62880  0.02779  Biso   1.000  C
  H655     1.0000 0.81959  0.92590  0.05570  Biso   1.000  H
  H656     1.0000 0.82051  0.98741  0.07370  Biso   1.000  H
  C574     1.0000 0.87120  0.97221  0.00898  Biso   1.000  C
  H657     1.0000 0.87168  0.05229  0.02230  Biso   1.000  H
  H658     1.0000 0.90328  0.03501  0.96888  Biso   1.000  H
  H659     1.0000 0.42590  0.94430  0.68041  Biso   1.000  H
  H660     1.0000 0.48741  0.92630  0.67949  Biso   1.000  H
  C575     1.0000 0.47221  0.99102  0.62880  Biso   1.000  C
  H661     1.0000 0.55229  0.97770  0.62832  Biso   1.000  H
  H662     1.0000 0.53501  0.03112  0.59672  Biso   1.000  H
  H663     1.0000 0.44430  0.68041  0.92590  Biso   1.000  H
  H664     1.0000 0.42630  0.67949  0.98741  Biso   1.000  H
  C576     1.0000 0.49102  0.62880  0.97221  Biso   1.000  C
  H665     1.0000 0.53112  0.59672  0.03501  Biso   1.000  H
  H666     1.0000 0.47770  0.62832  0.05229  Biso   1.000  H
  H667     1.0000 0.87168  0.94771  0.97770  Biso   1.000  H
  H668     1.0000 0.90328  0.96499  0.03112  Biso   1.000  H
  H669     1.0000 0.46499  0.96888  0.59672  Biso   1.000  H
  H670     1.0000 0.44771  0.02230  0.62832  Biso   1.000  H
  H671     1.0000 0.46888  0.59672  0.96499  Biso   1.000  H
  H672     1.0000 0.52230  0.62832  0.94771  Biso   1.000  H
  C577     1.0000 0.13542  0.44049  0.11701  Biso   1.000  C
  C578     1.0000 0.08938  0.42798  0.14688  Biso   1.000  C
  H673     1.0000 0.15811  0.46920  0.12752  Biso   1.000  H
  C579     1.0000 0.14688  0.41062  0.07202  Biso   1.000  C
  C580     1.0000 0.05951  0.38299  0.13542  Biso   1.000  C
  C581     1.0000 0.07571  0.46211  0.19360  Biso   1.000  C
  C582     1.0000 0.19360  0.42429  0.03789  Biso   1.000  C
  C583     1.0000 0.11701  0.36458  0.05951  Biso   1.000  C
  H674     1.0000 0.03080  0.37248  0.15811  Biso   1.000  H
  C584     1.0000 0.07202  0.35312  0.08938  Biso   1.000  C
  N97      1.0000 0.03621  0.45348  0.22371  Biso   1.000  N
  H675     1.0000 0.09788  0.49210  0.20122  Biso   1.000  H
  N98      1.0000 0.22371  0.46379  0.04652  Biso   1.000  N
  H676     1.0000 0.20122  0.40212  0.00790  Biso   1.000  H
  H677     1.0000 0.12752  0.34189  0.03080  Biso   1.000  H
  C585     1.0000 0.03789  0.30640  0.07571  Biso   1.000  C
  C586     1.0000 0.02719  0.48809  0.27011  Biso   1.000  C
  C587     1.0000 0.27011  0.47281  0.01191  Biso   1.000  C
  N99      1.0000 0.04652  0.27629  0.03621  Biso   1.000  N
  H678     1.0000 0.00790  0.29878  0.09788  Biso   1.000  H
  H679     1.0000 0.05381  0.51800  0.26859  Biso   1.000  H
  C588     1.0000 0.03681  0.45770  0.31979  Biso   1.000  C
  C589     1.0000 0.97281  0.51191  0.27011  Biso   1.000  C
  C590     1.0000 0.31979  0.46319  0.04230  Biso   1.000  C
  C591     1.0000 0.27011  0.52719  0.98809  Biso   1.000  C
  H680     1.0000 0.26859  0.44619  0.98200  Biso   1.000  H
  C592     1.0000 0.01191  0.22989  0.02719  Biso   1.000  C
  H681     1.0000 0.07410  0.44430  0.31959  Biso   1.000  H
  H682     1.0000 0.01259  0.42630  0.32051  Biso   1.000  H
  C593     1.0000 0.02779  0.49102  0.37120  Biso   1.000  C
  N100     1.0000 0.96379  0.54652  0.22371  Biso   1.000  N
  H683     1.0000 0.94619  0.48200  0.26859  Biso   1.000  H
  C594     1.0000 0.96319  0.54230  0.31979  Biso   1.000  C
  H684     1.0000 0.31959  0.42590  0.05570  Biso   1.000  H
  H685     1.0000 0.32051  0.48741  0.07370  Biso   1.000  H
  C595     1.0000 0.37120  0.47221  0.00898  Biso   1.000  C
  H686     1.0000 0.26859  0.55381  0.01800  Biso   1.000  H
  N101     1.0000 0.22371  0.53621  0.95348  Biso   1.000  N
  C596     1.0000 0.31979  0.53681  0.95770  Biso   1.000  C
  C597     1.0000 0.04230  0.18021  0.03681  Biso   1.000  C
  C598     1.0000 0.98809  0.22989  0.97281  Biso   1.000  C
  H687     1.0000 0.98200  0.23141  0.05381  Biso   1.000  H
  H688     1.0000 0.03501  0.46888  0.40328  Biso   1.000  H
  H689     1.0000 0.05229  0.52230  0.37168  Biso   1.000  H
  C599     1.0000 0.97221  0.50898  0.37120  Biso   1.000  C
  C600     1.0000 0.92429  0.53789  0.19360  Biso   1.000  C
  H690     1.0000 0.92590  0.55570  0.31959  Biso   1.000  H
  H691     1.0000 0.98741  0.57370  0.32051  Biso   1.000  H
  H692     1.0000 0.40328  0.46499  0.03112  Biso   1.000  H
  C601     1.0000 0.37120  0.52779  0.99102  Biso   1.000  C
  H693     1.0000 0.37168  0.44771  0.97770  Biso   1.000  H
  C602     1.0000 0.19360  0.57571  0.96211  Biso   1.000  C
  H694     1.0000 0.31959  0.57410  0.94430  Biso   1.000  H
  H695     1.0000 0.32051  0.51259  0.92630  Biso   1.000  H
  H696     1.0000 0.05570  0.18041  0.07410  Biso   1.000  H
  H697     1.0000 0.07370  0.17949  0.01259  Biso   1.000  H
  C603     1.0000 0.00898  0.12880  0.02779  Biso   1.000  C
  N102     1.0000 0.95348  0.27629  0.96379  Biso   1.000  N
  C604     1.0000 0.95770  0.18021  0.96319  Biso   1.000  C
  H698     1.0000 0.01800  0.23141  0.94619  Biso   1.000  H
  H699     1.0000 0.96499  0.53112  0.40328  Biso   1.000  H
  H700     1.0000 0.94771  0.47770  0.37168  Biso   1.000  H
  C605     1.0000 0.91062  0.57202  0.14688  Biso   1.000  C
  H701     1.0000 0.90212  0.50790  0.20122  Biso   1.000  H
  H702     1.0000 0.37168  0.55229  0.02230  Biso   1.000  H
  H703     1.0000 0.40328  0.53501  0.96888  Biso   1.000  H
  C606     1.0000 0.14688  0.58938  0.92798  Biso   1.000  C
  H704     1.0000 0.20122  0.59788  0.99210  Biso   1.000  H
  H705     1.0000 0.03112  0.09672  0.03501  Biso   1.000  H
  C607     1.0000 0.99102  0.12880  0.97221  Biso   1.000  C
  H706     1.0000 0.97770  0.12832  0.05229  Biso   1.000  H
  C608     1.0000 0.96211  0.30640  0.92429  Biso   1.000  C
  H707     1.0000 0.94430  0.18041  0.92590  Biso   1.000  H
  H708     1.0000 0.92630  0.17949  0.98741  Biso   1.000  H
  C609     1.0000 0.86458  0.55951  0.11701  Biso   1.000  C
  C610     1.0000 0.94049  0.61701  0.13542  Biso   1.000  C
  C611     1.0000 0.11701  0.63542  0.94049  Biso   1.000  C
  C612     1.0000 0.13542  0.55951  0.88299  Biso   1.000  C
  H709     1.0000 0.96888  0.09672  0.96499  Biso   1.000  H
  H710     1.0000 0.02230  0.12832  0.94771  Biso   1.000  H
  C613     1.0000 0.92798  0.35312  0.91062  Biso   1.000  C
  H711     1.0000 0.99210  0.29878  0.90212  Biso   1.000  H
  H712     1.0000 0.84189  0.53080  0.12752  Biso   1.000  H
  C614     1.0000 0.85312  0.58938  0.07202  Biso   1.000  C
  C615     1.0000 0.92798  0.64688  0.08938  Biso   1.000  C
  H713     1.0000 0.96920  0.62752  0.15811  Biso   1.000  H
  H714     1.0000 0.12752  0.65811  0.96920  Biso   1.000  H
  C616     1.0000 0.07202  0.64688  0.91062  Biso   1.000  C
  H715     1.0000 0.15811  0.53080  0.87248  Biso   1.000  H
  C617     1.0000 0.08938  0.57202  0.85312  Biso   1.000  C
  C618     1.0000 0.94049  0.38299  0.86458  Biso   1.000  C
  C619     1.0000 0.88299  0.36458  0.94049  Biso   1.000  C
  C620     1.0000 0.88299  0.63542  0.05951  Biso   1.000  C
  C621     1.0000 0.80640  0.57571  0.03789  Biso   1.000  C
  C622     1.0000 0.96211  0.69360  0.07571  Biso   1.000  C
  C623     1.0000 0.03789  0.69360  0.92429  Biso   1.000  C
  C624     1.0000 0.05951  0.61701  0.86458  Biso   1.000  C
  C625     1.0000 0.07571  0.53789  0.80640  Biso   1.000  C
  H716     1.0000 0.96920  0.37248  0.84189  Biso   1.000  H
  C626     1.0000 0.91062  0.42798  0.85312  Biso   1.000  C
  C627     1.0000 0.85312  0.41062  0.92798  Biso   1.000  C
  H717     1.0000 0.87248  0.34189  0.96920  Biso   1.000  H
  H718     1.0000 0.87248  0.65811  0.03080  Biso   1.000  H
  N103     1.0000 0.77629  0.53621  0.04652  Biso   1.000  N
  H719     1.0000 0.79878  0.59788  0.00790  Biso   1.000  H
  N104     1.0000 0.95348  0.72371  0.03621  Biso   1.000  N
  H720     1.0000 0.99210  0.70122  0.09788  Biso   1.000  H
  N105     1.0000 0.04652  0.72371  0.96379  Biso   1.000  N
  H721     1.0000 0.00790  0.70122  0.90212  Biso   1.000  H
  H722     1.0000 0.03080  0.62752  0.84189  Biso   1.000  H
  N106     1.0000 0.03621  0.54652  0.77629  Biso   1.000  N
  H723     1.0000 0.09788  0.50790  0.79878  Biso   1.000  H
  C628     1.0000 0.86458  0.44049  0.88299  Biso   1.000  C
  C629     1.0000 0.92429  0.46211  0.80640  Biso   1.000  C
  C630     1.0000 0.80640  0.42429  0.96211  Biso   1.000  C
  C631     1.0000 0.72989  0.52719  0.01191  Biso   1.000  C
  C632     1.0000 0.98809  0.77011  0.02719  Biso   1.000  C
  C633     1.0000 0.01191  0.77011  0.97281  Biso   1.000  C
  C634     1.0000 0.02719  0.51191  0.72989  Biso   1.000  C
  H724     1.0000 0.84189  0.46920  0.87248  Biso   1.000  H
  N107     1.0000 0.96379  0.45348  0.77629  Biso   1.000  N
  H725     1.0000 0.90212  0.49210  0.79878  Biso   1.000  H
  N108     1.0000 0.77629  0.46379  0.95348  Biso   1.000  N
  H726     1.0000 0.79878  0.40212  0.99210  Biso   1.000  H
  H727     1.0000 0.73141  0.55381  0.98200  Biso   1.000  H
  C635     1.0000 0.72989  0.47281  0.98809  Biso   1.000  C
  C636     1.0000 0.68021  0.53681  0.04230  Biso   1.000  C
  H728     1.0000 0.01800  0.76859  0.05381  Biso   1.000  H
  C637     1.0000 0.95770  0.81979  0.03681  Biso   1.000  C
  H729     1.0000 0.98200  0.76859  0.94619  Biso   1.000  H
  C638     1.0000 0.04230  0.81979  0.96319  Biso   1.000  C
  C639     1.0000 0.97281  0.48809  0.72989  Biso   1.000  C
  H730     1.0000 0.05381  0.48200  0.73141  Biso   1.000  H
  C640     1.0000 0.03681  0.54230  0.68021  Biso   1.000  C
  C641     1.0000 0.68021  0.46319  0.95770  Biso   1.000  C
  H731     1.0000 0.73141  0.44619  0.01800  Biso   1.000  H
  H732     1.0000 0.68041  0.57410  0.05570  Biso   1.000  H
  H733     1.0000 0.67949  0.51259  0.07370  Biso   1.000  H
  C642     1.0000 0.62880  0.52779  0.00898  Biso   1.000  C
  H734     1.0000 0.94430  0.81959  0.07410  Biso   1.000  H
  H735     1.0000 0.92630  0.82051  0.01259  Biso   1.000  H
  C643     1.0000 0.99102  0.87120  0.02779  Biso   1.000  C
  H736     1.0000 0.05570  0.81959  0.92590  Biso   1.000  H
  H737     1.0000 0.07370  0.82051  0.98741  Biso   1.000  H
  C644     1.0000 0.00898  0.87120  0.97221  Biso   1.000  C
  H738     1.0000 0.94619  0.51800  0.73141  Biso   1.000  H
  C645     1.0000 0.96319  0.45770  0.68021  Biso   1.000  C
  H739     1.0000 0.07410  0.55570  0.68041  Biso   1.000  H
  H740     1.0000 0.01259  0.57370  0.67949  Biso   1.000  H
  C646     1.0000 0.02779  0.50898  0.62880  Biso   1.000  C
  H741     1.0000 0.68041  0.42590  0.94430  Biso   1.000  H
  H742     1.0000 0.67949  0.48741  0.92630  Biso   1.000  H
  C647     1.0000 0.62880  0.47221  0.99102  Biso   1.000  C
  H743     1.0000 0.62832  0.55229  0.97770  Biso   1.000  H
  H744     1.0000 0.59672  0.53501  0.03112  Biso   1.000  H
  H745     1.0000 0.02230  0.87168  0.05229  Biso   1.000  H
  H746     1.0000 0.96888  0.90328  0.03501  Biso   1.000  H
  H747     1.0000 0.97770  0.87168  0.94771  Biso   1.000  H
  H748     1.0000 0.03112  0.90328  0.96499  Biso   1.000  H
  H749     1.0000 0.92590  0.44430  0.68041  Biso   1.000  H
  H750     1.0000 0.98741  0.42630  0.67949  Biso   1.000  H
  C648     1.0000 0.97221  0.49102  0.62880  Biso   1.000  C
  H751     1.0000 0.03501  0.53112  0.59672  Biso   1.000  H
  H752     1.0000 0.05229  0.47770  0.62832  Biso   1.000  H
  H753     1.0000 0.59672  0.46499  0.96888  Biso   1.000  H
  H754     1.0000 0.62832  0.44771  0.02230  Biso   1.000  H
  H755     1.0000 0.96499  0.46888  0.59672  Biso   1.000  H
  H756     1.0000 0.94771  0.52230  0.62832  Biso   1.000  H
  C649     1.0000 0.13542  0.44049  0.11701  Biso   1.000  C
  C650     1.0000 0.08938  0.42798  0.14688  Biso   1.000  C
  H757     1.0000 0.15811  0.46920  0.12752  Biso   1.000  H
  C651     1.0000 0.14688  0.41062  0.07202  Biso   1.000  C
  C652     1.0000 0.05951  0.38299  0.13542  Biso   1.000  C
  C653     1.0000 0.07571  0.46211  0.19360  Biso   1.000  C
  C654     1.0000 0.19360  0.42429  0.03789  Biso   1.000  C
  C655     1.0000 0.11701  0.36458  0.05951  Biso   1.000  C
  H758     1.0000 0.03080  0.37248  0.15811  Biso   1.000  H
  C656     1.0000 0.07202  0.35312  0.08938  Biso   1.000  C
  N109     1.0000 0.03621  0.45348  0.22371  Biso   1.000  N
  H759     1.0000 0.09788  0.49210  0.20122  Biso   1.000  H
  N110     1.0000 0.22371  0.46379  0.04652  Biso   1.000  N
  H760     1.0000 0.20122  0.40212  0.00790  Biso   1.000  H
  H761     1.0000 0.12752  0.34189  0.03080  Biso   1.000  H
  C657     1.0000 0.03789  0.30640  0.07571  Biso   1.000  C
  C658     1.0000 0.02719  0.48809  0.27011  Biso   1.000  C
  C659     1.0000 0.27011  0.47281  0.01191  Biso   1.000  C
  N111     1.0000 0.04652  0.27629  0.03621  Biso   1.000  N
  H762     1.0000 0.00790  0.29878  0.09788  Biso   1.000  H
  H763     1.0000 0.05381  0.51800  0.26859  Biso   1.000  H
  C660     1.0000 0.03681  0.45770  0.31979  Biso   1.000  C
  C661     1.0000 0.97281  0.51191  0.27011  Biso   1.000  C
  C662     1.0000 0.31979  0.46319  0.04230  Biso   1.000  C
  C663     1.0000 0.27011  0.52719  0.98809  Biso   1.000  C
  H764     1.0000 0.26859  0.44619  0.98200  Biso   1.000  H
  C664     1.0000 0.01191  0.22989  0.02719  Biso   1.000  C
  H765     1.0000 0.07410  0.44430  0.31959  Biso   1.000  H
  H766     1.0000 0.01259  0.42630  0.32051  Biso   1.000  H
  C665     1.0000 0.02779  0.49102  0.37120  Biso   1.000  C
  N112     1.0000 0.96379  0.54652  0.22371  Biso   1.000  N
  H767     1.0000 0.94619  0.48200  0.26859  Biso   1.000  H
  C666     1.0000 0.96319  0.54230  0.31979  Biso   1.000  C
  H768     1.0000 0.31959  0.42590  0.05570  Biso   1.000  H
  H769     1.0000 0.32051  0.48741  0.07370  Biso   1.000  H
  C667     1.0000 0.37120  0.47221  0.00898  Biso   1.000  C
  H770     1.0000 0.26859  0.55381  0.01800  Biso   1.000  H
  N113     1.0000 0.22371  0.53621  0.95348  Biso   1.000  N
  C668     1.0000 0.31979  0.53681  0.95770  Biso   1.000  C
  C669     1.0000 0.04230  0.18021  0.03681  Biso   1.000  C
  C670     1.0000 0.98809  0.22989  0.97281  Biso   1.000  C
  H771     1.0000 0.98200  0.23141  0.05381  Biso   1.000  H
  H772     1.0000 0.03501  0.46888  0.40328  Biso   1.000  H
  H773     1.0000 0.05229  0.52230  0.37168  Biso   1.000  H
  C671     1.0000 0.97221  0.50898  0.37120  Biso   1.000  C
  C672     1.0000 0.92429  0.53789  0.19360  Biso   1.000  C
  H774     1.0000 0.92590  0.55570  0.31959  Biso   1.000  H
  H775     1.0000 0.98741  0.57370  0.32051  Biso   1.000  H
  H776     1.0000 0.40328  0.46499  0.03112  Biso   1.000  H
  C673     1.0000 0.37120  0.52779  0.99102  Biso   1.000  C
  H777     1.0000 0.37168  0.44771  0.97770  Biso   1.000  H
  C674     1.0000 0.19360  0.57571  0.96211  Biso   1.000  C
  H778     1.0000 0.31959  0.57410  0.94430  Biso   1.000  H
  H779     1.0000 0.32051  0.51259  0.92630  Biso   1.000  H
  H780     1.0000 0.05570  0.18041  0.07410  Biso   1.000  H
  H781     1.0000 0.07370  0.17949  0.01259  Biso   1.000  H
  C675     1.0000 0.00898  0.12880  0.02779  Biso   1.000  C
  N114     1.0000 0.95348  0.27629  0.96379  Biso   1.000  N
  C676     1.0000 0.95770  0.18021  0.96319  Biso   1.000  C
  H782     1.0000 0.01800  0.23141  0.94619  Biso   1.000  H
  H783     1.0000 0.96499  0.53112  0.40328  Biso   1.000  H
  H784     1.0000 0.94771  0.47770  0.37168  Biso   1.000  H
  C677     1.0000 0.91062  0.57202  0.14688  Biso   1.000  C
  H785     1.0000 0.90212  0.50790  0.20122  Biso   1.000  H
  H786     1.0000 0.37168  0.55229  0.02230  Biso   1.000  H
  H787     1.0000 0.40328  0.53501  0.96888  Biso   1.000  H
  C678     1.0000 0.14688  0.58938  0.92798  Biso   1.000  C
  H788     1.0000 0.20122  0.59788  0.99210  Biso   1.000  H
  H789     1.0000 0.03112  0.09672  0.03501  Biso   1.000  H
  C679     1.0000 0.99102  0.12880  0.97221  Biso   1.000  C
  H790     1.0000 0.97770  0.12832  0.05229  Biso   1.000  H
  C680     1.0000 0.96211  0.30640  0.92429  Biso   1.000  C
  H791     1.0000 0.94430  0.18041  0.92590  Biso   1.000  H
  H792     1.0000 0.92630  0.17949  0.98741  Biso   1.000  H
  C681     1.0000 0.86458  0.55951  0.11701  Biso   1.000  C
  C682     1.0000 0.94049  0.61701  0.13542  Biso   1.000  C
  C683     1.0000 0.11701  0.63542  0.94049  Biso   1.000  C
  C684     1.0000 0.13542  0.55951  0.88299  Biso   1.000  C
  H793     1.0000 0.96888  0.09672  0.96499  Biso   1.000  H
  H794     1.0000 0.02230  0.12832  0.94771  Biso   1.000  H
  C685     1.0000 0.92798  0.35312  0.91062  Biso   1.000  C
  H795     1.0000 0.99210  0.29878  0.90212  Biso   1.000  H
  H796     1.0000 0.84189  0.53080  0.12752  Biso   1.000  H
  C686     1.0000 0.85312  0.58938  0.07202  Biso   1.000  C
  C687     1.0000 0.92798  0.64688  0.08938  Biso   1.000  C
  H797     1.0000 0.96920  0.62752  0.15811  Biso   1.000  H
  H798     1.0000 0.12752  0.65811  0.96920  Biso   1.000  H
  C688     1.0000 0.07202  0.64688  0.91062  Biso   1.000  C
  H799     1.0000 0.15811  0.53080  0.87248  Biso   1.000  H
  C689     1.0000 0.08938  0.57202  0.85312  Biso   1.000  C
  C690     1.0000 0.94049  0.38299  0.86458  Biso   1.000  C
  C691     1.0000 0.88299  0.36458  0.94049  Biso   1.000  C
  C692     1.0000 0.88299  0.63542  0.05951  Biso   1.000  C
  C693     1.0000 0.80640  0.57571  0.03789  Biso   1.000  C
  C694     1.0000 0.96211  0.69360  0.07571  Biso   1.000  C
  C695     1.0000 0.03789  0.69360  0.92429  Biso   1.000  C
  C696     1.0000 0.05951  0.61701  0.86458  Biso   1.000  C
  C697     1.0000 0.07571  0.53789  0.80640  Biso   1.000  C
  H800     1.0000 0.96920  0.37248  0.84189  Biso   1.000  H
  C698     1.0000 0.91062  0.42798  0.85312  Biso   1.000  C
  C699     1.0000 0.85312  0.41062  0.92798  Biso   1.000  C
  H801     1.0000 0.87248  0.34189  0.96920  Biso   1.000  H
  H802     1.0000 0.87248  0.65811  0.03080  Biso   1.000  H
  N115     1.0000 0.77629  0.53621  0.04652  Biso   1.000  N
  H803     1.0000 0.79878  0.59788  0.00790  Biso   1.000  H
  N116     1.0000 0.95348  0.72371  0.03621  Biso   1.000  N
  H804     1.0000 0.99210  0.70122  0.09788  Biso   1.000  H
  N117     1.0000 0.04652  0.72371  0.96379  Biso   1.000  N
  H805     1.0000 0.00790  0.70122  0.90212  Biso   1.000  H
  H806     1.0000 0.03080  0.62752  0.84189  Biso   1.000  H
  N118     1.0000 0.03621  0.54652  0.77629  Biso   1.000  N
  H807     1.0000 0.09788  0.50790  0.79878  Biso   1.000  H
  C700     1.0000 0.86458  0.44049  0.88299  Biso   1.000  C
  C701     1.0000 0.92429  0.46211  0.80640  Biso   1.000  C
  C702     1.0000 0.80640  0.42429  0.96211  Biso   1.000  C
  C703     1.0000 0.72989  0.52719  0.01191  Biso   1.000  C
  C704     1.0000 0.98809  0.77011  0.02719  Biso   1.000  C
  C705     1.0000 0.01191  0.77011  0.97281  Biso   1.000  C
  C706     1.0000 0.02719  0.51191  0.72989  Biso   1.000  C
  H808     1.0000 0.84189  0.46920  0.87248  Biso   1.000  H
  N119     1.0000 0.96379  0.45348  0.77629  Biso   1.000  N
  H809     1.0000 0.90212  0.49210  0.79878  Biso   1.000  H
  N120     1.0000 0.77629  0.46379  0.95348  Biso   1.000  N
  H810     1.0000 0.79878  0.40212  0.99210  Biso   1.000  H
  H811     1.0000 0.73141  0.55381  0.98200  Biso   1.000  H
  C707     1.0000 0.72989  0.47281  0.98809  Biso   1.000  C
  C708     1.0000 0.68021  0.53681  0.04230  Biso   1.000  C
  H812     1.0000 0.01800  0.76859  0.05381  Biso   1.000  H
  C709     1.0000 0.95770  0.81979  0.03681  Biso   1.000  C
  H813     1.0000 0.98200  0.76859  0.94619  Biso   1.000  H
  C710     1.0000 0.04230  0.81979  0.96319  Biso   1.000  C
  C711     1.0000 0.97281  0.48809  0.72989  Biso   1.000  C
  H814     1.0000 0.05381  0.48200  0.73141  Biso   1.000  H
  C712     1.0000 0.03681  0.54230  0.68021  Biso   1.000  C
  C713     1.0000 0.68021  0.46319  0.95770  Biso   1.000  C
  H815     1.0000 0.73141  0.44619  0.01800  Biso   1.000  H
  H816     1.0000 0.68041  0.57410  0.05570  Biso   1.000  H
  H817     1.0000 0.67949  0.51259  0.07370  Biso   1.000  H
  C714     1.0000 0.62880  0.52779  0.00898  Biso   1.000  C
  H818     1.0000 0.94430  0.81959  0.07410  Biso   1.000  H
  H819     1.0000 0.92630  0.82051  0.01259  Biso   1.000  H
  C715     1.0000 0.99102  0.87120  0.02779  Biso   1.000  C
  H820     1.0000 0.05570  0.81959  0.92590  Biso   1.000  H
  H821     1.0000 0.07370  0.82051  0.98741  Biso   1.000  H
  C716     1.0000 0.00898  0.87120  0.97221  Biso   1.000  C
  H822     1.0000 0.94619  0.51800  0.73141  Biso   1.000  H
  C717     1.0000 0.96319  0.45770  0.68021  Biso   1.000  C
  H823     1.0000 0.07410  0.55570  0.68041  Biso   1.000  H
  H824     1.0000 0.01259  0.57370  0.67949  Biso   1.000  H
  C718     1.0000 0.02779  0.50898  0.62880  Biso   1.000  C
  H825     1.0000 0.68041  0.42590  0.94430  Biso   1.000  H
  H826     1.0000 0.67949  0.48741  0.92630  Biso   1.000  H
  C719     1.0000 0.62880  0.47221  0.99102  Biso   1.000  C
  H827     1.0000 0.62832  0.55229  0.97770  Biso   1.000  H
  H828     1.0000 0.59672  0.53501  0.03112  Biso   1.000  H
  H829     1.0000 0.02230  0.87168  0.05229  Biso   1.000  H
  H830     1.0000 0.96888  0.90328  0.03501  Biso   1.000  H
  H831     1.0000 0.97770  0.87168  0.94771  Biso   1.000  H
  H832     1.0000 0.03112  0.90328  0.96499  Biso   1.000  H
  H833     1.0000 0.92590  0.44430  0.68041  Biso   1.000  H
  H834     1.0000 0.98741  0.42630  0.67949  Biso   1.000  H
  C720     1.0000 0.97221  0.49102  0.62880  Biso   1.000  C
  H835     1.0000 0.03501  0.53112  0.59672  Biso   1.000  H
  H836     1.0000 0.05229  0.47770  0.62832  Biso   1.000  H
  H837     1.0000 0.59672  0.46499  0.96888  Biso   1.000  H
  H838     1.0000 0.62832  0.44771  0.02230  Biso   1.000  H
  H839     1.0000 0.96499  0.46888  0.59672  Biso   1.000  H
  H840     1.0000 0.94771  0.52230  0.62832  Biso   1.000  H
  C721     1.0000 0.13542  0.44049  0.11701  Biso   1.000  C
  C722     1.0000 0.08938  0.42798  0.14688  Biso   1.000  C
  H841     1.0000 0.15811  0.46920  0.12752  Biso   1.000  H
  C723     1.0000 0.14688  0.41062  0.07202  Biso   1.000  C
  C724     1.0000 0.05951  0.38299  0.13542  Biso   1.000  C
  C725     1.0000 0.07571  0.46211  0.19360  Biso   1.000  C
  C726     1.0000 0.19360  0.42429  0.03789  Biso   1.000  C
  C727     1.0000 0.11701  0.36458  0.05951  Biso   1.000  C
  H842     1.0000 0.03080  0.37248  0.15811  Biso   1.000  H
  C728     1.0000 0.07202  0.35312  0.08938  Biso   1.000  C
  N121     1.0000 0.03621  0.45348  0.22371  Biso   1.000  N
  H843     1.0000 0.09788  0.49210  0.20122  Biso   1.000  H
  N122     1.0000 0.22371  0.46379  0.04652  Biso   1.000  N
  H844     1.0000 0.20122  0.40212  0.00790  Biso   1.000  H
  H845     1.0000 0.12752  0.34189  0.03080  Biso   1.000  H
  C729     1.0000 0.03789  0.30640  0.07571  Biso   1.000  C
  C730     1.0000 0.02719  0.48809  0.27011  Biso   1.000  C
  C731     1.0000 0.27011  0.47281  0.01191  Biso   1.000  C
  N123     1.0000 0.04652  0.27629  0.03621  Biso   1.000  N
  H846     1.0000 0.00790  0.29878  0.09788  Biso   1.000  H
  H847     1.0000 0.05381  0.51800  0.26859  Biso   1.000  H
  C732     1.0000 0.03681  0.45770  0.31979  Biso   1.000  C
  C733     1.0000 0.97281  0.51191  0.27011  Biso   1.000  C
  C734     1.0000 0.31979  0.46319  0.04230  Biso   1.000  C
  C735     1.0000 0.27011  0.52719  0.98809  Biso   1.000  C
  H848     1.0000 0.26859  0.44619  0.98200  Biso   1.000  H
  C736     1.0000 0.01191  0.22989  0.02719  Biso   1.000  C
  H849     1.0000 0.07410  0.44430  0.31959  Biso   1.000  H
  H850     1.0000 0.01259  0.42630  0.32051  Biso   1.000  H
  C737     1.0000 0.02779  0.49102  0.37120  Biso   1.000  C
  N124     1.0000 0.96379  0.54652  0.22371  Biso   1.000  N
  H851     1.0000 0.94619  0.48200  0.26859  Biso   1.000  H
  C738     1.0000 0.96319  0.54230  0.31979  Biso   1.000  C
  H852     1.0000 0.31959  0.42590  0.05570  Biso   1.000  H
  H853     1.0000 0.32051  0.48741  0.07370  Biso   1.000  H
  C739     1.0000 0.37120  0.47221  0.00898  Biso   1.000  C
  H854     1.0000 0.26859  0.55381  0.01800  Biso   1.000  H
  N125     1.0000 0.22371  0.53621  0.95348  Biso   1.000  N
  C740     1.0000 0.31979  0.53681  0.95770  Biso   1.000  C
  C741     1.0000 0.04230  0.18021  0.03681  Biso   1.000  C
  C742     1.0000 0.98809  0.22989  0.97281  Biso   1.000  C
  H855     1.0000 0.98200  0.23141  0.05381  Biso   1.000  H
  H856     1.0000 0.03501  0.46888  0.40328  Biso   1.000  H
  H857     1.0000 0.05229  0.52230  0.37168  Biso   1.000  H
  C743     1.0000 0.97221  0.50898  0.37120  Biso   1.000  C
  C744     1.0000 0.92429  0.53789  0.19360  Biso   1.000  C
  H858     1.0000 0.92590  0.55570  0.31959  Biso   1.000  H
  H859     1.0000 0.98741  0.57370  0.32051  Biso   1.000  H
  H860     1.0000 0.40328  0.46499  0.03112  Biso   1.000  H
  C745     1.0000 0.37120  0.52779  0.99102  Biso   1.000  C
  H861     1.0000 0.37168  0.44771  0.97770  Biso   1.000  H
  C746     1.0000 0.19360  0.57571  0.96211  Biso   1.000  C
  H862     1.0000 0.31959  0.57410  0.94430  Biso   1.000  H
  H863     1.0000 0.32051  0.51259  0.92630  Biso   1.000  H
  H864     1.0000 0.05570  0.18041  0.07410  Biso   1.000  H
  H865     1.0000 0.07370  0.17949  0.01259  Biso   1.000  H
  C747     1.0000 0.00898  0.12880  0.02779  Biso   1.000  C
  N126     1.0000 0.95348  0.27629  0.96379  Biso   1.000  N
  C748     1.0000 0.95770  0.18021  0.96319  Biso   1.000  C
  H866     1.0000 0.01800  0.23141  0.94619  Biso   1.000  H
  H867     1.0000 0.96499  0.53112  0.40328  Biso   1.000  H
  H868     1.0000 0.94771  0.47770  0.37168  Biso   1.000  H
  C749     1.0000 0.91062  0.57202  0.14688  Biso   1.000  C
  H869     1.0000 0.90212  0.50790  0.20122  Biso   1.000  H
  H870     1.0000 0.37168  0.55229  0.02230  Biso   1.000  H
  H871     1.0000 0.40328  0.53501  0.96888  Biso   1.000  H
  C750     1.0000 0.14688  0.58938  0.92798  Biso   1.000  C
  H872     1.0000 0.20122  0.59788  0.99210  Biso   1.000  H
  H873     1.0000 0.03112  0.09672  0.03501  Biso   1.000  H
  C751     1.0000 0.99102  0.12880  0.97221  Biso   1.000  C
  H874     1.0000 0.97770  0.12832  0.05229  Biso   1.000  H
  C752     1.0000 0.96211  0.30640  0.92429  Biso   1.000  C
  H875     1.0000 0.94430  0.18041  0.92590  Biso   1.000  H
  H876     1.0000 0.92630  0.17949  0.98741  Biso   1.000  H
  C753     1.0000 0.86458  0.55951  0.11701  Biso   1.000  C
  C754     1.0000 0.94049  0.61701  0.13542  Biso   1.000  C
  C755     1.0000 0.11701  0.63542  0.94049  Biso   1.000  C
  C756     1.0000 0.13542  0.55951  0.88299  Biso   1.000  C
  H877     1.0000 0.96888  0.09672  0.96499  Biso   1.000  H
  H878     1.0000 0.02230  0.12832  0.94771  Biso   1.000  H
  C757     1.0000 0.92798  0.35312  0.91062  Biso   1.000  C
  H879     1.0000 0.99210  0.29878  0.90212  Biso   1.000  H
  H880     1.0000 0.84189  0.53080  0.12752  Biso   1.000  H
  C758     1.0000 0.85312  0.58938  0.07202  Biso   1.000  C
  C759     1.0000 0.92798  0.64688  0.08938  Biso   1.000  C
  H881     1.0000 0.96920  0.62752  0.15811  Biso   1.000  H
  H882     1.0000 0.12752  0.65811  0.96920  Biso   1.000  H
  C760     1.0000 0.07202  0.64688  0.91062  Biso   1.000  C
  H883     1.0000 0.15811  0.53080  0.87248  Biso   1.000  H
  C761     1.0000 0.08938  0.57202  0.85312  Biso   1.000  C
  C762     1.0000 0.94049  0.38299  0.86458  Biso   1.000  C
  C763     1.0000 0.88299  0.36458  0.94049  Biso   1.000  C
  C764     1.0000 0.88299  0.63542  0.05951  Biso   1.000  C
  C765     1.0000 0.80640  0.57571  0.03789  Biso   1.000  C
  C766     1.0000 0.96211  0.69360  0.07571  Biso   1.000  C
  C767     1.0000 0.03789  0.69360  0.92429  Biso   1.000  C
  C768     1.0000 0.05951  0.61701  0.86458  Biso   1.000  C
  C769     1.0000 0.07571  0.53789  0.80640  Biso   1.000  C
  H884     1.0000 0.96920  0.37248  0.84189  Biso   1.000  H
  C770     1.0000 0.91062  0.42798  0.85312  Biso   1.000  C
  C771     1.0000 0.85312  0.41062  0.92798  Biso   1.000  C
  H885     1.0000 0.87248  0.34189  0.96920  Biso   1.000  H
  H886     1.0000 0.87248  0.65811  0.03080  Biso   1.000  H
  N127     1.0000 0.77629  0.53621  0.04652  Biso   1.000  N
  H887     1.0000 0.79878  0.59788  0.00790  Biso   1.000  H
  N128     1.0000 0.95348  0.72371  0.03621  Biso   1.000  N
  H888     1.0000 0.99210  0.70122  0.09788  Biso   1.000  H
  N129     1.0000 0.04652  0.72371  0.96379  Biso   1.000  N
  H889     1.0000 0.00790  0.70122  0.90212  Biso   1.000  H
  H890     1.0000 0.03080  0.62752  0.84189  Biso   1.000  H
  N130     1.0000 0.03621  0.54652  0.77629  Biso   1.000  N
  H891     1.0000 0.09788  0.50790  0.79878  Biso   1.000  H
  C772     1.0000 0.86458  0.44049  0.88299  Biso   1.000  C
  C773     1.0000 0.92429  0.46211  0.80640  Biso   1.000  C
  C774     1.0000 0.80640  0.42429  0.96211  Biso   1.000  C
  C775     1.0000 0.72989  0.52719  0.01191  Biso   1.000  C
  C776     1.0000 0.98809  0.77011  0.02719  Biso   1.000  C
  C777     1.0000 0.01191  0.77011  0.97281  Biso   1.000  C
  C778     1.0000 0.02719  0.51191  0.72989  Biso   1.000  C
  H892     1.0000 0.84189  0.46920  0.87248  Biso   1.000  H
  N131     1.0000 0.96379  0.45348  0.77629  Biso   1.000  N
  H893     1.0000 0.90212  0.49210  0.79878  Biso   1.000  H
  N132     1.0000 0.77629  0.46379  0.95348  Biso   1.000  N
  H894     1.0000 0.79878  0.40212  0.99210  Biso   1.000  H
  H895     1.0000 0.73141  0.55381  0.98200  Biso   1.000  H
  C779     1.0000 0.72989  0.47281  0.98809  Biso   1.000  C
  C780     1.0000 0.68021  0.53681  0.04230  Biso   1.000  C
  H896     1.0000 0.01800  0.76859  0.05381  Biso   1.000  H
  C781     1.0000 0.95770  0.81979  0.03681  Biso   1.000  C
  H897     1.0000 0.98200  0.76859  0.94619  Biso   1.000  H
  C782     1.0000 0.04230  0.81979  0.96319  Biso   1.000  C
  C783     1.0000 0.97281  0.48809  0.72989  Biso   1.000  C
  H898     1.0000 0.05381  0.48200  0.73141  Biso   1.000  H
  C784     1.0000 0.03681  0.54230  0.68021  Biso   1.000  C
  C785     1.0000 0.68021  0.46319  0.95770  Biso   1.000  C
  H899     1.0000 0.73141  0.44619  0.01800  Biso   1.000  H
  H900     1.0000 0.68041  0.57410  0.05570  Biso   1.000  H
  H901     1.0000 0.67949  0.51259  0.07370  Biso   1.000  H
  C786     1.0000 0.62880  0.52779  0.00898  Biso   1.000  C
  H902     1.0000 0.94430  0.81959  0.07410  Biso   1.000  H
  H903     1.0000 0.92630  0.82051  0.01259  Biso   1.000  H
  C787     1.0000 0.99102  0.87120  0.02779  Biso   1.000  C
  H904     1.0000 0.05570  0.81959  0.92590  Biso   1.000  H
  H905     1.0000 0.07370  0.82051  0.98741  Biso   1.000  H
  C788     1.0000 0.00898  0.87120  0.97221  Biso   1.000  C
  H906     1.0000 0.94619  0.51800  0.73141  Biso   1.000  H
  C789     1.0000 0.96319  0.45770  0.68021  Biso   1.000  C
  H907     1.0000 0.07410  0.55570  0.68041  Biso   1.000  H
  H908     1.0000 0.01259  0.57370  0.67949  Biso   1.000  H
  C790     1.0000 0.02779  0.50898  0.62880  Biso   1.000  C
  H909     1.0000 0.68041  0.42590  0.94430  Biso   1.000  H
  H910     1.0000 0.67949  0.48741  0.92630  Biso   1.000  H
  C791     1.0000 0.62880  0.47221  0.99102  Biso   1.000  C
  H911     1.0000 0.62832  0.55229  0.97770  Biso   1.000  H
  H912     1.0000 0.59672  0.53501  0.03112  Biso   1.000  H
  H913     1.0000 0.02230  0.87168  0.05229  Biso   1.000  H
  H914     1.0000 0.96888  0.90328  0.03501  Biso   1.000  H
  H915     1.0000 0.97770  0.87168  0.94771  Biso   1.000  H
  H916     1.0000 0.03112  0.90328  0.96499  Biso   1.000  H
  H917     1.0000 0.92590  0.44430  0.68041  Biso   1.000  H
  H918     1.0000 0.98741  0.42630  0.67949  Biso   1.000  H
  C792     1.0000 0.97221  0.49102  0.62880  Biso   1.000  C
  H919     1.0000 0.03501  0.53112  0.59672  Biso   1.000  H
  H920     1.0000 0.05229  0.47770  0.62832  Biso   1.000  H
  H921     1.0000 0.59672  0.46499  0.96888  Biso   1.000  H
  H922     1.0000 0.62832  0.44771  0.02230  Biso   1.000  H
  H923     1.0000 0.96499  0.46888  0.59672  Biso   1.000  H
  H924     1.0000 0.94771  0.52230  0.62832  Biso   1.000  H
  C793     1.0000 0.13542  0.44049  0.11701  Biso   1.000  C
  C794     1.0000 0.08938  0.42798  0.14688  Biso   1.000  C
  H925     1.0000 0.15811  0.46920  0.12752  Biso   1.000  H
  C795     1.0000 0.14688  0.41062  0.07202  Biso   1.000  C
  C796     1.0000 0.05951  0.38299  0.13542  Biso   1.000  C
  C797     1.0000 0.07571  0.46211  0.19360  Biso   1.000  C
  C798     1.0000 0.19360  0.42429  0.03789  Biso   1.000  C
  C799     1.0000 0.11701  0.36458  0.05951  Biso   1.000  C
  H926     1.0000 0.03080  0.37248  0.15811  Biso   1.000  H
  C800     1.0000 0.07202  0.35312  0.08938  Biso   1.000  C
  N133     1.0000 0.03621  0.45348  0.22371  Biso   1.000  N
  H927     1.0000 0.09788  0.49210  0.20122  Biso   1.000  H
  N134     1.0000 0.22371  0.46379  0.04652  Biso   1.000  N
  H928     1.0000 0.20122  0.40212  0.00790  Biso   1.000  H
  H929     1.0000 0.12752  0.34189  0.03080  Biso   1.000  H
  C801     1.0000 0.03789  0.30640  0.07571  Biso   1.000  C
  C802     1.0000 0.02719  0.48809  0.27011  Biso   1.000  C
  C803     1.0000 0.27011  0.47281  0.01191  Biso   1.000  C
  N135     1.0000 0.04652  0.27629  0.03621  Biso   1.000  N
  H930     1.0000 0.00790  0.29878  0.09788  Biso   1.000  H
  H931     1.0000 0.05381  0.51800  0.26859  Biso   1.000  H
  C804     1.0000 0.03681  0.45770  0.31979  Biso   1.000  C
  C805     1.0000 0.97281  0.51191  0.27011  Biso   1.000  C
  C806     1.0000 0.31979  0.46319  0.04230  Biso   1.000  C
  C807     1.0000 0.27011  0.52719  0.98809  Biso   1.000  C
  H932     1.0000 0.26859  0.44619  0.98200  Biso   1.000  H
  C808     1.0000 0.01191  0.22989  0.02719  Biso   1.000  C
  H933     1.0000 0.07410  0.44430  0.31959  Biso   1.000  H
  H934     1.0000 0.01259  0.42630  0.32051  Biso   1.000  H
  C809     1.0000 0.02779  0.49102  0.37120  Biso   1.000  C
  N136     1.0000 0.96379  0.54652  0.22371  Biso   1.000  N
  H935     1.0000 0.94619  0.48200  0.26859  Biso   1.000  H
  C810     1.0000 0.96319  0.54230  0.31979  Biso   1.000  C
  H936     1.0000 0.31959  0.42590  0.05570  Biso   1.000  H
  H937     1.0000 0.32051  0.48741  0.07370  Biso   1.000  H
  C811     1.0000 0.37120  0.47221  0.00898  Biso   1.000  C
  H938     1.0000 0.26859  0.55381  0.01800  Biso   1.000  H
  N137     1.0000 0.22371  0.53621  0.95348  Biso   1.000  N
  C812     1.0000 0.31979  0.53681  0.95770  Biso   1.000  C
  C813     1.0000 0.04230  0.18021  0.03681  Biso   1.000  C
  C814     1.0000 0.98809  0.22989  0.97281  Biso   1.000  C
  H939     1.0000 0.98200  0.23141  0.05381  Biso   1.000  H
  H940     1.0000 0.03501  0.46888  0.40328  Biso   1.000  H
  H941     1.0000 0.05229  0.52230  0.37168  Biso   1.000  H
  C815     1.0000 0.97221  0.50898  0.37120  Biso   1.000  C
  C816     1.0000 0.92429  0.53789  0.19360  Biso   1.000  C
  H942     1.0000 0.92590  0.55570  0.31959  Biso   1.000  H
  H943     1.0000 0.98741  0.57370  0.32051  Biso   1.000  H
  H944     1.0000 0.40328  0.46499  0.03112  Biso   1.000  H
  C817     1.0000 0.37120  0.52779  0.99102  Biso   1.000  C
  H945     1.0000 0.37168  0.44771  0.97770  Biso   1.000  H
  C818     1.0000 0.19360  0.57571  0.96211  Biso   1.000  C
  H946     1.0000 0.31959  0.57410  0.94430  Biso   1.000  H
  H947     1.0000 0.32051  0.51259  0.92630  Biso   1.000  H
  H948     1.0000 0.05570  0.18041  0.07410  Biso   1.000  H
  H949     1.0000 0.07370  0.17949  0.01259  Biso   1.000  H
  C819     1.0000 0.00898  0.12880  0.02779  Biso   1.000  C
  N138     1.0000 0.95348  0.27629  0.96379  Biso   1.000  N
  C820     1.0000 0.95770  0.18021  0.96319  Biso   1.000  C
  H950     1.0000 0.01800  0.23141  0.94619  Biso   1.000  H
  H951     1.0000 0.96499  0.53112  0.40328  Biso   1.000  H
  H952     1.0000 0.94771  0.47770  0.37168  Biso   1.000  H
  C821     1.0000 0.91062  0.57202  0.14688  Biso   1.000  C
  H953     1.0000 0.90212  0.50790  0.20122  Biso   1.000  H
  H954     1.0000 0.37168  0.55229  0.02230  Biso   1.000  H
  H955     1.0000 0.40328  0.53501  0.96888  Biso   1.000  H
  C822     1.0000 0.14688  0.58938  0.92798  Biso   1.000  C
  H956     1.0000 0.20122  0.59788  0.99210  Biso   1.000  H
  H957     1.0000 0.03112  0.09672  0.03501  Biso   1.000  H
  C823     1.0000 0.99102  0.12880  0.97221  Biso   1.000  C
  H958     1.0000 0.97770  0.12832  0.05229  Biso   1.000  H
  C824     1.0000 0.96211  0.30640  0.92429  Biso   1.000  C
  H959     1.0000 0.94430  0.18041  0.92590  Biso   1.000  H
  H960     1.0000 0.92630  0.17949  0.98741  Biso   1.000  H
  C825     1.0000 0.86458  0.55951  0.11701  Biso   1.000  C
  C826     1.0000 0.94049  0.61701  0.13542  Biso   1.000  C
  C827     1.0000 0.11701  0.63542  0.94049  Biso   1.000  C
  C828     1.0000 0.13542  0.55951  0.88299  Biso   1.000  C
  H961     1.0000 0.96888  0.09672  0.96499  Biso   1.000  H
  H962     1.0000 0.02230  0.12832  0.94771  Biso   1.000  H
  C829     1.0000 0.92798  0.35312  0.91062  Biso   1.000  C
  H963     1.0000 0.99210  0.29878  0.90212  Biso   1.000  H
  H964     1.0000 0.84189  0.53080  0.12752  Biso   1.000  H
  C830     1.0000 0.85312  0.58938  0.07202  Biso   1.000  C
  C831     1.0000 0.92798  0.64688  0.08938  Biso   1.000  C
  H965     1.0000 0.96920  0.62752  0.15811  Biso   1.000  H
  H966     1.0000 0.12752  0.65811  0.96920  Biso   1.000  H
  C832     1.0000 0.07202  0.64688  0.91062  Biso   1.000  C
  H967     1.0000 0.15811  0.53080  0.87248  Biso   1.000  H
  C833     1.0000 0.08938  0.57202  0.85312  Biso   1.000  C
  C834     1.0000 0.94049  0.38299  0.86458  Biso   1.000  C
  C835     1.0000 0.88299  0.36458  0.94049  Biso   1.000  C
  C836     1.0000 0.88299  0.63542  0.05951  Biso   1.000  C
  C837     1.0000 0.80640  0.57571  0.03789  Biso   1.000  C
  C838     1.0000 0.96211  0.69360  0.07571  Biso   1.000  C
  C839     1.0000 0.03789  0.69360  0.92429  Biso   1.000  C
  C840     1.0000 0.05951  0.61701  0.86458  Biso   1.000  C
  C841     1.0000 0.07571  0.53789  0.80640  Biso   1.000  C
  H968     1.0000 0.96920  0.37248  0.84189  Biso   1.000  H
  C842     1.0000 0.91062  0.42798  0.85312  Biso   1.000  C
  C843     1.0000 0.85312  0.41062  0.92798  Biso   1.000  C
  H969     1.0000 0.87248  0.34189  0.96920  Biso   1.000  H
  H970     1.0000 0.87248  0.65811  0.03080  Biso   1.000  H
  N139     1.0000 0.77629  0.53621  0.04652  Biso   1.000  N
  H971     1.0000 0.79878  0.59788  0.00790  Biso   1.000  H
  N140     1.0000 0.95348  0.72371  0.03621  Biso   1.000  N
  H972     1.0000 0.99210  0.70122  0.09788  Biso   1.000  H
  N141     1.0000 0.04652  0.72371  0.96379  Biso   1.000  N
  H973     1.0000 0.00790  0.70122  0.90212  Biso   1.000  H
  H974     1.0000 0.03080  0.62752  0.84189  Biso   1.000  H
  N142     1.0000 0.03621  0.54652  0.77629  Biso   1.000  N
  H975     1.0000 0.09788  0.50790  0.79878  Biso   1.000  H
  C844     1.0000 0.86458  0.44049  0.88299  Biso   1.000  C
  C845     1.0000 0.92429  0.46211  0.80640  Biso   1.000  C
  C846     1.0000 0.80640  0.42429  0.96211  Biso   1.000  C
  C847     1.0000 0.72989  0.52719  0.01191  Biso   1.000  C
  C848     1.0000 0.98809  0.77011  0.02719  Biso   1.000  C
  C849     1.0000 0.01191  0.77011  0.97281  Biso   1.000  C
  C850     1.0000 0.02719  0.51191  0.72989  Biso   1.000  C
  H976     1.0000 0.84189  0.46920  0.87248  Biso   1.000  H
  N143     1.0000 0.96379  0.45348  0.77629  Biso   1.000  N
  H977     1.0000 0.90212  0.49210  0.79878  Biso   1.000  H
  N144     1.0000 0.77629  0.46379  0.95348  Biso   1.000  N
  H978     1.0000 0.79878  0.40212  0.99210  Biso   1.000  H
  H979     1.0000 0.73141  0.55381  0.98200  Biso   1.000  H
  C851     1.0000 0.72989  0.47281  0.98809  Biso   1.000  C
  C852     1.0000 0.68021  0.53681  0.04230  Biso   1.000  C
  H980     1.0000 0.01800  0.76859  0.05381  Biso   1.000  H
  C853     1.0000 0.95770  0.81979  0.03681  Biso   1.000  C
  H981     1.0000 0.98200  0.76859  0.94619  Biso   1.000  H
  C854     1.0000 0.04230  0.81979  0.96319  Biso   1.000  C
  C855     1.0000 0.97281  0.48809  0.72989  Biso   1.000  C
  H982     1.0000 0.05381  0.48200  0.73141  Biso   1.000  H
  C856     1.0000 0.03681  0.54230  0.68021  Biso   1.000  C
  C857     1.0000 0.68021  0.46319  0.95770  Biso   1.000  C
  H983     1.0000 0.73141  0.44619  0.01800  Biso   1.000  H
  H984     1.0000 0.68041  0.57410  0.05570  Biso   1.000  H
  H985     1.0000 0.67949  0.51259  0.07370  Biso   1.000  H
  C858     1.0000 0.62880  0.52779  0.00898  Biso   1.000  C
  H986     1.0000 0.94430  0.81959  0.07410  Biso   1.000  H
  H987     1.0000 0.92630  0.82051  0.01259  Biso   1.000  H
  C859     1.0000 0.99102  0.87120  0.02779  Biso   1.000  C
  H988     1.0000 0.05570  0.81959  0.92590  Biso   1.000  H
  H989     1.0000 0.07370  0.82051  0.98741  Biso   1.000  H
  C860     1.0000 0.00898  0.87120  0.97221  Biso   1.000  C
  H990     1.0000 0.94619  0.51800  0.73141  Biso   1.000  H
  C861     1.0000 0.96319  0.45770  0.68021  Biso   1.000  C
  H991     1.0000 0.07410  0.55570  0.68041  Biso   1.000  H
  H992     1.0000 0.01259  0.57370  0.67949  Biso   1.000  H
  C862     1.0000 0.02779  0.50898  0.62880  Biso   1.000  C
  H993     1.0000 0.68041  0.42590  0.94430  Biso   1.000  H
  H994     1.0000 0.67949  0.48741  0.92630  Biso   1.000  H
  C863     1.0000 0.62880  0.47221  0.99102  Biso   1.000  C
  H995     1.0000 0.62832  0.55229  0.97770  Biso   1.000  H
  H996     1.0000 0.59672  0.53501  0.03112  Biso   1.000  H
  H997     1.0000 0.02230  0.87168  0.05229  Biso   1.000  H
  H998     1.0000 0.96888  0.90328  0.03501  Biso   1.000  H
  H999     1.0000 0.97770  0.87168  0.94771  Biso   1.000  H
  H1000    1.0000 0.03112  0.90328  0.96499  Biso   1.000  H
  H1001    1.0000 0.92590  0.44430  0.68041  Biso   1.000  H
  H1002    1.0000 0.98741  0.42630  0.67949  Biso   1.000  H
  C864     1.0000 0.97221  0.49102  0.62880  Biso   1.000  C
  H1003    1.0000 0.03501  0.53112  0.59672  Biso   1.000  H
  H1004    1.0000 0.05229  0.47770  0.62832  Biso   1.000  H
  H1005    1.0000 0.59672  0.46499  0.96888  Biso   1.000  H
  H1006    1.0000 0.62832  0.44771  0.02230  Biso   1.000  H
  H1007    1.0000 0.96499  0.46888  0.59672  Biso   1.000  H
  H1008    1.0000 0.94771  0.52230  0.62832  Biso   1.000  H
  C865     1.0000 0.11701  0.13542  0.44049  Biso   1.000  C
  C866     1.0000 0.14688  0.08938  0.42798  Biso   1.000  C
  H1009    1.0000 0.12752  0.15811  0.46920  Biso   1.000  H
  C867     1.0000 0.07202  0.14688  0.41062  Biso   1.000  C
  C868     1.0000 0.13542  0.05951  0.38299  Biso   1.000  C
  C869     1.0000 0.19360  0.07571  0.46211  Biso   1.000  C
  C870     1.0000 0.05951  0.11701  0.36458  Biso   1.000  C
  C871     1.0000 0.03789  0.19360  0.42429  Biso   1.000  C
  H1010    1.0000 0.15811  0.03080  0.37248  Biso   1.000  H
  C872     1.0000 0.08938  0.07202  0.35312  Biso   1.000  C
  N145     1.0000 0.22371  0.03621  0.45348  Biso   1.000  N
  H1011    1.0000 0.20122  0.09788  0.49210  Biso   1.000  H
  H1012    1.0000 0.03080  0.12752  0.34189  Biso   1.000  H
  N146     1.0000 0.04652  0.22371  0.46379  Biso   1.000  N
  H1013    1.0000 0.00790  0.20122  0.40212  Biso   1.000  H
  C873     1.0000 0.07571  0.03789  0.30640  Biso   1.000  C
  C874     1.0000 0.27011  0.02719  0.48809  Biso   1.000  C
  C875     1.0000 0.01191  0.27011  0.47281  Biso   1.000  C
  N147     1.0000 0.03621  0.04652  0.27629  Biso   1.000  N
  H1014    1.0000 0.09788  0.00790  0.29878  Biso   1.000  H
  H1015    1.0000 0.26859  0.05381  0.51800  Biso   1.000  H
  C876     1.0000 0.31979  0.03681  0.45770  Biso   1.000  C
  C877     1.0000 0.27011  0.97281  0.51191  Biso   1.000  C
  C878     1.0000 0.04230  0.31979  0.46319  Biso   1.000  C
  C879     1.0000 0.98809  0.27011  0.52719  Biso   1.000  C
  H1016    1.0000 0.98200  0.26859  0.44619  Biso   1.000  H
  C880     1.0000 0.02719  0.01191  0.22989  Biso   1.000  C
  H1017    1.0000 0.31959  0.07410  0.44430  Biso   1.000  H
  H1018    1.0000 0.32051  0.01259  0.42630  Biso   1.000  H
  C881     1.0000 0.37120  0.02779  0.49102  Biso   1.000  C
  N148     1.0000 0.22371  0.96379  0.54652  Biso   1.000  N
  H1019    1.0000 0.26859  0.94619  0.48200  Biso   1.000  H
  C882     1.0000 0.31979  0.96319  0.54230  Biso   1.000  C
  H1020    1.0000 0.05570  0.31959  0.42590  Biso   1.000  H
  H1021    1.0000 0.07370  0.32051  0.48741  Biso   1.000  H
  C883     1.0000 0.00898  0.37120  0.47221  Biso   1.000  C
  H1022    1.0000 0.01800  0.26859  0.55381  Biso   1.000  H
  N149     1.0000 0.95348  0.22371  0.53621  Biso   1.000  N
  C884     1.0000 0.95770  0.31979  0.53681  Biso   1.000  C
  C885     1.0000 0.03681  0.04230  0.18021  Biso   1.000  C
  C886     1.0000 0.97281  0.98809  0.22989  Biso   1.000  C
  H1023    1.0000 0.05381  0.98200  0.23141  Biso   1.000  H
  H1024    1.0000 0.40328  0.03501  0.46888  Biso   1.000  H
  H1025    1.0000 0.37168  0.05229  0.52230  Biso   1.000  H
  C887     1.0000 0.37120  0.97221  0.50898  Biso   1.000  C
  C888     1.0000 0.19360  0.92429  0.53789  Biso   1.000  C
  H1026    1.0000 0.31959  0.92590  0.55570  Biso   1.000  H
  H1027    1.0000 0.32051  0.98741  0.57370  Biso   1.000  H
  H1028    1.0000 0.03112  0.40328  0.46499  Biso   1.000  H
  C889     1.0000 0.99102  0.37120  0.52779  Biso   1.000  C
  H1029    1.0000 0.97770  0.37168  0.44771  Biso   1.000  H
  C890     1.0000 0.96211  0.19360  0.57571  Biso   1.000  C
  H1030    1.0000 0.94430  0.31959  0.57410  Biso   1.000  H
  H1031    1.0000 0.92630  0.32051  0.51259  Biso   1.000  H
  H1032    1.0000 0.07410  0.05570  0.18041  Biso   1.000  H
  H1033    1.0000 0.01259  0.07370  0.17949  Biso   1.000  H
  C891     1.0000 0.02779  0.00898  0.12880  Biso   1.000  C
  N150     1.0000 0.96379  0.95348  0.27629  Biso   1.000  N
  C892     1.0000 0.96319  0.95770  0.18021  Biso   1.000  C
  H1034    1.0000 0.94619  0.01800  0.23141  Biso   1.000  H
  H1035    1.0000 0.40328  0.96499  0.53112  Biso   1.000  H
  H1036    1.0000 0.37168  0.94771  0.47770  Biso   1.000  H
  C893     1.0000 0.14688  0.91062  0.57202  Biso   1.000  C
  H1037    1.0000 0.20122  0.90212  0.50790  Biso   1.000  H
  H1038    1.0000 0.02230  0.37168  0.55229  Biso   1.000  H
  H1039    1.0000 0.96888  0.40328  0.53501  Biso   1.000  H
  C894     1.0000 0.92798  0.14688  0.58938  Biso   1.000  C
  H1040    1.0000 0.99210  0.20122  0.59788  Biso   1.000  H
  H1041    1.0000 0.03501  0.03112  0.09672  Biso   1.000  H
  C895     1.0000 0.97221  0.99102  0.12880  Biso   1.000  C
  H1042    1.0000 0.05229  0.97770  0.12832  Biso   1.000  H
  C896     1.0000 0.92429  0.96211  0.30640  Biso   1.000  C
  H1043    1.0000 0.92590  0.94430  0.18041  Biso   1.000  H
  H1044    1.0000 0.98741  0.92630  0.17949  Biso   1.000  H
  C897     1.0000 0.13542  0.94049  0.61701  Biso   1.000  C
  C898     1.0000 0.11701  0.86458  0.55951  Biso   1.000  C
  C899     1.0000 0.88299  0.13542  0.55951  Biso   1.000  C
  C900     1.0000 0.94049  0.11701  0.63542  Biso   1.000  C
  H1045    1.0000 0.96499  0.96888  0.09672  Biso   1.000  H
  H1046    1.0000 0.94771  0.02230  0.12832  Biso   1.000  H
  C901     1.0000 0.91062  0.92798  0.35312  Biso   1.000  C
  H1047    1.0000 0.90212  0.99210  0.29878  Biso   1.000  H
  C902     1.0000 0.08938  0.92798  0.64688  Biso   1.000  C
  H1048    1.0000 0.15811  0.96920  0.62752  Biso   1.000  H
  H1049    1.0000 0.12752  0.84189  0.53080  Biso   1.000  H
  C903     1.0000 0.07202  0.85312  0.58938  Biso   1.000  C
  H1050    1.0000 0.87248  0.15811  0.53080  Biso   1.000  H
  C904     1.0000 0.85312  0.08938  0.57202  Biso   1.000  C
  H1051    1.0000 0.96920  0.12752  0.65811  Biso   1.000  H
  C905     1.0000 0.91062  0.07202  0.64688  Biso   1.000  C
  C906     1.0000 0.86458  0.94049  0.38299  Biso   1.000  C
  C907     1.0000 0.94049  0.88299  0.36458  Biso   1.000  C
  C908     1.0000 0.05951  0.88299  0.63542  Biso   1.000  C
  C909     1.0000 0.07571  0.96211  0.69360  Biso   1.000  C
  C910     1.0000 0.03789  0.80640  0.57571  Biso   1.000  C
  C911     1.0000 0.86458  0.05951  0.61701  Biso   1.000  C
  C912     1.0000 0.80640  0.07571  0.53789  Biso   1.000  C
  C913     1.0000 0.92429  0.03789  0.69360  Biso   1.000  C
  H1052    1.0000 0.84189  0.96920  0.37248  Biso   1.000  H
  C914     1.0000 0.85312  0.91062  0.42798  Biso   1.000  C
  H1053    1.0000 0.96920  0.87248  0.34189  Biso   1.000  H
  C915     1.0000 0.92798  0.85312  0.41062  Biso   1.000  C
  H1054    1.0000 0.03080  0.87248  0.65811  Biso   1.000  H
  N151     1.0000 0.03621  0.95348  0.72371  Biso   1.000  N
  H1055    1.0000 0.09788  0.99210  0.70122  Biso   1.000  H
  N152     1.0000 0.04652  0.77629  0.53621  Biso   1.000  N
  H1056    1.0000 0.00790  0.79878  0.59788  Biso   1.000  H
  H1057    1.0000 0.84189  0.03080  0.62752  Biso   1.000  H
  N153     1.0000 0.77629  0.03621  0.54652  Biso   1.000  N
  H1058    1.0000 0.79878  0.09788  0.50790  Biso   1.000  H
  N154     1.0000 0.96379  0.04652  0.72371  Biso   1.000  N
  H1059    1.0000 0.90212  0.00790  0.70122  Biso   1.000  H
  C916     1.0000 0.80640  0.92429  0.46211  Biso   1.000  C
  C917     1.0000 0.88299  0.86458  0.44049  Biso   1.000  C
  C918     1.0000 0.96211  0.80640  0.42429  Biso   1.000  C
  C919     1.0000 0.02719  0.98809  0.77011  Biso   1.000  C
  C920     1.0000 0.01191  0.72989  0.52719  Biso   1.000  C
  C921     1.0000 0.72989  0.02719  0.51191  Biso   1.000  C
  C922     1.0000 0.97281  0.01191  0.77011  Biso   1.000  C
  N155     1.0000 0.77629  0.96379  0.45348  Biso   1.000  N
  H1060    1.0000 0.79878  0.90212  0.49210  Biso   1.000  H
  H1061    1.0000 0.87248  0.84189  0.46920  Biso   1.000  H
  N156     1.0000 0.95348  0.77629  0.46379  Biso   1.000  N
  H1062    1.0000 0.99210  0.79878  0.40212  Biso   1.000  H
  H1063    1.0000 0.05381  0.01800  0.76859  Biso   1.000  H
  C923     1.0000 0.03681  0.95770  0.81979  Biso   1.000  C
  C924     1.0000 0.98809  0.72989  0.47281  Biso   1.000  C
  H1064    1.0000 0.98200  0.73141  0.55381  Biso   1.000  H
  C925     1.0000 0.04230  0.68021  0.53681  Biso   1.000  C
  C926     1.0000 0.72989  0.97281  0.48809  Biso   1.000  C
  H1065    1.0000 0.73141  0.05381  0.48200  Biso   1.000  H
  C927     1.0000 0.68021  0.03681  0.54230  Biso   1.000  C
  H1066    1.0000 0.94619  0.98200  0.76859  Biso   1.000  H
  C928     1.0000 0.96319  0.04230  0.81979  Biso   1.000  C
  H1067    1.0000 0.07410  0.94430  0.81959  Biso   1.000  H
  H1068    1.0000 0.01259  0.92630  0.82051  Biso   1.000  H
  C929     1.0000 0.02779  0.99102  0.87120  Biso   1.000  C
  C930     1.0000 0.95770  0.68021  0.46319  Biso   1.000  C
  H1069    1.0000 0.01800  0.73141  0.44619  Biso   1.000  H
  H1070    1.0000 0.05570  0.68041  0.57410  Biso   1.000  H
  H1071    1.0000 0.07370  0.67949  0.51259  Biso   1.000  H
  C931     1.0000 0.00898  0.62880  0.52779  Biso   1.000  C
  H1072    1.0000 0.73141  0.94619  0.51800  Biso   1.000  H
  C932     1.0000 0.68021  0.96319  0.45770  Biso   1.000  C
  C933     1.0000 0.62880  0.02779  0.50898  Biso   1.000  C
  H1073    1.0000 0.68041  0.07410  0.55570  Biso   1.000  H
  H1074    1.0000 0.67949  0.01259  0.57370  Biso   1.000  H
  H1075    1.0000 0.92590  0.05570  0.81959  Biso   1.000  H
  H1076    1.0000 0.98741  0.07370  0.82051  Biso   1.000  H
  C934     1.0000 0.97221  0.00898  0.87120  Biso   1.000  C
  H1077    1.0000 0.05229  0.02230  0.87168  Biso   1.000  H
  H1078    1.0000 0.03501  0.96888  0.90328  Biso   1.000  H
  H1079    1.0000 0.94430  0.68041  0.42590  Biso   1.000  H
  H1080    1.0000 0.92630  0.67949  0.48741  Biso   1.000  H
  C935     1.0000 0.99102  0.62880  0.47221  Biso   1.000  C
  H1081    1.0000 0.97770  0.62832  0.55229  Biso   1.000  H
  H1082    1.0000 0.03112  0.59672  0.53501  Biso   1.000  H
  H1083    1.0000 0.68041  0.92590  0.44430  Biso   1.000  H
  H1084    1.0000 0.67949  0.98741  0.42630  Biso   1.000  H
  C936     1.0000 0.62880  0.97221  0.49102  Biso   1.000  C
  H1085    1.0000 0.59672  0.03501  0.53112  Biso   1.000  H
  H1086    1.0000 0.62832  0.05229  0.47770  Biso   1.000  H
  H1087    1.0000 0.94771  0.97770  0.87168  Biso   1.000  H
  H1088    1.0000 0.96499  0.03112  0.90328  Biso   1.000  H
  H1089    1.0000 0.96888  0.59672  0.46499  Biso   1.000  H
  H1090    1.0000 0.02230  0.62832  0.44771  Biso   1.000  H
  H1091    1.0000 0.59672  0.96499  0.46888  Biso   1.000  H
  H1092    1.0000 0.62832  0.94771  0.52230  Biso   1.000  H
  C937     1.0000 0.11701  0.13542  0.44049  Biso   1.000  C
  C938     1.0000 0.14688  0.08938  0.42798  Biso   1.000  C
  H1093    1.0000 0.12752  0.15811  0.46920  Biso   1.000  H
  C939     1.0000 0.07202  0.14688  0.41062  Biso   1.000  C
  C940     1.0000 0.13542  0.05951  0.38299  Biso   1.000  C
  C941     1.0000 0.19360  0.07571  0.46211  Biso   1.000  C
  C942     1.0000 0.05951  0.11701  0.36458  Biso   1.000  C
  C943     1.0000 0.03789  0.19360  0.42429  Biso   1.000  C
  H1094    1.0000 0.15811  0.03080  0.37248  Biso   1.000  H
  C944     1.0000 0.08938  0.07202  0.35312  Biso   1.000  C
  N157     1.0000 0.22371  0.03621  0.45348  Biso   1.000  N
  H1095    1.0000 0.20122  0.09788  0.49210  Biso   1.000  H
  H1096    1.0000 0.03080  0.12752  0.34189  Biso   1.000  H
  N158     1.0000 0.04652  0.22371  0.46379  Biso   1.000  N
  H1097    1.0000 0.00790  0.20122  0.40212  Biso   1.000  H
  C945     1.0000 0.07571  0.03789  0.30640  Biso   1.000  C
  C946     1.0000 0.27011  0.02719  0.48809  Biso   1.000  C
  C947     1.0000 0.01191  0.27011  0.47281  Biso   1.000  C
  N159     1.0000 0.03621  0.04652  0.27629  Biso   1.000  N
  H1098    1.0000 0.09788  0.00790  0.29878  Biso   1.000  H
  H1099    1.0000 0.26859  0.05381  0.51800  Biso   1.000  H
  C948     1.0000 0.31979  0.03681  0.45770  Biso   1.000  C
  C949     1.0000 0.27011  0.97281  0.51191  Biso   1.000  C
  C950     1.0000 0.04230  0.31979  0.46319  Biso   1.000  C
  C951     1.0000 0.98809  0.27011  0.52719  Biso   1.000  C
  H1100    1.0000 0.98200  0.26859  0.44619  Biso   1.000  H
  C952     1.0000 0.02719  0.01191  0.22989  Biso   1.000  C
  H1101    1.0000 0.31959  0.07410  0.44430  Biso   1.000  H
  H1102    1.0000 0.32051  0.01259  0.42630  Biso   1.000  H
  C953     1.0000 0.37120  0.02779  0.49102  Biso   1.000  C
  N160     1.0000 0.22371  0.96379  0.54652  Biso   1.000  N
  H1103    1.0000 0.26859  0.94619  0.48200  Biso   1.000  H
  C954     1.0000 0.31979  0.96319  0.54230  Biso   1.000  C
  H1104    1.0000 0.05570  0.31959  0.42590  Biso   1.000  H
  H1105    1.0000 0.07370  0.32051  0.48741  Biso   1.000  H
  C955     1.0000 0.00898  0.37120  0.47221  Biso   1.000  C
  H1106    1.0000 0.01800  0.26859  0.55381  Biso   1.000  H
  N161     1.0000 0.95348  0.22371  0.53621  Biso   1.000  N
  C956     1.0000 0.95770  0.31979  0.53681  Biso   1.000  C
  C957     1.0000 0.03681  0.04230  0.18021  Biso   1.000  C
  C958     1.0000 0.97281  0.98809  0.22989  Biso   1.000  C
  H1107    1.0000 0.05381  0.98200  0.23141  Biso   1.000  H
  H1108    1.0000 0.40328  0.03501  0.46888  Biso   1.000  H
  H1109    1.0000 0.37168  0.05229  0.52230  Biso   1.000  H
  C959     1.0000 0.37120  0.97221  0.50898  Biso   1.000  C
  C960     1.0000 0.19360  0.92429  0.53789  Biso   1.000  C
  H1110    1.0000 0.31959  0.92590  0.55570  Biso   1.000  H
  H1111    1.0000 0.32051  0.98741  0.57370  Biso   1.000  H
  H1112    1.0000 0.03112  0.40328  0.46499  Biso   1.000  H
  C961     1.0000 0.99102  0.37120  0.52779  Biso   1.000  C
  H1113    1.0000 0.97770  0.37168  0.44771  Biso   1.000  H
  C962     1.0000 0.96211  0.19360  0.57571  Biso   1.000  C
  H1114    1.0000 0.94430  0.31959  0.57410  Biso   1.000  H
  H1115    1.0000 0.92630  0.32051  0.51259  Biso   1.000  H
  H1116    1.0000 0.07410  0.05570  0.18041  Biso   1.000  H
  H1117    1.0000 0.01259  0.07370  0.17949  Biso   1.000  H
  C963     1.0000 0.02779  0.00898  0.12880  Biso   1.000  C
  N162     1.0000 0.96379  0.95348  0.27629  Biso   1.000  N
  C964     1.0000 0.96319  0.95770  0.18021  Biso   1.000  C
  H1118    1.0000 0.94619  0.01800  0.23141  Biso   1.000  H
  H1119    1.0000 0.40328  0.96499  0.53112  Biso   1.000  H
  H1120    1.0000 0.37168  0.94771  0.47770  Biso   1.000  H
  C965     1.0000 0.14688  0.91062  0.57202  Biso   1.000  C
  H1121    1.0000 0.20122  0.90212  0.50790  Biso   1.000  H
  H1122    1.0000 0.02230  0.37168  0.55229  Biso   1.000  H
  H1123    1.0000 0.96888  0.40328  0.53501  Biso   1.000  H
  C966     1.0000 0.92798  0.14688  0.58938  Biso   1.000  C
  H1124    1.0000 0.99210  0.20122  0.59788  Biso   1.000  H
  H1125    1.0000 0.03501  0.03112  0.09672  Biso   1.000  H
  C967     1.0000 0.97221  0.99102  0.12880  Biso   1.000  C
  H1126    1.0000 0.05229  0.97770  0.12832  Biso   1.000  H
  C968     1.0000 0.92429  0.96211  0.30640  Biso   1.000  C
  H1127    1.0000 0.92590  0.94430  0.18041  Biso   1.000  H
  H1128    1.0000 0.98741  0.92630  0.17949  Biso   1.000  H
  C969     1.0000 0.13542  0.94049  0.61701  Biso   1.000  C
  C970     1.0000 0.11701  0.86458  0.55951  Biso   1.000  C
  C971     1.0000 0.88299  0.13542  0.55951  Biso   1.000  C
  C972     1.0000 0.94049  0.11701  0.63542  Biso   1.000  C
  H1129    1.0000 0.96499  0.96888  0.09672  Biso   1.000  H
  H1130    1.0000 0.94771  0.02230  0.12832  Biso   1.000  H
  C973     1.0000 0.91062  0.92798  0.35312  Biso   1.000  C
  H1131    1.0000 0.90212  0.99210  0.29878  Biso   1.000  H
  C974     1.0000 0.08938  0.92798  0.64688  Biso   1.000  C
  H1132    1.0000 0.15811  0.96920  0.62752  Biso   1.000  H
  H1133    1.0000 0.12752  0.84189  0.53080  Biso   1.000  H
  C975     1.0000 0.07202  0.85312  0.58938  Biso   1.000  C
  H1134    1.0000 0.87248  0.15811  0.53080  Biso   1.000  H
  C976     1.0000 0.85312  0.08938  0.57202  Biso   1.000  C
  H1135    1.0000 0.96920  0.12752  0.65811  Biso   1.000  H
  C977     1.0000 0.91062  0.07202  0.64688  Biso   1.000  C
  C978     1.0000 0.86458  0.94049  0.38299  Biso   1.000  C
  C979     1.0000 0.94049  0.88299  0.36458  Biso   1.000  C
  C980     1.0000 0.05951  0.88299  0.63542  Biso   1.000  C
  C981     1.0000 0.07571  0.96211  0.69360  Biso   1.000  C
  C982     1.0000 0.03789  0.80640  0.57571  Biso   1.000  C
  C983     1.0000 0.86458  0.05951  0.61701  Biso   1.000  C
  C984     1.0000 0.80640  0.07571  0.53789  Biso   1.000  C
  C985     1.0000 0.92429  0.03789  0.69360  Biso   1.000  C
  H1136    1.0000 0.84189  0.96920  0.37248  Biso   1.000  H
  C986     1.0000 0.85312  0.91062  0.42798  Biso   1.000  C
  H1137    1.0000 0.96920  0.87248  0.34189  Biso   1.000  H
  C987     1.0000 0.92798  0.85312  0.41062  Biso   1.000  C
  H1138    1.0000 0.03080  0.87248  0.65811  Biso   1.000  H
  N163     1.0000 0.03621  0.95348  0.72371  Biso   1.000  N
  H1139    1.0000 0.09788  0.99210  0.70122  Biso   1.000  H
  N164     1.0000 0.04652  0.77629  0.53621  Biso   1.000  N
  H1140    1.0000 0.00790  0.79878  0.59788  Biso   1.000  H
  H1141    1.0000 0.84189  0.03080  0.62752  Biso   1.000  H
  N165     1.0000 0.77629  0.03621  0.54652  Biso   1.000  N
  H1142    1.0000 0.79878  0.09788  0.50790  Biso   1.000  H
  N166     1.0000 0.96379  0.04652  0.72371  Biso   1.000  N
  H1143    1.0000 0.90212  0.00790  0.70122  Biso   1.000  H
  C988     1.0000 0.80640  0.92429  0.46211  Biso   1.000  C
  C989     1.0000 0.88299  0.86458  0.44049  Biso   1.000  C
  C990     1.0000 0.96211  0.80640  0.42429  Biso   1.000  C
  C991     1.0000 0.02719  0.98809  0.77011  Biso   1.000  C
  C992     1.0000 0.01191  0.72989  0.52719  Biso   1.000  C
  C993     1.0000 0.72989  0.02719  0.51191  Biso   1.000  C
  C994     1.0000 0.97281  0.01191  0.77011  Biso   1.000  C
  N167     1.0000 0.77629  0.96379  0.45348  Biso   1.000  N
  H1144    1.0000 0.79878  0.90212  0.49210  Biso   1.000  H
  H1145    1.0000 0.87248  0.84189  0.46920  Biso   1.000  H
  N168     1.0000 0.95348  0.77629  0.46379  Biso   1.000  N
  H1146    1.0000 0.99210  0.79878  0.40212  Biso   1.000  H
  H1147    1.0000 0.05381  0.01800  0.76859  Biso   1.000  H
  C995     1.0000 0.03681  0.95770  0.81979  Biso   1.000  C
  C996     1.0000 0.98809  0.72989  0.47281  Biso   1.000  C
  H1148    1.0000 0.98200  0.73141  0.55381  Biso   1.000  H
  C997     1.0000 0.04230  0.68021  0.53681  Biso   1.000  C
  C998     1.0000 0.72989  0.97281  0.48809  Biso   1.000  C
  H1149    1.0000 0.73141  0.05381  0.48200  Biso   1.000  H
  C999     1.0000 0.68021  0.03681  0.54230  Biso   1.000  C
  H1150    1.0000 0.94619  0.98200  0.76859  Biso   1.000  H
  C1000    1.0000 0.96319  0.04230  0.81979  Biso   1.000  C
  H1151    1.0000 0.07410  0.94430  0.81959  Biso   1.000  H
  H1152    1.0000 0.01259  0.92630  0.82051  Biso   1.000  H
  C1001    1.0000 0.02779  0.99102  0.87120  Biso   1.000  C
  C1002    1.0000 0.95770  0.68021  0.46319  Biso   1.000  C
  H1153    1.0000 0.01800  0.73141  0.44619  Biso   1.000  H
  H1154    1.0000 0.05570  0.68041  0.57410  Biso   1.000  H
  H1155    1.0000 0.07370  0.67949  0.51259  Biso   1.000  H
  C1003    1.0000 0.00898  0.62880  0.52779  Biso   1.000  C
  H1156    1.0000 0.73141  0.94619  0.51800  Biso   1.000  H
  C1004    1.0000 0.68021  0.96319  0.45770  Biso   1.000  C
  C1005    1.0000 0.62880  0.02779  0.50898  Biso   1.000  C
  H1157    1.0000 0.68041  0.07410  0.55570  Biso   1.000  H
  H1158    1.0000 0.67949  0.01259  0.57370  Biso   1.000  H
  H1159    1.0000 0.92590  0.05570  0.81959  Biso   1.000  H
  H1160    1.0000 0.98741  0.07370  0.82051  Biso   1.000  H
  C1006    1.0000 0.97221  0.00898  0.87120  Biso   1.000  C
  H1161    1.0000 0.05229  0.02230  0.87168  Biso   1.000  H
  H1162    1.0000 0.03501  0.96888  0.90328  Biso   1.000  H
  H1163    1.0000 0.94430  0.68041  0.42590  Biso   1.000  H
  H1164    1.0000 0.92630  0.67949  0.48741  Biso   1.000  H
  C1007    1.0000 0.99102  0.62880  0.47221  Biso   1.000  C
  H1165    1.0000 0.97770  0.62832  0.55229  Biso   1.000  H
  H1166    1.0000 0.03112  0.59672  0.53501  Biso   1.000  H
  H1167    1.0000 0.68041  0.92590  0.44430  Biso   1.000  H
  H1168    1.0000 0.67949  0.98741  0.42630  Biso   1.000  H
  C1008    1.0000 0.62880  0.97221  0.49102  Biso   1.000  C
  H1169    1.0000 0.59672  0.03501  0.53112  Biso   1.000  H
  H1170    1.0000 0.62832  0.05229  0.47770  Biso   1.000  H
  H1171    1.0000 0.94771  0.97770  0.87168  Biso   1.000  H
  H1172    1.0000 0.96499  0.03112  0.90328  Biso   1.000  H
  H1173    1.0000 0.96888  0.59672  0.46499  Biso   1.000  H
  H1174    1.0000 0.02230  0.62832  0.44771  Biso   1.000  H
  H1175    1.0000 0.59672  0.96499  0.46888  Biso   1.000  H
  H1176    1.0000 0.62832  0.94771  0.52230  Biso   1.000  H
  C1009    1.0000 0.11701  0.13542  0.44049  Biso   1.000  C
  C1010    1.0000 0.14688  0.08938  0.42798  Biso   1.000  C
  H1177    1.0000 0.12752  0.15811  0.46920  Biso   1.000  H
  C1011    1.0000 0.07202  0.14688  0.41062  Biso   1.000  C
  C1012    1.0000 0.13542  0.05951  0.38299  Biso   1.000  C
  C1013    1.0000 0.19360  0.07571  0.46211  Biso   1.000  C
  C1014    1.0000 0.05951  0.11701  0.36458  Biso   1.000  C
  C1015    1.0000 0.03789  0.19360  0.42429  Biso   1.000  C
  H1178    1.0000 0.15811  0.03080  0.37248  Biso   1.000  H
  C1016    1.0000 0.08938  0.07202  0.35312  Biso   1.000  C
  N169     1.0000 0.22371  0.03621  0.45348  Biso   1.000  N
  H1179    1.0000 0.20122  0.09788  0.49210  Biso   1.000  H
  H1180    1.0000 0.03080  0.12752  0.34189  Biso   1.000  H
  N170     1.0000 0.04652  0.22371  0.46379  Biso   1.000  N
  H1181    1.0000 0.00790  0.20122  0.40212  Biso   1.000  H
  C1017    1.0000 0.07571  0.03789  0.30640  Biso   1.000  C
  C1018    1.0000 0.27011  0.02719  0.48809  Biso   1.000  C
  C1019    1.0000 0.01191  0.27011  0.47281  Biso   1.000  C
  N171     1.0000 0.03621  0.04652  0.27629  Biso   1.000  N
  H1182    1.0000 0.09788  0.00790  0.29878  Biso   1.000  H
  H1183    1.0000 0.26859  0.05381  0.51800  Biso   1.000  H
  C1020    1.0000 0.31979  0.03681  0.45770  Biso   1.000  C
  C1021    1.0000 0.27011  0.97281  0.51191  Biso   1.000  C
  C1022    1.0000 0.04230  0.31979  0.46319  Biso   1.000  C
  C1023    1.0000 0.98809  0.27011  0.52719  Biso   1.000  C
  H1184    1.0000 0.98200  0.26859  0.44619  Biso   1.000  H
  C1024    1.0000 0.02719  0.01191  0.22989  Biso   1.000  C
  H1185    1.0000 0.31959  0.07410  0.44430  Biso   1.000  H
  H1186    1.0000 0.32051  0.01259  0.42630  Biso   1.000  H
  C1025    1.0000 0.37120  0.02779  0.49102  Biso   1.000  C
  N172     1.0000 0.22371  0.96379  0.54652  Biso   1.000  N
  H1187    1.0000 0.26859  0.94619  0.48200  Biso   1.000  H
  C1026    1.0000 0.31979  0.96319  0.54230  Biso   1.000  C
  H1188    1.0000 0.05570  0.31959  0.42590  Biso   1.000  H
  H1189    1.0000 0.07370  0.32051  0.48741  Biso   1.000  H
  C1027    1.0000 0.00898  0.37120  0.47221  Biso   1.000  C
  H1190    1.0000 0.01800  0.26859  0.55381  Biso   1.000  H
  N173     1.0000 0.95348  0.22371  0.53621  Biso   1.000  N
  C1028    1.0000 0.95770  0.31979  0.53681  Biso   1.000  C
  C1029    1.0000 0.03681  0.04230  0.18021  Biso   1.000  C
  C1030    1.0000 0.97281  0.98809  0.22989  Biso   1.000  C
  H1191    1.0000 0.05381  0.98200  0.23141  Biso   1.000  H
  H1192    1.0000 0.40328  0.03501  0.46888  Biso   1.000  H
  H1193    1.0000 0.37168  0.05229  0.52230  Biso   1.000  H
  C1031    1.0000 0.37120  0.97221  0.50898  Biso   1.000  C
  C1032    1.0000 0.19360  0.92429  0.53789  Biso   1.000  C
  H1194    1.0000 0.31959  0.92590  0.55570  Biso   1.000  H
  H1195    1.0000 0.32051  0.98741  0.57370  Biso   1.000  H
  H1196    1.0000 0.03112  0.40328  0.46499  Biso   1.000  H
  C1033    1.0000 0.99102  0.37120  0.52779  Biso   1.000  C
  H1197    1.0000 0.97770  0.37168  0.44771  Biso   1.000  H
  C1034    1.0000 0.96211  0.19360  0.57571  Biso   1.000  C
  H1198    1.0000 0.94430  0.31959  0.57410  Biso   1.000  H
  H1199    1.0000 0.92630  0.32051  0.51259  Biso   1.000  H
  H1200    1.0000 0.07410  0.05570  0.18041  Biso   1.000  H
  H1201    1.0000 0.01259  0.07370  0.17949  Biso   1.000  H
  C1035    1.0000 0.02779  0.00898  0.12880  Biso   1.000  C
  N174     1.0000 0.96379  0.95348  0.27629  Biso   1.000  N
  C1036    1.0000 0.96319  0.95770  0.18021  Biso   1.000  C
  H1202    1.0000 0.94619  0.01800  0.23141  Biso   1.000  H
  H1203    1.0000 0.40328  0.96499  0.53112  Biso   1.000  H
  H1204    1.0000 0.37168  0.94771  0.47770  Biso   1.000  H
  C1037    1.0000 0.14688  0.91062  0.57202  Biso   1.000  C
  H1205    1.0000 0.20122  0.90212  0.50790  Biso   1.000  H
  H1206    1.0000 0.02230  0.37168  0.55229  Biso   1.000  H
  H1207    1.0000 0.96888  0.40328  0.53501  Biso   1.000  H
  C1038    1.0000 0.92798  0.14688  0.58938  Biso   1.000  C
  H1208    1.0000 0.99210  0.20122  0.59788  Biso   1.000  H
  H1209    1.0000 0.03501  0.03112  0.09672  Biso   1.000  H
  C1039    1.0000 0.97221  0.99102  0.12880  Biso   1.000  C
  H1210    1.0000 0.05229  0.97770  0.12832  Biso   1.000  H
  C1040    1.0000 0.92429  0.96211  0.30640  Biso   1.000  C
  H1211    1.0000 0.92590  0.94430  0.18041  Biso   1.000  H
  H1212    1.0000 0.98741  0.92630  0.17949  Biso   1.000  H
  C1041    1.0000 0.13542  0.94049  0.61701  Biso   1.000  C
  C1042    1.0000 0.11701  0.86458  0.55951  Biso   1.000  C
  C1043    1.0000 0.88299  0.13542  0.55951  Biso   1.000  C
  C1044    1.0000 0.94049  0.11701  0.63542  Biso   1.000  C
  H1213    1.0000 0.96499  0.96888  0.09672  Biso   1.000  H
  H1214    1.0000 0.94771  0.02230  0.12832  Biso   1.000  H
  C1045    1.0000 0.91062  0.92798  0.35312  Biso   1.000  C
  H1215    1.0000 0.90212  0.99210  0.29878  Biso   1.000  H
  C1046    1.0000 0.08938  0.92798  0.64688  Biso   1.000  C
  H1216    1.0000 0.15811  0.96920  0.62752  Biso   1.000  H
  H1217    1.0000 0.12752  0.84189  0.53080  Biso   1.000  H
  C1047    1.0000 0.07202  0.85312  0.58938  Biso   1.000  C
  H1218    1.0000 0.87248  0.15811  0.53080  Biso   1.000  H
  C1048    1.0000 0.85312  0.08938  0.57202  Biso   1.000  C
  H1219    1.0000 0.96920  0.12752  0.65811  Biso   1.000  H
  C1049    1.0000 0.91062  0.07202  0.64688  Biso   1.000  C
  C1050    1.0000 0.86458  0.94049  0.38299  Biso   1.000  C
  C1051    1.0000 0.94049  0.88299  0.36458  Biso   1.000  C
  C1052    1.0000 0.05951  0.88299  0.63542  Biso   1.000  C
  C1053    1.0000 0.07571  0.96211  0.69360  Biso   1.000  C
  C1054    1.0000 0.03789  0.80640  0.57571  Biso   1.000  C
  C1055    1.0000 0.86458  0.05951  0.61701  Biso   1.000  C
  C1056    1.0000 0.80640  0.07571  0.53789  Biso   1.000  C
  C1057    1.0000 0.92429  0.03789  0.69360  Biso   1.000  C
  H1220    1.0000 0.84189  0.96920  0.37248  Biso   1.000  H
  C1058    1.0000 0.85312  0.91062  0.42798  Biso   1.000  C
  H1221    1.0000 0.96920  0.87248  0.34189  Biso   1.000  H
  C1059    1.0000 0.92798  0.85312  0.41062  Biso   1.000  C
  H1222    1.0000 0.03080  0.87248  0.65811  Biso   1.000  H
  N175     1.0000 0.03621  0.95348  0.72371  Biso   1.000  N
  H1223    1.0000 0.09788  0.99210  0.70122  Biso   1.000  H
  N176     1.0000 0.04652  0.77629  0.53621  Biso   1.000  N
  H1224    1.0000 0.00790  0.79878  0.59788  Biso   1.000  H
  H1225    1.0000 0.84189  0.03080  0.62752  Biso   1.000  H
  N177     1.0000 0.77629  0.03621  0.54652  Biso   1.000  N
  H1226    1.0000 0.79878  0.09788  0.50790  Biso   1.000  H
  N178     1.0000 0.96379  0.04652  0.72371  Biso   1.000  N
  H1227    1.0000 0.90212  0.00790  0.70122  Biso   1.000  H
  C1060    1.0000 0.80640  0.92429  0.46211  Biso   1.000  C
  C1061    1.0000 0.88299  0.86458  0.44049  Biso   1.000  C
  C1062    1.0000 0.96211  0.80640  0.42429  Biso   1.000  C
  C1063    1.0000 0.02719  0.98809  0.77011  Biso   1.000  C
  C1064    1.0000 0.01191  0.72989  0.52719  Biso   1.000  C
  C1065    1.0000 0.72989  0.02719  0.51191  Biso   1.000  C
  C1066    1.0000 0.97281  0.01191  0.77011  Biso   1.000  C
  N179     1.0000 0.77629  0.96379  0.45348  Biso   1.000  N
  H1228    1.0000 0.79878  0.90212  0.49210  Biso   1.000  H
  H1229    1.0000 0.87248  0.84189  0.46920  Biso   1.000  H
  N180     1.0000 0.95348  0.77629  0.46379  Biso   1.000  N
  H1230    1.0000 0.99210  0.79878  0.40212  Biso   1.000  H
  H1231    1.0000 0.05381  0.01800  0.76859  Biso   1.000  H
  C1067    1.0000 0.03681  0.95770  0.81979  Biso   1.000  C
  C1068    1.0000 0.98809  0.72989  0.47281  Biso   1.000  C
  H1232    1.0000 0.98200  0.73141  0.55381  Biso   1.000  H
  C1069    1.0000 0.04230  0.68021  0.53681  Biso   1.000  C
  C1070    1.0000 0.72989  0.97281  0.48809  Biso   1.000  C
  H1233    1.0000 0.73141  0.05381  0.48200  Biso   1.000  H
  C1071    1.0000 0.68021  0.03681  0.54230  Biso   1.000  C
  H1234    1.0000 0.94619  0.98200  0.76859  Biso   1.000  H
  C1072    1.0000 0.96319  0.04230  0.81979  Biso   1.000  C
  H1235    1.0000 0.07410  0.94430  0.81959  Biso   1.000  H
  H1236    1.0000 0.01259  0.92630  0.82051  Biso   1.000  H
  C1073    1.0000 0.02779  0.99102  0.87120  Biso   1.000  C
  C1074    1.0000 0.95770  0.68021  0.46319  Biso   1.000  C
  H1237    1.0000 0.01800  0.73141  0.44619  Biso   1.000  H
  H1238    1.0000 0.05570  0.68041  0.57410  Biso   1.000  H
  H1239    1.0000 0.07370  0.67949  0.51259  Biso   1.000  H
  C1075    1.0000 0.00898  0.62880  0.52779  Biso   1.000  C
  H1240    1.0000 0.73141  0.94619  0.51800  Biso   1.000  H
  C1076    1.0000 0.68021  0.96319  0.45770  Biso   1.000  C
  C1077    1.0000 0.62880  0.02779  0.50898  Biso   1.000  C
  H1241    1.0000 0.68041  0.07410  0.55570  Biso   1.000  H
  H1242    1.0000 0.67949  0.01259  0.57370  Biso   1.000  H
  H1243    1.0000 0.92590  0.05570  0.81959  Biso   1.000  H
  H1244    1.0000 0.98741  0.07370  0.82051  Biso   1.000  H
  C1078    1.0000 0.97221  0.00898  0.87120  Biso   1.000  C
  H1245    1.0000 0.05229  0.02230  0.87168  Biso   1.000  H
  H1246    1.0000 0.03501  0.96888  0.90328  Biso   1.000  H
  H1247    1.0000 0.94430  0.68041  0.42590  Biso   1.000  H
  H1248    1.0000 0.92630  0.67949  0.48741  Biso   1.000  H
  C1079    1.0000 0.99102  0.62880  0.47221  Biso   1.000  C
  H1249    1.0000 0.97770  0.62832  0.55229  Biso   1.000  H
  H1250    1.0000 0.03112  0.59672  0.53501  Biso   1.000  H
  H1251    1.0000 0.68041  0.92590  0.44430  Biso   1.000  H
  H1252    1.0000 0.67949  0.98741  0.42630  Biso   1.000  H
  C1080    1.0000 0.62880  0.97221  0.49102  Biso   1.000  C
  H1253    1.0000 0.59672  0.03501  0.53112  Biso   1.000  H
  H1254    1.0000 0.62832  0.05229  0.47770  Biso   1.000  H
  H1255    1.0000 0.94771  0.97770  0.87168  Biso   1.000  H
  H1256    1.0000 0.96499  0.03112  0.90328  Biso   1.000  H
  H1257    1.0000 0.96888  0.59672  0.46499  Biso   1.000  H
  H1258    1.0000 0.02230  0.62832  0.44771  Biso   1.000  H
  H1259    1.0000 0.59672  0.96499  0.46888  Biso   1.000  H
  H1260    1.0000 0.62832  0.94771  0.52230  Biso   1.000  H
  C1081    1.0000 0.11701  0.13542  0.44049  Biso   1.000  C
  C1082    1.0000 0.14688  0.08938  0.42798  Biso   1.000  C
  H1261    1.0000 0.12752  0.15811  0.46920  Biso   1.000  H
  C1083    1.0000 0.07202  0.14688  0.41062  Biso   1.000  C
  C1084    1.0000 0.13542  0.05951  0.38299  Biso   1.000  C
  C1085    1.0000 0.19360  0.07571  0.46211  Biso   1.000  C
  C1086    1.0000 0.05951  0.11701  0.36458  Biso   1.000  C
  C1087    1.0000 0.03789  0.19360  0.42429  Biso   1.000  C
  H1262    1.0000 0.15811  0.03080  0.37248  Biso   1.000  H
  C1088    1.0000 0.08938  0.07202  0.35312  Biso   1.000  C
  N181     1.0000 0.22371  0.03621  0.45348  Biso   1.000  N
  H1263    1.0000 0.20122  0.09788  0.49210  Biso   1.000  H
  H1264    1.0000 0.03080  0.12752  0.34189  Biso   1.000  H
  N182     1.0000 0.04652  0.22371  0.46379  Biso   1.000  N
  H1265    1.0000 0.00790  0.20122  0.40212  Biso   1.000  H
  C1089    1.0000 0.07571  0.03789  0.30640  Biso   1.000  C
  C1090    1.0000 0.27011  0.02719  0.48809  Biso   1.000  C
  C1091    1.0000 0.01191  0.27011  0.47281  Biso   1.000  C
  N183     1.0000 0.03621  0.04652  0.27629  Biso   1.000  N
  H1266    1.0000 0.09788  0.00790  0.29878  Biso   1.000  H
  H1267    1.0000 0.26859  0.05381  0.51800  Biso   1.000  H
  C1092    1.0000 0.31979  0.03681  0.45770  Biso   1.000  C
  C1093    1.0000 0.27011  0.97281  0.51191  Biso   1.000  C
  C1094    1.0000 0.04230  0.31979  0.46319  Biso   1.000  C
  C1095    1.0000 0.98809  0.27011  0.52719  Biso   1.000  C
  H1268    1.0000 0.98200  0.26859  0.44619  Biso   1.000  H
  C1096    1.0000 0.02719  0.01191  0.22989  Biso   1.000  C
  H1269    1.0000 0.31959  0.07410  0.44430  Biso   1.000  H
  H1270    1.0000 0.32051  0.01259  0.42630  Biso   1.000  H
  C1097    1.0000 0.37120  0.02779  0.49102  Biso   1.000  C
  N184     1.0000 0.22371  0.96379  0.54652  Biso   1.000  N
  H1271    1.0000 0.26859  0.94619  0.48200  Biso   1.000  H
  C1098    1.0000 0.31979  0.96319  0.54230  Biso   1.000  C
  H1272    1.0000 0.05570  0.31959  0.42590  Biso   1.000  H
  H1273    1.0000 0.07370  0.32051  0.48741  Biso   1.000  H
  C1099    1.0000 0.00898  0.37120  0.47221  Biso   1.000  C
  H1274    1.0000 0.01800  0.26859  0.55381  Biso   1.000  H
  N185     1.0000 0.95348  0.22371  0.53621  Biso   1.000  N
  C1100    1.0000 0.95770  0.31979  0.53681  Biso   1.000  C
  C1101    1.0000 0.03681  0.04230  0.18021  Biso   1.000  C
  C1102    1.0000 0.97281  0.98809  0.22989  Biso   1.000  C
  H1275    1.0000 0.05381  0.98200  0.23141  Biso   1.000  H
  H1276    1.0000 0.40328  0.03501  0.46888  Biso   1.000  H
  H1277    1.0000 0.37168  0.05229  0.52230  Biso   1.000  H
  C1103    1.0000 0.37120  0.97221  0.50898  Biso   1.000  C
  C1104    1.0000 0.19360  0.92429  0.53789  Biso   1.000  C
  H1278    1.0000 0.31959  0.92590  0.55570  Biso   1.000  H
  H1279    1.0000 0.32051  0.98741  0.57370  Biso   1.000  H
  H1280    1.0000 0.03112  0.40328  0.46499  Biso   1.000  H
  C1105    1.0000 0.99102  0.37120  0.52779  Biso   1.000  C
  H1281    1.0000 0.97770  0.37168  0.44771  Biso   1.000  H
  C1106    1.0000 0.96211  0.19360  0.57571  Biso   1.000  C
  H1282    1.0000 0.94430  0.31959  0.57410  Biso   1.000  H
  H1283    1.0000 0.92630  0.32051  0.51259  Biso   1.000  H
  H1284    1.0000 0.07410  0.05570  0.18041  Biso   1.000  H
  H1285    1.0000 0.01259  0.07370  0.17949  Biso   1.000  H
  C1107    1.0000 0.02779  0.00898  0.12880  Biso   1.000  C
  N186     1.0000 0.96379  0.95348  0.27629  Biso   1.000  N
  C1108    1.0000 0.96319  0.95770  0.18021  Biso   1.000  C
  H1286    1.0000 0.94619  0.01800  0.23141  Biso   1.000  H
  H1287    1.0000 0.40328  0.96499  0.53112  Biso   1.000  H
  H1288    1.0000 0.37168  0.94771  0.47770  Biso   1.000  H
  C1109    1.0000 0.14688  0.91062  0.57202  Biso   1.000  C
  H1289    1.0000 0.20122  0.90212  0.50790  Biso   1.000  H
  H1290    1.0000 0.02230  0.37168  0.55229  Biso   1.000  H
  H1291    1.0000 0.96888  0.40328  0.53501  Biso   1.000  H
  C1110    1.0000 0.92798  0.14688  0.58938  Biso   1.000  C
  H1292    1.0000 0.99210  0.20122  0.59788  Biso   1.000  H
  H1293    1.0000 0.03501  0.03112  0.09672  Biso   1.000  H
  C1111    1.0000 0.97221  0.99102  0.12880  Biso   1.000  C
  H1294    1.0000 0.05229  0.97770  0.12832  Biso   1.000  H
  C1112    1.0000 0.92429  0.96211  0.30640  Biso   1.000  C
  H1295    1.0000 0.92590  0.94430  0.18041  Biso   1.000  H
  H1296    1.0000 0.98741  0.92630  0.17949  Biso   1.000  H
  C1113    1.0000 0.13542  0.94049  0.61701  Biso   1.000  C
  C1114    1.0000 0.11701  0.86458  0.55951  Biso   1.000  C
  C1115    1.0000 0.88299  0.13542  0.55951  Biso   1.000  C
  C1116    1.0000 0.94049  0.11701  0.63542  Biso   1.000  C
  H1297    1.0000 0.96499  0.96888  0.09672  Biso   1.000  H
  H1298    1.0000 0.94771  0.02230  0.12832  Biso   1.000  H
  C1117    1.0000 0.91062  0.92798  0.35312  Biso   1.000  C
  H1299    1.0000 0.90212  0.99210  0.29878  Biso   1.000  H
  C1118    1.0000 0.08938  0.92798  0.64688  Biso   1.000  C
  H1300    1.0000 0.15811  0.96920  0.62752  Biso   1.000  H
  H1301    1.0000 0.12752  0.84189  0.53080  Biso   1.000  H
  C1119    1.0000 0.07202  0.85312  0.58938  Biso   1.000  C
  H1302    1.0000 0.87248  0.15811  0.53080  Biso   1.000  H
  C1120    1.0000 0.85312  0.08938  0.57202  Biso   1.000  C
  H1303    1.0000 0.96920  0.12752  0.65811  Biso   1.000  H
  C1121    1.0000 0.91062  0.07202  0.64688  Biso   1.000  C
  C1122    1.0000 0.86458  0.94049  0.38299  Biso   1.000  C
  C1123    1.0000 0.94049  0.88299  0.36458  Biso   1.000  C
  C1124    1.0000 0.05951  0.88299  0.63542  Biso   1.000  C
  C1125    1.0000 0.07571  0.96211  0.69360  Biso   1.000  C
  C1126    1.0000 0.03789  0.80640  0.57571  Biso   1.000  C
  C1127    1.0000 0.86458  0.05951  0.61701  Biso   1.000  C
  C1128    1.0000 0.80640  0.07571  0.53789  Biso   1.000  C
  C1129    1.0000 0.92429  0.03789  0.69360  Biso   1.000  C
  H1304    1.0000 0.84189  0.96920  0.37248  Biso   1.000  H
  C1130    1.0000 0.85312  0.91062  0.42798  Biso   1.000  C
  H1305    1.0000 0.96920  0.87248  0.34189  Biso   1.000  H
  C1131    1.0000 0.92798  0.85312  0.41062  Biso   1.000  C
  H1306    1.0000 0.03080  0.87248  0.65811  Biso   1.000  H
  N187     1.0000 0.03621  0.95348  0.72371  Biso   1.000  N
  H1307    1.0000 0.09788  0.99210  0.70122  Biso   1.000  H
  N188     1.0000 0.04652  0.77629  0.53621  Biso   1.000  N
  H1308    1.0000 0.00790  0.79878  0.59788  Biso   1.000  H
  H1309    1.0000 0.84189  0.03080  0.62752  Biso   1.000  H
  N189     1.0000 0.77629  0.03621  0.54652  Biso   1.000  N
  H1310    1.0000 0.79878  0.09788  0.50790  Biso   1.000  H
  N190     1.0000 0.96379  0.04652  0.72371  Biso   1.000  N
  H1311    1.0000 0.90212  0.00790  0.70122  Biso   1.000  H
  C1132    1.0000 0.80640  0.92429  0.46211  Biso   1.000  C
  C1133    1.0000 0.88299  0.86458  0.44049  Biso   1.000  C
  C1134    1.0000 0.96211  0.80640  0.42429  Biso   1.000  C
  C1135    1.0000 0.02719  0.98809  0.77011  Biso   1.000  C
  C1136    1.0000 0.01191  0.72989  0.52719  Biso   1.000  C
  C1137    1.0000 0.72989  0.02719  0.51191  Biso   1.000  C
  C1138    1.0000 0.97281  0.01191  0.77011  Biso   1.000  C
  N191     1.0000 0.77629  0.96379  0.45348  Biso   1.000  N
  H1312    1.0000 0.79878  0.90212  0.49210  Biso   1.000  H
  H1313    1.0000 0.87248  0.84189  0.46920  Biso   1.000  H
  N192     1.0000 0.95348  0.77629  0.46379  Biso   1.000  N
  H1314    1.0000 0.99210  0.79878  0.40212  Biso   1.000  H
  H1315    1.0000 0.05381  0.01800  0.76859  Biso   1.000  H
  C1139    1.0000 0.03681  0.95770  0.81979  Biso   1.000  C
  C1140    1.0000 0.98809  0.72989  0.47281  Biso   1.000  C
  H1316    1.0000 0.98200  0.73141  0.55381  Biso   1.000  H
  C1141    1.0000 0.04230  0.68021  0.53681  Biso   1.000  C
  C1142    1.0000 0.72989  0.97281  0.48809  Biso   1.000  C
  H1317    1.0000 0.73141  0.05381  0.48200  Biso   1.000  H
  C1143    1.0000 0.68021  0.03681  0.54230  Biso   1.000  C
  H1318    1.0000 0.94619  0.98200  0.76859  Biso   1.000  H
  C1144    1.0000 0.96319  0.04230  0.81979  Biso   1.000  C
  H1319    1.0000 0.07410  0.94430  0.81959  Biso   1.000  H
  H1320    1.0000 0.01259  0.92630  0.82051  Biso   1.000  H
  C1145    1.0000 0.02779  0.99102  0.87120  Biso   1.000  C
  C1146    1.0000 0.95770  0.68021  0.46319  Biso   1.000  C
  H1321    1.0000 0.01800  0.73141  0.44619  Biso   1.000  H
  H1322    1.0000 0.05570  0.68041  0.57410  Biso   1.000  H
  H1323    1.0000 0.07370  0.67949  0.51259  Biso   1.000  H
  C1147    1.0000 0.00898  0.62880  0.52779  Biso   1.000  C
  H1324    1.0000 0.73141  0.94619  0.51800  Biso   1.000  H
  C1148    1.0000 0.68021  0.96319  0.45770  Biso   1.000  C
  C1149    1.0000 0.62880  0.02779  0.50898  Biso   1.000  C
  H1325    1.0000 0.68041  0.07410  0.55570  Biso   1.000  H
  H1326    1.0000 0.67949  0.01259  0.57370  Biso   1.000  H
  H1327    1.0000 0.92590  0.05570  0.81959  Biso   1.000  H
  H1328    1.0000 0.98741  0.07370  0.82051  Biso   1.000  H
  C1150    1.0000 0.97221  0.00898  0.87120  Biso   1.000  C
  H1329    1.0000 0.05229  0.02230  0.87168  Biso   1.000  H
  H1330    1.0000 0.03501  0.96888  0.90328  Biso   1.000  H
  H1331    1.0000 0.94430  0.68041  0.42590  Biso   1.000  H
  H1332    1.0000 0.92630  0.67949  0.48741  Biso   1.000  H
  C1151    1.0000 0.99102  0.62880  0.47221  Biso   1.000  C
  H1333    1.0000 0.97770  0.62832  0.55229  Biso   1.000  H
  H1334    1.0000 0.03112  0.59672  0.53501  Biso   1.000  H
  H1335    1.0000 0.68041  0.92590  0.44430  Biso   1.000  H
  H1336    1.0000 0.67949  0.98741  0.42630  Biso   1.000  H
  C1152    1.0000 0.62880  0.97221  0.49102  Biso   1.000  C
  H1337    1.0000 0.59672  0.03501  0.53112  Biso   1.000  H
  H1338    1.0000 0.62832  0.05229  0.47770  Biso   1.000  H
  H1339    1.0000 0.94771  0.97770  0.87168  Biso   1.000  H
  H1340    1.0000 0.96499  0.03112  0.90328  Biso   1.000  H
  H1341    1.0000 0.96888  0.59672  0.46499  Biso   1.000  H
  H1342    1.0000 0.02230  0.62832  0.44771  Biso   1.000  H
  H1343    1.0000 0.59672  0.96499  0.46888  Biso   1.000  H
  H1344    1.0000 0.62832  0.94771  0.52230  Biso   1.000  H
  C1153    1.0000 0.75900  0.72219  0.37882  Biso   1.000  C
  C1154    1.0000 0.74100  0.77781  0.37882  Biso   1.000  C
  C1155    1.0000 0.79228  0.71321  0.43019  Biso   1.000  C
  H1345    1.0000 0.78110  0.71501  0.34670  Biso   1.000  H
  H1346    1.0000 0.72768  0.69769  0.37830  Biso   1.000  H
  C1156    1.0000 0.70772  0.78679  0.43019  Biso   1.000  C
  H1347    1.0000 0.71890  0.78499  0.34670  Biso   1.000  H
  H1348    1.0000 0.77232  0.80231  0.37830  Biso   1.000  H
  C1157    1.0000 0.76189  0.72279  0.47987  Biso   1.000  C
  H1349    1.0000 0.80572  0.67592  0.43039  Biso   1.000  H
  H1350    1.0000 0.82368  0.73739  0.42951  Biso   1.000  H
  C1158    1.0000 0.73811  0.77721  0.47987  Biso   1.000  C
  H1351    1.0000 0.69428  0.82408  0.43039  Biso   1.000  H
  H1352    1.0000 0.67632  0.76261  0.42951  Biso   1.000  H
  N193     1.0000 0.79650  0.71381  0.52627  Biso   1.000  N
  H1353    1.0000 0.73202  0.69621  0.48139  Biso   1.000  H
  N194     1.0000 0.70350  0.78619  0.52627  Biso   1.000  N
  H1354    1.0000 0.76798  0.80379  0.48139  Biso   1.000  H
  C1159    1.0000 0.78791  0.67431  0.55642  Biso   1.000  C
  C1160    1.0000 0.71209  0.82569  0.55642  Biso   1.000  C
  C1161    1.0000 0.82200  0.66060  0.60310  Biso   1.000  C
  H1355    1.0000 0.75792  0.65210  0.54880  Biso   1.000  H
  C1162    1.0000 0.67800  0.83940  0.60310  Biso   1.000  C
  H1356    1.0000 0.74208  0.84790  0.54880  Biso   1.000  H
  C1163    1.0000 0.80949  0.61460  0.63301  Biso   1.000  C
  C1164    1.0000 0.86699  0.69051  0.61460  Biso   1.000  C
  C1165    1.0000 0.69051  0.88540  0.63301  Biso   1.000  C
  C1166    1.0000 0.63301  0.80949  0.61460  Biso   1.000  C
  H1357    1.0000 0.78082  0.59191  0.62250  Biso   1.000  H
  C1167    1.0000 0.83940  0.60310  0.67800  Biso   1.000  C
  H1358    1.0000 0.87750  0.71918  0.59191  Biso   1.000  H
  C1168    1.0000 0.89690  0.67800  0.66060  Biso   1.000  C
  H1359    1.0000 0.71918  0.90809  0.62250  Biso   1.000  H
  C1169    1.0000 0.66060  0.89690  0.67800  Biso   1.000  C
  C1170    1.0000 0.60310  0.82200  0.66060  Biso   1.000  C
  H1360    1.0000 0.62250  0.78082  0.59191  Biso   1.000  H
  C1171    1.0000 0.82569  0.55642  0.71209  Biso   1.000  C
  C1172    1.0000 0.88540  0.63301  0.69051  Biso   1.000  C
  C1173    1.0000 0.94358  0.71209  0.67431  Biso   1.000  C
  C1174    1.0000 0.61460  0.86699  0.69051  Biso   1.000  C
  C1175    1.0000 0.67431  0.94358  0.71209  Biso   1.000  C
  C1176    1.0000 0.55642  0.78791  0.67431  Biso   1.000  C
  N195     1.0000 0.78619  0.52627  0.70350  Biso   1.000  N
  H1361    1.0000 0.84790  0.54880  0.74208  Biso   1.000  H
  H1362    1.0000 0.90809  0.62250  0.71918  Biso   1.000  H
  N196     1.0000 0.97373  0.70350  0.71381  Biso   1.000  N
  H1363    1.0000 0.95120  0.74208  0.65210  Biso   1.000  H
  H1364    1.0000 0.59191  0.87750  0.71918  Biso   1.000  H
  N197     1.0000 0.71381  0.97373  0.70350  Biso   1.000  N
  H1365    1.0000 0.65210  0.95120  0.74208  Biso   1.000  H
  N198     1.0000 0.52627  0.79650  0.71381  Biso   1.000  N
  H1366    1.0000 0.54880  0.75792  0.65210  Biso   1.000  H
  C1177    1.0000 0.77721  0.47987  0.73811  Biso   1.000  C
  C1178    1.0000 0.02013  0.73811  0.72279  Biso   1.000  C
  C1179    1.0000 0.72279  0.02013  0.73811  Biso   1.000  C
  C1180    1.0000 0.47987  0.76189  0.72279  Biso   1.000  C
  C1181    1.0000 0.72279  0.47987  0.76189  Biso   1.000  C
  H1367    1.0000 0.80379  0.48139  0.76798  Biso   1.000  H
  C1182    1.0000 0.78679  0.43019  0.70772  Biso   1.000  C
  C1183    1.0000 0.02013  0.76189  0.77721  Biso   1.000  C
  H1368    1.0000 0.01861  0.76798  0.69621  Biso   1.000  H
  C1184    1.0000 0.06981  0.70772  0.71321  Biso   1.000  C
  H1369    1.0000 0.69621  0.01861  0.76798  Biso   1.000  H
  C1185    1.0000 0.71321  0.06981  0.70772  Biso   1.000  C
  C1186    1.0000 0.77721  0.02013  0.76189  Biso   1.000  C
  C1187    1.0000 0.47987  0.73811  0.77721  Biso   1.000  C
  H1370    1.0000 0.48139  0.73202  0.69621  Biso   1.000  H
  C1188    1.0000 0.43019  0.79228  0.71321  Biso   1.000  C
  N199     1.0000 0.71381  0.52627  0.79650  Biso   1.000  N
  H1371    1.0000 0.69621  0.48139  0.73202  Biso   1.000  H
  C1189    1.0000 0.71321  0.43019  0.79228  Biso   1.000  C
  H1372    1.0000 0.82408  0.43039  0.69428  Biso   1.000  H
  H1373    1.0000 0.76261  0.42951  0.67632  Biso   1.000  H
  C1190    1.0000 0.77781  0.37882  0.74100  Biso   1.000  C
  N200     1.0000 0.97373  0.79650  0.78619  Biso   1.000  N
  H1374    1.0000 0.01861  0.73202  0.80379  Biso   1.000  H
  C1191    1.0000 0.06981  0.79228  0.78679  Biso   1.000  C
  H1375    1.0000 0.06961  0.69428  0.67592  Biso   1.000  H
  H1376    1.0000 0.07049  0.67632  0.73739  Biso   1.000  H
  C1192    1.0000 0.12118  0.74100  0.72219  Biso   1.000  C
  H1377    1.0000 0.67592  0.06961  0.69428  Biso   1.000  H
  H1378    1.0000 0.73739  0.07049  0.67632  Biso   1.000  H
  C1193    1.0000 0.72219  0.12118  0.74100  Biso   1.000  C
  N201     1.0000 0.78619  0.97373  0.79650  Biso   1.000  N
  H1379    1.0000 0.80379  0.01861  0.73202  Biso   1.000  H
  C1194    1.0000 0.78679  0.06981  0.79228  Biso   1.000  C
  N202     1.0000 0.52627  0.70350  0.78619  Biso   1.000  N
  H1380    1.0000 0.48139  0.76798  0.80379  Biso   1.000  H
  C1195    1.0000 0.43019  0.70772  0.78679  Biso   1.000  C
  H1381    1.0000 0.43039  0.80572  0.67592  Biso   1.000  H
  H1382    1.0000 0.42951  0.82368  0.73739  Biso   1.000  H
  C1196    1.0000 0.37882  0.75900  0.72219  Biso   1.000  C
  C1197    1.0000 0.67431  0.55642  0.78791  Biso   1.000  C
  H1383    1.0000 0.67592  0.43039  0.80572  Biso   1.000  H
  H1384    1.0000 0.73739  0.42951  0.82368  Biso   1.000  H
  C1198    1.0000 0.72219  0.37882  0.75900  Biso   1.000  C
  H1385    1.0000 0.78499  0.34670  0.71890  Biso   1.000  H
  H1386    1.0000 0.80231  0.37830  0.77232  Biso   1.000  H
  C1199    1.0000 0.94358  0.78791  0.82569  Biso   1.000  C
  H1387    1.0000 0.06961  0.80572  0.82408  Biso   1.000  H
  H1388    1.0000 0.07049  0.82368  0.76261  Biso   1.000  H
  C1200    1.0000 0.12118  0.75900  0.77781  Biso   1.000  C
  H1389    1.0000 0.15330  0.71890  0.71501  Biso   1.000  H
  H1390    1.0000 0.12170  0.77232  0.69769  Biso   1.000  H
  H1391    1.0000 0.71501  0.15330  0.71890  Biso   1.000  H
  H1392    1.0000 0.69769  0.12170  0.77232  Biso   1.000  H
  C1201    1.0000 0.77781  0.12118  0.75900  Biso   1.000  C
  C1202    1.0000 0.82569  0.94358  0.78791  Biso   1.000  C
  H1393    1.0000 0.82408  0.06961  0.80572  Biso   1.000  H
  H1394    1.0000 0.76261  0.07049  0.82368  Biso   1.000  H
  C1203    1.0000 0.55642  0.71209  0.82569  Biso   1.000  C
  H1395    1.0000 0.43039  0.69428  0.82408  Biso   1.000  H
  H1396    1.0000 0.42951  0.67632  0.76261  Biso   1.000  H
  C1204    1.0000 0.37882  0.74100  0.77781  Biso   1.000  C
  H1397    1.0000 0.34670  0.78110  0.71501  Biso   1.000  H
  H1398    1.0000 0.37830  0.72768  0.69769  Biso   1.000  H
  C1205    1.0000 0.66060  0.60310  0.82200  Biso   1.000  C
  H1399    1.0000 0.65210  0.54880  0.75792  Biso   1.000  H
  H1400    1.0000 0.71501  0.34670  0.78110  Biso   1.000  H
  H1401    1.0000 0.69769  0.37830  0.72768  Biso   1.000  H
  C1206    1.0000 0.89690  0.82200  0.83940  Biso   1.000  C
  H1402    1.0000 0.95120  0.75792  0.84790  Biso   1.000  H
  H1403    1.0000 0.15330  0.78110  0.78499  Biso   1.000  H
  H1404    1.0000 0.12170  0.72768  0.80231  Biso   1.000  H
  H1405    1.0000 0.78499  0.15330  0.78110  Biso   1.000  H
  H1406    1.0000 0.80231  0.12170  0.72768  Biso   1.000  H
  C1207    1.0000 0.83940  0.89690  0.82200  Biso   1.000  C
  H1407    1.0000 0.84790  0.95120  0.75792  Biso   1.000  H
  C1208    1.0000 0.60310  0.67800  0.83940  Biso   1.000  C
  H1408    1.0000 0.54880  0.74208  0.84790  Biso   1.000  H
  H1409    1.0000 0.34670  0.71890  0.78499  Biso   1.000  H
  H1410    1.0000 0.37830  0.77232  0.80231  Biso   1.000  H
  C1209    1.0000 0.61460  0.63301  0.80949  Biso   1.000  C
  C1210    1.0000 0.69051  0.61460  0.86699  Biso   1.000  C
  C1211    1.0000 0.86699  0.80949  0.88540  Biso   1.000  C
  C1212    1.0000 0.88540  0.86699  0.80949  Biso   1.000  C
  C1213    1.0000 0.80949  0.88540  0.86699  Biso   1.000  C
  C1214    1.0000 0.63301  0.69051  0.88540  Biso   1.000  C
  H1411    1.0000 0.59191  0.62250  0.78082  Biso   1.000  H
  H1412    1.0000 0.71918  0.59191  0.87750  Biso   1.000  H
  C1215    1.0000 0.67800  0.66060  0.89690  Biso   1.000  C
  H1413    1.0000 0.87750  0.78082  0.90809  Biso   1.000  H
  C1216    1.0000 0.82200  0.83940  0.89690  Biso   1.000  C
  H1414    1.0000 0.90809  0.87750  0.78082  Biso   1.000  H
  H1415    1.0000 0.78082  0.90809  0.87750  Biso   1.000  H
  H1416    1.0000 0.62250  0.71918  0.90809  Biso   1.000  H
  C1217    1.0000 0.71209  0.67431  0.94358  Biso   1.000  C
  C1218    1.0000 0.78791  0.82569  0.94358  Biso   1.000  C
  N203     1.0000 0.70350  0.71381  0.97373  Biso   1.000  N
  H1417    1.0000 0.74208  0.65210  0.95120  Biso   1.000  H
  N204     1.0000 0.79650  0.78619  0.97373  Biso   1.000  N
  H1418    1.0000 0.75792  0.84790  0.95120  Biso   1.000  H
  C1219    1.0000 0.73811  0.72279  0.02013  Biso   1.000  C
  C1220    1.0000 0.76189  0.77721  0.02013  Biso   1.000  C
  H1419    1.0000 0.76798  0.69621  0.01861  Biso   1.000  H
  C1221    1.0000 0.70772  0.71321  0.06981  Biso   1.000  C
  H1420    1.0000 0.73202  0.80379  0.01861  Biso   1.000  H
  C1222    1.0000 0.79228  0.78679  0.06981  Biso   1.000  C
  H1421    1.0000 0.69428  0.67592  0.06961  Biso   1.000  H
  H1422    1.0000 0.67632  0.73739  0.07049  Biso   1.000  H
  C1223    1.0000 0.74100  0.72219  0.12118  Biso   1.000  C
  H1423    1.0000 0.80572  0.82408  0.06961  Biso   1.000  H
  H1424    1.0000 0.82368  0.76261  0.07049  Biso   1.000  H
  C1224    1.0000 0.75900  0.77781  0.12118  Biso   1.000  C
  H1425    1.0000 0.71890  0.71501  0.15330  Biso   1.000  H
  H1426    1.0000 0.77232  0.69769  0.12170  Biso   1.000  H
  H1427    1.0000 0.78110  0.78499  0.15330  Biso   1.000  H
  H1428    1.0000 0.72768  0.80231  0.12170  Biso   1.000  H
