data_image0
_cell_length_a       28.377
_cell_length_b       35.137
_cell_length_c       21.341
_cell_angle_alpha    90
_cell_angle_beta     90
_cell_angle_gamma    90

_symmetry_space_group_name_H-M    "P 1"
_symmetry_int_tables_number       1

loop_
  _symmetry_equiv_pos_as_xyz
  'x, y, z'

loop_
  _atom_site_label
  _atom_site_occupancy
  _atom_site_fract_x
  _atom_site_fract_y
  _atom_site_fract_z
  _atom_site_thermal_displace_type
  _atom_site_B_iso_or_equiv
  _atom_site_type_symbol
  N1       1.0000 0.65715  0.28582  0.47491  Biso   1.000  N
  C1       1.0000 0.63319  0.25716  0.49126  Biso   1.000  C
  C2       1.0000 0.63689  0.32328  0.48119  Biso   1.000  C
  C3       1.0000 0.64982  0.21752  0.48311  Biso   1.000  C
  H1       1.0000 0.60309  0.26129  0.50968  Biso   1.000  H
  H2       1.0000 0.60412  0.32120  0.49810  Biso   1.000  H
  C4       1.0000 0.66716  0.34659  0.52617  Biso   1.000  C
  C5       1.0000 0.63559  0.34175  0.41601  Biso   1.000  C
  C6       1.0000 0.61899  0.18710  0.49304  Biso   1.000  C
  C7       1.0000 0.69549  0.21021  0.46066  Biso   1.000  C
  N2       1.0000 0.66505  0.33079  0.58854  Biso   1.000  N
  H3       1.0000 0.70060  0.34610  0.51141  Biso   1.000  H
  C8       1.0000 0.64972  0.38819  0.52744  Biso   1.000  C
  C9       1.0000 0.61761  0.38282  0.41952  Biso   1.000  C
  H4       1.0000 0.66762  0.34149  0.39769  Biso   1.000  H
  H5       1.0000 0.61469  0.32669  0.38817  Biso   1.000  H
  C10      1.0000 0.63337  0.15035  0.48091  Biso   1.000  C
  H6       1.0000 0.58801  0.19171  0.50818  Biso   1.000  H
  C11      1.0000 0.71047  0.17321  0.44956  Biso   1.000  C
  H7       1.0000 0.71639  0.23081  0.45298  Biso   1.000  H
  C12      1.0000 0.70360  0.32544  0.61689  Biso   1.000  C
  H8       1.0000 0.61779  0.38899  0.54618  Biso   1.000  H
  H9       1.0000 0.67090  0.40339  0.55438  Biso   1.000  H
  C13      1.0000 0.64792  0.40612  0.46212  Biso   1.000  C
  H10      1.0000 0.61772  0.39420  0.37711  Biso   1.000  H
  H11      1.0000 0.58480  0.38299  0.43517  Biso   1.000  H
  C14      1.0000 0.59953  0.11828  0.49014  Biso   1.000  C
  C15      1.0000 0.67858  0.14295  0.45958  Biso   1.000  C
  C16      1.0000 0.75864  0.16686  0.42571  Biso   1.000  C
  C17      1.0000 0.70705  0.30885  0.68005  Biso   1.000  C
  H12      1.0000 0.73190  0.33250  0.59618  Biso   1.000  H
  H13      1.0000 0.63509  0.43231  0.46511  Biso   1.000  H
  H14      1.0000 0.68020  0.40780  0.44468  Biso   1.000  H
  N3       1.0000 0.55714  0.12394  0.50387  Biso   1.000  N
  H15      1.0000 0.61039  0.09289  0.48550  Biso   1.000  H
  H16      1.0000 0.68809  0.11751  0.45171  Biso   1.000  H
  N4       1.0000 0.77429  0.13439  0.41099  Biso   1.000  N
  H17      1.0000 0.77891  0.18821  0.42111  Biso   1.000  H
  C18      1.0000 0.66582  0.29931  0.71384  Biso   1.000  C
  C19      1.0000 0.75142  0.30040  0.70554  Biso   1.000  C
  C20      1.0000 0.52539  0.09153  0.51057  Biso   1.000  C
  C21      1.0000 0.82253  0.13368  0.38531  Biso   1.000  C
  C22      1.0000 0.66980  0.28116  0.77166  Biso   1.000  C
  H18      1.0000 0.63562  0.30521  0.69720  Biso   1.000  H
  C23      1.0000 0.75512  0.28210  0.76238  Biso   1.000  C
  H19      1.0000 0.77912  0.30740  0.68338  Biso   1.000  H
  C24      1.0000 0.48860  0.09198  0.45827  Biso   1.000  C
  H20      1.0000 0.54431  0.06759  0.50677  Biso   1.000  H
  C25      1.0000 0.50273  0.09224  0.57378  Biso   1.000  C
  H21      1.0000 0.83599  0.16000  0.38588  Biso   1.000  H
  C26      1.0000 0.85323  0.10729  0.42571  Biso   1.000  C
  C27      1.0000 0.81982  0.11959  0.31892  Biso   1.000  C
  C28      1.0000 0.62653  0.27310  0.80863  Biso   1.000  C
  C29      1.0000 0.71336  0.27302  0.79589  Biso   1.000  C
  C30      1.0000 0.79994  0.27344  0.79214  Biso   1.000  C
  C31      1.0000 0.45276  0.06053  0.46577  Biso   1.000  C
  H22      1.0000 0.47221  0.11680  0.45841  Biso   1.000  H
  H23      1.0000 0.50460  0.08911  0.41727  Biso   1.000  H
  N5       1.0000 0.53850  0.08623  0.62256  Biso   1.000  N
  H24      1.0000 0.48712  0.11740  0.58039  Biso   1.000  H
  C32      1.0000 0.46591  0.05994  0.58090  Biso   1.000  C
  N6       1.0000 0.85964  0.12420  0.48878  Biso   1.000  N
  H25      1.0000 0.83719  0.08211  0.43002  Biso   1.000  H
  C33      1.0000 0.90182  0.10152  0.39572  Biso   1.000  C
  C34      1.0000 0.86873  0.11506  0.28958  Biso   1.000  C
  H26      1.0000 0.80111  0.13769  0.29361  Biso   1.000  H
  H27      1.0000 0.80340  0.09469  0.31821  Biso   1.000  H
  N7       1.0000 0.62801  0.25916  0.86294  Biso   1.000  N
  H28      1.0000 0.59672  0.27860  0.79059  Biso   1.000  H
  H29      1.0000 0.71572  0.26109  0.83567  Biso   1.000  H
  N8       1.0000 0.83980  0.27931  0.76805  Biso   1.000  N
  H30      1.0000 0.79910  0.26260  0.83290  Biso   1.000  H
  C35      1.0000 0.42936  0.06247  0.52889  Biso   1.000  C
  H31      1.0000 0.42859  0.06270  0.43250  Biso   1.000  H
  H32      1.0000 0.46862  0.03560  0.46099  Biso   1.000  H
  C36      1.0000 0.54079  0.11023  0.66548  Biso   1.000  C
  H33      1.0000 0.48190  0.03489  0.57898  Biso   1.000  H
  H34      1.0000 0.45012  0.06210  0.62209  Biso   1.000  H
  C37      1.0000 0.84512  0.10379  0.53339  Biso   1.000  C
  H35      1.0000 0.91930  0.12591  0.39628  Biso   1.000  H
  H36      1.0000 0.91990  0.08279  0.42069  Biso   1.000  H
  C38      1.0000 0.89784  0.08771  0.32969  Biso   1.000  C
  H37      1.0000 0.86581  0.10490  0.24647  Biso   1.000  H
  H38      1.0000 0.88459  0.14011  0.28738  Biso   1.000  H
  C39      1.0000 0.58301  0.25483  0.89574  Biso   1.000  C
  C40      1.0000 0.88135  0.27111  0.80559  Biso   1.000  C
  H39      1.0000 0.40660  0.04130  0.53311  Biso   1.000  H
  H40      1.0000 0.41181  0.08669  0.53268  Biso   1.000  H
  C41      1.0000 0.57392  0.10675  0.71876  Biso   1.000  C
  H41      1.0000 0.52039  0.13160  0.66398  Biso   1.000  H
  C42      1.0000 0.84970  0.11720  0.60119  Biso   1.000  C
  H42      1.0000 0.83110  0.07980  0.52467  Biso   1.000  H
  H43      1.0000 0.88279  0.06230  0.32941  Biso   1.000  H
  H44      1.0000 0.92970  0.08510  0.31137  Biso   1.000  H
  C43      1.0000 0.57737  0.21379  0.91879  Biso   1.000  C
  H45      1.0000 0.55651  0.26121  0.86669  Biso   1.000  H
  C44      1.0000 0.58255  0.28227  0.95141  Biso   1.000  C
  C45      1.0000 0.91581  0.24521  0.77100  Biso   1.000  C
  H46      1.0000 0.87060  0.25719  0.84401  Biso   1.000  H
  C46      1.0000 0.90450  0.30671  0.82648  Biso   1.000  C
  C47      1.0000 0.57307  0.13291  0.76646  Biso   1.000  C
  C48      1.0000 0.60683  0.07730  0.72040  Biso   1.000  C
  C49      1.0000 0.83180  0.09150  0.64641  Biso   1.000  C
  C50      1.0000 0.87046  0.15149  0.61839  Biso   1.000  C
  N9       1.0000 0.57617  0.18735  0.86613  Biso   1.000  N
  H47      1.0000 0.60461  0.20719  0.94649  Biso   1.000  H
  C51      1.0000 0.53149  0.20918  0.95600  Biso   1.000  C
  H48      1.0000 0.58579  0.30871  0.93609  Biso   1.000  H
  H49      1.0000 0.60972  0.27669  0.97919  Biso   1.000  H
  C52      1.0000 0.53663  0.27831  0.98857  Biso   1.000  C
  N10      1.0000 0.89417  0.20961  0.75568  Biso   1.000  N
  H50      1.0000 0.92660  0.25810  0.73178  Biso   1.000  H
  C53      1.0000 0.95849  0.23630  0.81257  Biso   1.000  C
  H51      1.0000 0.88181  0.32211  0.85099  Biso   1.000  H
  H52      1.0000 0.91412  0.32180  0.78937  Biso   1.000  H
  C54      1.0000 0.94834  0.29809  0.86720  Biso   1.000  C
  C55      1.0000 0.60507  0.13029  0.81730  Biso   1.000  C
  H53      1.0000 0.55080  0.15309  0.76538  Biso   1.000  H
  H54      1.0000 0.60729  0.05900  0.68769  Biso   1.000  H
  C56      1.0000 0.63904  0.07448  0.76950  Biso   1.000  C
  C57      1.0000 0.83511  0.10519  0.71178  Biso   1.000  C
  H55      1.0000 0.81869  0.06751  0.63568  Biso   1.000  H
  C58      1.0000 0.87222  0.16279  0.68047  Biso   1.000  C
  H56      1.0000 0.88371  0.16740  0.58699  Biso   1.000  H
  C59      1.0000 0.60352  0.15932  0.86688  Biso   1.000  C
  H57      1.0000 0.50432  0.21371  0.92798  Biso   1.000  H
  H58      1.0000 0.52930  0.18280  0.97207  Biso   1.000  H
  C60      1.0000 0.52955  0.23699  0.01059  Biso   1.000  C
  H59      1.0000 0.50971  0.28611  0.96200  Biso   1.000  H
  H60      1.0000 0.53762  0.29539  0.02549  Biso   1.000  H
  C61      1.0000 0.89284  0.20019  0.69978  Biso   1.000  C
  C62      1.0000 0.98270  0.27359  0.83337  Biso   1.000  C
  H61      1.0000 0.98122  0.22039  0.78900  Biso   1.000  H
  H62      1.0000 0.94820  0.22190  0.84987  Biso   1.000  H
  H63      1.0000 0.96381  0.32240  0.87897  Biso   1.000  H
  H64      1.0000 0.93830  0.28520  0.90619  Biso   1.000  H
  C63      1.0000 0.63664  0.10098  0.81828  Biso   1.000  C
  C64      1.0000 0.67368  0.04346  0.76627  Biso   1.000  C
  C65      1.0000 0.81689  0.07730  0.76088  Biso   1.000  C
  C66      1.0000 0.85421  0.13741  0.72607  Biso   1.000  C
  H65      1.0000 0.62441  0.15670  0.90141  Biso   1.000  H
  H66      1.0000 0.55429  0.23041  0.04138  Biso   1.000  H
  H67      1.0000 0.49861  0.23471  0.03177  Biso   1.000  H
  H68      1.0000 0.90499  0.21689  0.66881  Biso   1.000  H
  H69      1.0000 0.99489  0.28730  0.79631  Biso   1.000  H
  H70      1.0000 0.00962  0.26770  0.86130  Biso   1.000  H
  H71      1.0000 0.65750  0.09850  0.85287  Biso   1.000  H
  N11      1.0000 0.70635  0.03925  0.80793  Biso   1.000  N
  H72      1.0000 0.67199  0.02590  0.73249  Biso   1.000  H
  N12      1.0000 0.79956  0.04391  0.74687  Biso   1.000  N
  H73      1.0000 0.81820  0.08461  0.80380  Biso   1.000  H
  H74      1.0000 0.85629  0.14429  0.76908  Biso   1.000  H
  C67      1.0000 0.73697  0.00709  0.79799  Biso   1.000  C
  C68      1.0000 0.78891  0.02009  0.80188  Biso   1.000  C
  H75      1.0000 0.73042  0.99499  0.75638  Biso   1.000  H
  C69      1.0000 0.72816  0.97848  0.85151  Biso   1.000  C
  H76      1.0000 0.79501  0.03441  0.84167  Biso   1.000  H
  C70      1.0000 0.82162  0.98529  0.79650  Biso   1.000  C
  H77      1.0000 0.73331  0.99129  0.89227  Biso   1.000  H
  H78      1.0000 0.69500  0.96980  0.85010  Biso   1.000  H
  C71      1.0000 0.76100  0.94371  0.84659  Biso   1.000  C
  C72      1.0000 0.81182  0.95620  0.84879  Biso   1.000  C
  H79      1.0000 0.85481  0.99380  0.79907  Biso   1.000  H
  H80      1.0000 0.81689  0.97299  0.75517  Biso   1.000  H
  H81      1.0000 0.75459  0.92600  0.88168  Biso   1.000  H
  H82      1.0000 0.75491  0.92999  0.80690  Biso   1.000  H
  H83      1.0000 0.83272  0.93380  0.84349  Biso   1.000  H
  H84      1.0000 0.81869  0.96770  0.89007  Biso   1.000  H
  C73      1.0000 0.70007  0.22654  0.29216  Biso   1.000  C
  N13      1.0000 0.66022  0.22071  0.26803  Biso   1.000  N
  C74      1.0000 0.74490  0.21792  0.26236  Biso   1.000  C
  H85      1.0000 0.70092  0.23741  0.33288  Biso   1.000  H
  C75      1.0000 0.61867  0.22890  0.30561  Biso   1.000  C
  C76      1.0000 0.78666  0.22700  0.29591  Biso   1.000  C
  C77      1.0000 0.74860  0.19959  0.20552  Biso   1.000  C
  C78      1.0000 0.59552  0.19330  0.32651  Biso   1.000  C
  C79      1.0000 0.58417  0.25480  0.27098  Biso   1.000  C
  H86      1.0000 0.62942  0.24279  0.34399  Biso   1.000  H
  C80      1.0000 0.83021  0.21883  0.27164  Biso   1.000  C
  H87      1.0000 0.78430  0.23889  0.33569  Biso   1.000  H
  C81      1.0000 0.79297  0.19114  0.18008  Biso   1.000  C
  H88      1.0000 0.72090  0.19259  0.18340  Biso   1.000  H
  C82      1.0000 0.55168  0.20190  0.36718  Biso   1.000  C
  H89      1.0000 0.61821  0.17790  0.35101  Biso   1.000  H
  H90      1.0000 0.58590  0.17819  0.28940  Biso   1.000  H
  C83      1.0000 0.54153  0.26371  0.31259  Biso   1.000  C
  N14      1.0000 0.60581  0.29041  0.25570  Biso   1.000  N
  H91      1.0000 0.57339  0.24191  0.23181  Biso   1.000  H
  C84      1.0000 0.83420  0.20067  0.21381  Biso   1.000  C
  C85      1.0000 0.87349  0.22691  0.30861  Biso   1.000  C
  C86      1.0000 0.79642  0.17457  0.11691  Biso   1.000  C
  C87      1.0000 0.51732  0.22640  0.33340  Biso   1.000  C
  H92      1.0000 0.53621  0.17759  0.37899  Biso   1.000  H
  H93      1.0000 0.56169  0.21479  0.40621  Biso   1.000  H
  H94      1.0000 0.51880  0.27959  0.28897  Biso   1.000  H
  H95      1.0000 0.55182  0.27811  0.34989  Biso   1.000  H
  C88      1.0000 0.60718  0.29980  0.19980  Biso   1.000  C
  H96      1.0000 0.86440  0.19481  0.19718  Biso   1.000  H
  N15      1.0000 0.87197  0.24083  0.36296  Biso   1.000  N
  H97      1.0000 0.90330  0.22139  0.29061  Biso   1.000  H
  N16      1.0000 0.83497  0.16922  0.08856  Biso   1.000  N
  H98      1.0000 0.76812  0.16749  0.09620  Biso   1.000  H
  H99      1.0000 0.49040  0.23229  0.36128  Biso   1.000  H
  H100     1.0000 0.50509  0.21271  0.29628  Biso   1.000  H
  C89      1.0000 0.62780  0.33719  0.18050  Biso   1.000  C
  H101     1.0000 0.59499  0.28309  0.16878  Biso   1.000  H
  C90      1.0000 0.91701  0.24518  0.39576  Biso   1.000  C
  C91      1.0000 0.83286  0.15343  0.02619  Biso   1.000  C
  C92      1.0000 0.64580  0.36261  0.22609  Biso   1.000  C
  C93      1.0000 0.62956  0.34849  0.11841  Biso   1.000  C
  C94      1.0000 0.92261  0.28622  0.41877  Biso   1.000  C
  H102     1.0000 0.94351  0.23881  0.36671  Biso   1.000  H
  C95      1.0000 0.91743  0.21772  0.45143  Biso   1.000  C
  H103     1.0000 0.79942  0.15391  0.01139  Biso   1.000  H
  C96      1.0000 0.85030  0.11182  0.02741  Biso   1.000  C
  C97      1.0000 0.86313  0.17671  0.98116  Biso   1.000  C
  H104     1.0000 0.64369  0.35569  0.26911  Biso   1.000  H
  C98      1.0000 0.66490  0.39480  0.21180  Biso   1.000  C
  C99      1.0000 0.65028  0.38279  0.10121  Biso   1.000  C
  H105     1.0000 0.61631  0.33261  0.08702  Biso   1.000  H
  N17      1.0000 0.92385  0.31263  0.36610  Biso   1.000  N
  H106     1.0000 0.89541  0.29280  0.44651  Biso   1.000  H
  C100     1.0000 0.96853  0.29080  0.45598  Biso   1.000  C
  H107     1.0000 0.91419  0.19131  0.43611  Biso   1.000  H
  H108     1.0000 0.89030  0.22330  0.47917  Biso   1.000  H
  C101     1.0000 0.96339  0.22170  0.48859  Biso   1.000  C
  H109     1.0000 0.88219  0.11099  0.04620  Biso   1.000  H
  H110     1.0000 0.82912  0.09659  0.05440  Biso   1.000  H
  C102     1.0000 0.85210  0.09389  0.96209  Biso   1.000  C
  N18      1.0000 0.84283  0.21419  0.97493  Biso   1.000  N
  H111     1.0000 0.89590  0.17879  0.99808  Biso   1.000  H
  C103     1.0000 0.86443  0.15824  0.91603  Biso   1.000  C
  C104     1.0000 0.66822  0.40849  0.14638  Biso   1.000  C
  C105     1.0000 0.68309  0.42269  0.26091  Biso   1.000  C
  C106     1.0000 0.65490  0.39619  0.03341  Biso   1.000  C
  C107     1.0000 0.89650  0.34069  0.36690  Biso   1.000  C
  C108     1.0000 0.97047  0.26300  0.51061  Biso   1.000  C
  H112     1.0000 0.99570  0.28631  0.42800  Biso   1.000  H
  H113     1.0000 0.97072  0.31719  0.47210  Biso   1.000  H
  H114     1.0000 0.99031  0.21391  0.46197  Biso   1.000  H
  H115     1.0000 0.96240  0.20460  0.52551  Biso   1.000  H
  H116     1.0000 0.86489  0.06771  0.96509  Biso   1.000  H
  H117     1.0000 0.81982  0.09221  0.94471  Biso   1.000  H
  C109     1.0000 0.88237  0.11717  0.91954  Biso   1.000  C
  C110     1.0000 0.86683  0.24282  0.99128  Biso   1.000  C
  H118     1.0000 0.83240  0.15849  0.89771  Biso   1.000  H
  H119     1.0000 0.88529  0.17329  0.88820  Biso   1.000  H
  H120     1.0000 0.68129  0.43251  0.13570  Biso   1.000  H
  N19      1.0000 0.70046  0.45610  0.24690  Biso   1.000  N
  H121     1.0000 0.68182  0.41540  0.30378  Biso   1.000  H
  H122     1.0000 0.66892  0.42021  0.02469  Biso   1.000  H
  N20      1.0000 0.64038  0.37579  0.98880  Biso   1.000  N
  C111     1.0000 0.89495  0.36972  0.31728  Biso   1.000  C
  H123     1.0000 0.87560  0.34331  0.40139  Biso   1.000  H
  H124     1.0000 0.94570  0.26960  0.54140  Biso   1.000  H
  H125     1.0000 0.00141  0.26530  0.53179  Biso   1.000  H
  H126     1.0000 0.88230  0.10579  0.87709  Biso   1.000  H
  H127     1.0000 0.91521  0.11700  0.93520  Biso   1.000  H
  H128     1.0000 0.89692  0.23869  0.00970  Biso   1.000  H
  C112     1.0000 0.85020  0.28247  0.98313  Biso   1.000  C
  C113     1.0000 0.71107  0.47989  0.30191  Biso   1.000  C
  C114     1.0000 0.64679  0.39269  0.92568  Biso   1.000  C
  C115     1.0000 0.86338  0.39904  0.31831  Biso   1.000  C
  C116     1.0000 0.92691  0.36708  0.26648  Biso   1.000  C
  C117     1.0000 0.80452  0.28978  0.96069  Biso   1.000  C
  C118     1.0000 0.88103  0.31289  0.99306  Biso   1.000  C
  H129     1.0000 0.70501  0.46561  0.34169  Biso   1.000  H
  C119     1.0000 0.76305  0.49293  0.29802  Biso   1.000  C
  C120     1.0000 0.67840  0.51470  0.29652  Biso   1.000  C
  C121     1.0000 0.67749  0.36631  0.88529  Biso   1.000  C
  H130     1.0000 0.66279  0.41791  0.92999  Biso   1.000  H
  C122     1.0000 0.59816  0.39847  0.89569  Biso   1.000  C
  C123     1.0000 0.86094  0.42553  0.26948  Biso   1.000  C
  H131     1.0000 0.84251  0.40151  0.35289  Biso   1.000  H
  C124     1.0000 0.92610  0.39326  0.21878  Biso   1.000  C
  H132     1.0000 0.94922  0.34690  0.26540  Biso   1.000  H
  C125     1.0000 0.78951  0.32681  0.94953  Biso   1.000  C
  H133     1.0000 0.78359  0.26920  0.95300  Biso   1.000  H
  C126     1.0000 0.86665  0.34963  0.98093  Biso   1.000  C
  H134     1.0000 0.91201  0.30831  0.00820  Biso   1.000  H
  N21      1.0000 0.79367  0.46074  0.30795  Biso   1.000  N
  H135     1.0000 0.76960  0.50499  0.25641  Biso   1.000  H
  C127     1.0000 0.77182  0.52153  0.35148  Biso   1.000  C
  C128     1.0000 0.68820  0.54381  0.34881  Biso   1.000  C
  H136     1.0000 0.64521  0.50619  0.29910  Biso   1.000  H
  H137     1.0000 0.68309  0.52699  0.25519  Biso   1.000  H
  N22      1.0000 0.72569  0.36563  0.91102  Biso   1.000  N
  H138     1.0000 0.66399  0.34001  0.88590  Biso   1.000  H
  C129     1.0000 0.68020  0.38043  0.81889  Biso   1.000  C
  H139     1.0000 0.58072  0.37411  0.89630  Biso   1.000  H
  H140     1.0000 0.58012  0.41720  0.92072  Biso   1.000  H
  C130     1.0000 0.60218  0.41230  0.82972  Biso   1.000  C
  C131     1.0000 0.82634  0.45653  0.26629  Biso   1.000  C
  C132     1.0000 0.89315  0.42269  0.22037  Biso   1.000  C
  C133     1.0000 0.95923  0.38976  0.16550  Biso   1.000  C
  C134     1.0000 0.74138  0.33312  0.92568  Biso   1.000  C
  C135     1.0000 0.82144  0.35706  0.95961  Biso   1.000  C
  C136     1.0000 0.90048  0.38171  0.99016  Biso   1.000  C
  H141     1.0000 0.76671  0.50869  0.39230  Biso   1.000  H
  H142     1.0000 0.80502  0.53021  0.35008  Biso   1.000  H
  C137     1.0000 0.73901  0.55631  0.34661  Biso   1.000  C
  H143     1.0000 0.66730  0.56621  0.34352  Biso   1.000  H
  H144     1.0000 0.68129  0.53229  0.39009  Biso   1.000  H
  C138     1.0000 0.63125  0.38495  0.78961  Biso   1.000  C
  H145     1.0000 0.69891  0.36230  0.79359  Biso   1.000  H
  H146     1.0000 0.69662  0.40530  0.81819  Biso   1.000  H
  H147     1.0000 0.61719  0.43769  0.82939  Biso   1.000  H
  H148     1.0000 0.57032  0.41489  0.81140  Biso   1.000  H
  H149     1.0000 0.82799  0.47409  0.23251  Biso   1.000  H
  H150     1.0000 0.89269  0.44099  0.18771  Biso   1.000  H
  N23      1.0000 0.96148  0.41378  0.12258  Biso   1.000  N
  H151     1.0000 0.97960  0.36839  0.16400  Biso   1.000  H
  H152     1.0000 0.72111  0.31181  0.92109  Biso   1.000  H
  H153     1.0000 0.81189  0.38250  0.95169  Biso   1.000  H
  N24      1.0000 0.94288  0.37607  0.00389  Biso   1.000  N
  H154     1.0000 0.88959  0.40709  0.98552  Biso   1.000  H
  H155     1.0000 0.74539  0.57401  0.38171  Biso   1.000  H
  H156     1.0000 0.74511  0.57000  0.30687  Biso   1.000  H
  H157     1.0000 0.63421  0.39511  0.74650  Biso   1.000  H
  H158     1.0000 0.61539  0.35991  0.78740  Biso   1.000  H
  C139     1.0000 0.99725  0.40775  0.07375  Biso   1.000  C
  C140     1.0000 0.97463  0.40846  0.01054  Biso   1.000  C
  H159     1.0000 0.01290  0.38259  0.08041  Biso   1.000  H
  C141     1.0000 0.03411  0.44008  0.08088  Biso   1.000  C
  H160     1.0000 0.95570  0.43239  0.00679  Biso   1.000  H
  C142     1.0000 0.01142  0.40803  0.95825  Biso   1.000  C
  H161     1.0000 0.01811  0.46509  0.07900  Biso   1.000  H
  H162     1.0000 0.04990  0.43789  0.12211  Biso   1.000  H
  C143     1.0000 0.07062  0.43752  0.02891  Biso   1.000  C
  H163     1.0000 0.99542  0.41091  0.91730  Biso   1.000  H
  C144     1.0000 0.04722  0.43948  0.96579  Biso   1.000  C
  H164     1.0000 0.02780  0.38319  0.95839  Biso   1.000  H
  H165     1.0000 0.09342  0.45869  0.03308  Biso   1.000  H
  H166     1.0000 0.08821  0.41330  0.03271  Biso   1.000  H
  H167     1.0000 0.07140  0.43729  0.93252  Biso   1.000  H
  H168     1.0000 0.03140  0.46441  0.96101  Biso   1.000  H
  C145     1.0000 0.73901  0.44369  0.65339  Biso   1.000  C
  C146     1.0000 0.68820  0.45619  0.65119  Biso   1.000  C
  C147     1.0000 0.77182  0.47847  0.64847  Biso   1.000  C
  H169     1.0000 0.74539  0.42599  0.61829  Biso   1.000  H
  H170     1.0000 0.74511  0.43000  0.69308  Biso   1.000  H
  H171     1.0000 0.66730  0.43379  0.65648  Biso   1.000  H
  H172     1.0000 0.68129  0.46771  0.60991  Biso   1.000  H
  C148     1.0000 0.67840  0.48530  0.70348  Biso   1.000  C
  C149     1.0000 0.76305  0.50707  0.70198  Biso   1.000  C
  H173     1.0000 0.76671  0.49131  0.60770  Biso   1.000  H
  H174     1.0000 0.80502  0.46979  0.64988  Biso   1.000  H
  C150     1.0000 0.71107  0.52011  0.69809  Biso   1.000  C
  H175     1.0000 0.64521  0.49381  0.70090  Biso   1.000  H
  H176     1.0000 0.68309  0.47301  0.74481  Biso   1.000  H
  N25      1.0000 0.79367  0.53926  0.69205  Biso   1.000  N
  H177     1.0000 0.76960  0.49501  0.74359  Biso   1.000  H
  N26      1.0000 0.70046  0.54390  0.75310  Biso   1.000  N
  H178     1.0000 0.70501  0.53439  0.65831  Biso   1.000  H
  C151     1.0000 0.82634  0.54347  0.73371  Biso   1.000  C
  C152     1.0000 0.68309  0.57731  0.73909  Biso   1.000  C
  C153     1.0000 0.86094  0.57447  0.73047  Biso   1.000  C
  H179     1.0000 0.82799  0.52591  0.76749  Biso   1.000  H
  C154     1.0000 0.66490  0.60520  0.78820  Biso   1.000  C
  H180     1.0000 0.68182  0.58460  0.69617  Biso   1.000  H
  C155     1.0000 0.89315  0.57731  0.77958  Biso   1.000  C
  C156     1.0000 0.86338  0.60096  0.68169  Biso   1.000  C
  C157     1.0000 0.64580  0.63739  0.77391  Biso   1.000  C
  C158     1.0000 0.66822  0.59151  0.85357  Biso   1.000  C
  C159     1.0000 0.92610  0.60674  0.78122  Biso   1.000  C
  H181     1.0000 0.89269  0.55901  0.81229  Biso   1.000  H
  C160     1.0000 0.89495  0.63028  0.68268  Biso   1.000  C
  H182     1.0000 0.84251  0.59849  0.64711  Biso   1.000  H
  C161     1.0000 0.62780  0.66281  0.81950  Biso   1.000  C
  H183     1.0000 0.64369  0.64431  0.73089  Biso   1.000  H
  H184     1.0000 0.68129  0.56749  0.86430  Biso   1.000  H
  C162     1.0000 0.65028  0.61721  0.89879  Biso   1.000  C
  C163     1.0000 0.92691  0.63292  0.73352  Biso   1.000  C
  C164     1.0000 0.95923  0.61024  0.83450  Biso   1.000  C
  C165     1.0000 0.89650  0.65931  0.63310  Biso   1.000  C
  C166     1.0000 0.62956  0.65151  0.88159  Biso   1.000  C
  C167     1.0000 0.60718  0.70020  0.80020  Biso   1.000  C
  C168     1.0000 0.65490  0.60381  0.96659  Biso   1.000  C
  H185     1.0000 0.94922  0.65310  0.73460  Biso   1.000  H
  N27      1.0000 0.96148  0.58622  0.87742  Biso   1.000  N
  H186     1.0000 0.97960  0.63161  0.83600  Biso   1.000  H
  N28      1.0000 0.92385  0.68737  0.63385  Biso   1.000  N
  H187     1.0000 0.87560  0.65669  0.59861  Biso   1.000  H
  H188     1.0000 0.61631  0.66739  0.91298  Biso   1.000  H
  N29      1.0000 0.60581  0.70959  0.74430  Biso   1.000  N
  H189     1.0000 0.59499  0.71691  0.83117  Biso   1.000  H
  H190     1.0000 0.66892  0.57979  0.97531  Biso   1.000  H
  N30      1.0000 0.64038  0.62421  0.01120  Biso   1.000  N
  C169     1.0000 0.99725  0.59225  0.92620  Biso   1.000  C
  C170     1.0000 0.92261  0.71378  0.58118  Biso   1.000  C
  C171     1.0000 0.58417  0.74520  0.72897  Biso   1.000  C
  C172     1.0000 0.64679  0.60731  0.07427  Biso   1.000  C
  C173     1.0000 0.97463  0.59154  0.98941  Biso   1.000  C
  H191     1.0000 0.01290  0.61741  0.91959  Biso   1.000  H
  C174     1.0000 0.03411  0.55992  0.91908  Biso   1.000  C
  H192     1.0000 0.89541  0.70720  0.55349  Biso   1.000  H
  C175     1.0000 0.91701  0.75482  0.60424  Biso   1.000  C
  C176     1.0000 0.96853  0.70920  0.54398  Biso   1.000  C
  H193     1.0000 0.57339  0.75809  0.76819  Biso   1.000  H
  C177     1.0000 0.61867  0.77110  0.69439  Biso   1.000  C
  C178     1.0000 0.54153  0.73629  0.68741  Biso   1.000  C
  C179     1.0000 0.67749  0.63369  0.11466  Biso   1.000  C
  H194     1.0000 0.66279  0.58209  0.07001  Biso   1.000  H
  C180     1.0000 0.59816  0.60153  0.10431  Biso   1.000  C
  N31      1.0000 0.94288  0.62393  0.99611  Biso   1.000  N
  H195     1.0000 0.95570  0.56761  0.99321  Biso   1.000  H
  C181     1.0000 0.01142  0.59197  0.04170  Biso   1.000  C
  H196     1.0000 0.01811  0.53491  0.92100  Biso   1.000  H
  H197     1.0000 0.04990  0.56211  0.87789  Biso   1.000  H
  C182     1.0000 0.07062  0.56248  0.97109  Biso   1.000  C
  N32      1.0000 0.87197  0.75917  0.63704  Biso   1.000  N
  H198     1.0000 0.94351  0.76119  0.63329  Biso   1.000  H
  C183     1.0000 0.91743  0.78228  0.54857  Biso   1.000  C
  C184     1.0000 0.97047  0.73700  0.48939  Biso   1.000  C
  H199     1.0000 0.99570  0.71369  0.57200  Biso   1.000  H
  H200     1.0000 0.97072  0.68281  0.52790  Biso   1.000  H
  N33      1.0000 0.66022  0.77929  0.73192  Biso   1.000  N
  H201     1.0000 0.62942  0.75721  0.65597  Biso   1.000  H
  C185     1.0000 0.59552  0.80670  0.67349  Biso   1.000  C
  C186     1.0000 0.51732  0.77360  0.66660  Biso   1.000  C
  H202     1.0000 0.51880  0.72041  0.71098  Biso   1.000  H
  H203     1.0000 0.55182  0.72189  0.65011  Biso   1.000  H
  N34      1.0000 0.72569  0.63437  0.08898  Biso   1.000  N
  H204     1.0000 0.66399  0.65999  0.11410  Biso   1.000  H
  C187     1.0000 0.68020  0.61957  0.18111  Biso   1.000  C
  H205     1.0000 0.58072  0.62589  0.10370  Biso   1.000  H
  H206     1.0000 0.58012  0.58280  0.07928  Biso   1.000  H
  C188     1.0000 0.60218  0.58770  0.17028  Biso   1.000  C
  C189     1.0000 0.90048  0.61829  0.00984  Biso   1.000  C
  H207     1.0000 0.99542  0.58909  0.08270  Biso   1.000  H
  C190     1.0000 0.04722  0.56052  0.03421  Biso   1.000  C
  H208     1.0000 0.02780  0.61681  0.04156  Biso   1.000  H
  H209     1.0000 0.09342  0.54131  0.96687  Biso   1.000  H
  H210     1.0000 0.08821  0.58670  0.96729  Biso   1.000  H
  C191     1.0000 0.87349  0.77309  0.69139  Biso   1.000  C
  H211     1.0000 0.91419  0.80869  0.56389  Biso   1.000  H
  H212     1.0000 0.89030  0.77670  0.52078  Biso   1.000  H
  C192     1.0000 0.96339  0.77830  0.51141  Biso   1.000  C
  H213     1.0000 0.94570  0.73040  0.45860  Biso   1.000  H
  H214     1.0000 0.00141  0.73470  0.46821  Biso   1.000  H
  C193     1.0000 0.70007  0.77346  0.70784  Biso   1.000  C
  H215     1.0000 0.61821  0.82210  0.64899  Biso   1.000  H
  H216     1.0000 0.58590  0.82181  0.71060  Biso   1.000  H
  C194     1.0000 0.55168  0.79810  0.63277  Biso   1.000  C
  H217     1.0000 0.49040  0.76771  0.63868  Biso   1.000  H
  H218     1.0000 0.50509  0.78729  0.70367  Biso   1.000  H
  C195     1.0000 0.74138  0.66688  0.07432  Biso   1.000  C
  C196     1.0000 0.63125  0.61505  0.21039  Biso   1.000  C
  H219     1.0000 0.69891  0.63770  0.20636  Biso   1.000  H
  H220     1.0000 0.69662  0.59470  0.18176  Biso   1.000  H
  H221     1.0000 0.61719  0.56231  0.17056  Biso   1.000  H
  H222     1.0000 0.57032  0.58511  0.18860  Biso   1.000  H
  C197     1.0000 0.86665  0.65037  0.01907  Biso   1.000  C
  H223     1.0000 0.88959  0.59291  0.01448  Biso   1.000  H
  H224     1.0000 0.07140  0.56271  0.06748  Biso   1.000  H
  H225     1.0000 0.03140  0.53559  0.03899  Biso   1.000  H
  C198     1.0000 0.83021  0.78117  0.72832  Biso   1.000  C
  H226     1.0000 0.90330  0.77861  0.70939  Biso   1.000  H
  H227     1.0000 0.99031  0.78609  0.53798  Biso   1.000  H
  H228     1.0000 0.96240  0.79540  0.47449  Biso   1.000  H
  C199     1.0000 0.74490  0.78208  0.73764  Biso   1.000  C
  H229     1.0000 0.70092  0.76259  0.66707  Biso   1.000  H
  H230     1.0000 0.53621  0.82241  0.62101  Biso   1.000  H
  H231     1.0000 0.56169  0.78521  0.59379  Biso   1.000  H
  C200     1.0000 0.78951  0.67319  0.05042  Biso   1.000  C
  H232     1.0000 0.72111  0.68819  0.07886  Biso   1.000  H
  H233     1.0000 0.63421  0.60489  0.25350  Biso   1.000  H
  H234     1.0000 0.61539  0.64009  0.21260  Biso   1.000  H
  C201     1.0000 0.82144  0.64294  0.04039  Biso   1.000  C
  C202     1.0000 0.88103  0.68711  0.00694  Biso   1.000  C
  C203     1.0000 0.78666  0.77300  0.70409  Biso   1.000  C
  C204     1.0000 0.83420  0.79933  0.78614  Biso   1.000  C
  C205     1.0000 0.74860  0.80041  0.79448  Biso   1.000  C
  C206     1.0000 0.80452  0.71022  0.03931  Biso   1.000  C
  H235     1.0000 0.81189  0.61750  0.04826  Biso   1.000  H
  C207     1.0000 0.85020  0.71753  0.01687  Biso   1.000  C
  H236     1.0000 0.91201  0.69169  0.99180  Biso   1.000  H
  H237     1.0000 0.78430  0.76111  0.66431  Biso   1.000  H
  C208     1.0000 0.79297  0.80886  0.81992  Biso   1.000  C
  H238     1.0000 0.86440  0.80519  0.80277  Biso   1.000  H
  H239     1.0000 0.72090  0.80741  0.81660  Biso   1.000  H
  H240     1.0000 0.78359  0.73080  0.04700  Biso   1.000  H
  C209     1.0000 0.86683  0.75718  0.00872  Biso   1.000  C
  C210     1.0000 0.79642  0.82543  0.88309  Biso   1.000  C
  H241     1.0000 0.89692  0.76131  0.99030  Biso   1.000  H
  N35      1.0000 0.84283  0.78581  0.02507  Biso   1.000  N
  N36      1.0000 0.83497  0.83078  0.91144  Biso   1.000  N
  H242     1.0000 0.76812  0.83251  0.90380  Biso   1.000  H
  C211     1.0000 0.86313  0.82329  0.01884  Biso   1.000  C
  C212     1.0000 0.83286  0.84657  0.97381  Biso   1.000  C
  H243     1.0000 0.89590  0.82121  0.00187  Biso   1.000  H
  C213     1.0000 0.86443  0.84176  0.08397  Biso   1.000  C
  H244     1.0000 0.79942  0.84609  0.98857  Biso   1.000  H
  C214     1.0000 0.85030  0.88818  0.97254  Biso   1.000  C
  C215     1.0000 0.88237  0.88283  0.08046  Biso   1.000  C
  H245     1.0000 0.83240  0.84151  0.10229  Biso   1.000  H
  H246     1.0000 0.88529  0.82671  0.11180  Biso   1.000  H
  H247     1.0000 0.88219  0.88901  0.95380  Biso   1.000  H
  H248     1.0000 0.82912  0.90341  0.94560  Biso   1.000  H
  C216     1.0000 0.85210  0.90611  0.03791  Biso   1.000  C
  H249     1.0000 0.88230  0.89421  0.12286  Biso   1.000  H
  H250     1.0000 0.91521  0.88300  0.06480  Biso   1.000  H
  H251     1.0000 0.86489  0.93229  0.03486  Biso   1.000  H
  H252     1.0000 0.81982  0.90779  0.05529  Biso   1.000  H
  C217     1.0000 0.46337  0.27831  0.51141  Biso   1.000  C
  C218     1.0000 0.41745  0.28227  0.54857  Biso   1.000  C
  H253     1.0000 0.49029  0.28611  0.53798  Biso   1.000  H
  H254     1.0000 0.46242  0.29539  0.47449  Biso   1.000  H
  C219     1.0000 0.47049  0.23699  0.48939  Biso   1.000  C
  C220     1.0000 0.41703  0.25483  0.60424  Biso   1.000  C
  H255     1.0000 0.41421  0.30871  0.56389  Biso   1.000  H
  H256     1.0000 0.39032  0.27669  0.52078  Biso   1.000  H
  C221     1.0000 0.46851  0.20918  0.54398  Biso   1.000  C
  H257     1.0000 0.44571  0.23041  0.45860  Biso   1.000  H
  H258     1.0000 0.50139  0.23471  0.46821  Biso   1.000  H
  N37      1.0000 0.37199  0.25916  0.63704  Biso   1.000  N
  C222     1.0000 0.42263  0.21379  0.58118  Biso   1.000  C
  H259     1.0000 0.44349  0.26121  0.63329  Biso   1.000  H
  H260     1.0000 0.49572  0.21371  0.57200  Biso   1.000  H
  H261     1.0000 0.47070  0.18280  0.52790  Biso   1.000  H
  C223     1.0000 0.37347  0.27310  0.69139  Biso   1.000  C
  N38      1.0000 0.42383  0.18735  0.63385  Biso   1.000  N
  H262     1.0000 0.39539  0.20719  0.55349  Biso   1.000  H
  C224     1.0000 0.33020  0.28116  0.72832  Biso   1.000  C
  H263     1.0000 0.40332  0.27860  0.70939  Biso   1.000  H
  C225     1.0000 0.39652  0.15932  0.63310  Biso   1.000  C
  C226     1.0000 0.33418  0.29931  0.78614  Biso   1.000  C
  C227     1.0000 0.28664  0.27302  0.70409  Biso   1.000  C
  C228     1.0000 0.39493  0.13029  0.68268  Biso   1.000  C
  H264     1.0000 0.37559  0.15670  0.59861  Biso   1.000  H
  C229     1.0000 0.29295  0.30885  0.81992  Biso   1.000  C
  H265     1.0000 0.36441  0.30521  0.80277  Biso   1.000  H
  H266     1.0000 0.28431  0.26109  0.66431  Biso   1.000  H
  C230     1.0000 0.24488  0.28210  0.73764  Biso   1.000  C
  C231     1.0000 0.42693  0.13291  0.73352  Biso   1.000  C
  C232     1.0000 0.36336  0.10098  0.68169  Biso   1.000  C
  C233     1.0000 0.24862  0.30040  0.79448  Biso   1.000  C
  C234     1.0000 0.29644  0.32544  0.88309  Biso   1.000  C
  C235     1.0000 0.20006  0.27344  0.70784  Biso   1.000  C
  H267     1.0000 0.44920  0.15309  0.73460  Biso   1.000  H
  C236     1.0000 0.42608  0.10675  0.78122  Biso   1.000  C
  C237     1.0000 0.36096  0.07448  0.73047  Biso   1.000  C
  H268     1.0000 0.34250  0.09850  0.64711  Biso   1.000  H
  H269     1.0000 0.22092  0.30740  0.81660  Biso   1.000  H
  N39      1.0000 0.33495  0.33079  0.91144  Biso   1.000  N
  H270     1.0000 0.26810  0.33250  0.90380  Biso   1.000  H
  N40      1.0000 0.16020  0.27931  0.73192  Biso   1.000  N
  H271     1.0000 0.20090  0.26260  0.66707  Biso   1.000  H
  C238     1.0000 0.39317  0.07730  0.77958  Biso   1.000  C
  C239     1.0000 0.45921  0.11023  0.83450  Biso   1.000  C
  C240     1.0000 0.32636  0.04346  0.73371  Biso   1.000  C
  C241     1.0000 0.33284  0.34659  0.97381  Biso   1.000  C
  C242     1.0000 0.11865  0.27111  0.69439  Biso   1.000  C
  H272     1.0000 0.39271  0.05900  0.81229  Biso   1.000  H
  N41      1.0000 0.46150  0.08623  0.87742  Biso   1.000  N
  H273     1.0000 0.47961  0.13160  0.83600  Biso   1.000  H
  N42      1.0000 0.29365  0.03925  0.69205  Biso   1.000  N
  H274     1.0000 0.32801  0.02590  0.76749  Biso   1.000  H
  H275     1.0000 0.29940  0.34610  0.98857  Biso   1.000  H
  C243     1.0000 0.35028  0.38819  0.97254  Biso   1.000  C
  C244     1.0000 0.36311  0.32328  0.01884  Biso   1.000  C
  C245     1.0000 0.08419  0.24521  0.72897  Biso   1.000  C
  H276     1.0000 0.12940  0.25719  0.65597  Biso   1.000  H
  C246     1.0000 0.09550  0.30671  0.67349  Biso   1.000  C
  C247     1.0000 0.49727  0.09224  0.92620  Biso   1.000  C
  C248     1.0000 0.26303  0.00709  0.70198  Biso   1.000  C
  H277     1.0000 0.38221  0.38899  0.95380  Biso   1.000  H
  H278     1.0000 0.32910  0.40339  0.94560  Biso   1.000  H
  C249     1.0000 0.35208  0.40612  0.03791  Biso   1.000  C
  N43      1.0000 0.34285  0.28582  0.02507  Biso   1.000  N
  H279     1.0000 0.39592  0.32120  0.00187  Biso   1.000  H
  C250     1.0000 0.36441  0.34175  0.08397  Biso   1.000  C
  N44      1.0000 0.10583  0.20961  0.74430  Biso   1.000  N
  H280     1.0000 0.07340  0.25810  0.76819  Biso   1.000  H
  C251     1.0000 0.04151  0.23630  0.68741  Biso   1.000  C
  H281     1.0000 0.11819  0.32211  0.64899  Biso   1.000  H
  H282     1.0000 0.08591  0.32180  0.71060  Biso   1.000  H
  C252     1.0000 0.05170  0.29809  0.63277  Biso   1.000  C
  C253     1.0000 0.47461  0.09153  0.98941  Biso   1.000  C
  H283     1.0000 0.51292  0.11740  0.91959  Biso   1.000  H
  C254     1.0000 0.53409  0.05994  0.91908  Biso   1.000  C
  C255     1.0000 0.21109  0.02009  0.69809  Biso   1.000  C
  H284     1.0000 0.26958  0.99499  0.74359  Biso   1.000  H
  C256     1.0000 0.27184  0.97848  0.64847  Biso   1.000  C
  H285     1.0000 0.36491  0.43231  0.03486  Biso   1.000  H
  H286     1.0000 0.31980  0.40780  0.05529  Biso   1.000  H
  C257     1.0000 0.38239  0.38282  0.08046  Biso   1.000  C
  C258     1.0000 0.36685  0.25716  0.00872  Biso   1.000  C
  H287     1.0000 0.33242  0.34149  0.10229  Biso   1.000  H
  H288     1.0000 0.38531  0.32669  0.11180  Biso   1.000  H
  C259     1.0000 0.10716  0.20019  0.80020  Biso   1.000  C
  C260     1.0000 0.01730  0.27359  0.66660  Biso   1.000  C
  H289     1.0000 0.01878  0.22039  0.71098  Biso   1.000  H
  H290     1.0000 0.05180  0.22190  0.65011  Biso   1.000  H
  H291     1.0000 0.03619  0.32240  0.62101  Biso   1.000  H
  H292     1.0000 0.06170  0.28520  0.59379  Biso   1.000  H
  N45      1.0000 0.44289  0.12394  0.99611  Biso   1.000  N
  H293     1.0000 0.45569  0.06759  0.99321  Biso   1.000  H
  C261     1.0000 0.51144  0.09198  0.04170  Biso   1.000  C
  H294     1.0000 0.51810  0.03489  0.92100  Biso   1.000  H
  H295     1.0000 0.54992  0.06210  0.87789  Biso   1.000  H
  C262     1.0000 0.57064  0.06247  0.97109  Biso   1.000  C
  N46      1.0000 0.20044  0.04391  0.75310  Biso   1.000  N
  H296     1.0000 0.20499  0.03441  0.65831  Biso   1.000  H
  C263     1.0000 0.17838  0.98529  0.70348  Biso   1.000  C
  H297     1.0000 0.26669  0.99129  0.60770  Biso   1.000  H
  H298     1.0000 0.30500  0.96980  0.64988  Biso   1.000  H
  C264     1.0000 0.23900  0.94371  0.65339  Biso   1.000  C
  H299     1.0000 0.38232  0.39420  0.12286  Biso   1.000  H
  H300     1.0000 0.41520  0.38299  0.06480  Biso   1.000  H
  H301     1.0000 0.39691  0.26129  0.99030  Biso   1.000  H
  C265     1.0000 0.35018  0.21752  0.01687  Biso   1.000  C
  C266     1.0000 0.12778  0.16279  0.81950  Biso   1.000  C
  H302     1.0000 0.09501  0.21689  0.83117  Biso   1.000  H
  H303     1.0000 0.00511  0.28730  0.70367  Biso   1.000  H
  H304     1.0000 0.99041  0.26770  0.63868  Biso   1.000  H
  C267     1.0000 0.40047  0.11828  0.00984  Biso   1.000  C
  C268     1.0000 0.54724  0.06053  0.03421  Biso   1.000  C
  H305     1.0000 0.52779  0.11680  0.04156  Biso   1.000  H
  H306     1.0000 0.49540  0.08911  0.08270  Biso   1.000  H
  H307     1.0000 0.59340  0.04130  0.96687  Biso   1.000  H
  H308     1.0000 0.58819  0.08669  0.96729  Biso   1.000  H
  C269     1.0000 0.18311  0.07730  0.73909  Biso   1.000  C
  C270     1.0000 0.18822  0.95620  0.65119  Biso   1.000  C
  H309     1.0000 0.14519  0.99380  0.70090  Biso   1.000  H
  H310     1.0000 0.18311  0.97299  0.74481  Biso   1.000  H
  H311     1.0000 0.24541  0.92600  0.61829  Biso   1.000  H
  H312     1.0000 0.24509  0.92999  0.69308  Biso   1.000  H
  C271     1.0000 0.30451  0.21021  0.03931  Biso   1.000  C
  C272     1.0000 0.38101  0.18710  0.00694  Biso   1.000  C
  C273     1.0000 0.14579  0.13741  0.77391  Biso   1.000  C
  C274     1.0000 0.12954  0.15149  0.88159  Biso   1.000  C
  C275     1.0000 0.36663  0.15035  0.01907  Biso   1.000  C
  H313     1.0000 0.38961  0.09289  0.01448  Biso   1.000  H
  H314     1.0000 0.57141  0.06270  0.06748  Biso   1.000  H
  H315     1.0000 0.53142  0.03560  0.03899  Biso   1.000  H
  C276     1.0000 0.16489  0.10519  0.78820  Biso   1.000  C
  H316     1.0000 0.18180  0.08461  0.69617  Biso   1.000  H
  H317     1.0000 0.16732  0.93380  0.65648  Biso   1.000  H
  H318     1.0000 0.18131  0.96770  0.60991  Biso   1.000  H
  H319     1.0000 0.28361  0.23081  0.04700  Biso   1.000  H
  C277     1.0000 0.28953  0.17321  0.05042  Biso   1.000  C
  H320     1.0000 0.41199  0.19171  0.99180  Biso   1.000  H
  H321     1.0000 0.14371  0.14429  0.73089  Biso   1.000  H
  C278     1.0000 0.15030  0.11720  0.89879  Biso   1.000  C
  H322     1.0000 0.11629  0.16740  0.91298  Biso   1.000  H
  C279     1.0000 0.32142  0.14295  0.04039  Biso   1.000  C
  C280     1.0000 0.16820  0.09150  0.85357  Biso   1.000  C
  C281     1.0000 0.24136  0.16686  0.07432  Biso   1.000  C
  C282     1.0000 0.15491  0.10379  0.96659  Biso   1.000  C
  H323     1.0000 0.31191  0.11751  0.04826  Biso   1.000  H
  H324     1.0000 0.18131  0.06751  0.86430  Biso   1.000  H
  N47      1.0000 0.22571  0.13439  0.08898  Biso   1.000  N
  H325     1.0000 0.22109  0.18821  0.07886  Biso   1.000  H
  H326     1.0000 0.16890  0.07980  0.97531  Biso   1.000  H
  N48      1.0000 0.14036  0.12420  0.01120  Biso   1.000  N
  C283     1.0000 0.17747  0.13368  0.11466  Biso   1.000  C
  C284     1.0000 0.14677  0.10729  0.07427  Biso   1.000  C
  H327     1.0000 0.16401  0.16000  0.11410  Biso   1.000  H
  C285     1.0000 0.18018  0.11959  0.18111  Biso   1.000  C
  H328     1.0000 0.16281  0.08211  0.07001  Biso   1.000  H
  C286     1.0000 0.09818  0.10152  0.10431  Biso   1.000  C
  C287     1.0000 0.13127  0.11506  0.21039  Biso   1.000  C
  H329     1.0000 0.19889  0.13769  0.20636  Biso   1.000  H
  H330     1.0000 0.19660  0.09469  0.18176  Biso   1.000  H
  H331     1.0000 0.08070  0.12591  0.10370  Biso   1.000  H
  H332     1.0000 0.08010  0.08279  0.07928  Biso   1.000  H
  C288     1.0000 0.10216  0.08771  0.17028  Biso   1.000  C
  H333     1.0000 0.13419  0.10490  0.25350  Biso   1.000  H
  H334     1.0000 0.11541  0.14011  0.21260  Biso   1.000  H
  H335     1.0000 0.11721  0.06230  0.17056  Biso   1.000  H
  H336     1.0000 0.07030  0.08510  0.18860  Biso   1.000  H
  C289     1.0000 0.40184  0.39847  0.60428  Biso   1.000  C
  C290     1.0000 0.35321  0.39269  0.57429  Biso   1.000  C
  H337     1.0000 0.41932  0.37411  0.60367  Biso   1.000  H
  H338     1.0000 0.41992  0.41720  0.57931  Biso   1.000  H
  C291     1.0000 0.39782  0.41230  0.67031  Biso   1.000  C
  N49      1.0000 0.35962  0.37579  0.51118  Biso   1.000  N
  C292     1.0000 0.32251  0.36631  0.61469  Biso   1.000  C
  H339     1.0000 0.33721  0.41791  0.56998  Biso   1.000  H
  C293     1.0000 0.36875  0.38495  0.71037  Biso   1.000  C
  H340     1.0000 0.38281  0.43769  0.67059  Biso   1.000  H
  H341     1.0000 0.42971  0.41489  0.68858  Biso   1.000  H
  C294     1.0000 0.34510  0.39619  0.46661  Biso   1.000  C
  N50      1.0000 0.27431  0.36563  0.58896  Biso   1.000  N
  H342     1.0000 0.33601  0.34001  0.61408  Biso   1.000  H
  C295     1.0000 0.31984  0.38043  0.68108  Biso   1.000  C
  H343     1.0000 0.36579  0.39511  0.75348  Biso   1.000  H
  H344     1.0000 0.38461  0.35991  0.71257  Biso   1.000  H
  C296     1.0000 0.34972  0.38279  0.39881  Biso   1.000  C
  H345     1.0000 0.33111  0.42021  0.47528  Biso   1.000  H
  C297     1.0000 0.25862  0.33312  0.57429  Biso   1.000  C
  H346     1.0000 0.30109  0.36230  0.70639  Biso   1.000  H
  H347     1.0000 0.30341  0.40530  0.68179  Biso   1.000  H
  C298     1.0000 0.37048  0.34849  0.38161  Biso   1.000  C
  C299     1.0000 0.33182  0.40849  0.35359  Biso   1.000  C
  C300     1.0000 0.21049  0.32681  0.55044  Biso   1.000  C
  H348     1.0000 0.27889  0.31181  0.57889  Biso   1.000  H
  C301     1.0000 0.37220  0.33719  0.31948  Biso   1.000  C
  H349     1.0000 0.38369  0.33261  0.41301  Biso   1.000  H
  C302     1.0000 0.33510  0.39480  0.28818  Biso   1.000  C
  H350     1.0000 0.31871  0.43251  0.36428  Biso   1.000  H
  C303     1.0000 0.19548  0.28978  0.53934  Biso   1.000  C
  C304     1.0000 0.17860  0.35706  0.54042  Biso   1.000  C
  C305     1.0000 0.39282  0.29980  0.30017  Biso   1.000  C
  C306     1.0000 0.35420  0.36261  0.27389  Biso   1.000  C
  C307     1.0000 0.31691  0.42269  0.23912  Biso   1.000  C
  C308     1.0000 0.14980  0.28247  0.51689  Biso   1.000  C
  H351     1.0000 0.21641  0.26920  0.54698  Biso   1.000  H
  C309     1.0000 0.13338  0.34963  0.51905  Biso   1.000  C
  H352     1.0000 0.18811  0.38250  0.54829  Biso   1.000  H
  N51      1.0000 0.39419  0.29041  0.24432  Biso   1.000  N
  H353     1.0000 0.40501  0.28309  0.33119  Biso   1.000  H
  H354     1.0000 0.35631  0.35569  0.23092  Biso   1.000  H
  N52      1.0000 0.29957  0.45610  0.25308  Biso   1.000  N
  H355     1.0000 0.31822  0.41540  0.19620  Biso   1.000  H
  C310     1.0000 0.13317  0.24282  0.50869  Biso   1.000  C
  C311     1.0000 0.11897  0.31289  0.50691  Biso   1.000  C
  C312     1.0000 0.09952  0.38171  0.50986  Biso   1.000  C
  C313     1.0000 0.41583  0.25480  0.22900  Biso   1.000  C
  C314     1.0000 0.28893  0.47989  0.19812  Biso   1.000  C
  N53      1.0000 0.15717  0.21419  0.52505  Biso   1.000  N
  H356     1.0000 0.10311  0.23869  0.49028  Biso   1.000  H
  H357     1.0000 0.08799  0.30831  0.49178  Biso   1.000  H
  N54      1.0000 0.05712  0.37607  0.49609  Biso   1.000  N
  H358     1.0000 0.11041  0.40709  0.51450  Biso   1.000  H
  C315     1.0000 0.38137  0.22890  0.19441  Biso   1.000  C
  H359     1.0000 0.42661  0.24191  0.26822  Biso   1.000  H
  C316     1.0000 0.45851  0.26371  0.18739  Biso   1.000  C
  H360     1.0000 0.29499  0.46561  0.15829  Biso   1.000  H
  C317     1.0000 0.23699  0.49293  0.20201  Biso   1.000  C
  C318     1.0000 0.32160  0.51470  0.20350  Biso   1.000  C
  C319     1.0000 0.13691  0.17671  0.51881  Biso   1.000  C
  C320     1.0000 0.02537  0.40846  0.48943  Biso   1.000  C
  N55      1.0000 0.33982  0.22071  0.23195  Biso   1.000  N
  H361     1.0000 0.37062  0.24279  0.15599  Biso   1.000  H
  C321     1.0000 0.40448  0.19330  0.17352  Biso   1.000  C
  C322     1.0000 0.48268  0.22640  0.16658  Biso   1.000  C
  H362     1.0000 0.48120  0.27959  0.21100  Biso   1.000  H
  H363     1.0000 0.44822  0.27811  0.15009  Biso   1.000  H
  N56      1.0000 0.20636  0.46074  0.19202  Biso   1.000  N
  H364     1.0000 0.23040  0.50499  0.24362  Biso   1.000  H
  C323     1.0000 0.22818  0.52153  0.14849  Biso   1.000  C
  C324     1.0000 0.31180  0.54381  0.15121  Biso   1.000  C
  H365     1.0000 0.35479  0.50619  0.20088  Biso   1.000  H
  H366     1.0000 0.31691  0.52699  0.24479  Biso   1.000  H
  C325     1.0000 0.16718  0.15343  0.47378  Biso   1.000  C
  H367     1.0000 0.10410  0.17879  0.50190  Biso   1.000  H
  C326     1.0000 0.13560  0.15824  0.58395  Biso   1.000  C
  C327     1.0000 0.00275  0.40775  0.42622  Biso   1.000  C
  H368     1.0000 0.04430  0.43239  0.49318  Biso   1.000  H
  C328     1.0000 0.98858  0.40803  0.54173  Biso   1.000  C
  C329     1.0000 0.29993  0.22654  0.20782  Biso   1.000  C
  H369     1.0000 0.38179  0.17790  0.14901  Biso   1.000  H
  H370     1.0000 0.41410  0.17819  0.21058  Biso   1.000  H
  C330     1.0000 0.44832  0.20190  0.13280  Biso   1.000  C
  H371     1.0000 0.50960  0.23229  0.13870  Biso   1.000  H
  H372     1.0000 0.49491  0.21271  0.20369  Biso   1.000  H
  C331     1.0000 0.17366  0.45653  0.23368  Biso   1.000  C
  H373     1.0000 0.23329  0.50869  0.10768  Biso   1.000  H
  H374     1.0000 0.19502  0.53021  0.14990  Biso   1.000  H
  C332     1.0000 0.26099  0.55631  0.15341  Biso   1.000  C
  H375     1.0000 0.33270  0.56621  0.15651  Biso   1.000  H
  H376     1.0000 0.31871  0.53229  0.10988  Biso   1.000  H
  N57      1.0000 0.16506  0.16922  0.41141  Biso   1.000  N
  H377     1.0000 0.20058  0.15391  0.48859  Biso   1.000  H
  C333     1.0000 0.14970  0.11182  0.47256  Biso   1.000  C
  C334     1.0000 0.11763  0.11717  0.58043  Biso   1.000  C
  H378     1.0000 0.16760  0.15849  0.60231  Biso   1.000  H
  H379     1.0000 0.11471  0.17329  0.61178  Biso   1.000  H
  N58      1.0000 0.03852  0.41378  0.37744  Biso   1.000  N
  H380     1.0000 0.98710  0.38259  0.41961  Biso   1.000  H
  C335     1.0000 0.96592  0.44008  0.41910  Biso   1.000  C
  H381     1.0000 0.00462  0.41091  0.58268  Biso   1.000  H
  C336     1.0000 0.95278  0.43948  0.53418  Biso   1.000  C
  H382     1.0000 0.97220  0.38319  0.54159  Biso   1.000  H
  C337     1.0000 0.25514  0.21792  0.23762  Biso   1.000  C
  H383     1.0000 0.29912  0.23741  0.16710  Biso   1.000  H
  H384     1.0000 0.46379  0.17759  0.12099  Biso   1.000  H
  H385     1.0000 0.43831  0.21479  0.09381  Biso   1.000  H
  C338     1.0000 0.13906  0.42553  0.23050  Biso   1.000  C
  H386     1.0000 0.17201  0.47409  0.26751  Biso   1.000  H
  H387     1.0000 0.25461  0.57401  0.11832  Biso   1.000  H
  H388     1.0000 0.25489  0.57000  0.19310  Biso   1.000  H
  C339     1.0000 0.20358  0.17457  0.38311  Biso   1.000  C
  H389     1.0000 0.11781  0.11099  0.45377  Biso   1.000  H
  H390     1.0000 0.17091  0.09659  0.44557  Biso   1.000  H
  C340     1.0000 0.14790  0.09389  0.53788  Biso   1.000  C
  H391     1.0000 0.11770  0.10579  0.62289  Biso   1.000  H
  H392     1.0000 0.08479  0.11700  0.56478  Biso   1.000  H
  C341     1.0000 0.04077  0.38976  0.33447  Biso   1.000  C
  H393     1.0000 0.98189  0.46509  0.42097  Biso   1.000  H
  H394     1.0000 0.95010  0.43789  0.37791  Biso   1.000  H
  C342     1.0000 0.92938  0.43752  0.47111  Biso   1.000  C
  H395     1.0000 0.92860  0.43729  0.56750  Biso   1.000  H
  H396     1.0000 0.96860  0.46441  0.53901  Biso   1.000  H
  C343     1.0000 0.21334  0.22700  0.20411  Biso   1.000  C
  C344     1.0000 0.25140  0.19959  0.29446  Biso   1.000  C
  C345     1.0000 0.13662  0.39904  0.18172  Biso   1.000  C
  C346     1.0000 0.10685  0.42269  0.27960  Biso   1.000  C
  C347     1.0000 0.20703  0.19114  0.31990  Biso   1.000  C
  H397     1.0000 0.23191  0.16749  0.40378  Biso   1.000  H
  H398     1.0000 0.13511  0.06771  0.53489  Biso   1.000  H
  H399     1.0000 0.18022  0.09221  0.55527  Biso   1.000  H
  C348     1.0000 0.07393  0.39326  0.28120  Biso   1.000  C
  H400     1.0000 0.02040  0.36839  0.33597  Biso   1.000  H
  H401     1.0000 0.90661  0.45869  0.46689  Biso   1.000  H
  H402     1.0000 0.91179  0.41330  0.46732  Biso   1.000  H
  C349     1.0000 0.16979  0.21883  0.22834  Biso   1.000  C
  H403     1.0000 0.21570  0.23889  0.16428  Biso   1.000  H
  H404     1.0000 0.27910  0.19259  0.31657  Biso   1.000  H
  C350     1.0000 0.10509  0.36972  0.18270  Biso   1.000  C
  H405     1.0000 0.15749  0.40151  0.14709  Biso   1.000  H
  H406     1.0000 0.10731  0.44099  0.31231  Biso   1.000  H
  C351     1.0000 0.16584  0.20067  0.28616  Biso   1.000  C
  C352     1.0000 0.07309  0.36708  0.23349  Biso   1.000  C
  C353     1.0000 0.12651  0.22691  0.19137  Biso   1.000  C
  C354     1.0000 0.10350  0.34069  0.13312  Biso   1.000  C
  H407     1.0000 0.13560  0.19481  0.30280  Biso   1.000  H
  H408     1.0000 0.05082  0.34690  0.23462  Biso   1.000  H
  N59      1.0000 0.12803  0.24083  0.13701  Biso   1.000  N
  H409     1.0000 0.09670  0.22139  0.20941  Biso   1.000  H
  N60      1.0000 0.07615  0.31263  0.13387  Biso   1.000  N
  H410     1.0000 0.12440  0.34331  0.09859  Biso   1.000  H
  C355     1.0000 0.08299  0.24518  0.10421  Biso   1.000  C
  C356     1.0000 0.07739  0.28622  0.08121  Biso   1.000  C
  H411     1.0000 0.05649  0.23881  0.13331  Biso   1.000  H
  C357     1.0000 0.08257  0.21772  0.04855  Biso   1.000  C
  H412     1.0000 0.10459  0.29280  0.05351  Biso   1.000  H
  C358     1.0000 0.03147  0.29080  0.04400  Biso   1.000  C
  H413     1.0000 0.08581  0.19131  0.06391  Biso   1.000  H
  H414     1.0000 0.10970  0.22330  0.02081  Biso   1.000  H
  C359     1.0000 0.03661  0.22170  0.01139  Biso   1.000  C
  H415     1.0000 0.00430  0.28631  0.07202  Biso   1.000  H
  H416     1.0000 0.02928  0.31719  0.02788  Biso   1.000  H
  C360     1.0000 0.02953  0.26300  0.98936  Biso   1.000  C
  H417     1.0000 0.00969  0.21391  0.03800  Biso   1.000  H
  H418     1.0000 0.03760  0.20460  0.97451  Biso   1.000  H
  H419     1.0000 0.99859  0.26530  0.96818  Biso   1.000  H
  H420     1.0000 0.05430  0.26960  0.95858  Biso   1.000  H
  C361     1.0000 0.64792  0.59388  0.53788  Biso   1.000  C
  C362     1.0000 0.64972  0.61181  0.47256  Biso   1.000  C
  H421     1.0000 0.63509  0.56769  0.53489  Biso   1.000  H
  H422     1.0000 0.68020  0.59220  0.55527  Biso   1.000  H
  C363     1.0000 0.61761  0.61718  0.58043  Biso   1.000  C
  C364     1.0000 0.66716  0.65341  0.47378  Biso   1.000  C
  H423     1.0000 0.61779  0.61101  0.45377  Biso   1.000  H
  H424     1.0000 0.67090  0.59661  0.44557  Biso   1.000  H
  H425     1.0000 0.61772  0.60580  0.62289  Biso   1.000  H
  H426     1.0000 0.58480  0.61701  0.56478  Biso   1.000  H
  C365     1.0000 0.63559  0.65825  0.58395  Biso   1.000  C
  N61      1.0000 0.66505  0.66921  0.41141  Biso   1.000  N
  C366     1.0000 0.63689  0.67672  0.51881  Biso   1.000  C
  H427     1.0000 0.70060  0.65390  0.48859  Biso   1.000  H
  H428     1.0000 0.66762  0.65851  0.60231  Biso   1.000  H
  H429     1.0000 0.61469  0.67331  0.61178  Biso   1.000  H
  C367     1.0000 0.70360  0.67456  0.38311  Biso   1.000  C
  N62      1.0000 0.65715  0.71418  0.52505  Biso   1.000  N
  H430     1.0000 0.60412  0.67880  0.50190  Biso   1.000  H
  C368     1.0000 0.70705  0.69115  0.31990  Biso   1.000  C
  H431     1.0000 0.73190  0.66750  0.40378  Biso   1.000  H
  C369     1.0000 0.63319  0.74284  0.50869  Biso   1.000  C
  C370     1.0000 0.66582  0.70069  0.28616  Biso   1.000  C
  C371     1.0000 0.75142  0.69960  0.29446  Biso   1.000  C
  C372     1.0000 0.64982  0.78248  0.51689  Biso   1.000  C
  H432     1.0000 0.60309  0.73871  0.49028  Biso   1.000  H
  H433     1.0000 0.63562  0.69479  0.30280  Biso   1.000  H
  C373     1.0000 0.66980  0.71884  0.22834  Biso   1.000  C
  C374     1.0000 0.75512  0.71790  0.23762  Biso   1.000  C
  H434     1.0000 0.77912  0.69260  0.31657  Biso   1.000  H
  C375     1.0000 0.69549  0.78979  0.53934  Biso   1.000  C
  C376     1.0000 0.61899  0.81290  0.50691  Biso   1.000  C
  C377     1.0000 0.71336  0.72698  0.20411  Biso   1.000  C
  C378     1.0000 0.62653  0.72690  0.19137  Biso   1.000  C
  C379     1.0000 0.79994  0.72656  0.20782  Biso   1.000  C
  H435     1.0000 0.71639  0.76919  0.54698  Biso   1.000  H
  C380     1.0000 0.71047  0.82679  0.55044  Biso   1.000  C
  C381     1.0000 0.63337  0.84965  0.51905  Biso   1.000  C
  H436     1.0000 0.58801  0.80829  0.49178  Biso   1.000  H
  H437     1.0000 0.71572  0.73891  0.16428  Biso   1.000  H
  N63      1.0000 0.62801  0.74084  0.13701  Biso   1.000  N
  H438     1.0000 0.59672  0.72140  0.20941  Biso   1.000  H
  N64      1.0000 0.83980  0.72069  0.23195  Biso   1.000  N
  H439     1.0000 0.79910  0.73740  0.16710  Biso   1.000  H
  C382     1.0000 0.67858  0.85705  0.54042  Biso   1.000  C
  C383     1.0000 0.75864  0.83314  0.57429  Biso   1.000  C
  C384     1.0000 0.59953  0.88172  0.50986  Biso   1.000  C
  C385     1.0000 0.58301  0.74517  0.10421  Biso   1.000  C
  C386     1.0000 0.88135  0.72889  0.19441  Biso   1.000  C
  H440     1.0000 0.68809  0.88249  0.54829  Biso   1.000  H
  N65      1.0000 0.77429  0.86561  0.58896  Biso   1.000  N
  H441     1.0000 0.77891  0.81179  0.57889  Biso   1.000  H
  N66      1.0000 0.55714  0.87606  0.49609  Biso   1.000  N
  H442     1.0000 0.61039  0.90711  0.51450  Biso   1.000  H
  C387     1.0000 0.57737  0.78621  0.08121  Biso   1.000  C
  H443     1.0000 0.55651  0.73879  0.13331  Biso   1.000  H
  C388     1.0000 0.58255  0.71773  0.04855  Biso   1.000  C
  C389     1.0000 0.91581  0.75479  0.22900  Biso   1.000  C
  H444     1.0000 0.87060  0.74281  0.15599  Biso   1.000  H
  C390     1.0000 0.90450  0.69329  0.17352  Biso   1.000  C
  C391     1.0000 0.82253  0.86632  0.61469  Biso   1.000  C
  C392     1.0000 0.52539  0.90847  0.48943  Biso   1.000  C
  N67      1.0000 0.57617  0.81265  0.13387  Biso   1.000  N
  H445     1.0000 0.60461  0.79281  0.05351  Biso   1.000  H
  C393     1.0000 0.53149  0.79082  0.04400  Biso   1.000  C
  H446     1.0000 0.58579  0.69129  0.06391  Biso   1.000  H
  H447     1.0000 0.60972  0.72331  0.02081  Biso   1.000  H
  C394     1.0000 0.53663  0.72169  0.01139  Biso   1.000  C
  N68      1.0000 0.89417  0.79039  0.24432  Biso   1.000  N
  H448     1.0000 0.92660  0.74190  0.26822  Biso   1.000  H
  C395     1.0000 0.95849  0.76370  0.18739  Biso   1.000  C
  H449     1.0000 0.88181  0.67789  0.14901  Biso   1.000  H
  H450     1.0000 0.91412  0.67820  0.21058  Biso   1.000  H
  C396     1.0000 0.94834  0.70191  0.13280  Biso   1.000  C
  H451     1.0000 0.83599  0.84000  0.61408  Biso   1.000  H
  C397     1.0000 0.85323  0.89271  0.57429  Biso   1.000  C
  C398     1.0000 0.81982  0.88041  0.68108  Biso   1.000  C
  H452     1.0000 0.54431  0.93241  0.49318  Biso   1.000  H
  C399     1.0000 0.50273  0.90776  0.42622  Biso   1.000  C
  C400     1.0000 0.48860  0.90802  0.54173  Biso   1.000  C
  C401     1.0000 0.60352  0.84068  0.13312  Biso   1.000  C
  H453     1.0000 0.50432  0.78629  0.07202  Biso   1.000  H
  H454     1.0000 0.52930  0.81720  0.02788  Biso   1.000  H
  C402     1.0000 0.52955  0.76301  0.98936  Biso   1.000  C
  H455     1.0000 0.50971  0.71389  0.03800  Biso   1.000  H
  H456     1.0000 0.53762  0.70461  0.97451  Biso   1.000  H
  C403     1.0000 0.89284  0.79981  0.30017  Biso   1.000  C
  C404     1.0000 0.98270  0.72641  0.16658  Biso   1.000  C
  H457     1.0000 0.98122  0.77961  0.21100  Biso   1.000  H
  H458     1.0000 0.94820  0.77810  0.15009  Biso   1.000  H
  H459     1.0000 0.96381  0.67760  0.12099  Biso   1.000  H
  H460     1.0000 0.93830  0.71480  0.09381  Biso   1.000  H
  N69      1.0000 0.85964  0.87580  0.51118  Biso   1.000  N
  H461     1.0000 0.83719  0.91789  0.56998  Biso   1.000  H
  C405     1.0000 0.90182  0.89848  0.60428  Biso   1.000  C
  C406     1.0000 0.86873  0.88494  0.71037  Biso   1.000  C
  H462     1.0000 0.80111  0.86231  0.70639  Biso   1.000  H
  H463     1.0000 0.80340  0.90531  0.68179  Biso   1.000  H
  N70      1.0000 0.53850  0.91377  0.37744  Biso   1.000  N
  H464     1.0000 0.48712  0.88260  0.41961  Biso   1.000  H
  C407     1.0000 0.46591  0.94006  0.41910  Biso   1.000  C
  C408     1.0000 0.45276  0.93947  0.53418  Biso   1.000  C
  H465     1.0000 0.47221  0.88320  0.54159  Biso   1.000  H
  H466     1.0000 0.50460  0.91089  0.58268  Biso   1.000  H
  C409     1.0000 0.60507  0.86971  0.18270  Biso   1.000  C
  H467     1.0000 0.62441  0.84330  0.09859  Biso   1.000  H
  H468     1.0000 0.55429  0.76959  0.95858  Biso   1.000  H
  H469     1.0000 0.49861  0.76529  0.96818  Biso   1.000  H
  C410     1.0000 0.87222  0.83721  0.31948  Biso   1.000  C
  H470     1.0000 0.90499  0.78311  0.33119  Biso   1.000  H
  H471     1.0000 0.99489  0.71270  0.20369  Biso   1.000  H
  H472     1.0000 0.00962  0.73230  0.13870  Biso   1.000  H
  C411     1.0000 0.84512  0.89621  0.46661  Biso   1.000  C
  H473     1.0000 0.91930  0.87409  0.60367  Biso   1.000  H
  H474     1.0000 0.91990  0.91721  0.57931  Biso   1.000  H
  C412     1.0000 0.89784  0.91229  0.67031  Biso   1.000  C
  H475     1.0000 0.86581  0.89510  0.75348  Biso   1.000  H
  H476     1.0000 0.88459  0.85989  0.71257  Biso   1.000  H
  C413     1.0000 0.54079  0.88977  0.33447  Biso   1.000  C
  H477     1.0000 0.48190  0.96511  0.42097  Biso   1.000  H
  H478     1.0000 0.45012  0.93790  0.37791  Biso   1.000  H
  C414     1.0000 0.42936  0.93753  0.47111  Biso   1.000  C
  H479     1.0000 0.42859  0.93730  0.56750  Biso   1.000  H
  H480     1.0000 0.46862  0.96440  0.53901  Biso   1.000  H
  C415     1.0000 0.57307  0.86709  0.23349  Biso   1.000  C
  C416     1.0000 0.63664  0.89902  0.18172  Biso   1.000  C
  C417     1.0000 0.85421  0.86259  0.27389  Biso   1.000  C
  C418     1.0000 0.87046  0.84851  0.38161  Biso   1.000  C
  C419     1.0000 0.84970  0.88280  0.39881  Biso   1.000  C
  H481     1.0000 0.83110  0.92020  0.47528  Biso   1.000  H
  H482     1.0000 0.88279  0.93770  0.67059  Biso   1.000  H
  H483     1.0000 0.92970  0.91490  0.68858  Biso   1.000  H
  C420     1.0000 0.57392  0.89325  0.28120  Biso   1.000  C
  H484     1.0000 0.52039  0.86840  0.33597  Biso   1.000  H
  H485     1.0000 0.40660  0.95870  0.46689  Biso   1.000  H
  H486     1.0000 0.41181  0.91331  0.46732  Biso   1.000  H
  H487     1.0000 0.55080  0.84691  0.23462  Biso   1.000  H
  C421     1.0000 0.63904  0.92552  0.23050  Biso   1.000  C
  H488     1.0000 0.65750  0.90150  0.14709  Biso   1.000  H
  H489     1.0000 0.85629  0.85571  0.23092  Biso   1.000  H
  C422     1.0000 0.83511  0.89481  0.28818  Biso   1.000  C
  H490     1.0000 0.88371  0.83260  0.41301  Biso   1.000  H
  C423     1.0000 0.83180  0.90850  0.35359  Biso   1.000  C
  C424     1.0000 0.60683  0.92270  0.27960  Biso   1.000  C
  C425     1.0000 0.67368  0.95654  0.23368  Biso   1.000  C
  C426     1.0000 0.81689  0.92270  0.23912  Biso   1.000  C
  H491     1.0000 0.81869  0.93249  0.36428  Biso   1.000  H
  H492     1.0000 0.60729  0.94100  0.31231  Biso   1.000  H
  N71      1.0000 0.70635  0.96075  0.19202  Biso   1.000  N
  H493     1.0000 0.67199  0.97410  0.26751  Biso   1.000  H
  N72      1.0000 0.79956  0.95609  0.25308  Biso   1.000  N
  H494     1.0000 0.81820  0.91539  0.19620  Biso   1.000  H
  C427     1.0000 0.73697  0.99291  0.20201  Biso   1.000  C
  C428     1.0000 0.78891  0.97991  0.19812  Biso   1.000  C
  H495     1.0000 0.73042  0.00501  0.24362  Biso   1.000  H
  C429     1.0000 0.72816  0.02152  0.14849  Biso   1.000  C
  H496     1.0000 0.79501  0.96559  0.15829  Biso   1.000  H
  C430     1.0000 0.82162  0.01471  0.20350  Biso   1.000  C
  H497     1.0000 0.73331  0.00871  0.10768  Biso   1.000  H
  H498     1.0000 0.69500  0.03020  0.14990  Biso   1.000  H
  C431     1.0000 0.76100  0.05629  0.15341  Biso   1.000  C
  C432     1.0000 0.81182  0.04380  0.15121  Biso   1.000  C
  H499     1.0000 0.85481  0.00620  0.20088  Biso   1.000  H
  H500     1.0000 0.81689  0.02701  0.24479  Biso   1.000  H
  H501     1.0000 0.75459  0.07400  0.11832  Biso   1.000  H
  H502     1.0000 0.75491  0.07001  0.19310  Biso   1.000  H
  H503     1.0000 0.83272  0.06620  0.15651  Biso   1.000  H
  H504     1.0000 0.81869  0.03230  0.10988  Biso   1.000  H
  C433     1.0000 0.40184  0.60153  0.39572  Biso   1.000  C
  C434     1.0000 0.39782  0.58770  0.32969  Biso   1.000  C
  C435     1.0000 0.35321  0.60731  0.42571  Biso   1.000  C
  H505     1.0000 0.41932  0.62589  0.39628  Biso   1.000  H
  H506     1.0000 0.41992  0.58280  0.42069  Biso   1.000  H
  H507     1.0000 0.38281  0.56231  0.32941  Biso   1.000  H
  H508     1.0000 0.42971  0.58511  0.31137  Biso   1.000  H
  C436     1.0000 0.36875  0.61505  0.28958  Biso   1.000  C
  N73      1.0000 0.35962  0.62421  0.48878  Biso   1.000  N
  C437     1.0000 0.32251  0.63369  0.38531  Biso   1.000  C
  H509     1.0000 0.33721  0.58209  0.43002  Biso   1.000  H
  H510     1.0000 0.36579  0.60489  0.24647  Biso   1.000  H
  H511     1.0000 0.38461  0.64009  0.28738  Biso   1.000  H
  C438     1.0000 0.31984  0.61957  0.31892  Biso   1.000  C
  C439     1.0000 0.34510  0.60381  0.53339  Biso   1.000  C
  N74      1.0000 0.27431  0.63437  0.41099  Biso   1.000  N
  H512     1.0000 0.33601  0.65999  0.38588  Biso   1.000  H
  H513     1.0000 0.30109  0.63770  0.29361  Biso   1.000  H
  H514     1.0000 0.30341  0.59470  0.31821  Biso   1.000  H
  C440     1.0000 0.34972  0.61721  0.60119  Biso   1.000  C
  H515     1.0000 0.33111  0.57979  0.52467  Biso   1.000  H
  C441     1.0000 0.25862  0.66688  0.42571  Biso   1.000  C
  C442     1.0000 0.33182  0.59151  0.64641  Biso   1.000  C
  C443     1.0000 0.37048  0.65151  0.61839  Biso   1.000  C
  C444     1.0000 0.21049  0.67319  0.44956  Biso   1.000  C
  H516     1.0000 0.27889  0.68819  0.42111  Biso   1.000  H
  C445     1.0000 0.33510  0.60520  0.71178  Biso   1.000  C
  H517     1.0000 0.31871  0.56749  0.63568  Biso   1.000  H
  C446     1.0000 0.37220  0.66281  0.68047  Biso   1.000  C
  H518     1.0000 0.38369  0.66739  0.58699  Biso   1.000  H
  C447     1.0000 0.19548  0.71022  0.46066  Biso   1.000  C
  C448     1.0000 0.17860  0.64294  0.45958  Biso   1.000  C
  C449     1.0000 0.35420  0.63739  0.72607  Biso   1.000  C
  C450     1.0000 0.31691  0.57731  0.76088  Biso   1.000  C
  C451     1.0000 0.39282  0.70020  0.69978  Biso   1.000  C
  C452     1.0000 0.14980  0.71753  0.48311  Biso   1.000  C
  H519     1.0000 0.21641  0.73080  0.45298  Biso   1.000  H
  H520     1.0000 0.18811  0.61750  0.45171  Biso   1.000  H
  C453     1.0000 0.13338  0.65037  0.48091  Biso   1.000  C
  H521     1.0000 0.35631  0.64431  0.76908  Biso   1.000  H
  N75      1.0000 0.29957  0.54390  0.74687  Biso   1.000  N
  H522     1.0000 0.31822  0.58460  0.80380  Biso   1.000  H
  N76      1.0000 0.39419  0.70959  0.75568  Biso   1.000  N
  H523     1.0000 0.40501  0.71691  0.66881  Biso   1.000  H
  C454     1.0000 0.11897  0.68711  0.49304  Biso   1.000  C
  C455     1.0000 0.13317  0.75718  0.49126  Biso   1.000  C
  C456     1.0000 0.09952  0.61829  0.49014  Biso   1.000  C
  C457     1.0000 0.28893  0.52011  0.80188  Biso   1.000  C
  C458     1.0000 0.41583  0.74520  0.77100  Biso   1.000  C
  H524     1.0000 0.08799  0.69169  0.50818  Biso   1.000  H
  N77      1.0000 0.15717  0.78581  0.47491  Biso   1.000  N
  H525     1.0000 0.10311  0.76131  0.50968  Biso   1.000  H
  N78      1.0000 0.05712  0.62393  0.50387  Biso   1.000  N
  H526     1.0000 0.11041  0.59291  0.48550  Biso   1.000  H
  H527     1.0000 0.29499  0.53439  0.84167  Biso   1.000  H
  C459     1.0000 0.23699  0.50707  0.79799  Biso   1.000  C
  C460     1.0000 0.32160  0.48530  0.79650  Biso   1.000  C
  H528     1.0000 0.42661  0.75809  0.73178  Biso   1.000  H
  C461     1.0000 0.38137  0.77110  0.80559  Biso   1.000  C
  C462     1.0000 0.45851  0.73629  0.81257  Biso   1.000  C
  C463     1.0000 0.13691  0.82329  0.48119  Biso   1.000  C
  C464     1.0000 0.02537  0.59154  0.51057  Biso   1.000  C
  N79      1.0000 0.20636  0.53926  0.80793  Biso   1.000  N
  H529     1.0000 0.23040  0.49501  0.75638  Biso   1.000  H
  C465     1.0000 0.22818  0.47847  0.85151  Biso   1.000  C
  C466     1.0000 0.31180  0.45619  0.84879  Biso   1.000  C
  H530     1.0000 0.35479  0.49381  0.79907  Biso   1.000  H
  H531     1.0000 0.31691  0.47301  0.75517  Biso   1.000  H
  N80      1.0000 0.33982  0.77929  0.76805  Biso   1.000  N
  H532     1.0000 0.37062  0.75721  0.84401  Biso   1.000  H
  C467     1.0000 0.40448  0.80670  0.82648  Biso   1.000  C
  C468     1.0000 0.48268  0.77360  0.83337  Biso   1.000  C
  H533     1.0000 0.48120  0.72041  0.78900  Biso   1.000  H
  H534     1.0000 0.44822  0.72189  0.84987  Biso   1.000  H
  H535     1.0000 0.10410  0.82121  0.49810  Biso   1.000  H
  C469     1.0000 0.16718  0.84657  0.52617  Biso   1.000  C
  C470     1.0000 0.13560  0.84176  0.41601  Biso   1.000  C
  H536     1.0000 0.04430  0.56761  0.50677  Biso   1.000  H
  C471     1.0000 0.00275  0.59225  0.57378  Biso   1.000  C
  C472     1.0000 0.98858  0.59197  0.45827  Biso   1.000  C
  C473     1.0000 0.17366  0.54347  0.76627  Biso   1.000  C
  H537     1.0000 0.23329  0.49131  0.89227  Biso   1.000  H
  H538     1.0000 0.19502  0.46979  0.85010  Biso   1.000  H
  C474     1.0000 0.26099  0.44369  0.84659  Biso   1.000  C
  H539     1.0000 0.33270  0.43379  0.84349  Biso   1.000  H
  H540     1.0000 0.31871  0.46771  0.89007  Biso   1.000  H
  C475     1.0000 0.29993  0.77346  0.79214  Biso   1.000  C
  H541     1.0000 0.38179  0.82210  0.85099  Biso   1.000  H
  H542     1.0000 0.41410  0.82181  0.78937  Biso   1.000  H
  C476     1.0000 0.44832  0.79810  0.86720  Biso   1.000  C
  H543     1.0000 0.50960  0.76771  0.86130  Biso   1.000  H
  H544     1.0000 0.49491  0.78729  0.79631  Biso   1.000  H
  N81      1.0000 0.16506  0.83078  0.58854  Biso   1.000  N
  H545     1.0000 0.20058  0.84609  0.51141  Biso   1.000  H
  C477     1.0000 0.14970  0.88818  0.52744  Biso   1.000  C
  C478     1.0000 0.11763  0.88283  0.41952  Biso   1.000  C
  H546     1.0000 0.16760  0.84151  0.39769  Biso   1.000  H
  H547     1.0000 0.11471  0.82671  0.38817  Biso   1.000  H
  N82      1.0000 0.03852  0.58622  0.62256  Biso   1.000  N
  H548     1.0000 0.98710  0.61741  0.58039  Biso   1.000  H
  C479     1.0000 0.96592  0.55992  0.58090  Biso   1.000  C
  H549     1.0000 0.00462  0.58909  0.41727  Biso   1.000  H
  C480     1.0000 0.95278  0.56052  0.46577  Biso   1.000  C
  H550     1.0000 0.97220  0.61681  0.45841  Biso   1.000  H
  C481     1.0000 0.13906  0.57447  0.76950  Biso   1.000  C
  H551     1.0000 0.17201  0.52591  0.73249  Biso   1.000  H
  H552     1.0000 0.25461  0.42599  0.88168  Biso   1.000  H
  H553     1.0000 0.25489  0.43000  0.80690  Biso   1.000  H
  C482     1.0000 0.25514  0.78208  0.76238  Biso   1.000  C
  H554     1.0000 0.29912  0.76259  0.83290  Biso   1.000  H
  H555     1.0000 0.46379  0.82241  0.87897  Biso   1.000  H
  H556     1.0000 0.43831  0.78521  0.90619  Biso   1.000  H
  C483     1.0000 0.20358  0.82543  0.61689  Biso   1.000  C
  H557     1.0000 0.11781  0.88901  0.54618  Biso   1.000  H
  H558     1.0000 0.17091  0.90341  0.55438  Biso   1.000  H
  C484     1.0000 0.14790  0.90611  0.46212  Biso   1.000  C
  H559     1.0000 0.11770  0.89421  0.37711  Biso   1.000  H
  H560     1.0000 0.08479  0.88300  0.43517  Biso   1.000  H
  C485     1.0000 0.04077  0.61024  0.66548  Biso   1.000  C
  H561     1.0000 0.98189  0.53491  0.57898  Biso   1.000  H
  H562     1.0000 0.95010  0.56211  0.62209  Biso   1.000  H
  C486     1.0000 0.92938  0.56248  0.52889  Biso   1.000  C
  H563     1.0000 0.92860  0.56271  0.43250  Biso   1.000  H
  H564     1.0000 0.96860  0.53559  0.46099  Biso   1.000  H
  C487     1.0000 0.10685  0.57731  0.72040  Biso   1.000  C
  C488     1.0000 0.13662  0.60096  0.81828  Biso   1.000  C
  C489     1.0000 0.21334  0.77300  0.79589  Biso   1.000  C
  C490     1.0000 0.25140  0.80041  0.70554  Biso   1.000  C
  C491     1.0000 0.20703  0.80886  0.68005  Biso   1.000  C
  H565     1.0000 0.23191  0.83251  0.59618  Biso   1.000  H
  H566     1.0000 0.13511  0.93229  0.46511  Biso   1.000  H
  H567     1.0000 0.18022  0.90779  0.44468  Biso   1.000  H
  C492     1.0000 0.07393  0.60674  0.71876  Biso   1.000  C
  H568     1.0000 0.02040  0.63161  0.66398  Biso   1.000  H
  H569     1.0000 0.90661  0.54131  0.53311  Biso   1.000  H
  H570     1.0000 0.91179  0.58670  0.53268  Biso   1.000  H
  H571     1.0000 0.10731  0.55901  0.68769  Biso   1.000  H
  C493     1.0000 0.10509  0.63028  0.81730  Biso   1.000  C
  H572     1.0000 0.15749  0.59849  0.85287  Biso   1.000  H
  C494     1.0000 0.16979  0.78117  0.77166  Biso   1.000  C
  H573     1.0000 0.21570  0.76111  0.83567  Biso   1.000  H
  H574     1.0000 0.27910  0.80741  0.68338  Biso   1.000  H
  C495     1.0000 0.16584  0.79933  0.71384  Biso   1.000  C
  C496     1.0000 0.07309  0.63292  0.76646  Biso   1.000  C
  C497     1.0000 0.10350  0.65931  0.86688  Biso   1.000  C
  C498     1.0000 0.12651  0.77309  0.80863  Biso   1.000  C
  H575     1.0000 0.13560  0.80519  0.69720  Biso   1.000  H
  H576     1.0000 0.05082  0.65310  0.76538  Biso   1.000  H
  N83      1.0000 0.07615  0.68737  0.86613  Biso   1.000  N
  H577     1.0000 0.12440  0.65669  0.90141  Biso   1.000  H
  N84      1.0000 0.12803  0.75917  0.86294  Biso   1.000  N
  H578     1.0000 0.09670  0.77861  0.79059  Biso   1.000  H
  C499     1.0000 0.07739  0.71378  0.91879  Biso   1.000  C
  C500     1.0000 0.08299  0.75482  0.89574  Biso   1.000  C
  H579     1.0000 0.10459  0.70720  0.94649  Biso   1.000  H
  C501     1.0000 0.03147  0.70920  0.95600  Biso   1.000  C
  H580     1.0000 0.05649  0.76119  0.86669  Biso   1.000  H
  C502     1.0000 0.08257  0.78228  0.95141  Biso   1.000  C
  H581     1.0000 0.00430  0.71369  0.92798  Biso   1.000  H
  H582     1.0000 0.02928  0.68281  0.97207  Biso   1.000  H
  C503     1.0000 0.02953  0.73700  0.01059  Biso   1.000  C
  H583     1.0000 0.08581  0.80869  0.93609  Biso   1.000  H
  H584     1.0000 0.10970  0.77670  0.97919  Biso   1.000  H
  C504     1.0000 0.03661  0.77830  0.98857  Biso   1.000  C
  H585     1.0000 0.99859  0.73470  0.03177  Biso   1.000  H
  H586     1.0000 0.05430  0.73040  0.04138  Biso   1.000  H
  H587     1.0000 0.00969  0.78609  0.96200  Biso   1.000  H
  H588     1.0000 0.03760  0.79540  0.02549  Biso   1.000  H
  C505     1.0000 0.46337  0.72169  0.48859  Biso   1.000  C
  C506     1.0000 0.41745  0.71773  0.45143  Biso   1.000  C
  C507     1.0000 0.47049  0.76301  0.51061  Biso   1.000  C
  H589     1.0000 0.49029  0.71389  0.46197  Biso   1.000  H
  H590     1.0000 0.46242  0.70461  0.52551  Biso   1.000  H
  C508     1.0000 0.41703  0.74517  0.39576  Biso   1.000  C
  H591     1.0000 0.41421  0.69129  0.43611  Biso   1.000  H
  H592     1.0000 0.39032  0.72331  0.47917  Biso   1.000  H
  C509     1.0000 0.46851  0.79082  0.45598  Biso   1.000  C
  H593     1.0000 0.44571  0.76959  0.54140  Biso   1.000  H
  H594     1.0000 0.50139  0.76529  0.53179  Biso   1.000  H
  N85      1.0000 0.37199  0.74084  0.36296  Biso   1.000  N
  C510     1.0000 0.42263  0.78621  0.41877  Biso   1.000  C
  H595     1.0000 0.44349  0.73879  0.36671  Biso   1.000  H
  H596     1.0000 0.49572  0.78629  0.42800  Biso   1.000  H
  H597     1.0000 0.47070  0.81720  0.47210  Biso   1.000  H
  C511     1.0000 0.37347  0.72690  0.30861  Biso   1.000  C
  N86      1.0000 0.42383  0.81265  0.36610  Biso   1.000  N
  H598     1.0000 0.39539  0.79281  0.44651  Biso   1.000  H
  C512     1.0000 0.33020  0.71884  0.27164  Biso   1.000  C
  H599     1.0000 0.40332  0.72140  0.29061  Biso   1.000  H
  C513     1.0000 0.39652  0.84068  0.36690  Biso   1.000  C
  C514     1.0000 0.33418  0.70069  0.21381  Biso   1.000  C
  C515     1.0000 0.28664  0.72698  0.29591  Biso   1.000  C
  C516     1.0000 0.39493  0.86971  0.31728  Biso   1.000  C
  H600     1.0000 0.37559  0.84330  0.40139  Biso   1.000  H
  C517     1.0000 0.29295  0.69115  0.18008  Biso   1.000  C
  H601     1.0000 0.36441  0.69479  0.19718  Biso   1.000  H
  C518     1.0000 0.24488  0.71790  0.26236  Biso   1.000  C
  H602     1.0000 0.28431  0.73891  0.33569  Biso   1.000  H
  C519     1.0000 0.42693  0.86709  0.26648  Biso   1.000  C
  C520     1.0000 0.36336  0.89902  0.31831  Biso   1.000  C
  C521     1.0000 0.29644  0.67456  0.11691  Biso   1.000  C
  C522     1.0000 0.24862  0.69960  0.20552  Biso   1.000  C
  C523     1.0000 0.20006  0.72656  0.29216  Biso   1.000  C
  C524     1.0000 0.42608  0.89325  0.21878  Biso   1.000  C
  H603     1.0000 0.44920  0.84691  0.26540  Biso   1.000  H
  C525     1.0000 0.36096  0.92552  0.26948  Biso   1.000  C
  H604     1.0000 0.34250  0.90150  0.35289  Biso   1.000  H
  N87      1.0000 0.33495  0.66921  0.08856  Biso   1.000  N
  H605     1.0000 0.26810  0.66750  0.09620  Biso   1.000  H
  H606     1.0000 0.22092  0.69260  0.18340  Biso   1.000  H
  N88      1.0000 0.16020  0.72069  0.26803  Biso   1.000  N
  H607     1.0000 0.20090  0.73740  0.33288  Biso   1.000  H
  C526     1.0000 0.45921  0.88977  0.16550  Biso   1.000  C
  C527     1.0000 0.39317  0.92270  0.22037  Biso   1.000  C
  C528     1.0000 0.32636  0.95654  0.26629  Biso   1.000  C
  C529     1.0000 0.33284  0.65341  0.02619  Biso   1.000  C
  C530     1.0000 0.11865  0.72889  0.30561  Biso   1.000  C
  N89      1.0000 0.46150  0.91377  0.12258  Biso   1.000  N
  H608     1.0000 0.47961  0.86840  0.16400  Biso   1.000  H
  H609     1.0000 0.39271  0.94100  0.18771  Biso   1.000  H
  N90      1.0000 0.29365  0.96075  0.30795  Biso   1.000  N
  H610     1.0000 0.32801  0.97410  0.23251  Biso   1.000  H
  C531     1.0000 0.35028  0.61181  0.02741  Biso   1.000  C
  H611     1.0000 0.29940  0.65390  0.01139  Biso   1.000  H
  C532     1.0000 0.36311  0.67672  0.98116  Biso   1.000  C
  C533     1.0000 0.08419  0.75479  0.27098  Biso   1.000  C
  H612     1.0000 0.12940  0.74281  0.34399  Biso   1.000  H
  C534     1.0000 0.09550  0.69329  0.32651  Biso   1.000  C
  C535     1.0000 0.49727  0.90776  0.07375  Biso   1.000  C
  C536     1.0000 0.26303  0.99291  0.29802  Biso   1.000  C
  H613     1.0000 0.38221  0.61101  0.04620  Biso   1.000  H
  H614     1.0000 0.32910  0.59661  0.05440  Biso   1.000  H
  C537     1.0000 0.35208  0.59388  0.96209  Biso   1.000  C
  N91      1.0000 0.34285  0.71418  0.97493  Biso   1.000  N
  H615     1.0000 0.39592  0.67880  0.99808  Biso   1.000  H
  C538     1.0000 0.36441  0.65825  0.91603  Biso   1.000  C
  N92      1.0000 0.10583  0.79039  0.25570  Biso   1.000  N
  H616     1.0000 0.07340  0.74190  0.23181  Biso   1.000  H
  C539     1.0000 0.04151  0.76370  0.31259  Biso   1.000  C
  H617     1.0000 0.11819  0.67789  0.35101  Biso   1.000  H
  H618     1.0000 0.08591  0.67820  0.28940  Biso   1.000  H
  C540     1.0000 0.05170  0.70191  0.36718  Biso   1.000  C
  C541     1.0000 0.47461  0.90847  0.01054  Biso   1.000  C
  H619     1.0000 0.51292  0.88260  0.08041  Biso   1.000  H
  C542     1.0000 0.53409  0.94006  0.08088  Biso   1.000  C
  C543     1.0000 0.21109  0.97991  0.30191  Biso   1.000  C
  H620     1.0000 0.26958  0.00501  0.25641  Biso   1.000  H
  C544     1.0000 0.27184  0.02152  0.35148  Biso   1.000  C
  H621     1.0000 0.36491  0.56769  0.96509  Biso   1.000  H
  H622     1.0000 0.31980  0.59220  0.94471  Biso   1.000  H
  C545     1.0000 0.38239  0.61718  0.91954  Biso   1.000  C
  C546     1.0000 0.36685  0.74284  0.99128  Biso   1.000  C
  H623     1.0000 0.33242  0.65851  0.89771  Biso   1.000  H
  H624     1.0000 0.38531  0.67331  0.88820  Biso   1.000  H
  C547     1.0000 0.10716  0.79981  0.19980  Biso   1.000  C
  C548     1.0000 0.01730  0.72641  0.33340  Biso   1.000  C
  H625     1.0000 0.01878  0.77961  0.28897  Biso   1.000  H
  H626     1.0000 0.05180  0.77810  0.34989  Biso   1.000  H
  H627     1.0000 0.03619  0.67760  0.37899  Biso   1.000  H
  H628     1.0000 0.06170  0.71480  0.40621  Biso   1.000  H
  N93      1.0000 0.44289  0.87606  0.00389  Biso   1.000  N
  H629     1.0000 0.45569  0.93241  0.00679  Biso   1.000  H
  C549     1.0000 0.51144  0.90802  0.95825  Biso   1.000  C
  H630     1.0000 0.51810  0.96511  0.07900  Biso   1.000  H
  H631     1.0000 0.54992  0.93790  0.12211  Biso   1.000  H
  C550     1.0000 0.57064  0.93753  0.02891  Biso   1.000  C
  N94      1.0000 0.20044  0.95609  0.24690  Biso   1.000  N
  H632     1.0000 0.20499  0.96559  0.34169  Biso   1.000  H
  C551     1.0000 0.17838  0.01471  0.29652  Biso   1.000  C
  H633     1.0000 0.26669  0.00871  0.39230  Biso   1.000  H
  H634     1.0000 0.30500  0.03020  0.35008  Biso   1.000  H
  C552     1.0000 0.23900  0.05629  0.34661  Biso   1.000  C
  H635     1.0000 0.38232  0.60580  0.87709  Biso   1.000  H
  H636     1.0000 0.41520  0.61701  0.93520  Biso   1.000  H
  H637     1.0000 0.39691  0.73871  0.00970  Biso   1.000  H
  C553     1.0000 0.35018  0.78248  0.98313  Biso   1.000  C
  C554     1.0000 0.12778  0.83721  0.18050  Biso   1.000  C
  H638     1.0000 0.09501  0.78311  0.16878  Biso   1.000  H
  H639     1.0000 0.00511  0.71270  0.29628  Biso   1.000  H
  H640     1.0000 0.99041  0.73230  0.36128  Biso   1.000  H
  C555     1.0000 0.40047  0.88172  0.99016  Biso   1.000  C
  C556     1.0000 0.54724  0.93947  0.96579  Biso   1.000  C
  H641     1.0000 0.52779  0.88320  0.95839  Biso   1.000  H
  H642     1.0000 0.49540  0.91089  0.91730  Biso   1.000  H
  H643     1.0000 0.59340  0.95870  0.03308  Biso   1.000  H
  H644     1.0000 0.58819  0.91331  0.03271  Biso   1.000  H
  C557     1.0000 0.18311  0.92270  0.26091  Biso   1.000  C
  C558     1.0000 0.18822  0.04380  0.34881  Biso   1.000  C
  H645     1.0000 0.14519  0.00620  0.29910  Biso   1.000  H
  H646     1.0000 0.18311  0.02701  0.25519  Biso   1.000  H
  H647     1.0000 0.24541  0.07400  0.38171  Biso   1.000  H
  H648     1.0000 0.24509  0.07001  0.30687  Biso   1.000  H
  C559     1.0000 0.30451  0.78979  0.96069  Biso   1.000  C
  C560     1.0000 0.38101  0.81290  0.99306  Biso   1.000  C
  C561     1.0000 0.14579  0.86259  0.22609  Biso   1.000  C
  C562     1.0000 0.12954  0.84851  0.11841  Biso   1.000  C
  C563     1.0000 0.36663  0.84965  0.98093  Biso   1.000  C
  H649     1.0000 0.38961  0.90711  0.98552  Biso   1.000  H
  H650     1.0000 0.57141  0.93730  0.93252  Biso   1.000  H
  H651     1.0000 0.53142  0.96440  0.96101  Biso   1.000  H
  C564     1.0000 0.16489  0.89481  0.21180  Biso   1.000  C
  H652     1.0000 0.18180  0.91539  0.30378  Biso   1.000  H
  H653     1.0000 0.16732  0.06620  0.34352  Biso   1.000  H
  H654     1.0000 0.18131  0.03230  0.39009  Biso   1.000  H
  H655     1.0000 0.28361  0.76919  0.95300  Biso   1.000  H
  C565     1.0000 0.28953  0.82679  0.94953  Biso   1.000  C
  H656     1.0000 0.41199  0.80829  0.00820  Biso   1.000  H
  H657     1.0000 0.14371  0.85571  0.26911  Biso   1.000  H
  C566     1.0000 0.15030  0.88280  0.10121  Biso   1.000  C
  H658     1.0000 0.11629  0.83260  0.08702  Biso   1.000  H
  C567     1.0000 0.32142  0.85705  0.95961  Biso   1.000  C
  C568     1.0000 0.16820  0.90850  0.14638  Biso   1.000  C
  C569     1.0000 0.24136  0.83314  0.92568  Biso   1.000  C
  C570     1.0000 0.15491  0.89621  0.03341  Biso   1.000  C
  H659     1.0000 0.31191  0.88249  0.95169  Biso   1.000  H
  H660     1.0000 0.18131  0.93249  0.13570  Biso   1.000  H
  N95      1.0000 0.22571  0.86561  0.91102  Biso   1.000  N
  H661     1.0000 0.22109  0.81179  0.92109  Biso   1.000  H
  N96      1.0000 0.14036  0.87580  0.98880  Biso   1.000  N
  H662     1.0000 0.16890  0.92020  0.02469  Biso   1.000  H
  C571     1.0000 0.17747  0.86632  0.88529  Biso   1.000  C
  C572     1.0000 0.14677  0.89271  0.92568  Biso   1.000  C
  H663     1.0000 0.16401  0.84000  0.88590  Biso   1.000  H
  C573     1.0000 0.18018  0.88041  0.81889  Biso   1.000  C
  H664     1.0000 0.16281  0.91789  0.92999  Biso   1.000  H
  C574     1.0000 0.09818  0.89848  0.89569  Biso   1.000  C
  C575     1.0000 0.13127  0.88494  0.78961  Biso   1.000  C
  H665     1.0000 0.19889  0.86231  0.79359  Biso   1.000  H
  H666     1.0000 0.19660  0.90531  0.81819  Biso   1.000  H
  H667     1.0000 0.08070  0.87409  0.89630  Biso   1.000  H
  H668     1.0000 0.08010  0.91721  0.92072  Biso   1.000  H
  C576     1.0000 0.10216  0.91229  0.82972  Biso   1.000  C
  H669     1.0000 0.13419  0.89510  0.74650  Biso   1.000  H
  H670     1.0000 0.11541  0.85989  0.78740  Biso   1.000  H
  H671     1.0000 0.11721  0.93770  0.82939  Biso   1.000  H
  H672     1.0000 0.07030  0.91490  0.81140  Biso   1.000  H
  Ne1      1.0000 0.20773  0.32458  0.34118  Biso   1.000  Ne
  He1      1.0000 0.27710  0.27694  0.40636  Biso   1.000  He
  He2      1.0000 0.20486  0.39743  0.38494  Biso   1.000  He
  He3      1.0000 0.11000  0.28968  0.33903  Biso   1.000  He
  He4      1.0000 0.23611  0.33181  0.21412  Biso   1.000  He
  Ar1      1.0000 0.20848  0.32532  0.33623  Biso   1.000  Ar
  Ne2      1.0000 0.79227  0.32458  0.15881  Biso   1.000  Ne
  He5      1.0000 0.76421  0.33179  0.28460  Biso   1.000  He
  He6      1.0000 0.88478  0.29152  0.16150  Biso   1.000  He
  He7      1.0000 0.79531  0.40208  0.11181  Biso   1.000  He
  He8      1.0000 0.72790  0.28081  0.09953  Biso   1.000  He
  Ar2      1.0000 0.79145  0.32535  0.16394  Biso   1.000  Ar
  Ne3      1.0000 0.29227  0.17542  0.84118  Biso   1.000  Ne
  He9      1.0000 0.21903  0.22605  0.91090  Biso   1.000  He
  He10     1.0000 0.29527  0.09927  0.88722  Biso   1.000  He
  He11     1.0000 0.38832  0.20972  0.83887  Biso   1.000  He
  He12     1.0000 0.26495  0.16830  0.71848  Biso   1.000  He
  Ar3      1.0000 0.29151  0.17464  0.83617  Biso   1.000  Ar
  Ne4      1.0000 0.70773  0.17542  0.65880  Biso   1.000  Ne
  He13     1.0000 0.73438  0.16837  0.77874  Biso   1.000  He
  He14     1.0000 0.61211  0.20956  0.66115  Biso   1.000  He
  He15     1.0000 0.77857  0.22419  0.59191  Biso   1.000  He
  He16     1.0000 0.70467  0.09734  0.61140  Biso   1.000  He
  Ar4      1.0000 0.70854  0.17467  0.66378  Biso   1.000  Ar
  Ne5      1.0000 0.20773  0.67542  0.65880  Biso   1.000  Ne
  He17     1.0000 0.23436  0.66835  0.77874  Biso   1.000  He
  He18     1.0000 0.11213  0.70958  0.66115  Biso   1.000  He
  He19     1.0000 0.27856  0.72420  0.59192  Biso   1.000  He
  He20     1.0000 0.20469  0.59735  0.61142  Biso   1.000  He
  Ar5      1.0000 0.20855  0.67465  0.66392  Biso   1.000  Ar
  Ne6      1.0000 0.29227  0.82458  0.15881  Biso   1.000  Ne
  He21     1.0000 0.26419  0.83177  0.28460  Biso   1.000  He
  He22     1.0000 0.38477  0.79154  0.16151  Biso   1.000  He
  He23     1.0000 0.29530  0.90207  0.11183  Biso   1.000  He
  He24     1.0000 0.22789  0.78082  0.09953  Biso   1.000  He
  Ar6      1.0000 0.29149  0.82533  0.16381  Biso   1.000  Ar
  Ne7      1.0000 0.79227  0.67542  0.84118  Biso   1.000  Ne
  He25     1.0000 0.71905  0.72606  0.91091  Biso   1.000  He
  He26     1.0000 0.79527  0.59926  0.88725  Biso   1.000  He
  He27     1.0000 0.88831  0.70972  0.83888  Biso   1.000  He
  He28     1.0000 0.76496  0.66829  0.71848  Biso   1.000  He
  Ar7      1.0000 0.79147  0.67467  0.83622  Biso   1.000  Ar
  Ne8      1.0000 0.70773  0.82458  0.34118  Biso   1.000  Ne
  He29     1.0000 0.77710  0.77694  0.40637  Biso   1.000  He
  He30     1.0000 0.70484  0.89744  0.38495  Biso   1.000  He
  He31     1.0000 0.60998  0.78969  0.33904  Biso   1.000  He
  He32     1.0000 0.73612  0.83180  0.21412  Biso   1.000  He
  Ar8      1.0000 0.70850  0.82534  0.33621  Biso   1.000  Ar
