data_image0
_cell_length_a       20.515
_cell_length_b       28.04
_cell_length_c       35.607
_cell_angle_alpha    90
_cell_angle_beta     90
_cell_angle_gamma    90

_symmetry_space_group_name_H-M    "P 1"
_symmetry_int_tables_number       1

loop_
  _symmetry_equiv_pos_as_xyz
  'x, y, z'

loop_
  _atom_site_label
  _atom_site_occupancy
  _atom_site_fract_x
  _atom_site_fract_y
  _atom_site_fract_z
  _atom_site_thermal_displace_type
  _atom_site_B_iso_or_equiv
  _atom_site_type_symbol
  C1       1.0000 0.47131  0.53830  0.49361  Biso   1.000  C
  C2       1.0000 0.48019  0.51951  0.45401  Biso   1.000  C
  C3       1.0000 0.43178  0.58431  0.49350  Biso   1.000  C
  H1       1.0000 0.51450  0.54440  0.50510  Biso   1.000  H
  H2       1.0000 0.44860  0.51409  0.50911  Biso   1.000  H
  H3       1.0000 0.50592  0.48959  0.45480  Biso   1.000  H
  H4       1.0000 0.43700  0.51209  0.44300  Biso   1.000  H
  C4       1.0000 0.51489  0.55588  0.42969  Biso   1.000  C
  N1       1.0000 0.42262  0.60200  0.53161  Biso   1.000  N
  C5       1.0000 0.46751  0.62168  0.46980  Biso   1.000  C
  H5       1.0000 0.38820  0.57782  0.48201  Biso   1.000  H
  H6       1.0000 0.51689  0.54429  0.40340  Biso   1.000  H
  H7       1.0000 0.56008  0.56031  0.43879  Biso   1.000  H
  C6       1.0000 0.47858  0.60339  0.43110  Biso   1.000  C
  C7       1.0000 0.36588  0.60221  0.54391  Biso   1.000  C
  N2       1.0000 0.42949  0.66551  0.46699  Biso   1.000  N
  H8       1.0000 0.51050  0.62899  0.48170  Biso   1.000  H
  H9       1.0000 0.50378  0.62750  0.41680  Biso   1.000  H
  H10      1.0000 0.43588  0.59961  0.41840  Biso   1.000  H
  C8       1.0000 0.34799  0.61701  0.58241  Biso   1.000  C
  H11      1.0000 0.33190  0.59219  0.52759  Biso   1.000  H
  C9       1.0000 0.45650  0.70271  0.47839  Biso   1.000  C
  C10      1.0000 0.39498  0.63459  0.60780  Biso   1.000  C
  C11      1.0000 0.28369  0.61441  0.59401  Biso   1.000  C
  C12      1.0000 0.42930  0.75078  0.47401  Biso   1.000  C
  H12      1.0000 0.49720  0.69961  0.49080  Biso   1.000  H
  H13      1.0000 0.43909  0.63759  0.59991  Biso   1.000  H
  C13      1.0000 0.37802  0.64750  0.64369  Biso   1.000  C
  C14      1.0000 0.26620  0.62921  0.63049  Biso   1.000  C
  H14      1.0000 0.25128  0.60260  0.57730  Biso   1.000  H
  C15      1.0000 0.46269  0.79108  0.48679  Biso   1.000  C
  C16      1.0000 0.37080  0.75810  0.45480  Biso   1.000  C
  C17      1.0000 0.31401  0.64568  0.65470  Biso   1.000  C
  C18      1.0000 0.42720  0.66558  0.67080  Biso   1.000  C
  C19      1.0000 0.19600  0.62999  0.64100  Biso   1.000  C
  C20      1.0000 0.43861  0.83670  0.48139  Biso   1.000  C
  H15      1.0000 0.50290  0.78709  0.49959  Biso   1.000  H
  C21      1.0000 0.34438  0.80310  0.44929  Biso   1.000  C
  H16      1.0000 0.34809  0.73121  0.44519  Biso   1.000  H
  H17      1.0000 0.30232  0.65588  0.67919  Biso   1.000  H
  N3       1.0000 0.41428  0.68049  0.70290  Biso   1.000  N
  H18      1.0000 0.47151  0.66569  0.66310  Biso   1.000  H
  N4       1.0000 0.15062  0.62218  0.61870  Biso   1.000  N
  H19      1.0000 0.18508  0.63680  0.66641  Biso   1.000  H
  C22      1.0000 0.37972  0.84219  0.46339  Biso   1.000  C
  C23      1.0000 0.47599  0.87810  0.49339  Biso   1.000  C
  C24      1.0000 0.28140  0.80892  0.43070  Biso   1.000  C
  C25      1.0000 0.46732  0.69169  0.72840  Biso   1.000  C
  C26      1.0000 0.08418  0.62660  0.63240  Biso   1.000  C
  H20      1.0000 0.36252  0.87329  0.46030  Biso   1.000  H
  N5       1.0000 0.53332  0.87450  0.50709  Biso   1.000  N
  H21      1.0000 0.45708  0.90892  0.49089  Biso   1.000  H
  N6       1.0000 0.25630  0.84840  0.42391  Biso   1.000  N
  H22      1.0000 0.25830  0.78099  0.42340  Biso   1.000  H
  H23      1.0000 0.50982  0.69001  0.71461  Biso   1.000  H
  C27      1.0000 0.45859  0.74069  0.74449  Biso   1.000  C
  C28      1.0000 0.46561  0.65260  0.75960  Biso   1.000  C
  C29      1.0000 0.04660  0.65991  0.60640  Biso   1.000  C
  H24      1.0000 0.08521  0.64069  0.65821  Biso   1.000  H
  C30      1.0000 0.05250  0.57771  0.63440  Biso   1.000  C
  C31      1.0000 0.56929  0.91901  0.51431  Biso   1.000  C
  C32      1.0000 0.19201  0.84829  0.40590  Biso   1.000  C
  N7       1.0000 0.46751  0.77789  0.71500  Biso   1.000  N
  H25      1.0000 0.41389  0.74362  0.75541  Biso   1.000  H
  C33      1.0000 0.51002  0.75039  0.77569  Biso   1.000  C
  C34      1.0000 0.51928  0.66220  0.78920  Biso   1.000  C
  H26      1.0000 0.42228  0.65271  0.77190  Biso   1.000  H
  H27      1.0000 0.47248  0.62090  0.74811  Biso   1.000  H
  N8       1.0000 0.07399  0.70760  0.60710  Biso   1.000  N
  H28      1.0000 0.04860  0.64718  0.58019  Biso   1.000  H
  C35      1.0000 0.97621  0.66280  0.61870  Biso   1.000  C
  H29      1.0000 0.05562  0.56209  0.60949  Biso   1.000  H
  H30      1.0000 0.07629  0.55770  0.65271  Biso   1.000  H
  C36      1.0000 0.98182  0.58110  0.64580  Biso   1.000  C
  H31      1.0000 0.54039  0.94700  0.50900  Biso   1.000  H
  C37      1.0000 0.59162  0.92090  0.55500  Biso   1.000  C
  C38      1.0000 0.62808  0.92019  0.48799  Biso   1.000  C
  C39      1.0000 0.14409  0.87290  0.43090  Biso   1.000  C
  H32      1.0000 0.17758  0.81459  0.40169  Biso   1.000  H
  C40      1.0000 0.19742  0.87400  0.36791  Biso   1.000  C
  C41      1.0000 0.42681  0.81049  0.71390  Biso   1.000  C
  H33      1.0000 0.55389  0.75150  0.76420  Biso   1.000  H
  H34      1.0000 0.50119  0.78188  0.78709  Biso   1.000  H
  C42      1.0000 0.50929  0.71259  0.80630  Biso   1.000  C
  H35      1.0000 0.56281  0.66009  0.77729  Biso   1.000  H
  H36      1.0000 0.51689  0.63791  0.80931  Biso   1.000  H
  C43      1.0000 0.09169  0.72521  0.57609  Biso   1.000  C
  C44      1.0000 0.94370  0.61369  0.61940  Biso   1.000  C
  H37      1.0000 0.95208  0.68392  0.60129  Biso   1.000  H
  H38      1.0000 0.97402  0.67710  0.64409  Biso   1.000  H
  H39      1.0000 0.97880  0.59362  0.67181  Biso   1.000  H
  H40      1.0000 0.96208  0.54879  0.64549  Biso   1.000  H
  N9       1.0000 0.53571  0.92161  0.58011  Biso   1.000  N
  H41      1.0000 0.61882  0.89208  0.56059  Biso   1.000  H
  C45      1.0000 0.63271  0.96601  0.56129  Biso   1.000  C
  C46      1.0000 0.66888  0.96459  0.49440  Biso   1.000  C
  H42      1.0000 0.65518  0.89151  0.49229  Biso   1.000  H
  H43      1.0000 0.61282  0.91961  0.46159  Biso   1.000  H
  N10      1.0000 0.13541  0.84461  0.46519  Biso   1.000  N
  H44      1.0000 0.16130  0.90510  0.43781  Biso   1.000  H
  C47      1.0000 0.07882  0.87832  0.41231  Biso   1.000  C
  H45      1.0000 0.21672  0.90599  0.37181  Biso   1.000  H
  H46      1.0000 0.22671  0.85571  0.35119  Biso   1.000  H
  C48      1.0000 0.13098  0.87910  0.34940  Biso   1.000  C
  C49      1.0000 0.43042  0.84950  0.68689  Biso   1.000  C
  H47      1.0000 0.39181  0.81009  0.73140  Biso   1.000  H
  H48      1.0000 0.46722  0.71369  0.81981  Biso   1.000  H
  H49      1.0000 0.54448  0.71929  0.82461  Biso   1.000  H
  C50      1.0000 0.11582  0.77450  0.57239  Biso   1.000  C
  H50      1.0000 0.08940  0.70588  0.55419  Biso   1.000  H
  H51      1.0000 0.89812  0.61669  0.62811  Biso   1.000  H
  H52      1.0000 0.94331  0.59989  0.59379  Biso   1.000  H
  C51      1.0000 0.53551  0.89190  0.60631  Biso   1.000  C
  H53      1.0000 0.60531  0.99451  0.55691  Biso   1.000  H
  H54      1.0000 0.64792  0.96680  0.58761  Biso   1.000  H
  C52      1.0000 0.69091  0.96719  0.53529  Biso   1.000  C
  H55      1.0000 0.64309  0.99319  0.48811  Biso   1.000  H
  H56      1.0000 0.70758  0.96380  0.47780  Biso   1.000  H
  C53      1.0000 0.15589  0.86241  0.49580  Biso   1.000  C
  C54      1.0000 0.08399  0.90439  0.37501  Biso   1.000  C
  H57      1.0000 0.04918  0.89618  0.42921  Biso   1.000  H
  H58      1.0000 0.05971  0.84640  0.40801  Biso   1.000  H
  H59      1.0000 0.13561  0.89729  0.32569  Biso   1.000  H
  H60      1.0000 0.11362  0.84718  0.34319  Biso   1.000  H
  C55      1.0000 0.48150  0.85360  0.66111  Biso   1.000  C
  C56      1.0000 0.38001  0.88210  0.68489  Biso   1.000  C
  C57      1.0000 0.12698  0.79330  0.53700  Biso   1.000  C
  C58      1.0000 0.12430  0.80421  0.60339  Biso   1.000  C
  C59      1.0000 0.48131  0.88980  0.63431  Biso   1.000  C
  H61      1.0000 0.57070  0.87011  0.60839  Biso   1.000  H
  H62      1.0000 0.72011  0.94009  0.54090  Biso   1.000  H
  H63      1.0000 0.71572  0.99711  0.53939  Biso   1.000  H
  C60      1.0000 0.14731  0.84030  0.53251  Biso   1.000  C
  H64      1.0000 0.17821  0.89208  0.49459  Biso   1.000  H
  H65      1.0000 0.04051  0.90588  0.36299  Biso   1.000  H
  H66      1.0000 0.09910  0.93748  0.37939  Biso   1.000  H
  H67      1.0000 0.51660  0.83160  0.66181  Biso   1.000  H
  C61      1.0000 0.37841  0.91862  0.65771  Biso   1.000  C
  H68      1.0000 0.34521  0.87981  0.70239  Biso   1.000  H
  H69      1.0000 0.12079  0.77379  0.51549  Biso   1.000  H
  H70      1.0000 0.11528  0.79208  0.62771  Biso   1.000  H
  C62      1.0000 0.14560  0.85061  0.59980  Biso   1.000  C
  C63      1.0000 0.42988  0.92168  0.63271  Biso   1.000  C
  C64      1.0000 0.15701  0.86812  0.56360  Biso   1.000  C
  C65      1.0000 0.32220  0.95039  0.65490  Biso   1.000  C
  C66      1.0000 0.14911  0.88138  0.63299  Biso   1.000  C
  H71      1.0000 0.42998  0.94611  0.61421  Biso   1.000  H
  H72      1.0000 0.17192  0.90000  0.56059  Biso   1.000  H
  N11      1.0000 0.27278  0.94889  0.67579  Biso   1.000  N
  H73      1.0000 0.32308  0.97411  0.63580  Biso   1.000  H
  N12      1.0000 0.16042  0.92561  0.63010  Biso   1.000  N
  H74      1.0000 0.14282  0.86790  0.65720  Biso   1.000  H
  C67      1.0000 0.21969  0.98238  0.66841  Biso   1.000  C
  C68      1.0000 0.15662  0.95432  0.66420  Biso   1.000  C
  H75      1.0000 0.22871  0.00061  0.64490  Biso   1.000  H
  C69      1.0000 0.21540  0.01719  0.70231  Biso   1.000  C
  H76      1.0000 0.15018  0.93310  0.68649  Biso   1.000  H
  C70      1.0000 0.09861  0.98820  0.66009  Biso   1.000  C
  H77      1.0000 0.21219  0.99850  0.72590  Biso   1.000  H
  H78      1.0000 0.25562  0.03659  0.70351  Biso   1.000  H
  C71      1.0000 0.15701  0.04979  0.69919  Biso   1.000  C
  H79      1.0000 0.05791  0.96940  0.65790  Biso   1.000  H
  C72      1.0000 0.09330  0.02200  0.69371  Biso   1.000  C
  H80      1.0000 0.10368  0.00720  0.63681  Biso   1.000  H
  H81      1.0000 0.16339  0.07168  0.67770  Biso   1.000  H
  H82      1.0000 0.15369  0.06929  0.72230  Biso   1.000  H
  H83      1.0000 0.08360  0.00332  0.71671  Biso   1.000  H
  H84      1.0000 0.05698  0.04461  0.68961  Biso   1.000  H
  C73      1.0000 0.64129  0.46879  0.48909  Biso   1.000  C
  C74      1.0000 0.60200  0.42229  0.49451  Biso   1.000  C
  C75      1.0000 0.65479  0.49262  0.52599  Biso   1.000  C
  H85      1.0000 0.68311  0.46131  0.47651  Biso   1.000  H
  H86      1.0000 0.61662  0.49080  0.47269  Biso   1.000  H
  N13      1.0000 0.59152  0.40078  0.45730  Biso   1.000  N
  H87      1.0000 0.55881  0.42999  0.50600  Biso   1.000  H
  C76      1.0000 0.63948  0.38909  0.52040  Biso   1.000  C
  C77      1.0000 0.69091  0.45942  0.55259  Biso   1.000  C
  H88      1.0000 0.61301  0.50250  0.53759  Biso   1.000  H
  H89      1.0000 0.68121  0.52161  0.52170  Biso   1.000  H
  C78      1.0000 0.53288  0.39551  0.44671  Biso   1.000  C
  N14      1.0000 0.60400  0.34511  0.52709  Biso   1.000  N
  H90      1.0000 0.68218  0.38110  0.50841  Biso   1.000  H
  C79      1.0000 0.65269  0.41359  0.55731  Biso   1.000  C
  H91      1.0000 0.73468  0.45221  0.54239  Biso   1.000  H
  H92      1.0000 0.69642  0.47500  0.57739  Biso   1.000  H
  C80      1.0000 0.51328  0.37850  0.41020  Biso   1.000  C
  H93      1.0000 0.49949  0.40332  0.46421  Biso   1.000  H
  C81      1.0000 0.63032  0.30681  0.51650  Biso   1.000  C
  H94      1.0000 0.67731  0.39158  0.57379  Biso   1.000  H
  H95      1.0000 0.61058  0.42079  0.56969  Biso   1.000  H
  C82      1.0000 0.44811  0.38121  0.39939  Biso   1.000  C
  C83      1.0000 0.55842  0.36131  0.38330  Biso   1.000  C
  C84      1.0000 0.60302  0.25909  0.52411  Biso   1.000  C
  H96      1.0000 0.66990  0.30870  0.50279  Biso   1.000  H
  C85      1.0000 0.42730  0.36780  0.36380  Biso   1.000  C
  H97      1.0000 0.41691  0.39251  0.41700  Biso   1.000  H
  C86      1.0000 0.53892  0.34729  0.34799  Biso   1.000  C
  H98      1.0000 0.60322  0.35942  0.38981  Biso   1.000  H
  C87      1.0000 0.54628  0.25339  0.54371  Biso   1.000  C
  C88      1.0000 0.63622  0.21929  0.51111  Biso   1.000  C
  C89      1.0000 0.35862  0.36912  0.35350  Biso   1.000  C
  C90      1.0000 0.47239  0.35071  0.33861  Biso   1.000  C
  C91      1.0000 0.58611  0.32999  0.31991  Biso   1.000  C
  C92      1.0000 0.52142  0.20799  0.55110  Biso   1.000  C
  H99      1.0000 0.52342  0.28071  0.55250  Biso   1.000  H
  C93      1.0000 0.61311  0.17400  0.51799  Biso   1.000  C
  H100     1.0000 0.67541  0.22329  0.49721  Biso   1.000  H
  N15      1.0000 0.31440  0.38231  0.37599  Biso   1.000  N
  H101     1.0000 0.34638  0.35949  0.32890  Biso   1.000  H
  H102     1.0000 0.45840  0.34091  0.31429  Biso   1.000  H
  N16      1.0000 0.56978  0.31551  0.28781  Biso   1.000  N
  H103     1.0000 0.63100  0.32989  0.32640  Biso   1.000  H
  C94      1.0000 0.45742  0.20210  0.56980  Biso   1.000  C
  C95      1.0000 0.55559  0.16819  0.53751  Biso   1.000  C
  C96      1.0000 0.64918  0.13199  0.50600  Biso   1.000  C
  C97      1.0000 0.24602  0.38081  0.36181  Biso   1.000  C
  C98      1.0000 0.62159  0.30371  0.26090  Biso   1.000  C
  N17      1.0000 0.43149  0.16220  0.57441  Biso   1.000  N
  H104     1.0000 0.43529  0.22971  0.57871  Biso   1.000  H
  H105     1.0000 0.53902  0.13698  0.54180  Biso   1.000  H
  N18      1.0000 0.70441  0.13531  0.48951  Biso   1.000  N
  H106     1.0000 0.63129  0.10128  0.51060  Biso   1.000  H
  C99      1.0000 0.20551  0.35089  0.38849  Biso   1.000  C
  H107     1.0000 0.24509  0.36641  0.33620  Biso   1.000  H
  C100     1.0000 0.22028  0.43099  0.36029  Biso   1.000  C
  H108     1.0000 0.66478  0.30710  0.27360  Biso   1.000  H
  C101     1.0000 0.61828  0.33780  0.22869  Biso   1.000  C
  C102     1.0000 0.61428  0.25250  0.24700  Biso   1.000  C
  C103     1.0000 0.36758  0.16098  0.59241  Biso   1.000  C
  C104     1.0000 0.73970  0.09108  0.48100  Biso   1.000  C
  N19      1.0000 0.22969  0.30189  0.38869  Biso   1.000  N
  H109     1.0000 0.20780  0.36459  0.41441  Biso   1.000  H
  C105     1.0000 0.13478  0.34961  0.37521  Biso   1.000  C
  H110     1.0000 0.24670  0.44989  0.34229  Biso   1.000  H
  H111     1.0000 0.22432  0.44601  0.38529  Biso   1.000  H
  C106     1.0000 0.14770  0.43149  0.34780  Biso   1.000  C
  H112     1.0000 0.62442  0.37061  0.23830  Biso   1.000  H
  H113     1.0000 0.57460  0.33591  0.21709  Biso   1.000  H
  C107     1.0000 0.66932  0.32771  0.19920  Biso   1.000  C
  N20      1.0000 0.62252  0.21801  0.27770  Biso   1.000  N
  C108     1.0000 0.66488  0.24169  0.21670  Biso   1.000  C
  H114     1.0000 0.56978  0.24850  0.23599  Biso   1.000  H
  C109     1.0000 0.31879  0.13880  0.56520  Biso   1.000  C
  H115     1.0000 0.35369  0.19419  0.59879  Biso   1.000  H
  C110     1.0000 0.37309  0.13099  0.62839  Biso   1.000  C
  C111     1.0000 0.75408  0.08809  0.43941  Biso   1.000  C
  H116     1.0000 0.71231  0.06320  0.48850  Biso   1.000  H
  C112     1.0000 0.80200  0.09091  0.50389  Biso   1.000  C
  C113     1.0000 0.24948  0.28549  0.41969  Biso   1.000  C
  C114     1.0000 0.10699  0.40050  0.37389  Biso   1.000  C
  H117     1.0000 0.10860  0.32989  0.39259  Biso   1.000  H
  H118     1.0000 0.13249  0.33509  0.34990  Biso   1.000  H
  H119     1.0000 0.13088  0.46459  0.34819  Biso   1.000  H
  H120     1.0000 0.14409  0.41940  0.32171  Biso   1.000  H
  H121     1.0000 0.66400  0.35029  0.17811  Biso   1.000  H
  H122     1.0000 0.71319  0.33249  0.21010  Biso   1.000  H
  C115     1.0000 0.66332  0.27728  0.18491  Biso   1.000  C
  C116     1.0000 0.57880  0.18591  0.27980  Biso   1.000  C
  H123     1.0000 0.70890  0.24180  0.22810  Biso   1.000  H
  H124     1.0000 0.65689  0.20942  0.20639  Biso   1.000  H
  N21      1.0000 0.31002  0.16879  0.53270  Biso   1.000  N
  H125     1.0000 0.33512  0.10681  0.55700  Biso   1.000  H
  C117     1.0000 0.25328  0.13310  0.58371  Biso   1.000  C
  H126     1.0000 0.39249  0.09961  0.62229  Biso   1.000  H
  H127     1.0000 0.40219  0.14729  0.64650  Biso   1.000  H
  C118     1.0000 0.30641  0.12372  0.64619  Biso   1.000  C
  N22      1.0000 0.69262  0.08520  0.41801  Biso   1.000  N
  H128     1.0000 0.77792  0.11762  0.43171  Biso   1.000  H
  C119     1.0000 0.79591  0.04529  0.42969  Biso   1.000  C
  H129     1.0000 0.79098  0.08991  0.53091  Biso   1.000  H
  H130     1.0000 0.82642  0.12068  0.49900  Biso   1.000  H
  C120     1.0000 0.84548  0.04779  0.49409  Biso   1.000  C
  C121     1.0000 0.27302  0.23591  0.42430  Biso   1.000  C
  H131     1.0000 0.24918  0.30581  0.44101  Biso   1.000  H
  H132     1.0000 0.06142  0.39950  0.36479  Biso   1.000  H
  H133     1.0000 0.10709  0.41441  0.39939  Biso   1.000  H
  H134     1.0000 0.69959  0.27061  0.16730  Biso   1.000  H
  H135     1.0000 0.62189  0.27389  0.17089  Biso   1.000  H
  C122     1.0000 0.58221  0.14861  0.30879  Biso   1.000  C
  H136     1.0000 0.54370  0.18598  0.26239  Biso   1.000  H
  C123     1.0000 0.32269  0.15011  0.50131  Biso   1.000  C
  C124     1.0000 0.25771  0.10178  0.61859  Biso   1.000  C
  H137     1.0000 0.22242  0.11862  0.56559  Biso   1.000  H
  H138     1.0000 0.23622  0.16491  0.59070  Biso   1.000  H
  H139     1.0000 0.28940  0.15481  0.65510  Biso   1.000  H
  H140     1.0000 0.31080  0.10250  0.66830  Biso   1.000  H
  C125     1.0000 0.68911  0.11081  0.38891  Biso   1.000  C
  C126     1.0000 0.85942  0.04568  0.45191  Biso   1.000  C
  H141     1.0000 0.80570  0.04551  0.40251  Biso   1.000  H
  H142     1.0000 0.77148  0.01569  0.43539  Biso   1.000  H
  H143     1.0000 0.88711  0.05021  0.50799  Biso   1.000  H
  H144     1.0000 0.82340  0.01812  0.50201  Biso   1.000  H
  C127     1.0000 0.28930  0.21890  0.45940  Biso   1.000  C
  C128     1.0000 0.27828  0.20531  0.39400  Biso   1.000  C
  C129     1.0000 0.53088  0.11730  0.31249  Biso   1.000  C
  C130     1.0000 0.63310  0.14501  0.33390  Biso   1.000  C
  C131     1.0000 0.31138  0.17129  0.46440  Biso   1.000  C
  H145     1.0000 0.34151  0.11912  0.50170  Biso   1.000  H
  H146     1.0000 0.27200  0.06929  0.61151  Biso   1.000  H
  H147     1.0000 0.21428  0.09929  0.63061  Biso   1.000  H
  C132     1.0000 0.63320  0.11159  0.36310  Biso   1.000  C
  H148     1.0000 0.72498  0.13088  0.38330  Biso   1.000  H
  H149     1.0000 0.88579  0.07379  0.44441  Biso   1.000  H
  H150     1.0000 0.88482  0.01658  0.44601  Biso   1.000  H
  H151     1.0000 0.28560  0.23941  0.48061  Biso   1.000  H
  H152     1.0000 0.26659  0.21669  0.36979  Biso   1.000  H
  C133     1.0000 0.29939  0.15970  0.39739  Biso   1.000  C
  C134     1.0000 0.52839  0.08331  0.34131  Biso   1.000  C
  H153     1.0000 0.49608  0.11869  0.29491  Biso   1.000  H
  H154     1.0000 0.66932  0.16580  0.33131  Biso   1.000  H
  C135     1.0000 0.31640  0.14290  0.43309  Biso   1.000  C
  C136     1.0000 0.57992  0.08110  0.36661  Biso   1.000  C
  C137     1.0000 0.30032  0.12710  0.36490  Biso   1.000  C
  C138     1.0000 0.47068  0.05250  0.34631  Biso   1.000  C
  H155     1.0000 0.33171  0.11109  0.43581  Biso   1.000  H
  H156     1.0000 0.57870  0.05859  0.38661  Biso   1.000  H
  N23      1.0000 0.31421  0.08381  0.36810  Biso   1.000  N
  H157     1.0000 0.29008  0.13941  0.34080  Biso   1.000  H
  N24      1.0000 0.42408  0.05271  0.32336  Biso   1.000  N
  H158     1.0000 0.46868  0.03188  0.36751  Biso   1.000  H
  C139     1.0000 0.30738  0.05339  0.33510  Biso   1.000  C
  C140     1.0000 0.36851  0.02250  0.33100  Biso   1.000  C
  H159     1.0000 0.30202  0.07361  0.31210  Biso   1.000  H
  C141     1.0000 0.24699  0.02211  0.34041  Biso   1.000  C
  H160     1.0000 0.37602  0.00432  0.35479  Biso   1.000  H
  C142     1.0000 0.35862  0.98752  0.29831  Biso   1.000  C
  H161     1.0000 0.25138  0.00389  0.36411  Biso   1.000  H
  H162     1.0000 0.20799  0.04280  0.34271  Biso   1.000  H
  C143     1.0000 0.23748  0.98809  0.30839  Biso   1.000  C
  H163     1.0000 0.35540  0.00571  0.27461  Biso   1.000  H
  H164     1.0000 0.39712  0.96630  0.29649  Biso   1.000  H
  C144     1.0000 0.29759  0.95731  0.30309  Biso   1.000  C
  H165     1.0000 0.22881  0.00621  0.28511  Biso   1.000  H
  H166     1.0000 0.19942  0.96751  0.31351  Biso   1.000  H
  H167     1.0000 0.29169  0.93691  0.28070  Biso   1.000  H
  H168     1.0000 0.30290  0.93620  0.32519  Biso   1.000  H
  C145     1.0000 0.65591  0.63759  0.50420  Biso   1.000  C
  C146     1.0000 0.64728  0.65970  0.46749  Biso   1.000  C
  N25      1.0000 0.63539  0.65539  0.53481  Biso   1.000  N
  H169     1.0000 0.67819  0.60792  0.50541  Biso   1.000  H
  C147     1.0000 0.65698  0.63188  0.43640  Biso   1.000  C
  C148     1.0000 0.62700  0.70670  0.46300  Biso   1.000  C
  C149     1.0000 0.64411  0.62710  0.56910  Biso   1.000  C
  C150     1.0000 0.64558  0.64939  0.40020  Biso   1.000  C
  H170     1.0000 0.67190  0.60000  0.43941  Biso   1.000  H
  C151     1.0000 0.61579  0.72550  0.42761  Biso   1.000  C
  H171     1.0000 0.62081  0.72621  0.48451  Biso   1.000  H
  H172     1.0000 0.66132  0.59490  0.56219  Biso   1.000  H
  C152     1.0000 0.69198  0.65171  0.59410  Biso   1.000  C
  C153     1.0000 0.57880  0.62168  0.58769  Biso   1.000  C
  C154     1.0000 0.64909  0.61862  0.36701  Biso   1.000  C
  C155     1.0000 0.62432  0.69579  0.39661  Biso   1.000  C
  C156     1.0000 0.59171  0.77479  0.42391  Biso   1.000  C
  N26      1.0000 0.75628  0.65160  0.57609  Biso   1.000  N
  H173     1.0000 0.67760  0.68541  0.59831  Biso   1.000  H
  C157     1.0000 0.69739  0.62600  0.63209  Biso   1.000  C
  C158     1.0000 0.58401  0.59561  0.62499  Biso   1.000  C
  H174     1.0000 0.54921  0.60382  0.57079  Biso   1.000  H
  H175     1.0000 0.55969  0.65360  0.59199  Biso   1.000  H
  N27      1.0000 0.66039  0.57439  0.36990  Biso   1.000  N
  H176     1.0000 0.64280  0.63210  0.34280  Biso   1.000  H
  H177     1.0000 0.61531  0.70792  0.37229  Biso   1.000  H
  N28      1.0000 0.57402  0.79240  0.39290  Biso   1.000  N
  H178     1.0000 0.58942  0.79412  0.44581  Biso   1.000  H
  C159     1.0000 0.78138  0.69108  0.56930  Biso   1.000  C
  H179     1.0000 0.71670  0.59401  0.62819  Biso   1.000  H
  H180     1.0000 0.72669  0.64429  0.64881  Biso   1.000  H
  C160     1.0000 0.63100  0.62090  0.65060  Biso   1.000  C
  H181     1.0000 0.54048  0.59412  0.63701  Biso   1.000  H
  H182     1.0000 0.59912  0.56252  0.62061  Biso   1.000  H
  C161     1.0000 0.65659  0.54568  0.33580  Biso   1.000  C
  C162     1.0000 0.54658  0.84009  0.39360  Biso   1.000  C
  C163     1.0000 0.84441  0.69690  0.55071  Biso   1.000  C
  H183     1.0000 0.75832  0.71901  0.57660  Biso   1.000  H
  H184     1.0000 0.63558  0.60271  0.67431  Biso   1.000  H
  H185     1.0000 0.61360  0.65282  0.65681  Biso   1.000  H
  C164     1.0000 0.59859  0.51180  0.33991  Biso   1.000  C
  C165     1.0000 0.71972  0.51762  0.33159  Biso   1.000  C
  H186     1.0000 0.65021  0.56690  0.31351  Biso   1.000  H
  H187     1.0000 0.54862  0.85282  0.41981  Biso   1.000  H
  C166     1.0000 0.58421  0.87340  0.36760  Biso   1.000  C
  C167     1.0000 0.47619  0.83720  0.38130  Biso   1.000  C
  C168     1.0000 0.87970  0.65781  0.53661  Biso   1.000  C
  C169     1.0000 0.87078  0.74190  0.54520  Biso   1.000  C
  C170     1.0000 0.59332  0.47800  0.30629  Biso   1.000  C
  H188     1.0000 0.60370  0.49280  0.36319  Biso   1.000  H
  H189     1.0000 0.55788  0.53060  0.34210  Biso   1.000  H
  C171     1.0000 0.71538  0.48281  0.29769  Biso   1.000  C
  N29      1.0000 0.77280  0.55111  0.32421  Biso   1.000  N
  H190     1.0000 0.72869  0.49939  0.35510  Biso   1.000  H
  N30      1.0000 0.65060  0.87782  0.38130  Biso   1.000  N
  H191     1.0000 0.58518  0.85931  0.34179  Biso   1.000  H
  C172     1.0000 0.55252  0.92229  0.36560  Biso   1.000  C
  C173     1.0000 0.44372  0.88631  0.38060  Biso   1.000  C
  H192     1.0000 0.45211  0.81608  0.39871  Biso   1.000  H
  H193     1.0000 0.47399  0.82290  0.35591  Biso   1.000  H
  C174     1.0000 0.93858  0.66330  0.51861  Biso   1.000  C
  H194     1.0000 0.86249  0.62671  0.53970  Biso   1.000  H
  C175     1.0000 0.92932  0.74922  0.52599  Biso   1.000  C
  H195     1.0000 0.84811  0.76879  0.55481  Biso   1.000  H
  C176     1.0000 0.65698  0.45021  0.30081  Biso   1.000  C
  H196     1.0000 0.58362  0.49668  0.28329  Biso   1.000  H
  H197     1.0000 0.55701  0.45539  0.31039  Biso   1.000  H
  H198     1.0000 0.71221  0.50150  0.27410  Biso   1.000  H
  H199     1.0000 0.75559  0.46341  0.29649  Biso   1.000  H
  C177     1.0000 0.82218  0.54961  0.34510  Biso   1.000  C
  C178     1.0000 0.69598  0.87001  0.35900  Biso   1.000  C
  H200     1.0000 0.55559  0.93791  0.39051  Biso   1.000  H
  H201     1.0000 0.57631  0.94230  0.34729  Biso   1.000  H
  C179     1.0000 0.48179  0.91890  0.35420  Biso   1.000  C
  H202     1.0000 0.39810  0.88331  0.37189  Biso   1.000  H
  H203     1.0000 0.44329  0.90011  0.40621  Biso   1.000  H
  C180     1.0000 0.97602  0.62190  0.50661  Biso   1.000  C
  C181     1.0000 0.96271  0.70892  0.51321  Biso   1.000  C
  C182     1.0000 0.95652  0.79729  0.52161  Biso   1.000  C
  H204     1.0000 0.66342  0.42832  0.32230  Biso   1.000  H
  H205     1.0000 0.65372  0.43071  0.27770  Biso   1.000  H
  C183     1.0000 0.87838  0.58138  0.34229  Biso   1.000  C
  H206     1.0000 0.82311  0.52589  0.36420  Biso   1.000  H
  C184     1.0000 0.76622  0.87079  0.36951  Biso   1.000  C
  H207     1.0000 0.68511  0.86320  0.33359  Biso   1.000  H
  H208     1.0000 0.47882  0.90638  0.32819  Biso   1.000  H
  H209     1.0000 0.46210  0.95121  0.35451  Biso   1.000  H
  N31      1.0000 0.03329  0.62550  0.49291  Biso   1.000  N
  H210     1.0000 0.95710  0.59108  0.50911  Biso   1.000  H
  H211     1.0000 0.00288  0.71291  0.50041  Biso   1.000  H
  N32      1.0000 0.92951  0.83449  0.53301  Biso   1.000  N
  H212     1.0000 0.99722  0.80039  0.50920  Biso   1.000  H
  C185     1.0000 0.92990  0.57832  0.36729  Biso   1.000  C
  C186     1.0000 0.87999  0.61790  0.31511  Biso   1.000  C
  C187     1.0000 0.81399  0.85432  0.34530  Biso   1.000  C
  C188     1.0000 0.78372  0.88559  0.40599  Biso   1.000  C
  C189     1.0000 0.06932  0.58099  0.48569  Biso   1.000  C
  C190     1.0000 0.96749  0.87832  0.53020  Biso   1.000  C
  C191     1.0000 0.98128  0.61020  0.36569  Biso   1.000  C
  H213     1.0000 0.93000  0.55389  0.38579  Biso   1.000  H
  C192     1.0000 0.93039  0.65050  0.31311  Biso   1.000  C
  H214     1.0000 0.84519  0.62019  0.29761  Biso   1.000  H
  C193     1.0000 0.87799  0.85250  0.35631  Biso   1.000  C
  H215     1.0000 0.80229  0.84412  0.32081  Biso   1.000  H
  C194     1.0000 0.84801  0.88299  0.41759  Biso   1.000  C
  H216     1.0000 0.75130  0.89740  0.42270  Biso   1.000  H
  C195     1.0000 0.09159  0.57910  0.44500  Biso   1.000  C
  H217     1.0000 0.04041  0.55300  0.49100  Biso   1.000  H
  C196     1.0000 0.12810  0.57981  0.51201  Biso   1.000  C
  C197     1.0000 0.93181  0.91569  0.50650  Biso   1.000  C
  C198     1.0000 0.97860  0.89661  0.56890  Biso   1.000  C
  H218     1.0000 0.01048  0.87101  0.51830  Biso   1.000  H
  C199     1.0000 0.98148  0.64640  0.33889  Biso   1.000  C
  C200     1.0000 0.03549  0.60810  0.39369  Biso   1.000  C
  C201     1.0000 0.92679  0.68951  0.28610  Biso   1.000  C
  C202     1.0000 0.92722  0.83442  0.32920  Biso   1.000  C
  C203     1.0000 0.89500  0.86541  0.39220  Biso   1.000  C
  C204     1.0000 0.86590  0.89779  0.45609  Biso   1.000  C
  N33      1.0000 0.03568  0.57839  0.41989  Biso   1.000  N
  H219     1.0000 0.11879  0.60792  0.43941  Biso   1.000  H
  C205     1.0000 0.13268  0.53399  0.43871  Biso   1.000  C
  C206     1.0000 0.16890  0.53541  0.50560  Biso   1.000  C
  H220     1.0000 0.15520  0.60849  0.50771  Biso   1.000  H
  H221     1.0000 0.11280  0.58039  0.53841  Biso   1.000  H
  N34      1.0000 0.92259  0.89800  0.46839  Biso   1.000  N
  H222     1.0000 0.88818  0.92218  0.51799  Biso   1.000  H
  C207     1.0000 0.97129  0.96170  0.50639  Biso   1.000  C
  H223     1.0000 0.93590  0.90039  0.58160  Biso   1.000  H
  C208     1.0000 0.01492  0.94412  0.57031  Biso   1.000  C
  H224     1.0000 0.00380  0.87250  0.58320  Biso   1.000  H
  H225     1.0000 0.01662  0.66840  0.33819  Biso   1.000  H
  H226     1.0000 0.07068  0.62989  0.39161  Biso   1.000  H
  N35      1.0000 0.96749  0.72211  0.28500  Biso   1.000  N
  H227     1.0000 0.89179  0.68991  0.26860  Biso   1.000  H
  N36      1.0000 0.91431  0.81951  0.29710  Biso   1.000  N
  H228     1.0000 0.97148  0.83431  0.33690  Biso   1.000  H
  H229     1.0000 0.93912  0.86241  0.40009  Biso   1.000  H
  H230     1.0000 0.83188  0.90781  0.47241  Biso   1.000  H
  H231     1.0000 0.10529  0.50549  0.44309  Biso   1.000  H
  H232     1.0000 0.14789  0.53320  0.41239  Biso   1.000  H
  C209     1.0000 0.19088  0.53281  0.46471  Biso   1.000  C
  H233     1.0000 0.14311  0.50681  0.51189  Biso   1.000  H
  H234     1.0000 0.20760  0.53620  0.52220  Biso   1.000  H
  H235     1.0000 0.94862  0.98591  0.49089  Biso   1.000  H
  C210     1.0000 0.98021  0.98049  0.54599  Biso   1.000  C
  H236     1.0000 0.01448  0.95560  0.49490  Biso   1.000  H
  H237     1.0000 0.01691  0.95571  0.59660  Biso   1.000  H
  H238     1.0000 0.06010  0.93969  0.56121  Biso   1.000  H
  C211     1.0000 0.95862  0.75931  0.25551  Biso   1.000  C
  C212     1.0000 0.96729  0.80831  0.27160  Biso   1.000  C
  H239     1.0000 0.22008  0.55991  0.45910  Biso   1.000  H
  H240     1.0000 0.21570  0.50289  0.46061  Biso   1.000  H
  H241     1.0000 0.93702  0.98791  0.55700  Biso   1.000  H
  H242     1.0000 0.00590  0.01041  0.54520  Biso   1.000  H
  H243     1.0000 0.91392  0.75638  0.24459  Biso   1.000  H
  C213     1.0000 0.00999  0.74961  0.22431  Biso   1.000  C
  C214     1.0000 0.96559  0.84740  0.24040  Biso   1.000  C
  H244     1.0000 0.00980  0.80999  0.28539  Biso   1.000  H
  H245     1.0000 0.05391  0.74850  0.23580  Biso   1.000  H
  H246     1.0000 0.00122  0.71812  0.21291  Biso   1.000  H
  C215     1.0000 0.00931  0.78741  0.19370  Biso   1.000  C
  H247     1.0000 0.92230  0.84729  0.22810  Biso   1.000  H
  H248     1.0000 0.97251  0.87910  0.25189  Biso   1.000  H
  C216     1.0000 0.01930  0.83780  0.21080  Biso   1.000  C
  H249     1.0000 0.96719  0.78631  0.18019  Biso   1.000  H
  H250     1.0000 0.04450  0.78071  0.17539  Biso   1.000  H
  H251     1.0000 0.06278  0.83991  0.22271  Biso   1.000  H
  H252     1.0000 0.01691  0.86209  0.19069  Biso   1.000  H
  C217     1.0000 0.75330  0.36690  0.41629  Biso   1.000  C
  C218     1.0000 0.75769  0.39822  0.38141  Biso   1.000  C
  C219     1.0000 0.81882  0.36120  0.43480  Biso   1.000  C
  H253     1.0000 0.72240  0.38138  0.43441  Biso   1.000  H
  H254     1.0000 0.73619  0.33509  0.40930  Biso   1.000  H
  C220     1.0000 0.80639  0.37628  0.35381  Biso   1.000  C
  H255     1.0000 0.77202  0.43071  0.38849  Biso   1.000  H
  H256     1.0000 0.71431  0.40071  0.36939  Biso   1.000  H
  C221     1.0000 0.86761  0.33902  0.40759  Biso   1.000  C
  N37      1.0000 0.80999  0.33121  0.46730  Biso   1.000  N
  H257     1.0000 0.83510  0.39319  0.44300  Biso   1.000  H
  C222     1.0000 0.87312  0.36901  0.37161  Biso   1.000  C
  H258     1.0000 0.78942  0.34519  0.34490  Biso   1.000  H
  H259     1.0000 0.81082  0.39750  0.33170  Biso   1.000  H
  N38      1.0000 0.93151  0.33780  0.42559  Biso   1.000  N
  H260     1.0000 0.85372  0.30581  0.40121  Biso   1.000  H
  C223     1.0000 0.82272  0.34989  0.49869  Biso   1.000  C
  H261     1.0000 0.89252  0.40039  0.37771  Biso   1.000  H
  H262     1.0000 0.90222  0.35271  0.35350  Biso   1.000  H
  C224     1.0000 0.95740  0.29790  0.43020  Biso   1.000  C
  C225     1.0000 0.81141  0.32871  0.53560  Biso   1.000  C
  H263     1.0000 0.84148  0.38088  0.49830  Biso   1.000  H
  H264     1.0000 0.93532  0.27029  0.42129  Biso   1.000  H
  C226     1.0000 0.02140  0.29201  0.44890  Biso   1.000  C
  C227     1.0000 0.78928  0.28110  0.54060  Biso   1.000  C
  C228     1.0000 0.81638  0.35710  0.56691  Biso   1.000  C
  C229     1.0000 0.04631  0.24661  0.45629  Biso   1.000  C
  C230     1.0000 0.05562  0.33181  0.46249  Biso   1.000  C
  H265     1.0000 0.78562  0.26059  0.51939  Biso   1.000  H
  C231     1.0000 0.77300  0.26409  0.57570  Biso   1.000  C
  C232     1.0000 0.79942  0.34030  0.60261  Biso   1.000  C
  H266     1.0000 0.83168  0.38891  0.56419  Biso   1.000  H
  C233     1.0000 0.10300  0.24091  0.47589  Biso   1.000  C
  H267     1.0000 0.02340  0.21929  0.44750  Biso   1.000  H
  H268     1.0000 0.03900  0.36302  0.45820  Biso   1.000  H
  C234     1.0000 0.11309  0.32600  0.48201  Biso   1.000  C
  C235     1.0000 0.77831  0.29469  0.60600  Biso   1.000  C
  C236     1.0000 0.74950  0.21451  0.58031  Biso   1.000  C
  C237     1.0000 0.80029  0.37290  0.63510  Biso   1.000  C
  C238     1.0000 0.13619  0.28071  0.48889  Biso   1.000  C
  C239     1.0000 0.13029  0.19319  0.48350  Biso   1.000  C
  C240     1.0000 0.14921  0.36801  0.49400  Biso   1.000  C
  H269     1.0000 0.76661  0.28331  0.63021  Biso   1.000  H
  N39      1.0000 0.72971  0.19811  0.61131  Biso   1.000  N
  H270     1.0000 0.74921  0.19419  0.55899  Biso   1.000  H
  N40      1.0000 0.81418  0.41619  0.63190  Biso   1.000  N
  H271     1.0000 0.79010  0.36059  0.65920  Biso   1.000  H
  H272     1.0000 0.17538  0.27671  0.50279  Biso   1.000  H
  N41      1.0000 0.10402  0.15489  0.47291  Biso   1.000  N
  H273     1.0000 0.16988  0.19130  0.49721  Biso   1.000  H
  N42      1.0000 0.20439  0.36469  0.51049  Biso   1.000  N
  H274     1.0000 0.13132  0.39872  0.48940  Biso   1.000  H
  C241     1.0000 0.70548  0.14911  0.61151  Biso   1.000  C
  C242     1.0000 0.80741  0.44661  0.66490  Biso   1.000  C
  C243     1.0000 0.13951  0.11091  0.47960  Biso   1.000  C
  C244     1.0000 0.23968  0.40892  0.51900  Biso   1.000  C
  H275     1.0000 0.70782  0.13541  0.58559  Biso   1.000  H
  C245     1.0000 0.74599  0.11919  0.63819  Biso   1.000  C
  C246     1.0000 0.63480  0.15039  0.62479  Biso   1.000  C
  H276     1.0000 0.80200  0.42639  0.68790  Biso   1.000  H
  C247     1.0000 0.86849  0.47750  0.66900  Biso   1.000  C
  C248     1.0000 0.74701  0.47789  0.65959  Biso   1.000  C
  C249     1.0000 0.10202  0.07771  0.50549  Biso   1.000  C
  H277     1.0000 0.18221  0.11890  0.49159  Biso   1.000  H
  C250     1.0000 0.15272  0.08641  0.44269  Biso   1.000  C
  C251     1.0000 0.25411  0.41191  0.56059  Biso   1.000  C
  H278     1.0000 0.21228  0.43680  0.51150  Biso   1.000  H
  C252     1.0000 0.30202  0.40909  0.49611  Biso   1.000  C
  N43      1.0000 0.81438  0.11769  0.62401  Biso   1.000  N
  H279     1.0000 0.74511  0.13359  0.66380  Biso   1.000  H
  C253     1.0000 0.72030  0.06901  0.63971  Biso   1.000  C
  C254     1.0000 0.60702  0.09950  0.62611  Biso   1.000  C
  H280     1.0000 0.60858  0.17011  0.60741  Biso   1.000  H
  H281     1.0000 0.63251  0.16491  0.65010  Biso   1.000  H
  N44      1.0000 0.92410  0.44729  0.67664  Biso   1.000  N
  H282     1.0000 0.87599  0.49568  0.64521  Biso   1.000  H
  C255     1.0000 0.85859  0.51248  0.70169  Biso   1.000  C
  C256     1.0000 0.73751  0.51191  0.69161  Biso   1.000  C
  H283     1.0000 0.75140  0.49611  0.63589  Biso   1.000  H
  H284     1.0000 0.70802  0.45720  0.65729  Biso   1.000  H
  N45      1.0000 0.09149  0.09922  0.54270  Biso   1.000  N
  H285     1.0000 0.05879  0.07001  0.49400  Biso   1.000  H
  C257     1.0000 0.14131  0.03121  0.51091  Biso   1.000  C
  H286     1.0000 0.17728  0.10842  0.42621  Biso   1.000  H
  H287     1.0000 0.11060  0.07921  0.43031  Biso   1.000  H
  C258     1.0000 0.19088  0.04058  0.44741  Biso   1.000  C
  N46      1.0000 0.19259  0.41480  0.58199  Biso   1.000  N
  H288     1.0000 0.27789  0.38238  0.56829  Biso   1.000  H
  C259     1.0000 0.29588  0.45471  0.57031  Biso   1.000  C
  H289     1.0000 0.29101  0.41009  0.46909  Biso   1.000  H
  H290     1.0000 0.32640  0.37932  0.50100  Biso   1.000  H
  C260     1.0000 0.34550  0.45221  0.50591  Biso   1.000  C
  C261     1.0000 0.85859  0.13088  0.64650  Biso   1.000  C
  H291     1.0000 0.74672  0.05011  0.65771  Biso   1.000  H
  H292     1.0000 0.72430  0.05399  0.61471  Biso   1.000  H
  C262     1.0000 0.64772  0.06851  0.65220  Biso   1.000  C
  H293     1.0000 0.56139  0.10050  0.63521  Biso   1.000  H
  H294     1.0000 0.60712  0.08559  0.60061  Biso   1.000  H
  C263     1.0000 0.97070  0.44750  0.65369  Biso   1.000  C
  H295     1.0000 0.85542  0.49429  0.72539  Biso   1.000  H
  H296     1.0000 0.89710  0.53370  0.70351  Biso   1.000  H
  C264     1.0000 0.79761  0.54269  0.69691  Biso   1.000  C
  H297     1.0000 0.72878  0.49379  0.71489  Biso   1.000  H
  H298     1.0000 0.69939  0.53249  0.68649  Biso   1.000  H
  C265     1.0000 0.03290  0.10449  0.55329  Biso   1.000  C
  C266     1.0000 0.15481  0.00738  0.47401  Biso   1.000  C
  H299     1.0000 0.18309  0.03869  0.52349  Biso   1.000  H
  H300     1.0000 0.11660  0.00920  0.52731  Biso   1.000  H
  H301     1.0000 0.23471  0.04779  0.45761  Biso   1.000  H
  H302     1.0000 0.19639  0.02500  0.42261  Biso   1.000  H
  C267     1.0000 0.18908  0.38919  0.61109  Biso   1.000  C
  C268     1.0000 0.35940  0.45432  0.54809  Biso   1.000  C
  H303     1.0000 0.30568  0.45449  0.59749  Biso   1.000  H
  H304     1.0000 0.27151  0.48431  0.56461  Biso   1.000  H
  H305     1.0000 0.38708  0.44979  0.49201  Biso   1.000  H
  H306     1.0000 0.32342  0.48188  0.49799  Biso   1.000  H
  C269     1.0000 0.92732  0.13220  0.63620  Biso   1.000  C
  H307     1.0000 0.84641  0.14051  0.67110  Biso   1.000  H
  H308     1.0000 0.63090  0.03541  0.65181  Biso   1.000  H
  H309     1.0000 0.64411  0.08060  0.67829  Biso   1.000  H
  H310     1.0000 0.96871  0.46812  0.63249  Biso   1.000  H
  C270     1.0000 0.02842  0.41669  0.65869  Biso   1.000  C
  H311     1.0000 0.79171  0.56309  0.71930  Biso   1.000  H
  H312     1.0000 0.80288  0.56380  0.67481  Biso   1.000  H
  H313     1.0000 0.99951  0.09668  0.53579  Biso   1.000  H
  C271     1.0000 0.01331  0.12150  0.58980  Biso   1.000  C
  H314     1.0000 0.11299  0.99750  0.46241  Biso   1.000  H
  H315     1.0000 0.18118  0.97839  0.47830  Biso   1.000  H
  C272     1.0000 0.13322  0.38841  0.63690  Biso   1.000  C
  H316     1.0000 0.22501  0.36912  0.61670  Biso   1.000  H
  H317     1.0000 0.38582  0.42621  0.55559  Biso   1.000  H
  H318     1.0000 0.38479  0.48342  0.55399  Biso   1.000  H
  C273     1.0000 0.94809  0.11879  0.60061  Biso   1.000  C
  C274     1.0000 0.97241  0.14929  0.66139  Biso   1.000  C
  C275     1.0000 0.07989  0.41890  0.63339  Biso   1.000  C
  C276     1.0000 0.03090  0.38270  0.68751  Biso   1.000  C
  C277     1.0000 0.05840  0.13869  0.61670  Biso   1.000  C
  C278     1.0000 0.13312  0.35499  0.66610  Biso   1.000  C
  H319     1.0000 0.91689  0.10749  0.58300  Biso   1.000  H
  H320     1.0000 0.95842  0.15909  0.68571  Biso   1.000  H
  C279     1.0000 0.03890  0.15271  0.65201  Biso   1.000  C
  H321     1.0000 0.07872  0.44141  0.61339  Biso   1.000  H
  H322     1.0000 0.99610  0.38131  0.70509  Biso   1.000  H
  C280     1.0000 0.08218  0.35139  0.69121  Biso   1.000  C
  H323     1.0000 0.10319  0.14058  0.61019  Biso   1.000  H
  H324     1.0000 0.16929  0.33420  0.66869  Biso   1.000  H
  C281     1.0000 0.08608  0.17001  0.68009  Biso   1.000  C
  C282     1.0000 0.07882  0.31409  0.72020  Biso   1.000  C
  N47      1.0000 0.06980  0.18449  0.71219  Biso   1.000  N
  H325     1.0000 0.13098  0.17011  0.67360  Biso   1.000  H
  N48      1.0000 0.12250  0.28199  0.72230  Biso   1.000  N
  H326     1.0000 0.04372  0.31402  0.73761  Biso   1.000  H
  C283     1.0000 0.12162  0.19629  0.73910  Biso   1.000  C
  C284     1.0000 0.11431  0.24750  0.75300  Biso   1.000  C
  H327     1.0000 0.16481  0.19290  0.72640  Biso   1.000  H
  C285     1.0000 0.11830  0.16220  0.77131  Biso   1.000  C
  C286     1.0000 0.16490  0.25831  0.78330  Biso   1.000  C
  H328     1.0000 0.06980  0.25150  0.76401  Biso   1.000  H
  H329     1.0000 0.12440  0.12939  0.76170  Biso   1.000  H
  H330     1.0000 0.07458  0.16409  0.78291  Biso   1.000  H
  C287     1.0000 0.16929  0.17229  0.80080  Biso   1.000  C
  C288     1.0000 0.16330  0.22272  0.81509  Biso   1.000  C
  H331     1.0000 0.20892  0.25820  0.77190  Biso   1.000  H
  H332     1.0000 0.15691  0.29058  0.79361  Biso   1.000  H
  H333     1.0000 0.16398  0.14971  0.82189  Biso   1.000  H
  H334     1.0000 0.21321  0.16751  0.78990  Biso   1.000  H
  H335     1.0000 0.19961  0.22939  0.83270  Biso   1.000  H
  H336     1.0000 0.12191  0.22611  0.82911  Biso   1.000  H
  C289     1.0000 0.33668  0.77728  0.31511  Biso   1.000  C
  C290     1.0000 0.33512  0.74169  0.28329  Biso   1.000  C
  C291     1.0000 0.33068  0.82771  0.30081  Biso   1.000  C
  H337     1.0000 0.30041  0.77061  0.33269  Biso   1.000  H
  H338     1.0000 0.37811  0.77389  0.32909  Biso   1.000  H
  C292     1.0000 0.38572  0.75250  0.25301  Biso   1.000  C
  H339     1.0000 0.29110  0.74180  0.27191  Biso   1.000  H
  H340     1.0000 0.34311  0.70942  0.29359  Biso   1.000  H
  C293     1.0000 0.38172  0.83780  0.27129  Biso   1.000  C
  H341     1.0000 0.33600  0.85029  0.32190  Biso   1.000  H
  H342     1.0000 0.28681  0.83249  0.28989  Biso   1.000  H
  N49      1.0000 0.37748  0.71801  0.22229  Biso   1.000  N
  C294     1.0000 0.37841  0.80371  0.23911  Biso   1.000  C
  H343     1.0000 0.43022  0.74850  0.26399  Biso   1.000  H
  H344     1.0000 0.37558  0.87061  0.26169  Biso   1.000  H
  H345     1.0000 0.42540  0.83591  0.28289  Biso   1.000  H
  C295     1.0000 0.42120  0.68591  0.22021  Biso   1.000  C
  N50      1.0000 0.43022  0.81551  0.21221  Biso   1.000  N
  H346     1.0000 0.33522  0.80710  0.22639  Biso   1.000  H
  C296     1.0000 0.41779  0.64861  0.19120  Biso   1.000  C
  H347     1.0000 0.45630  0.68598  0.23759  Biso   1.000  H
  C297     1.0000 0.41389  0.82999  0.18011  Biso   1.000  C
  C298     1.0000 0.46912  0.61730  0.18749  Biso   1.000  C
  C299     1.0000 0.36690  0.64501  0.16609  Biso   1.000  C
  C300     1.0000 0.46108  0.84729  0.15199  Biso   1.000  C
  H348     1.0000 0.36900  0.82989  0.17359  Biso   1.000  H
  C301     1.0000 0.47161  0.58331  0.15870  Biso   1.000  C
  H349     1.0000 0.50392  0.61869  0.20510  Biso   1.000  H
  C302     1.0000 0.36680  0.61159  0.13691  Biso   1.000  C
  H350     1.0000 0.33068  0.66580  0.16870  Biso   1.000  H
  C303     1.0000 0.44158  0.86131  0.11669  Biso   1.000  C
  C304     1.0000 0.52761  0.85071  0.16140  Biso   1.000  C
  C305     1.0000 0.52932  0.55250  0.15371  Biso   1.000  C
  C306     1.0000 0.42008  0.58110  0.13340  Biso   1.000  C
  C307     1.0000 0.31089  0.61081  0.11110  Biso   1.000  C
  C308     1.0000 0.48672  0.87850  0.08981  Biso   1.000  C
  H351     1.0000 0.39678  0.85942  0.11020  Biso   1.000  H
  C309     1.0000 0.57270  0.86780  0.13621  Biso   1.000  C
  H352     1.0000 0.54160  0.84091  0.18569  Biso   1.000  H
  N51      1.0000 0.57592  0.55271  0.17665  Biso   1.000  N
  H353     1.0000 0.53132  0.53188  0.13250  Biso   1.000  H
  H354     1.0000 0.42130  0.55859  0.11340  Biso   1.000  H
  N52      1.0000 0.30738  0.58520  0.08201  Biso   1.000  N
  H355     1.0000 0.27502  0.63088  0.11669  Biso   1.000  H
  C310     1.0000 0.55189  0.88121  0.10060  Biso   1.000  C
  C311     1.0000 0.46712  0.89551  0.05330  Biso   1.000  C
  C312     1.0000 0.64138  0.86912  0.14649  Biso   1.000  C
  C313     1.0000 0.63149  0.52250  0.16901  Biso   1.000  C
  C314     1.0000 0.24592  0.58809  0.06061  Biso   1.000  C
  H356     1.0000 0.58309  0.89251  0.08299  Biso   1.000  H
  N53      1.0000 0.40848  0.90078  0.04269  Biso   1.000  N
  H357     1.0000 0.50051  0.90332  0.03581  Biso   1.000  H
  N54      1.0000 0.68560  0.88231  0.12399  Biso   1.000  N
  H358     1.0000 0.65362  0.85949  0.17109  Biso   1.000  H
  C315     1.0000 0.64138  0.48752  0.20170  Biso   1.000  C
  C316     1.0000 0.69262  0.55339  0.16491  Biso   1.000  C
  H359     1.0000 0.62398  0.50432  0.14520  Biso   1.000  H
  H360     1.0000 0.22208  0.61762  0.06830  Biso   1.000  H
  C317     1.0000 0.26030  0.59108  0.01901  Biso   1.000  C
  C318     1.0000 0.20409  0.54529  0.07030  Biso   1.000  C
  C319     1.0000 0.39800  0.92229  0.00550  Biso   1.000  C
  C320     1.0000 0.75398  0.88081  0.13820  Biso   1.000  C
  H361     1.0000 0.64460  0.50571  0.22541  Biso   1.000  H
  H362     1.0000 0.60288  0.46630  0.20350  Biso   1.000  H
  C321     1.0000 0.70241  0.45731  0.19690  Biso   1.000  C
  N55      1.0000 0.68579  0.58381  0.13191  Biso   1.000  N
  H363     1.0000 0.69798  0.57361  0.18791  Biso   1.000  H
  C322     1.0000 0.75301  0.52211  0.15960  Biso   1.000  C
  N56      1.0000 0.29559  0.63531  0.01050  Biso   1.000  N
  H364     1.0000 0.28769  0.56320  0.01149  Biso   1.000  H
  C323     1.0000 0.19800  0.59091  0.99610  Biso   1.000  C
  C324     1.0000 0.14058  0.54568  0.04811  Biso   1.000  C
  H365     1.0000 0.19430  0.54551  0.09751  Biso   1.000  H
  H366     1.0000 0.22852  0.51569  0.06459  Biso   1.000  H
  C325     1.0000 0.36052  0.88909  0.97961  Biso   1.000  C
  C326     1.0000 0.35871  0.96879  0.01090  Biso   1.000  C
  H367     1.0000 0.44119  0.92999  0.99399  Biso   1.000  H
  C327     1.0000 0.79449  0.85089  0.11149  Biso   1.000  C
  H368     1.0000 0.75491  0.86641  0.16379  Biso   1.000  H
  C328     1.0000 0.77972  0.93099  0.13969  Biso   1.000  C
  H369     1.0000 0.70831  0.43691  0.21931  Biso   1.000  H
  H370     1.0000 0.69710  0.43620  0.17480  Biso   1.000  H
  C329     1.0000 0.76252  0.48809  0.19159  Biso   1.000  C
  C330     1.0000 0.69968  0.62710  0.13511  Biso   1.000  C
  H371     1.0000 0.74862  0.50389  0.13590  Biso   1.000  H
  H372     1.0000 0.79201  0.54280  0.15730  Biso   1.000  H
  C331     1.0000 0.35082  0.63199  0.99399  Biso   1.000  C
  H373     1.0000 0.17358  0.62068  0.00101  Biso   1.000  H
  C332     1.0000 0.15452  0.54779  0.00590  Biso   1.000  C
  H374     1.0000 0.20902  0.58991  0.96911  Biso   1.000  H
  H375     1.0000 0.11421  0.57379  0.05561  Biso   1.000  H
  H376     1.0000 0.11518  0.51658  0.05401  Biso   1.000  H
  N57      1.0000 0.39600  0.84511  0.97290  Biso   1.000  N
  H377     1.0000 0.31782  0.88110  0.99160  Biso   1.000  H
  C333     1.0000 0.34731  0.91359  0.94271  Biso   1.000  C
  H378     1.0000 0.31689  0.96131  0.02351  Biso   1.000  H
  H379     1.0000 0.38338  0.99080  0.02730  Biso   1.000  H
  C334     1.0000 0.34521  0.99262  0.97399  Biso   1.000  C
  N58      1.0000 0.77031  0.80189  0.11130  Biso   1.000  N
  H380     1.0000 0.79220  0.86459  0.08560  Biso   1.000  H
  C335     1.0000 0.86522  0.84961  0.12481  Biso   1.000  C
  H381     1.0000 0.75330  0.94989  0.15769  Biso   1.000  H
  H382     1.0000 0.77568  0.94601  0.11470  Biso   1.000  H
  C336     1.0000 0.85230  0.93149  0.15219  Biso   1.000  C
  H383     1.0000 0.77119  0.50621  0.21490  Biso   1.000  H
  H384     1.0000 0.80058  0.46751  0.18651  Biso   1.000  H
  C337     1.0000 0.70061  0.65970  0.10259  Biso   1.000  C
  H385     1.0000 0.70992  0.63941  0.15921  Biso   1.000  H
  C338     1.0000 0.38689  0.67400  0.98200  Biso   1.000  C
  H386     1.0000 0.36871  0.60128  0.98941  Biso   1.000  H
  H387     1.0000 0.11289  0.55021  0.99200  Biso   1.000  H
  H388     1.0000 0.17660  0.51812  0.99801  Biso   1.000  H
  C339     1.0000 0.36968  0.80681  0.98349  Biso   1.000  C
  H389     1.0000 0.32269  0.89158  0.92619  Biso   1.000  H
  H390     1.0000 0.38942  0.92079  0.93029  Biso   1.000  H
  C340     1.0000 0.30909  0.95942  0.94740  Biso   1.000  C
  H391     1.0000 0.38699  0.00250  0.96240  Biso   1.000  H
  H392     1.0000 0.31879  0.02161  0.97829  Biso   1.000  H
  C341     1.0000 0.75052  0.78549  0.08029  Biso   1.000  C
  C342     1.0000 0.89301  0.90050  0.12610  Biso   1.000  C
  H393     1.0000 0.89140  0.82989  0.10739  Biso   1.000  H
  H394     1.0000 0.86751  0.83509  0.15011  Biso   1.000  H
  H395     1.0000 0.86912  0.96459  0.15180  Biso   1.000  H
  H396     1.0000 0.85591  0.91940  0.17831  Biso   1.000  H
  C343     1.0000 0.72172  0.70531  0.10599  Biso   1.000  C
  C344     1.0000 0.68360  0.64290  0.06690  Biso   1.000  C
  C345     1.0000 0.44441  0.66819  0.96251  Biso   1.000  C
  C346     1.0000 0.36378  0.71929  0.98891  Biso   1.000  C
  C347     1.0000 0.39698  0.75909  0.97590  Biso   1.000  C
  H397     1.0000 0.33010  0.80870  0.99719  Biso   1.000  H
  H398     1.0000 0.26532  0.95221  0.95759  Biso   1.000  H
  H399     1.0000 0.30358  0.97500  0.92260  Biso   1.000  H
  C348     1.0000 0.72698  0.73591  0.07569  Biso   1.000  C
  H400     1.0000 0.75082  0.80581  0.05901  Biso   1.000  H
  H401     1.0000 0.93858  0.89950  0.13520  Biso   1.000  H
  H402     1.0000 0.89291  0.91441  0.10060  Biso   1.000  H
  H403     1.0000 0.73341  0.71669  0.13020  Biso   1.000  H
  C349     1.0000 0.68862  0.67129  0.03561  Biso   1.000  C
  H404     1.0000 0.66829  0.61109  0.06420  Biso   1.000  H
  C350     1.0000 0.47858  0.70799  0.94889  Biso   1.000  C
  H405     1.0000 0.46098  0.63698  0.95821  Biso   1.000  H
  H406     1.0000 0.32459  0.72329  0.00281  Biso   1.000  H
  C351     1.0000 0.45372  0.75339  0.95630  Biso   1.000  C
  C352     1.0000 0.71070  0.71890  0.04061  Biso   1.000  C
  C353     1.0000 0.67731  0.65011  0.99871  Biso   1.000  C
  C354     1.0000 0.54258  0.70210  0.93021  Biso   1.000  C
  H407     1.0000 0.47658  0.78071  0.94751  Biso   1.000  H
  H408     1.0000 0.71440  0.73941  0.01941  Biso   1.000  H
  N59      1.0000 0.68998  0.66879  0.96731  Biso   1.000  N
  H409     1.0000 0.65849  0.61912  0.99829  Biso   1.000  H
  N60      1.0000 0.56851  0.66220  0.92560  Biso   1.000  N
  H410     1.0000 0.56471  0.72971  0.92131  Biso   1.000  H
  C355     1.0000 0.68121  0.63880  0.93479  Biso   1.000  C
  C356     1.0000 0.63242  0.66098  0.90760  Biso   1.000  C
  H411     1.0000 0.66488  0.60681  0.94299  Biso   1.000  H
  C357     1.0000 0.74672  0.63310  0.91631  Biso   1.000  C
  H412     1.0000 0.64631  0.69419  0.90120  Biso   1.000  H
  C358     1.0000 0.62691  0.63099  0.87160  Biso   1.000  C
  C359     1.0000 0.74229  0.60178  0.88140  Biso   1.000  C
  H413     1.0000 0.77758  0.61862  0.93439  Biso   1.000  H
  H414     1.0000 0.76378  0.66491  0.90929  Biso   1.000  H
  H415     1.0000 0.60751  0.59961  0.87769  Biso   1.000  H
  H416     1.0000 0.59781  0.64729  0.85351  Biso   1.000  H
  C360     1.0000 0.69359  0.62372  0.85379  Biso   1.000  C
  H417     1.0000 0.72800  0.56929  0.88851  Biso   1.000  H
  H418     1.0000 0.78572  0.59929  0.86941  Biso   1.000  H
  H419     1.0000 0.71060  0.65481  0.84489  Biso   1.000  H
  H420     1.0000 0.68920  0.60250  0.83169  Biso   1.000  H
  C361     1.0000 0.49071  0.21259  0.69371  Biso   1.000  C
  C362     1.0000 0.48998  0.25039  0.72430  Biso   1.000  C
  H421     1.0000 0.53278  0.21369  0.68020  Biso   1.000  H
  H422     1.0000 0.45552  0.21929  0.67540  Biso   1.000  H
  C363     1.0000 0.48072  0.16220  0.71079  Biso   1.000  C
  C364     1.0000 0.54141  0.24069  0.75550  Biso   1.000  C
  H423     1.0000 0.44611  0.25150  0.73581  Biso   1.000  H
  H424     1.0000 0.49881  0.28188  0.71289  Biso   1.000  H
  H425     1.0000 0.43719  0.16009  0.72269  Biso   1.000  H
  H426     1.0000 0.48311  0.13791  0.69071  Biso   1.000  H
  C365     1.0000 0.53439  0.15260  0.74039  Biso   1.000  C
  N61      1.0000 0.53249  0.27789  0.78499  Biso   1.000  N
  C366     1.0000 0.53268  0.19169  0.77159  Biso   1.000  C
  H427     1.0000 0.58611  0.24362  0.74460  Biso   1.000  H
  H428     1.0000 0.57772  0.15271  0.72809  Biso   1.000  H
  H429     1.0000 0.52752  0.12090  0.75190  Biso   1.000  H
  C367     1.0000 0.57319  0.31049  0.78611  Biso   1.000  C
  N62      1.0000 0.58572  0.18049  0.79709  Biso   1.000  N
  H430     1.0000 0.49018  0.19001  0.78541  Biso   1.000  H
  C368     1.0000 0.56958  0.34950  0.81310  Biso   1.000  C
  H431     1.0000 0.60819  0.31009  0.76861  Biso   1.000  H
  C369     1.0000 0.57280  0.16558  0.82919  Biso   1.000  C
  C370     1.0000 0.51850  0.35360  0.83891  Biso   1.000  C
  C371     1.0000 0.61999  0.38210  0.81509  Biso   1.000  C
  C372     1.0000 0.62198  0.14750  0.85629  Biso   1.000  C
  H432     1.0000 0.52849  0.16569  0.83689  Biso   1.000  H
  H433     1.0000 0.48340  0.33160  0.83821  Biso   1.000  H
  C373     1.0000 0.51869  0.38980  0.86570  Biso   1.000  C
  C374     1.0000 0.62159  0.41862  0.84231  Biso   1.000  C
  H434     1.0000 0.65479  0.37981  0.79760  Biso   1.000  H
  C375     1.0000 0.60502  0.13459  0.89221  Biso   1.000  C
  C376     1.0000 0.68599  0.14568  0.84531  Biso   1.000  C
  C377     1.0000 0.57012  0.42168  0.86730  Biso   1.000  C
  C378     1.0000 0.46449  0.39190  0.89370  Biso   1.000  C
  C379     1.0000 0.67780  0.45039  0.84509  Biso   1.000  C
  C380     1.0000 0.65201  0.11701  0.91760  Biso   1.000  C
  H435     1.0000 0.56091  0.13759  0.90010  Biso   1.000  H
  H436     1.0000 0.69768  0.15588  0.82079  Biso   1.000  H
  C381     1.0000 0.73380  0.12921  0.86949  Biso   1.000  C
  H437     1.0000 0.57002  0.44611  0.88581  Biso   1.000  H
  N63      1.0000 0.46429  0.42161  0.91990  Biso   1.000  N
  H438     1.0000 0.42930  0.37011  0.89159  Biso   1.000  H
  N64      1.0000 0.72722  0.44889  0.82419  Biso   1.000  N
  H439     1.0000 0.67692  0.47411  0.86421  Biso   1.000  H
  C382     1.0000 0.71631  0.11441  0.90600  Biso   1.000  C
  C383     1.0000 0.63412  0.10221  0.95610  Biso   1.000  C
  C384     1.0000 0.80400  0.12999  0.85899  Biso   1.000  C
  C385     1.0000 0.40838  0.42090  0.94501  Biso   1.000  C
  C386     1.0000 0.78031  0.48238  0.83161  Biso   1.000  C
  H440     1.0000 0.74872  0.10260  0.92271  Biso   1.000  H
  N65      1.0000 0.57738  0.10200  0.96841  Biso   1.000  N
  H441     1.0000 0.66810  0.09219  0.97239  Biso   1.000  H
  N66      1.0000 0.84938  0.12218  0.88129  Biso   1.000  N
  H442     1.0000 0.81492  0.13680  0.83360  Biso   1.000  H
  C387     1.0000 0.43071  0.41901  0.98571  Biso   1.000  C
  H443     1.0000 0.38118  0.39208  0.93939  Biso   1.000  H
  C388     1.0000 0.36729  0.46601  0.93869  Biso   1.000  C
  C389     1.0000 0.84338  0.45432  0.83579  Biso   1.000  C
  H444     1.0000 0.77129  0.50061  0.85511  Biso   1.000  H
  C390     1.0000 0.78460  0.51719  0.79771  Biso   1.000  C
  C391     1.0000 0.56822  0.08431  0.00649  Biso   1.000  C
  C392     1.0000 0.91582  0.12660  0.86761  Biso   1.000  C
  N67      1.0000 0.46668  0.37450  0.99289  Biso   1.000  N
  H445     1.0000 0.45961  0.44700  0.99101  Biso   1.000  H
  C393     1.0000 0.37192  0.42019  0.01199  Biso   1.000  C
  H446     1.0000 0.39469  0.49451  0.94310  Biso   1.000  H
  H447     1.0000 0.35208  0.46680  0.91240  Biso   1.000  H
  C394     1.0000 0.30909  0.46719  0.96470  Biso   1.000  C
  N68      1.0000 0.83958  0.42561  0.86991  Biso   1.000  N
  H448     1.0000 0.84982  0.43310  0.81349  Biso   1.000  H
  C395     1.0000 0.90139  0.48820  0.83989  Biso   1.000  C
  H449     1.0000 0.78781  0.49850  0.77409  Biso   1.000  H
  H450     1.0000 0.74438  0.53659  0.79650  Biso   1.000  H
  C396     1.0000 0.84299  0.54979  0.80080  Biso   1.000  C
  C397     1.0000 0.53249  0.12168  0.03019  Biso   1.000  C
  H451     1.0000 0.61180  0.07782  0.01800  Biso   1.000  H
  C398     1.0000 0.52869  0.03830  0.00640  Biso   1.000  C
  C399     1.0000 0.95340  0.15991  0.89359  Biso   1.000  C
  H452     1.0000 0.91479  0.14069  0.84180  Biso   1.000  H
  C400     1.0000 0.94750  0.07771  0.86559  Biso   1.000  C
  C401     1.0000 0.52401  0.37810  0.00660  Biso   1.000  C
  C402     1.0000 0.33112  0.46459  0.00559  Biso   1.000  C
  H453     1.0000 0.34482  0.39151  0.00770  Biso   1.000  H
  H454     1.0000 0.38718  0.41961  0.03839  Biso   1.000  H
  H455     1.0000 0.27989  0.44009  0.95911  Biso   1.000  H
  H456     1.0000 0.28428  0.49711  0.96060  Biso   1.000  H
  C403     1.0000 0.85089  0.38138  0.86699  Biso   1.000  C
  C404     1.0000 0.90670  0.52200  0.80630  Biso   1.000  C
  H457     1.0000 0.89632  0.50720  0.86320  Biso   1.000  H
  H458     1.0000 0.94209  0.46940  0.84211  Biso   1.000  H
  H459     1.0000 0.83661  0.57168  0.82231  Biso   1.000  H
  H460     1.0000 0.84631  0.56929  0.77771  Biso   1.000  H
  N69      1.0000 0.57051  0.16551  0.03300  Biso   1.000  N
  H461     1.0000 0.48950  0.12899  0.01831  Biso   1.000  H
  C405     1.0000 0.52142  0.10339  0.06889  Biso   1.000  C
  H462     1.0000 0.48550  0.04440  0.99489  Biso   1.000  H
  H463     1.0000 0.55140  0.01409  0.99090  Biso   1.000  H
  C406     1.0000 0.51981  0.01951  0.04600  Biso   1.000  C
  N70      1.0000 0.92601  0.20760  0.89289  Biso   1.000  N
  H464     1.0000 0.95140  0.14718  0.91979  Biso   1.000  H
  C407     1.0000 0.02379  0.16280  0.88129  Biso   1.000  C
  H465     1.0000 0.94438  0.06209  0.89050  Biso   1.000  H
  H466     1.0000 0.92371  0.05770  0.84731  Biso   1.000  H
  C408     1.0000 0.01818  0.08110  0.85419  Biso   1.000  C
  C409     1.0000 0.56139  0.33670  0.01859  Biso   1.000  C
  H467     1.0000 0.54292  0.40892  0.00910  Biso   1.000  H
  H468     1.0000 0.35691  0.49319  0.01191  Biso   1.000  H
  H469     1.0000 0.29242  0.46380  0.02219  Biso   1.000  H
  C410     1.0000 0.85440  0.35061  0.90019  Biso   1.000  C
  H470     1.0000 0.85718  0.36790  0.84281  Biso   1.000  H
  H471     1.0000 0.91640  0.50332  0.78330  Biso   1.000  H
  H472     1.0000 0.94302  0.54461  0.81040  Biso   1.000  H
  C411     1.0000 0.54350  0.20271  0.02160  Biso   1.000  C
  C412     1.0000 0.48511  0.05588  0.07030  Biso   1.000  C
  H473     1.0000 0.49622  0.12750  0.08321  Biso   1.000  H
  H474     1.0000 0.56412  0.09961  0.08161  Biso   1.000  H
  H475     1.0000 0.49408  0.98959  0.04519  Biso   1.000  H
  H476     1.0000 0.56300  0.01209  0.05701  Biso   1.000  H
  C413     1.0000 0.90831  0.22521  0.92389  Biso   1.000  C
  C414     1.0000 0.05630  0.11369  0.88061  Biso   1.000  C
  H477     1.0000 0.04792  0.18392  0.89870  Biso   1.000  H
  H478     1.0000 0.02598  0.17710  0.85590  Biso   1.000  H
  H479     1.0000 0.02120  0.09362  0.82821  Biso   1.000  H
  H480     1.0000 0.03792  0.04879  0.85449  Biso   1.000  H
  C415     1.0000 0.62028  0.34219  0.03659  Biso   1.000  C
  C416     1.0000 0.53731  0.29108  0.01320  Biso   1.000  C
  C417     1.0000 0.87570  0.30421  0.89659  Biso   1.000  C
  C418     1.0000 0.84299  0.36812  0.93639  Biso   1.000  C
  C419     1.0000 0.57070  0.25078  0.02601  Biso   1.000  C
  H481     1.0000 0.50280  0.19961  0.00921  Biso   1.000  H
  H482     1.0000 0.48311  0.04429  0.09661  Biso   1.000  H
  H483     1.0000 0.43992  0.06031  0.06120  Biso   1.000  H
  C420     1.0000 0.88418  0.27450  0.92760  Biso   1.000  C
  H484     1.0000 0.91060  0.20588  0.94580  Biso   1.000  H
  H485     1.0000 0.10188  0.11669  0.87191  Biso   1.000  H
  H486     1.0000 0.05669  0.09989  0.90620  Biso   1.000  H
  C421     1.0000 0.65562  0.30310  0.05069  Biso   1.000  C
  H487     1.0000 0.63748  0.37329  0.03971  Biso   1.000  H
  H488     1.0000 0.49710  0.28709  0.00039  Biso   1.000  H
  H489     1.0000 0.88472  0.29208  0.87230  Biso   1.000  H
  C422     1.0000 0.85269  0.34030  0.96751  Biso   1.000  C
  H490     1.0000 0.82808  0.40000  0.93939  Biso   1.000  H
  C423     1.0000 0.62920  0.25810  0.04519  Biso   1.000  C
  C424     1.0000 0.87302  0.29330  0.96301  Biso   1.000  C
  C425     1.0000 0.71860  0.30892  0.06931  Biso   1.000  C
  C426     1.0000 0.84411  0.36241  0.00421  Biso   1.000  C
  H491     1.0000 0.65191  0.23121  0.05479  Biso   1.000  H
  H492     1.0000 0.87921  0.27379  0.98450  Biso   1.000  H
  N71      1.0000 0.74370  0.34840  0.07611  Biso   1.000  N
  H493     1.0000 0.74170  0.28099  0.07659  Biso   1.000  H
  N72      1.0000 0.86459  0.34461  0.03480  Biso   1.000  N
  H494     1.0000 0.82179  0.39208  0.00539  Biso   1.000  H
  C427     1.0000 0.80799  0.34829  0.09411  Biso   1.000  C
  C428     1.0000 0.85591  0.37290  0.06909  Biso   1.000  C
  H495     1.0000 0.82242  0.31459  0.09830  Biso   1.000  H
  C429     1.0000 0.80258  0.37400  0.13211  Biso   1.000  C
  H496     1.0000 0.83870  0.40510  0.06221  Biso   1.000  H
  C430     1.0000 0.92118  0.37832  0.08771  Biso   1.000  C
  H497     1.0000 0.78328  0.40599  0.12821  Biso   1.000  H
  H498     1.0000 0.77329  0.35571  0.14879  Biso   1.000  H
  C431     1.0000 0.86902  0.37910  0.15059  Biso   1.000  C
  C432     1.0000 0.91601  0.40439  0.12500  Biso   1.000  C
  H499     1.0000 0.95082  0.39618  0.07080  Biso   1.000  H
  H500     1.0000 0.94029  0.34640  0.09200  Biso   1.000  H
  H501     1.0000 0.86439  0.39729  0.17429  Biso   1.000  H
  H502     1.0000 0.88638  0.34718  0.15680  Biso   1.000  H
  H503     1.0000 0.95949  0.40588  0.13700  Biso   1.000  H
  H504     1.0000 0.90090  0.43752  0.12059  Biso   1.000  H
  C433     1.0000 0.51821  0.41890  0.14581  Biso   1.000  C
  C434     1.0000 0.44748  0.42229  0.13441  Biso   1.000  C
  C435     1.0000 0.55628  0.38631  0.11939  Biso   1.000  C
  H505     1.0000 0.52118  0.40638  0.17179  Biso   1.000  H
  H506     1.0000 0.53790  0.45121  0.14551  Biso   1.000  H
  C436     1.0000 0.41579  0.37340  0.13239  Biso   1.000  C
  H507     1.0000 0.44441  0.43791  0.10950  Biso   1.000  H
  H508     1.0000 0.42369  0.44230  0.15269  Biso   1.000  H
  C437     1.0000 0.52381  0.33720  0.11871  Biso   1.000  C
  H509     1.0000 0.60190  0.38331  0.12809  Biso   1.000  H
  H510     1.0000 0.55671  0.40011  0.09380  Biso   1.000  H
  N73      1.0000 0.34940  0.37782  0.11871  Biso   1.000  N
  C438     1.0000 0.45342  0.34009  0.10641  Biso   1.000  C
  H511     1.0000 0.41482  0.35931  0.15820  Biso   1.000  H
  H512     1.0000 0.54789  0.31608  0.10130  Biso   1.000  H
  H513     1.0000 0.52601  0.32290  0.14410  Biso   1.000  H
  C439     1.0000 0.30402  0.37001  0.14101  Biso   1.000  C
  N74      1.0000 0.42598  0.29240  0.10711  Biso   1.000  N
  H514     1.0000 0.45138  0.35282  0.08021  Biso   1.000  H
  C440     1.0000 0.23378  0.37079  0.13051  Biso   1.000  C
  H515     1.0000 0.31489  0.36320  0.16640  Biso   1.000  H
  C441     1.0000 0.40829  0.27479  0.07611  Biso   1.000  C
  C442     1.0000 0.18601  0.35432  0.15469  Biso   1.000  C
  C443     1.0000 0.21628  0.38559  0.09400  Biso   1.000  C
  C444     1.0000 0.38421  0.22550  0.07240  Biso   1.000  C
  H516     1.0000 0.41058  0.29412  0.05420  Biso   1.000  H
  C445     1.0000 0.12201  0.35250  0.14371  Biso   1.000  C
  H517     1.0000 0.19771  0.34412  0.17921  Biso   1.000  H
  C446     1.0000 0.15199  0.38299  0.08240  Biso   1.000  C
  H518     1.0000 0.24870  0.39740  0.07729  Biso   1.000  H
  C447     1.0000 0.37568  0.19579  0.10341  Biso   1.000  C
  C448     1.0000 0.37300  0.20670  0.03699  Biso   1.000  C
  C449     1.0000 0.07278  0.33442  0.17081  Biso   1.000  C
  C450     1.0000 0.10500  0.36541  0.10779  Biso   1.000  C
  C451     1.0000 0.13410  0.39779  0.04390  Biso   1.000  C
  C452     1.0000 0.35442  0.14939  0.09981  Biso   1.000  C
  H519     1.0000 0.38469  0.20792  0.12770  Biso   1.000  H
  C453     1.0000 0.35272  0.15970  0.03249  Biso   1.000  C
  H520     1.0000 0.37919  0.22621  0.01550  Biso   1.000  H
  N75      1.0000 0.08569  0.31951  0.20291  Biso   1.000  N
  H521     1.0000 0.02852  0.33431  0.16311  Biso   1.000  H
  H522     1.0000 0.06088  0.36241  0.09990  Biso   1.000  H
  N76      1.0000 0.07741  0.39800  0.03159  Biso   1.000  N
  H523     1.0000 0.16812  0.40781  0.02761  Biso   1.000  H
  C454     1.0000 0.35091  0.11862  0.13301  Biso   1.000  C
  C455     1.0000 0.34302  0.13188  0.06361  Biso   1.000  C
  C456     1.0000 0.34409  0.13759  0.99579  Biso   1.000  C
  C457     1.0000 0.03271  0.30831  0.22841  Biso   1.000  C
  C458     1.0000 0.06819  0.41569  0.99351  Biso   1.000  C
  N77      1.0000 0.33961  0.07439  0.13009  Biso   1.000  N
  H524     1.0000 0.35720  0.13210  0.15719  Biso   1.000  H
  H525     1.0000 0.32810  0.10000  0.06061  Biso   1.000  H
  N78      1.0000 0.36461  0.15539  0.96520  Biso   1.000  N
  H526     1.0000 0.32181  0.10792  0.99461  Biso   1.000  H
  C459     1.0000 0.04138  0.25931  0.24450  Biso   1.000  C
  C460     1.0000 0.03441  0.34740  0.25961  Biso   1.000  C
  H527     1.0000 0.99020  0.30999  0.21459  Biso   1.000  H
  C461     1.0000 0.03251  0.37832  0.96981  Biso   1.000  C
  H528     1.0000 0.11182  0.42218  0.98200  Biso   1.000  H
  C462     1.0000 0.02871  0.46170  0.99360  Biso   1.000  C
  C463     1.0000 0.34341  0.04568  0.16421  Biso   1.000  C
  C464     1.0000 0.35589  0.12710  0.93091  Biso   1.000  C
  N79      1.0000 0.03251  0.22211  0.21501  Biso   1.000  N
  H529     1.0000 0.08608  0.25638  0.25540  Biso   1.000  H
  C465     1.0000 0.99001  0.24961  0.27570  Biso   1.000  C
  H530     1.0000 0.07770  0.34729  0.27191  Biso   1.000  H
  H531     1.0000 0.02749  0.37910  0.24810  Biso   1.000  H
  C466     1.0000 0.98070  0.33780  0.28921  Biso   1.000  C
  H532     1.0000 0.98952  0.37101  0.98169  Biso   1.000  H
  N80      1.0000 0.07049  0.33449  0.96700  Biso   1.000  N
  C467     1.0000 0.02140  0.39661  0.93111  Biso   1.000  C
  H533     1.0000 0.05138  0.48591  0.00910  Biso   1.000  H
  H534     1.0000 0.98552  0.45560  0.00511  Biso   1.000  H
  C468     1.0000 0.01979  0.48049  0.95400  Biso   1.000  C
  C469     1.0000 0.28028  0.01762  0.16839  Biso   1.000  C
  H535     1.0000 0.34979  0.06690  0.18651  Biso   1.000  H
  C470     1.0000 0.40141  0.01180  0.16011  Biso   1.000  C
  C471     1.0000 0.30802  0.15171  0.90589  Biso   1.000  C
  H536     1.0000 0.33868  0.09490  0.93779  Biso   1.000  H
  C472     1.0000 0.42120  0.12168  0.91229  Biso   1.000  C
  C473     1.0000 0.07321  0.18951  0.21389  Biso   1.000  C
  H537     1.0000 0.94609  0.24850  0.26419  Biso   1.000  H
  H538     1.0000 0.99878  0.21812  0.28711  Biso   1.000  H
  C474     1.0000 0.99069  0.28741  0.30629  Biso   1.000  C
  H539     1.0000 0.93722  0.33991  0.27731  Biso   1.000  H
  H540     1.0000 0.98309  0.36209  0.30929  Biso   1.000  H
  C475     1.0000 0.04348  0.29729  0.97840  Biso   1.000  C
  C476     1.0000 0.98508  0.44412  0.92970  Biso   1.000  C
  H541     1.0000 0.99620  0.37250  0.91679  Biso   1.000  H
  H542     1.0000 0.06410  0.40039  0.91839  Biso   1.000  H
  H543     1.0000 0.99410  0.51041  0.95481  Biso   1.000  H
  H544     1.0000 0.06298  0.48791  0.94299  Biso   1.000  H
  N81      1.0000 0.22720  0.05111  0.17581  Biso   1.000  N
  H545     1.0000 0.27131  0.99939  0.14489  Biso   1.000  H
  C477     1.0000 0.28462  0.98281  0.20229  Biso   1.000  C
  H546     1.0000 0.44212  0.03060  0.15789  Biso   1.000  H
  C478     1.0000 0.40668  0.97800  0.19370  Biso   1.000  C
  H547     1.0000 0.39630  0.99280  0.13680  Biso   1.000  H
  N82      1.0000 0.24372  0.15160  0.92389  Biso   1.000  N
  H548     1.0000 0.32240  0.18541  0.90170  Biso   1.000  H
  C479     1.0000 0.30261  0.12600  0.86789  Biso   1.000  C
  C480     1.0000 0.41599  0.09561  0.87500  Biso   1.000  C
  H549     1.0000 0.45079  0.10382  0.92920  Biso   1.000  H
  H550     1.0000 0.44031  0.15360  0.90800  Biso   1.000  H
  C481     1.0000 0.06961  0.15050  0.18690  Biso   1.000  C
  H551     1.0000 0.10821  0.18991  0.23139  Biso   1.000  H
  H552     1.0000 0.03281  0.28631  0.31980  Biso   1.000  H
  H553     1.0000 0.95550  0.28071  0.32460  Biso   1.000  H
  C482     1.0000 0.07068  0.24922  0.97399  Biso   1.000  C
  H554     1.0000 0.00278  0.30039  0.99079  Biso   1.000  H
  H555     1.0000 0.98309  0.45571  0.90339  Biso   1.000  H
  H556     1.0000 0.93990  0.43969  0.93880  Biso   1.000  H
  C483     1.0000 0.17782  0.04961  0.15491  Biso   1.000  C
  H557     1.0000 0.28779  0.00150  0.22591  Biso   1.000  H
  H558     1.0000 0.24441  0.96341  0.20350  Biso   1.000  H
  C484     1.0000 0.34302  0.95021  0.19920  Biso   1.000  C
  H559     1.0000 0.41638  0.99668  0.21670  Biso   1.000  H
  H560     1.0000 0.44299  0.95539  0.18960  Biso   1.000  H
  C485     1.0000 0.21862  0.19108  0.93069  Biso   1.000  C
  H561     1.0000 0.28330  0.09401  0.87179  Biso   1.000  H
  H562     1.0000 0.27331  0.14429  0.85121  Biso   1.000  H
  C486     1.0000 0.36900  0.12090  0.84941  Biso   1.000  C
  H563     1.0000 0.45952  0.09412  0.86300  Biso   1.000  H
  H564     1.0000 0.40088  0.06248  0.87941  Biso   1.000  H
  C487     1.0000 0.01852  0.14640  0.16109  Biso   1.000  C
  C488     1.0000 0.12001  0.11790  0.18491  Biso   1.000  C
  C489     1.0000 0.03729  0.20892  0.98680  Biso   1.000  C
  C490     1.0000 0.12922  0.24190  0.95481  Biso   1.000  C
  C491     1.0000 0.12162  0.08138  0.15769  Biso   1.000  C
  H565     1.0000 0.17689  0.02589  0.13579  Biso   1.000  H
  H566     1.0000 0.33658  0.92832  0.17769  Biso   1.000  H
  H567     1.0000 0.34628  0.93071  0.22229  Biso   1.000  H
  C492     1.0000 0.15559  0.19690  0.94931  Biso   1.000  C
  H568     1.0000 0.24168  0.21901  0.92341  Biso   1.000  H
  H569     1.0000 0.36442  0.10271  0.82571  Biso   1.000  H
  H570     1.0000 0.38640  0.15282  0.84320  Biso   1.000  H
  C493     1.0000 0.01872  0.11020  0.13430  Biso   1.000  C
  H571     1.0000 0.98338  0.16840  0.16179  Biso   1.000  H
  H572     1.0000 0.15481  0.12019  0.20240  Biso   1.000  H
  C494     1.0000 0.06142  0.16330  0.98141  Biso   1.000  C
  H573     1.0000 0.99712  0.21291  0.99961  Biso   1.000  H
  H574     1.0000 0.15189  0.26879  0.94521  Biso   1.000  H
  C495     1.0000 0.07010  0.07832  0.13270  Biso   1.000  C
  C496     1.0000 0.12030  0.15781  0.96341  Biso   1.000  C
  C497     1.0000 0.96451  0.10810  0.10630  Biso   1.000  C
  C498     1.0000 0.02398  0.12190  0.99340  Biso   1.000  C
  H575     1.0000 0.07000  0.05389  0.11419  Biso   1.000  H
  H576     1.0000 0.13751  0.12671  0.96029  Biso   1.000  H
  N83      1.0000 0.96432  0.07839  0.08010  Biso   1.000  N
  H577     1.0000 0.92932  0.12989  0.10841  Biso   1.000  H
  N84      1.0000 0.96671  0.12550  0.00711  Biso   1.000  N
  H578     1.0000 0.04290  0.09108  0.99090  Biso   1.000  H
  C499     1.0000 0.90841  0.07910  0.05499  Biso   1.000  C
  C500     1.0000 0.93068  0.08099  0.01429  Biso   1.000  C
  H579     1.0000 0.88121  0.10792  0.06061  Biso   1.000  H
  C501     1.0000 0.86732  0.03399  0.06131  Biso   1.000  C
  C502     1.0000 0.87190  0.07981  0.98801  Biso   1.000  C
  H580     1.0000 0.95959  0.05300  0.00899  Biso   1.000  H
  H581     1.0000 0.89471  0.00549  0.05690  Biso   1.000  H
  H582     1.0000 0.85211  0.03320  0.08760  Biso   1.000  H
  C503     1.0000 0.80912  0.03281  0.03530  Biso   1.000  C
  C504     1.0000 0.83110  0.03541  0.99441  Biso   1.000  C
  H583     1.0000 0.84480  0.10849  0.99230  Biso   1.000  H
  H584     1.0000 0.88720  0.08039  0.96161  Biso   1.000  H
  H585     1.0000 0.77992  0.05991  0.04089  Biso   1.000  H
  H586     1.0000 0.78430  0.00289  0.03940  Biso   1.000  H
  H587     1.0000 0.85689  0.00681  0.98809  Biso   1.000  H
  H588     1.0000 0.79240  0.03620  0.97781  Biso   1.000  H
  C505     1.0000 0.35228  0.56851  0.84781  Biso   1.000  C
  C506     1.0000 0.27970  0.56901  0.86031  Biso   1.000  C
  H589     1.0000 0.36910  0.53541  0.84820  Biso   1.000  H
  H590     1.0000 0.35589  0.58060  0.82169  Biso   1.000  H
  C507     1.0000 0.39298  0.59950  0.87390  Biso   1.000  C
  C508     1.0000 0.25401  0.61919  0.86180  Biso   1.000  C
  H591     1.0000 0.25328  0.55011  0.84231  Biso   1.000  H
  H592     1.0000 0.27570  0.55399  0.88530  Biso   1.000  H
  H593     1.0000 0.43861  0.60050  0.86480  Biso   1.000  H
  H594     1.0000 0.39288  0.58559  0.89940  Biso   1.000  H
  C509     1.0000 0.36520  0.65039  0.87519  Biso   1.000  C
  N85      1.0000 0.18562  0.61769  0.87601  Biso   1.000  N
  C510     1.0000 0.29452  0.64911  0.88851  Biso   1.000  C
  H595     1.0000 0.25489  0.63359  0.83621  Biso   1.000  H
  H596     1.0000 0.39142  0.67011  0.89261  Biso   1.000  H
  H597     1.0000 0.36749  0.66491  0.84989  Biso   1.000  H
  C511     1.0000 0.14141  0.63088  0.85351  Biso   1.000  C
  N86      1.0000 0.27029  0.69811  0.88870  Biso   1.000  N
  H598     1.0000 0.29218  0.63541  0.91440  Biso   1.000  H
  C512     1.0000 0.07268  0.63220  0.86379  Biso   1.000  C
  H599     1.0000 0.15359  0.64051  0.82891  Biso   1.000  H
  C513     1.0000 0.25050  0.71451  0.91971  Biso   1.000  C
  C514     1.0000 0.05191  0.61879  0.89940  Biso   1.000  C
  C515     1.0000 0.02759  0.64929  0.83860  Biso   1.000  C
  C516     1.0000 0.22700  0.76409  0.92431  Biso   1.000  C
  H600     1.0000 0.25079  0.69419  0.94099  Biso   1.000  H
  H601     1.0000 0.08311  0.60749  0.91701  Biso   1.000  H
  C517     1.0000 0.98669  0.62150  0.91019  Biso   1.000  C
  H602     1.0000 0.04158  0.65909  0.81431  Biso   1.000  H
  C518     1.0000 0.96110  0.65271  0.84801  Biso   1.000  C
  C519     1.0000 0.21072  0.78110  0.95939  Biso   1.000  C
  C520     1.0000 0.22169  0.79469  0.89401  Biso   1.000  C
  C521     1.0000 0.94160  0.63869  0.88331  Biso   1.000  C
  C522     1.0000 0.96710  0.60449  0.94670  Biso   1.000  C
  C523     1.0000 0.91392  0.67001  0.81989  Biso   1.000  C
  C524     1.0000 0.18859  0.82871  0.96439  Biso   1.000  C
  H603     1.0000 0.21438  0.76059  0.98059  Biso   1.000  H
  H604     1.0000 0.23339  0.78331  0.86980  Biso   1.000  H
  C525     1.0000 0.20058  0.84030  0.89741  Biso   1.000  C
  H605     1.0000 0.89681  0.64058  0.88980  Biso   1.000  H
  H606     1.0000 0.00049  0.59668  0.96419  Biso   1.000  H
  N87      1.0000 0.90851  0.59922  0.95731  Biso   1.000  N
  N88      1.0000 0.93020  0.68449  0.78779  Biso   1.000  N
  H607     1.0000 0.86902  0.67011  0.82641  Biso   1.000  H
  C526     1.0000 0.18362  0.85710  0.93310  Biso   1.000  C
  C527     1.0000 0.17728  0.84989  0.00129  Biso   1.000  C
  C528     1.0000 0.19971  0.87290  0.86489  Biso   1.000  C
  C529     1.0000 0.89798  0.57771  0.99450  Biso   1.000  C
  C530     1.0000 0.87838  0.69629  0.76089  Biso   1.000  C
  H608     1.0000 0.16832  0.88891  0.93580  Biso   1.000  H
  N89      1.0000 0.19001  0.83121  0.03269  Biso   1.000  N
  H609     1.0000 0.15852  0.88088  0.00171  Biso   1.000  H
  N90      1.0000 0.18582  0.91619  0.86809  Biso   1.000  N
  H610     1.0000 0.20990  0.86059  0.84079  Biso   1.000  H
  C531     1.0000 0.85869  0.53121  0.98910  Biso   1.000  C
  H611     1.0000 0.94121  0.57001  0.00601  Biso   1.000  H
  C532     1.0000 0.86049  0.61091  0.02039  Biso   1.000  C
  H612     1.0000 0.83519  0.69290  0.77361  Biso   1.000  H
  C533     1.0000 0.88170  0.66220  0.72871  Biso   1.000  C
  C534     1.0000 0.88569  0.74750  0.74699  Biso   1.000  C
  C535     1.0000 0.18118  0.86120  0.06521  Biso   1.000  C
  C536     1.0000 0.19259  0.94661  0.83509  Biso   1.000  C
  H613     1.0000 0.81691  0.53869  0.97649  Biso   1.000  H
  H614     1.0000 0.88340  0.50920  0.97270  Biso   1.000  H
  C537     1.0000 0.84519  0.50738  0.02601  Biso   1.000  C
  N91      1.0000 0.89598  0.65489  0.02710  Biso   1.000  N
  H615     1.0000 0.81779  0.61890  0.00840  Biso   1.000  H
  C538     1.0000 0.84728  0.58641  0.05729  Biso   1.000  C
  H616     1.0000 0.87560  0.62939  0.73831  Biso   1.000  H
  H617     1.0000 0.92542  0.66409  0.71711  Biso   1.000  H
  C539     1.0000 0.83071  0.67229  0.69919  Biso   1.000  C
  N92      1.0000 0.87750  0.78199  0.77771  Biso   1.000  N
  C540     1.0000 0.83510  0.75831  0.71671  Biso   1.000  C
  H618     1.0000 0.93020  0.75150  0.73601  Biso   1.000  H
  H619     1.0000 0.16490  0.89319  0.05701  Biso   1.000  H
  C541     1.0000 0.13239  0.83902  0.09240  Biso   1.000  C
  C542     1.0000 0.24670  0.86690  0.08369  Biso   1.000  C
  H620     1.0000 0.19800  0.92639  0.81209  Biso   1.000  H
  C543     1.0000 0.13151  0.97750  0.83099  Biso   1.000  C
  C544     1.0000 0.25299  0.97789  0.84040  Biso   1.000  C
  C545     1.0000 0.80912  0.54058  0.05260  Biso   1.000  C
  H621     1.0000 0.88701  0.49750  0.03760  Biso   1.000  H
  H622     1.0000 0.81882  0.47839  0.02171  Biso   1.000  H
  C546     1.0000 0.86971  0.69319  0.01651  Biso   1.000  C
  H623     1.0000 0.82272  0.60842  0.07381  Biso   1.000  H
  H624     1.0000 0.88940  0.57921  0.06971  Biso   1.000  H
  H625     1.0000 0.83602  0.64971  0.67810  Biso   1.000  H
  H626     1.0000 0.78679  0.66751  0.71011  Biso   1.000  H
  C547     1.0000 0.83670  0.72272  0.68489  Biso   1.000  C
  C548     1.0000 0.92118  0.81409  0.77979  Biso   1.000  C
  H627     1.0000 0.79108  0.75820  0.72809  Biso   1.000  H
  H628     1.0000 0.84309  0.79058  0.70641  Biso   1.000  H
  N93      1.0000 0.06849  0.83780  0.07440  Biso   1.000  N
  H629     1.0000 0.14628  0.80581  0.09880  Biso   1.000  H
  C549     1.0000 0.12688  0.86901  0.12840  Biso   1.000  C
  C550     1.0000 0.24231  0.89822  0.11860  Biso   1.000  C
  H630     1.0000 0.27760  0.88138  0.06561  Biso   1.000  H
  H631     1.0000 0.26381  0.83509  0.09071  Biso   1.000  H
  N94      1.0000 0.07590  0.94729  0.82335  Biso   1.000  N
  H632     1.0000 0.12401  0.99568  0.85480  Biso   1.000  H
  C551     1.0000 0.14141  0.01248  0.79830  Biso   1.000  C
  H633     1.0000 0.24860  0.99611  0.86410  Biso   1.000  H
  H634     1.0000 0.29198  0.95720  0.84270  Biso   1.000  H
  C552     1.0000 0.26249  0.01191  0.80841  Biso   1.000  C
  H635     1.0000 0.76529  0.54779  0.04241  Biso   1.000  H
  H636     1.0000 0.80361  0.52500  0.07740  Biso   1.000  H
  C553     1.0000 0.89700  0.74091  0.02410  Biso   1.000  C
  H637     1.0000 0.83012  0.69130  0.00281  Biso   1.000  H
  H638     1.0000 0.80039  0.72939  0.66731  Biso   1.000  H
  H639     1.0000 0.87809  0.72611  0.67091  Biso   1.000  H
  C554     1.0000 0.91782  0.85139  0.80880  Biso   1.000  C
  H640     1.0000 0.95628  0.81402  0.76241  Biso   1.000  H
  C555     1.0000 0.04260  0.79790  0.06979  Biso   1.000  C
  H641     1.0000 0.10748  0.90039  0.12231  Biso   1.000  H
  H642     1.0000 0.09778  0.85271  0.14649  Biso   1.000  H
  C556     1.0000 0.19361  0.87628  0.14621  Biso   1.000  C
  H643     1.0000 0.22798  0.93071  0.11149  Biso   1.000  H
  H644     1.0000 0.28569  0.90071  0.13059  Biso   1.000  H
  C557     1.0000 0.02930  0.94750  0.84629  Biso   1.000  C
  H645     1.0000 0.14458  0.99429  0.77459  Biso   1.000  H
  H646     1.0000 0.10290  0.03370  0.79650  Biso   1.000  H
  C558     1.0000 0.20239  0.04269  0.80310  Biso   1.000  C
  H647     1.0000 0.27122  0.99379  0.78510  Biso   1.000  H
  H648     1.0000 0.30061  0.03249  0.81349  Biso   1.000  H
  C559     1.0000 0.95369  0.74661  0.04370  Biso   1.000  C
  C560     1.0000 0.86381  0.78071  0.01109  Biso   1.000  C
  C561     1.0000 0.86688  0.85499  0.83391  Biso   1.000  C
  C562     1.0000 0.96910  0.88270  0.81251  Biso   1.000  C
  C563     1.0000 0.97860  0.79201  0.05111  Biso   1.000  C
  H649     1.0000 0.06468  0.77029  0.07869  Biso   1.000  H
  H650     1.0000 0.21058  0.84519  0.15511  Biso   1.000  H
  H651     1.0000 0.18918  0.89750  0.16831  Biso   1.000  H
  H652     1.0000 0.03129  0.96812  0.86750  Biso   1.000  H
  C564     1.0000 0.97158  0.91669  0.84130  Biso   1.000  C
  H653     1.0000 0.20829  0.06309  0.78069  Biso   1.000  H
  H654     1.0000 0.19712  0.06380  0.82520  Biso   1.000  H
  H655     1.0000 0.97660  0.71929  0.05249  Biso   1.000  H
  H656     1.0000 0.82462  0.77671  0.99719  Biso   1.000  H
  C565     1.0000 0.88691  0.82600  0.01800  Biso   1.000  C
  H657     1.0000 0.83071  0.83420  0.83130  Biso   1.000  H
  C566     1.0000 0.86678  0.88841  0.86309  Biso   1.000  C
  H658     1.0000 0.00390  0.88131  0.79490  Biso   1.000  H
  C567     1.0000 0.94438  0.83181  0.03749  Biso   1.000  C
  C568     1.0000 0.92011  0.91890  0.86660  Biso   1.000  C
  C569     1.0000 0.85079  0.86801  0.00601  Biso   1.000  C
  C570     1.0000 0.81092  0.88919  0.88890  Biso   1.000  C
  H659     1.0000 0.96100  0.86302  0.04179  Biso   1.000  H
  H660     1.0000 0.92128  0.94141  0.88660  Biso   1.000  H
  N95      1.0000 0.79561  0.86469  0.98950  Biso   1.000  N
  H661     1.0000 0.86868  0.89872  0.01059  Biso   1.000  H
  N96      1.0000 0.80741  0.91480  0.91799  Biso   1.000  N
  H662     1.0000 0.77499  0.86912  0.88331  Biso   1.000  H
  C571     1.0000 0.76032  0.90892  0.98099  Biso   1.000  C
  C572     1.0000 0.74589  0.91191  0.93939  Biso   1.000  C
  H663     1.0000 0.78772  0.93680  0.98851  Biso   1.000  H
  C573     1.0000 0.69798  0.90909  0.00390  Biso   1.000  C
  H664     1.0000 0.72211  0.88238  0.93170  Biso   1.000  H
  C574     1.0000 0.70412  0.95471  0.92970  Biso   1.000  C
  H665     1.0000 0.67360  0.87932  0.99899  Biso   1.000  H
  C575     1.0000 0.65450  0.95221  0.99410  Biso   1.000  C
  H666     1.0000 0.70899  0.91009  0.03089  Biso   1.000  H
  C576     1.0000 0.64060  0.95432  0.95189  Biso   1.000  C
  H667     1.0000 0.69432  0.95449  0.90249  Biso   1.000  H
  H668     1.0000 0.72849  0.98431  0.93541  Biso   1.000  H
  H669     1.0000 0.61292  0.94979  0.00800  Biso   1.000  H
  H670     1.0000 0.67658  0.98188  0.00199  Biso   1.000  H
  H671     1.0000 0.61418  0.92621  0.94439  Biso   1.000  H
  H672     1.0000 0.61521  0.98342  0.94599  Biso   1.000  H
