data_image0
_cell_length_a       17.701
_cell_length_b       18.026
_cell_length_c       24.9
_cell_angle_alpha    90
_cell_angle_beta     90.29
_cell_angle_gamma    90

_symmetry_space_group_name_H-M    "P 1"
_symmetry_int_tables_number       1

loop_
  _symmetry_equiv_pos_as_xyz
  'x, y, z'

loop_
  _atom_site_label
  _atom_site_occupancy
  _atom_site_fract_x
  _atom_site_fract_y
  _atom_site_fract_z
  _atom_site_thermal_displace_type
  _atom_site_B_iso_or_equiv
  _atom_site_type_symbol
  N1       1.0000 0.45058  0.54394  0.40980  Biso   1.000  N
  C1       1.0000 0.38219  0.52940  0.40555  Biso   1.000  C
  C2       1.0000 0.50229  0.50632  0.37294  Biso   1.000  C
  C3       1.0000 0.32250  0.56091  0.44037  Biso   1.000  C
  H1       1.0000 0.36737  0.49651  0.37872  Biso   1.000  H
  H2       1.0000 0.47250  0.47798  0.34671  Biso   1.000  H
  C4       1.0000 0.55066  0.56080  0.34346  Biso   1.000  C
  C5       1.0000 0.55026  0.45279  0.40547  Biso   1.000  C
  C6       1.0000 0.24784  0.54471  0.42884  Biso   1.000  C
  C7       1.0000 0.34009  0.60518  0.48350  Biso   1.000  C
  N2       1.0000 0.50472  0.60923  0.30960  Biso   1.000  N
  H3       1.0000 0.57819  0.59120  0.36968  Biso   1.000  H
  C8       1.0000 0.60730  0.52030  0.30840  Biso   1.000  C
  C9       1.0000 0.60915  0.41368  0.36960  Biso   1.000  C
  H4       1.0000 0.51795  0.41590  0.42201  Biso   1.000  H
  H5       1.0000 0.57605  0.47970  0.43390  Biso   1.000  H
  C10      1.0000 0.18926  0.57240  0.46073  Biso   1.000  C
  H6       1.0000 0.23628  0.51481  0.39940  Biso   1.000  H
  C11      1.0000 0.28406  0.63392  0.51643  Biso   1.000  C
  H7       1.0000 0.39048  0.61611  0.49081  Biso   1.000  H
  C12      1.0000 0.51419  0.67752  0.31414  Biso   1.000  C
  H8       1.0000 0.58039  0.49179  0.28141  Biso   1.000  H
  H9       1.0000 0.63858  0.55631  0.29000  Biso   1.000  H
  C13      1.0000 0.65685  0.46921  0.34101  Biso   1.000  C
  H10      1.0000 0.64106  0.38211  0.39161  Biso   1.000  H
  H11      1.0000 0.58337  0.38261  0.34350  Biso   1.000  H
  C14      1.0000 0.20917  0.61650  0.50434  Biso   1.000  C
  C15      1.0000 0.11055  0.55620  0.45041  Biso   1.000  C
  C16      1.0000 0.30286  0.68041  0.56282  Biso   1.000  C
  C17      1.0000 0.47554  0.73444  0.28261  Biso   1.000  C
  H12      1.0000 0.54889  0.69350  0.33980  Biso   1.000  H
  H13      1.0000 0.69200  0.44380  0.31751  Biso   1.000  H
  H14      1.0000 0.68585  0.49778  0.36691  Biso   1.000  H
  H15      1.0000 0.17114  0.63508  0.52619  Biso   1.000  H
  N3       1.0000 0.08388  0.52236  0.41041  Biso   1.000  N
  H16      1.0000 0.07604  0.57240  0.47599  Biso   1.000  H
  N4       1.0000 0.25346  0.71347  0.59073  Biso   1.000  N
  H17      1.0000 0.35343  0.68601  0.57230  Biso   1.000  H
  C18      1.0000 0.42390  0.71880  0.24193  Biso   1.000  C
  C19      1.0000 0.48993  0.80861  0.29502  Biso   1.000  C
  C20      1.0000 0.00348  0.50660  0.41009  Biso   1.000  C
  C21      1.0000 0.27821  0.75230  0.63908  Biso   1.000  C
  H18      1.0000 0.41406  0.66959  0.23289  Biso   1.000  H
  C22      1.0000 0.38693  0.77488  0.21454  Biso   1.000  C
  C23      1.0000 0.45239  0.86647  0.26836  Biso   1.000  C
  H19      1.0000 0.52525  0.81998  0.32161  Biso   1.000  H
  H20      1.0000 0.98008  0.53329  0.44001  Biso   1.000  H
  C24      1.0000 0.96640  0.53112  0.35888  Biso   1.000  C
  C25      1.0000 0.99248  0.42328  0.41900  Biso   1.000  C
  H21      1.0000 0.33334  0.75691  0.63812  Biso   1.000  H
  C26      1.0000 0.24473  0.82858  0.64202  Biso   1.000  C
  C27      1.0000 0.25703  0.70592  0.68752  Biso   1.000  C
  C28      1.0000 0.40087  0.84839  0.22828  Biso   1.000  C
  C29      1.0000 0.33240  0.75508  0.17261  Biso   1.000  C
  C30      1.0000 0.46827  0.94297  0.28378  Biso   1.000  C
  N5       1.0000 0.97240  0.61178  0.35318  Biso   1.000  N
  H22      1.0000 0.99206  0.50738  0.32860  Biso   1.000  H
  C31      1.0000 0.88255  0.50949  0.35739  Biso   1.000  C
  H23      1.0000 0.01719  0.39598  0.39049  Biso   1.000  H
  H24      1.0000 0.01548  0.40891  0.45282  Biso   1.000  H
  C32      1.0000 0.90887  0.40408  0.41960  Biso   1.000  C
  N6       1.0000 0.27232  0.87479  0.59784  Biso   1.000  N
  H25      1.0000 0.18963  0.82470  0.63941  Biso   1.000  H
  C33      1.0000 0.26567  0.86653  0.69507  Biso   1.000  C
  C34      1.0000 0.27932  0.74393  0.73961  Biso   1.000  C
  H26      1.0000 0.28204  0.65810  0.68539  Biso   1.000  H
  H27      1.0000 0.20296  0.69722  0.68732  Biso   1.000  H
  H28      1.0000 0.37526  0.88611  0.21028  Biso   1.000  H
  N7       1.0000 0.29520  0.80118  0.14538  Biso   1.000  N
  H29      1.0000 0.32466  0.70493  0.16558  Biso   1.000  H
  N8       1.0000 0.50956  0.96017  0.32338  Biso   1.000  N
  H30      1.0000 0.44699  0.98103  0.26350  Biso   1.000  H
  C35      1.0000 0.00136  0.63653  0.31029  Biso   1.000  C
  H31      1.0000 0.85568  0.53728  0.38458  Biso   1.000  H
  H32      1.0000 0.86129  0.52252  0.32269  Biso   1.000  H
  C36      1.0000 0.87166  0.42688  0.36719  Biso   1.000  C
  H33      1.0000 0.90275  0.35110  0.42478  Biso   1.000  H
  H34      1.0000 0.88467  0.42949  0.44920  Biso   1.000  H
  C37      1.0000 0.22545  0.90791  0.56945  Biso   1.000  C
  H35      1.0000 0.31957  0.87579  0.69599  Biso   1.000  H
  H36      1.0000 0.23987  0.91390  0.69732  Biso   1.000  H
  C38      1.0000 0.24392  0.81871  0.74330  Biso   1.000  C
  H37      1.0000 0.26332  0.71380  0.76981  Biso   1.000  H
  H38      1.0000 0.33385  0.74881  0.74142  Biso   1.000  H
  C39      1.0000 0.24659  0.77244  0.10221  Biso   1.000  C
  C40      1.0000 0.52681  0.03772  0.33350  Biso   1.000  C
  C41      1.0000 0.01019  0.71452  0.29699  Biso   1.000  C
  H39      1.0000 0.01830  0.60191  0.28539  Biso   1.000  H
  H40      1.0000 0.81806  0.41568  0.36852  Biso   1.000  H
  H41      1.0000 0.89360  0.39909  0.33780  Biso   1.000  H
  C42      1.0000 0.24513  0.95645  0.52386  Biso   1.000  C
  H42      1.0000 0.17455  0.90170  0.57740  Biso   1.000  H
  H43      1.0000 0.26043  0.84289  0.77611  Biso   1.000  H
  H44      1.0000 0.18947  0.81360  0.74459  Biso   1.000  H
  C43      1.0000 0.16781  0.80312  0.10599  Biso   1.000  C
  H45      1.0000 0.24457  0.71818  0.10462  Biso   1.000  H
  C44      1.0000 0.28310  0.79469  0.04843  Biso   1.000  C
  C45      1.0000 0.51480  0.05631  0.39205  Biso   1.000  C
  H46      1.0000 0.49450  0.06918  0.31101  Biso   1.000  H
  C46      1.0000 0.60958  0.05043  0.31908  Biso   1.000  C
  C47      1.0000 0.04629  0.73250  0.24912  Biso   1.000  C
  C48      1.0000 0.98693  0.77238  0.32996  Biso   1.000  C
  C49      1.0000 0.31976  0.96721  0.50796  Biso   1.000  C
  C50      1.0000 0.18803  0.98968  0.49426  Biso   1.000  C
  N9       1.0000 0.13144  0.77682  0.15530  Biso   1.000  N
  H47      1.0000 0.17047  0.85737  0.10699  Biso   1.000  H
  C51      1.0000 0.12069  0.77960  0.05755  Biso   1.000  C
  H48      1.0000 0.28987  0.84800  0.04751  Biso   1.000  H
  H49      1.0000 0.33251  0.77172  0.04570  Biso   1.000  H
  C52      1.0000 0.23451  0.77089  0.00092  Biso   1.000  C
  N10      1.0000 0.43450  0.05192  0.40499  Biso   1.000  N
  H50      1.0000 0.54309  0.02119  0.41450  Biso   1.000  H
  C53      1.0000 0.54177  0.13508  0.40398  Biso   1.000  C
  H51      1.0000 0.64097  0.01681  0.33988  Biso   1.000  H
  H52      1.0000 0.61688  0.03900  0.28141  Biso   1.000  H
  C54      1.0000 0.63440  0.12831  0.32956  Biso   1.000  C
  C55      1.0000 0.05997  0.80539  0.23458  Biso   1.000  C
  H53      1.0000 0.06166  0.69450  0.22631  Biso   1.000  H
  H54      1.0000 0.96258  0.76168  0.36201  Biso   1.000  H
  C56      1.0000 0.99920  0.84500  0.31611  Biso   1.000  C
  H55      1.0000 0.35894  0.94619  0.52780  Biso   1.000  H
  C57      1.0000 0.33593  0.00910  0.46286  Biso   1.000  C
  H56      1.0000 0.13816  0.98352  0.50499  Biso   1.000  H
  C58      1.0000 0.20307  0.03195  0.44912  Biso   1.000  C
  C59      1.0000 0.10137  0.82381  0.18558  Biso   1.000  C
  C60      1.0000 0.15478  0.80312  0.00574  Biso   1.000  C
  H57      1.0000 0.11538  0.72601  0.05771  Biso   1.000  H
  H58      1.0000 0.07060  0.80090  0.06048  Biso   1.000  H
  H59      1.0000 0.23174  0.71719  0.99960  Biso   1.000  H
  H60      1.0000 0.25733  0.78797  0.96779  Biso   1.000  H
  C61      1.0000 0.41484  0.01648  0.44539  Biso   1.000  C
  C62      1.0000 0.62476  0.14601  0.38852  Biso   1.000  C
  H61      1.0000 0.53577  0.14540  0.44189  Biso   1.000  H
  H62      1.0000 0.51067  0.17009  0.38410  Biso   1.000  H
  H63      1.0000 0.60436  0.16232  0.30812  Biso   1.000  H
  H64      1.0000 0.68687  0.13408  0.31960  Biso   1.000  H
  C63      1.0000 0.03558  0.86159  0.26800  Biso   1.000  C
  C64      1.0000 0.97437  0.90641  0.35113  Biso   1.000  C
  C65      1.0000 0.27725  0.04183  0.43378  Biso   1.000  C
  C66      1.0000 0.14120  0.06224  0.41539  Biso   1.000  C
  H65      1.0000 0.10577  0.87363  0.17639  Biso   1.000  H
  H66      1.0000 0.15703  0.85682  0.00410  Biso   1.000  H
  H67      1.0000 0.12366  0.78581  0.97610  Biso   1.000  H
  H68      1.0000 0.45216  0.99329  0.46571  Biso   1.000  H
  H69      1.0000 0.63990  0.19688  0.39539  Biso   1.000  H
  H70      1.0000 0.65655  0.11361  0.40988  Biso   1.000  H
  H71      1.0000 0.04348  0.91080  0.25832  Biso   1.000  H
  N11      1.0000 0.98677  0.97370  0.34033  Biso   1.000  N
  H72      1.0000 0.94849  0.89499  0.38249  Biso   1.000  H
  H73      1.0000 0.28817  0.07062  0.40382  Biso   1.000  H
  N12      1.0000 0.07218  0.05076  0.42563  Biso   1.000  N
  H74      1.0000 0.15347  0.09081  0.38551  Biso   1.000  H
  C67      1.0000 0.95562  0.03029  0.37623  Biso   1.000  C
  C68      1.0000 0.01505  0.08593  0.39141  Biso   1.000  C
  H75      1.0000 0.93664  0.00632  0.40880  Biso   1.000  H
  C69      1.0000 0.88965  0.06762  0.34679  Biso   1.000  C
  C70      1.0000 0.98058  0.14989  0.42221  Biso   1.000  C
  H76      1.0000 0.03905  0.10490  0.35880  Biso   1.000  H
  H77      1.0000 0.90698  0.08599  0.31241  Biso   1.000  H
  H78      1.0000 0.85045  0.03112  0.34000  Biso   1.000  H
  C71      1.0000 0.85717  0.13092  0.37872  Biso   1.000  C
  C72      1.0000 0.91568  0.18651  0.39181  Biso   1.000  C
  H79      1.0000 0.96229  0.13192  0.45651  Biso   1.000  H
  H80      1.0000 0.01938  0.18667  0.42940  Biso   1.000  H
  H81      1.0000 0.81708  0.15439  0.35812  Biso   1.000  H
  H82      1.0000 0.83548  0.11189  0.41169  Biso   1.000  H
  H83      1.0000 0.89397  0.22551  0.41362  Biso   1.000  H
  H84      1.0000 0.93448  0.20859  0.35900  Biso   1.000  H
  C73      1.0000 0.44963  0.45279  0.59455  Biso   1.000  C
  C74      1.0000 0.49766  0.50632  0.62708  Biso   1.000  C
  C75      1.0000 0.39074  0.41368  0.63041  Biso   1.000  C
  H85      1.0000 0.48194  0.41590  0.57800  Biso   1.000  H
  H86      1.0000 0.42384  0.47970  0.56611  Biso   1.000  H
  N13      1.0000 0.54937  0.54394  0.59021  Biso   1.000  N
  H87      1.0000 0.52745  0.47798  0.65330  Biso   1.000  H
  C76      1.0000 0.44928  0.56080  0.65655  Biso   1.000  C
  C77      1.0000 0.34303  0.46921  0.65900  Biso   1.000  C
  H88      1.0000 0.35883  0.38211  0.60840  Biso   1.000  H
  H89      1.0000 0.41657  0.38261  0.65651  Biso   1.000  H
  C78      1.0000 0.61776  0.52940  0.59447  Biso   1.000  C
  N14      1.0000 0.49523  0.60923  0.69041  Biso   1.000  N
  H90      1.0000 0.42175  0.59120  0.63029  Biso   1.000  H
  C79      1.0000 0.39264  0.52030  0.69162  Biso   1.000  C
  H91      1.0000 0.30795  0.44380  0.68250  Biso   1.000  H
  H92      1.0000 0.31404  0.49778  0.63310  Biso   1.000  H
  C80      1.0000 0.67745  0.56091  0.55965  Biso   1.000  C
  H93      1.0000 0.63258  0.49651  0.62129  Biso   1.000  H
  C81      1.0000 0.48570  0.67752  0.68587  Biso   1.000  C
  H94      1.0000 0.41956  0.49179  0.71860  Biso   1.000  H
  H95      1.0000 0.36136  0.55631  0.71001  Biso   1.000  H
  C82      1.0000 0.75205  0.54471  0.57117  Biso   1.000  C
  C83      1.0000 0.65986  0.60518  0.51651  Biso   1.000  C
  C84      1.0000 0.52440  0.73444  0.71740  Biso   1.000  C
  H96      1.0000 0.45106  0.69350  0.66021  Biso   1.000  H
  C85      1.0000 0.81069  0.57240  0.53928  Biso   1.000  C
  H97      1.0000 0.76367  0.51481  0.60061  Biso   1.000  H
  C86      1.0000 0.71589  0.63392  0.48358  Biso   1.000  C
  H98      1.0000 0.60947  0.61611  0.50920  Biso   1.000  H
  C87      1.0000 0.57599  0.71880  0.75808  Biso   1.000  C
  C88      1.0000 0.50996  0.80861  0.70499  Biso   1.000  C
  C89      1.0000 0.79077  0.61650  0.49567  Biso   1.000  C
  C90      1.0000 0.88934  0.55620  0.54957  Biso   1.000  C
  C91      1.0000 0.69708  0.68041  0.43719  Biso   1.000  C
  H99      1.0000 0.58582  0.66959  0.76712  Biso   1.000  H
  C92      1.0000 0.61302  0.77488  0.78547  Biso   1.000  C
  C93      1.0000 0.54750  0.86647  0.73166  Biso   1.000  C
  H100     1.0000 0.47463  0.81998  0.67840  Biso   1.000  H
  H101     1.0000 0.82875  0.63508  0.47382  Biso   1.000  H
  N15      1.0000 0.91607  0.52236  0.58961  Biso   1.000  N
  H102     1.0000 0.92385  0.57240  0.52402  Biso   1.000  H
  N16      1.0000 0.74649  0.71347  0.40928  Biso   1.000  N
  H103     1.0000 0.64646  0.68601  0.42772  Biso   1.000  H
  C94      1.0000 0.59908  0.84839  0.77174  Biso   1.000  C
  C95      1.0000 0.66755  0.75508  0.82740  Biso   1.000  C
  C96      1.0000 0.53162  0.94297  0.71623  Biso   1.000  C
  C97      1.0000 0.99646  0.50660  0.58993  Biso   1.000  C
  C98      1.0000 0.72168  0.75230  0.36093  Biso   1.000  C
  H104     1.0000 0.62463  0.88611  0.78969  Biso   1.000  H
  N17      1.0000 0.70475  0.80118  0.85459  Biso   1.000  N
  H105     1.0000 0.67522  0.70493  0.83439  Biso   1.000  H
  N18      1.0000 0.49033  0.96017  0.67664  Biso   1.000  N
  H106     1.0000 0.55295  0.98103  0.73652  Biso   1.000  H
  H107     1.0000 0.01986  0.53329  0.56001  Biso   1.000  H
  C99      1.0000 0.03355  0.53112  0.64113  Biso   1.000  C
  C100     1.0000 0.00747  0.42328  0.58101  Biso   1.000  C
  H108     1.0000 0.66655  0.75691  0.36189  Biso   1.000  H
  C101     1.0000 0.75522  0.82858  0.35800  Biso   1.000  C
  C102     1.0000 0.74286  0.70592  0.31245  Biso   1.000  C
  C103     1.0000 0.75336  0.77244  0.89780  Biso   1.000  C
  C104     1.0000 0.47314  0.03772  0.66651  Biso   1.000  C
  N19      1.0000 0.02754  0.61178  0.64684  Biso   1.000  N
  H109     1.0000 0.00783  0.50738  0.67141  Biso   1.000  H
  C105     1.0000 0.11734  0.50949  0.64262  Biso   1.000  C
  H110     1.0000 0.98276  0.39598  0.60949  Biso   1.000  H
  H111     1.0000 0.98446  0.40891  0.54720  Biso   1.000  H
  C106     1.0000 0.09108  0.40408  0.58041  Biso   1.000  C
  N20      1.0000 0.72762  0.87479  0.40217  Biso   1.000  N
  H112     1.0000 0.81026  0.82470  0.36061  Biso   1.000  H
  C107     1.0000 0.73428  0.86653  0.30494  Biso   1.000  C
  C108     1.0000 0.72057  0.74393  0.26040  Biso   1.000  C
  H113     1.0000 0.71785  0.65810  0.31462  Biso   1.000  H
  H114     1.0000 0.79698  0.69722  0.31269  Biso   1.000  H
  C109     1.0000 0.83214  0.80312  0.89399  Biso   1.000  C
  H115     1.0000 0.75532  0.71818  0.89539  Biso   1.000  H
  C110     1.0000 0.71685  0.79469  0.95158  Biso   1.000  C
  C111     1.0000 0.48509  0.05631  0.60796  Biso   1.000  C
  H116     1.0000 0.50544  0.06918  0.68900  Biso   1.000  H
  C112     1.0000 0.39036  0.05043  0.68093  Biso   1.000  C
  C113     1.0000 0.99853  0.63653  0.68973  Biso   1.000  C
  H117     1.0000 0.14426  0.53728  0.61539  Biso   1.000  H
  H118     1.0000 0.13866  0.52252  0.67732  Biso   1.000  H
  C114     1.0000 0.12823  0.42688  0.63282  Biso   1.000  C
  H119     1.0000 0.09714  0.35110  0.57519  Biso   1.000  H
  H120     1.0000 0.11527  0.42949  0.55081  Biso   1.000  H
  C115     1.0000 0.77443  0.90791  0.43057  Biso   1.000  C
  H121     1.0000 0.68037  0.87579  0.30402  Biso   1.000  H
  H122     1.0000 0.76008  0.91390  0.30269  Biso   1.000  H
  C116     1.0000 0.75597  0.81871  0.25671  Biso   1.000  C
  H123     1.0000 0.73657  0.71380  0.23020  Biso   1.000  H
  H124     1.0000 0.66610  0.74881  0.25860  Biso   1.000  H
  N21      1.0000 0.86845  0.77682  0.84471  Biso   1.000  N
  H125     1.0000 0.82942  0.85737  0.89302  Biso   1.000  H
  C117     1.0000 0.87920  0.77960  0.94246  Biso   1.000  C
  H126     1.0000 0.71002  0.84800  0.95250  Biso   1.000  H
  H127     1.0000 0.66744  0.77172  0.95431  Biso   1.000  H
  C118     1.0000 0.76543  0.77089  0.99909  Biso   1.000  C
  N22      1.0000 0.56539  0.05192  0.59503  Biso   1.000  N
  H128     1.0000 0.45686  0.02119  0.58551  Biso   1.000  H
  C119     1.0000 0.45817  0.13508  0.59603  Biso   1.000  C
  H129     1.0000 0.35897  0.01681  0.66009  Biso   1.000  H
  H130     1.0000 0.38306  0.03900  0.71860  Biso   1.000  H
  C120     1.0000 0.36554  0.12831  0.67045  Biso   1.000  C
  C121     1.0000 0.98975  0.71452  0.70302  Biso   1.000  C
  H131     1.0000 0.98164  0.60191  0.71459  Biso   1.000  H
  H132     1.0000 0.18183  0.41568  0.63149  Biso   1.000  H
  H133     1.0000 0.10635  0.39909  0.66222  Biso   1.000  H
  C122     1.0000 0.75476  0.95645  0.47615  Biso   1.000  C
  H134     1.0000 0.82539  0.90170  0.42262  Biso   1.000  H
  H135     1.0000 0.73946  0.84289  0.22390  Biso   1.000  H
  H136     1.0000 0.81047  0.81360  0.25538  Biso   1.000  H
  C123     1.0000 0.89852  0.82381  0.81439  Biso   1.000  C
  C124     1.0000 0.84511  0.80312  0.99427  Biso   1.000  C
  H137     1.0000 0.88451  0.72601  0.94230  Biso   1.000  H
  H138     1.0000 0.92935  0.80090  0.93949  Biso   1.000  H
  H139     1.0000 0.76821  0.71719  0.00041  Biso   1.000  H
  H140     1.0000 0.74256  0.78797  0.03222  Biso   1.000  H
  C125     1.0000 0.58510  0.01648  0.55463  Biso   1.000  C
  C126     1.0000 0.37518  0.14601  0.61149  Biso   1.000  C
  H141     1.0000 0.46417  0.14540  0.55812  Biso   1.000  H
  H142     1.0000 0.48927  0.17009  0.61591  Biso   1.000  H
  H143     1.0000 0.39553  0.16232  0.69190  Biso   1.000  H
  H144     1.0000 0.31308  0.13408  0.68041  Biso   1.000  H
  C127     1.0000 0.95365  0.73250  0.75089  Biso   1.000  C
  C128     1.0000 0.01302  0.77238  0.67005  Biso   1.000  C
  C129     1.0000 0.68013  0.96721  0.49205  Biso   1.000  C
  C130     1.0000 0.81192  0.98968  0.50575  Biso   1.000  C
  C131     1.0000 0.93992  0.80539  0.76543  Biso   1.000  C
  H145     1.0000 0.89412  0.87363  0.82363  Biso   1.000  H
  H146     1.0000 0.84292  0.85682  0.99592  Biso   1.000  H
  H147     1.0000 0.87628  0.78581  0.02391  Biso   1.000  H
  H148     1.0000 0.54778  0.99329  0.53430  Biso   1.000  H
  C132     1.0000 0.66401  0.00910  0.53716  Biso   1.000  C
  H149     1.0000 0.36005  0.19688  0.60459  Biso   1.000  H
  H150     1.0000 0.34333  0.11361  0.59009  Biso   1.000  H
  H151     1.0000 0.93822  0.69450  0.77370  Biso   1.000  H
  H152     1.0000 0.03737  0.76168  0.63800  Biso   1.000  H
  C133     1.0000 0.00075  0.84500  0.68390  Biso   1.000  C
  H153     1.0000 0.64095  0.94619  0.47221  Biso   1.000  H
  H154     1.0000 0.86178  0.98352  0.49499  Biso   1.000  H
  C134     1.0000 0.79687  0.03195  0.55089  Biso   1.000  C
  C135     1.0000 0.96437  0.86159  0.73202  Biso   1.000  C
  C136     1.0000 0.72269  0.04183  0.56623  Biso   1.000  C
  C137     1.0000 0.02558  0.90641  0.64888  Biso   1.000  C
  C138     1.0000 0.85875  0.06224  0.58463  Biso   1.000  C
  H155     1.0000 0.95647  0.91080  0.74170  Biso   1.000  H
  H156     1.0000 0.71178  0.07062  0.59619  Biso   1.000  H
  N23      1.0000 0.01311  0.97370  0.65965  Biso   1.000  N
  H157     1.0000 0.05146  0.89499  0.61752  Biso   1.000  H
  N24      1.0000 0.92777  0.05076  0.57438  Biso   1.000  N
  H158     1.0000 0.84647  0.09081  0.61451  Biso   1.000  H
  C139     1.0000 0.04433  0.03029  0.62378  Biso   1.000  C
  C140     1.0000 0.98490  0.08593  0.60860  Biso   1.000  C
  H159     1.0000 0.06325  0.00632  0.59121  Biso   1.000  H
  C141     1.0000 0.11024  0.06762  0.65322  Biso   1.000  C
  H160     1.0000 0.96084  0.10490  0.64121  Biso   1.000  H
  C142     1.0000 0.01937  0.14989  0.57780  Biso   1.000  C
  H161     1.0000 0.09297  0.08599  0.68760  Biso   1.000  H
  H162     1.0000 0.14944  0.03112  0.66001  Biso   1.000  H
  C143     1.0000 0.14278  0.13092  0.62129  Biso   1.000  C
  H163     1.0000 0.98056  0.18667  0.57061  Biso   1.000  H
  C144     1.0000 0.08427  0.18651  0.60820  Biso   1.000  C
  H164     1.0000 0.03765  0.13192  0.54350  Biso   1.000  H
  H165     1.0000 0.18287  0.15439  0.64190  Biso   1.000  H
  H166     1.0000 0.16446  0.11189  0.58832  Biso   1.000  H
  H167     1.0000 0.10598  0.22551  0.58639  Biso   1.000  H
  H168     1.0000 0.06546  0.20859  0.64101  Biso   1.000  H
  C145     1.0000 0.37929  0.27960  0.44246  Biso   1.000  C
  C146     1.0000 0.33217  0.30312  0.39402  Biso   1.000  C
  C147     1.0000 0.34514  0.30312  0.49426  Biso   1.000  C
  H169     1.0000 0.38454  0.22601  0.44229  Biso   1.000  H
  H170     1.0000 0.42938  0.30090  0.43948  Biso   1.000  H
  C148     1.0000 0.25338  0.27244  0.39780  Biso   1.000  C
  N25      1.0000 0.36848  0.27682  0.34470  Biso   1.000  N
  H171     1.0000 0.32945  0.35737  0.39302  Biso   1.000  H
  C149     1.0000 0.26546  0.27089  0.49908  Biso   1.000  C
  H172     1.0000 0.34295  0.35682  0.49591  Biso   1.000  H
  H173     1.0000 0.37625  0.28581  0.52390  Biso   1.000  H
  N26      1.0000 0.20477  0.30118  0.35458  Biso   1.000  N
  H174     1.0000 0.25534  0.21818  0.39539  Biso   1.000  H
  C150     1.0000 0.21688  0.29469  0.45157  Biso   1.000  C
  C151     1.0000 0.39860  0.32381  0.31442  Biso   1.000  C
  H175     1.0000 0.26818  0.21719  0.50041  Biso   1.000  H
  H176     1.0000 0.24253  0.28797  0.53222  Biso   1.000  H
  C152     1.0000 0.16758  0.25508  0.32739  Biso   1.000  C
  H177     1.0000 0.21005  0.34800  0.45250  Biso   1.000  H
  H178     1.0000 0.16746  0.27172  0.45430  Biso   1.000  H
  C153     1.0000 0.44000  0.30539  0.26543  Biso   1.000  C
  H179     1.0000 0.39420  0.37363  0.32362  Biso   1.000  H
  C154     1.0000 0.11304  0.27488  0.28547  Biso   1.000  C
  H180     1.0000 0.17525  0.20493  0.33442  Biso   1.000  H
  C155     1.0000 0.46439  0.36159  0.23201  Biso   1.000  C
  C156     1.0000 0.45368  0.23250  0.25089  Biso   1.000  C
  C157     1.0000 0.07601  0.21880  0.25808  Biso   1.000  C
  C158     1.0000 0.09910  0.34839  0.27173  Biso   1.000  C
  C159     1.0000 0.50077  0.34500  0.18390  Biso   1.000  C
  H181     1.0000 0.45650  0.41080  0.24169  Biso   1.000  H
  C160     1.0000 0.48978  0.21452  0.20301  Biso   1.000  C
  H182     1.0000 0.43825  0.19450  0.27370  Biso   1.000  H
  C161     1.0000 0.02443  0.23444  0.21739  Biso   1.000  C
  H183     1.0000 0.08591  0.16959  0.26711  Biso   1.000  H
  H184     1.0000 0.12465  0.38611  0.28968  Biso   1.000  H
  C162     1.0000 0.04752  0.36647  0.23165  Biso   1.000  C
  C163     1.0000 0.51305  0.27238  0.17004  Biso   1.000  C
  C164     1.0000 0.52561  0.40641  0.14888  Biso   1.000  C
  C165     1.0000 0.49861  0.13653  0.18972  Biso   1.000  C
  C166     1.0000 0.00999  0.30861  0.20498  Biso   1.000  C
  C167     1.0000 0.98573  0.17752  0.18587  Biso   1.000  C
  C168     1.0000 0.03171  0.44297  0.21623  Biso   1.000  C
  H185     1.0000 0.53739  0.26168  0.13799  Biso   1.000  H
  N27      1.0000 0.51314  0.47370  0.15968  Biso   1.000  N
  H186     1.0000 0.55148  0.39499  0.11751  Biso   1.000  H
  N28      1.0000 0.52757  0.11178  0.14683  Biso   1.000  N
  H187     1.0000 0.48167  0.10191  0.21462  Biso   1.000  H
  H188     1.0000 0.97466  0.31998  0.17840  Biso   1.000  H
  N29      1.0000 0.99525  0.10923  0.19040  Biso   1.000  N
  H189     1.0000 0.95109  0.19350  0.16020  Biso   1.000  H
  H190     1.0000 0.05298  0.48103  0.23651  Biso   1.000  H
  N30      1.0000 0.99035  0.46017  0.17663  Biso   1.000  N
  C169     1.0000 0.54435  0.53029  0.12378  Biso   1.000  C
  C170     1.0000 0.53357  0.03112  0.14113  Biso   1.000  C
  C171     1.0000 0.94931  0.06080  0.15655  Biso   1.000  C
  C172     1.0000 0.97316  0.53772  0.16651  Biso   1.000  C
  C173     1.0000 0.48493  0.58593  0.10860  Biso   1.000  C
  H191     1.0000 0.56327  0.50632  0.09121  Biso   1.000  H
  C174     1.0000 0.61027  0.56762  0.15321  Biso   1.000  C
  C175     1.0000 0.49649  0.00660  0.08992  Biso   1.000  C
  H192     1.0000 0.50791  0.00738  0.17141  Biso   1.000  H
  C176     1.0000 0.61736  0.00949  0.14261  Biso   1.000  C
  C177     1.0000 0.99768  0.00632  0.12707  Biso   1.000  C
  H193     1.0000 0.92178  0.09120  0.13028  Biso   1.000  H
  C178     1.0000 0.89267  0.02030  0.19161  Biso   1.000  C
  H194     1.0000 0.00547  0.56918  0.18900  Biso   1.000  H
  C179     1.0000 0.98512  0.55631  0.10795  Biso   1.000  C
  C180     1.0000 0.89039  0.55043  0.18093  Biso   1.000  C
  N31      1.0000 0.42779  0.55076  0.07438  Biso   1.000  N
  H195     1.0000 0.46087  0.60490  0.14121  Biso   1.000  H
  C181     1.0000 0.51939  0.64989  0.07779  Biso   1.000  C
  H196     1.0000 0.59300  0.58599  0.18759  Biso   1.000  H
  H197     1.0000 0.64946  0.53112  0.16000  Biso   1.000  H
  C182     1.0000 0.64280  0.63092  0.12129  Biso   1.000  C
  N32      1.0000 0.41609  0.02236  0.08960  Biso   1.000  N
  H198     1.0000 0.51989  0.03329  0.06000  Biso   1.000  H
  C183     1.0000 0.50750  0.92328  0.08101  Biso   1.000  C
  H199     1.0000 0.64429  0.03728  0.11538  Biso   1.000  H
  H200     1.0000 0.63868  0.02252  0.17731  Biso   1.000  H
  C184     1.0000 0.62831  0.92688  0.13281  Biso   1.000  C
  N33      1.0000 0.04940  0.04394  0.09020  Biso   1.000  N
  C185     1.0000 0.94972  0.95279  0.09454  Biso   1.000  C
  H201     1.0000 0.02747  0.97798  0.15330  Biso   1.000  H
  H202     1.0000 0.91958  0.99179  0.21860  Biso   1.000  H
  C186     1.0000 0.84306  0.96921  0.15900  Biso   1.000  C
  H203     1.0000 0.86139  0.05631  0.21000  Biso   1.000  H
  N34      1.0000 0.06542  0.55192  0.09502  Biso   1.000  N
  H204     1.0000 0.95688  0.52119  0.08550  Biso   1.000  H
  C187     1.0000 0.95820  0.63508  0.09603  Biso   1.000  C
  H205     1.0000 0.85900  0.51681  0.16008  Biso   1.000  H
  H206     1.0000 0.88309  0.53900  0.21860  Biso   1.000  H
  C188     1.0000 0.86557  0.62831  0.17044  Biso   1.000  C
  C189     1.0000 0.35877  0.56224  0.08462  Biso   1.000  C
  C190     1.0000 0.58430  0.68651  0.10819  Biso   1.000  C
  H207     1.0000 0.48059  0.68667  0.07060  Biso   1.000  H
  H208     1.0000 0.53768  0.63192  0.04349  Biso   1.000  H
  H209     1.0000 0.68289  0.65439  0.14189  Biso   1.000  H
  H210     1.0000 0.66449  0.61189  0.08831  Biso   1.000  H
  C191     1.0000 0.38937  0.05620  0.04960  Biso   1.000  C
  C192     1.0000 0.59110  0.90408  0.08040  Biso   1.000  C
  H211     1.0000 0.48279  0.89598  0.10952  Biso   1.000  H
  H212     1.0000 0.48449  0.90891  0.04719  Biso   1.000  H
  H213     1.0000 0.68191  0.91568  0.13149  Biso   1.000  H
  H214     1.0000 0.60637  0.89909  0.16221  Biso   1.000  H
  C193     1.0000 0.11778  0.02940  0.09446  Biso   1.000  C
  C194     1.0000 0.89077  0.91368  0.13040  Biso   1.000  C
  H215     1.0000 0.98197  0.91590  0.07799  Biso   1.000  H
  H216     1.0000 0.92392  0.97970  0.06611  Biso   1.000  H
  H217     1.0000 0.80798  0.94380  0.18249  Biso   1.000  H
  H218     1.0000 0.81407  0.99778  0.13309  Biso   1.000  H
  C195     1.0000 0.08513  0.51648  0.05462  Biso   1.000  C
  C196     1.0000 0.87521  0.64601  0.11149  Biso   1.000  C
  H219     1.0000 0.96420  0.64540  0.05811  Biso   1.000  H
  H220     1.0000 0.98930  0.67009  0.11591  Biso   1.000  H
  H221     1.0000 0.89561  0.66232  0.19189  Biso   1.000  H
  H222     1.0000 0.81310  0.63408  0.18040  Biso   1.000  H
  C197     1.0000 0.29690  0.53195  0.05088  Biso   1.000  C
  H223     1.0000 0.34650  0.59081  0.11450  Biso   1.000  H
  H224     1.0000 0.60600  0.72551  0.08639  Biso   1.000  H
  H225     1.0000 0.56549  0.70859  0.14101  Biso   1.000  H
  C198     1.0000 0.31071  0.07240  0.03928  Biso   1.000  C
  H226     1.0000 0.42388  0.07240  0.02402  Biso   1.000  H
  H227     1.0000 0.59717  0.85110  0.07518  Biso   1.000  H
  H228     1.0000 0.61530  0.92949  0.05080  Biso   1.000  H
  C199     1.0000 0.17748  0.06091  0.05964  Biso   1.000  C
  H229     1.0000 0.13261  0.99651  0.12129  Biso   1.000  H
  H230     1.0000 0.85892  0.88211  0.10839  Biso   1.000  H
  H231     1.0000 0.91660  0.88261  0.15651  Biso   1.000  H
  C200     1.0000 0.16404  0.50910  0.03715  Biso   1.000  C
  H232     1.0000 0.04781  0.49329  0.03430  Biso   1.000  H
  H233     1.0000 0.86007  0.69688  0.10462  Biso   1.000  H
  H234     1.0000 0.84342  0.61361  0.09008  Biso   1.000  H
  C201     1.0000 0.22272  0.54183  0.06623  Biso   1.000  C
  C202     1.0000 0.31194  0.48968  0.00574  Biso   1.000  C
  C203     1.0000 0.25207  0.04471  0.07117  Biso   1.000  C
  C204     1.0000 0.29074  0.11650  0.99566  Biso   1.000  C
  C205     1.0000 0.15988  0.10518  0.01651  Biso   1.000  C
  C206     1.0000 0.18010  0.46721  0.99205  Biso   1.000  C
  H235     1.0000 0.21180  0.57062  0.09619  Biso   1.000  H
  C207     1.0000 0.25473  0.45645  0.97614  Biso   1.000  C
  H236     1.0000 0.36175  0.48352  0.99502  Biso   1.000  H
  H237     1.0000 0.26370  0.01481  0.10060  Biso   1.000  H
  C208     1.0000 0.21586  0.13392  0.98357  Biso   1.000  C
  H238     1.0000 0.32872  0.13508  0.97381  Biso   1.000  H
  H239     1.0000 0.10949  0.11611  0.00920  Biso   1.000  H
  H240     1.0000 0.14092  0.44619  0.97221  Biso   1.000  H
  C209     1.0000 0.27446  0.40791  0.93056  Biso   1.000  C
  C210     1.0000 0.19706  0.18041  0.93719  Biso   1.000  C
  N35      1.0000 0.22760  0.37479  0.90217  Biso   1.000  N
  H241     1.0000 0.32536  0.40170  0.92261  Biso   1.000  H
  N36      1.0000 0.24646  0.21347  0.90928  Biso   1.000  N
  H242     1.0000 0.14643  0.18601  0.92771  Biso   1.000  H
  C211     1.0000 0.25519  0.32858  0.85799  Biso   1.000  C
  C212     1.0000 0.22171  0.25230  0.86092  Biso   1.000  C
  H243     1.0000 0.31023  0.32470  0.86060  Biso   1.000  H
  C213     1.0000 0.23425  0.36653  0.80494  Biso   1.000  C
  H244     1.0000 0.16658  0.25691  0.86189  Biso   1.000  H
  C214     1.0000 0.24283  0.20592  0.81249  Biso   1.000  C
  H245     1.0000 0.18035  0.37579  0.80401  Biso   1.000  H
  H246     1.0000 0.26005  0.41390  0.80269  Biso   1.000  H
  C215     1.0000 0.25594  0.31871  0.75670  Biso   1.000  C
  C216     1.0000 0.22054  0.24393  0.76040  Biso   1.000  C
  H247     1.0000 0.21788  0.15810  0.81462  Biso   1.000  H
  H248     1.0000 0.29695  0.19722  0.81269  Biso   1.000  H
  H249     1.0000 0.23949  0.34289  0.72389  Biso   1.000  H
  H250     1.0000 0.31044  0.31360  0.75538  Biso   1.000  H
  H251     1.0000 0.23654  0.21380  0.73020  Biso   1.000  H
  H252     1.0000 0.16607  0.24881  0.75859  Biso   1.000  H
  C217     1.0000 0.65475  0.30312  0.50575  Biso   1.000  C
  C218     1.0000 0.73449  0.27089  0.50093  Biso   1.000  C
  H253     1.0000 0.65694  0.35682  0.50410  Biso   1.000  H
  H254     1.0000 0.62364  0.28581  0.47611  Biso   1.000  H
  C219     1.0000 0.62066  0.27960  0.55756  Biso   1.000  C
  C220     1.0000 0.78307  0.29469  0.54844  Biso   1.000  C
  H255     1.0000 0.73176  0.21719  0.49960  Biso   1.000  H
  H256     1.0000 0.75736  0.28797  0.46780  Biso   1.000  H
  C221     1.0000 0.66778  0.30312  0.60599  Biso   1.000  C
  H257     1.0000 0.61535  0.22601  0.55772  Biso   1.000  H
  H258     1.0000 0.57057  0.30090  0.56049  Biso   1.000  H
  C222     1.0000 0.74656  0.27244  0.60222  Biso   1.000  C
  H259     1.0000 0.78984  0.34800  0.54752  Biso   1.000  H
  H260     1.0000 0.83248  0.27172  0.54571  Biso   1.000  H
  N37      1.0000 0.63141  0.27682  0.65531  Biso   1.000  N
  H261     1.0000 0.67044  0.35737  0.60700  Biso   1.000  H
  N38      1.0000 0.79517  0.30118  0.64539  Biso   1.000  N
  H262     1.0000 0.74455  0.21818  0.60459  Biso   1.000  H
  C223     1.0000 0.60134  0.32381  0.68559  Biso   1.000  C
  C224     1.0000 0.83237  0.25508  0.67262  Biso   1.000  C
  C225     1.0000 0.55994  0.30539  0.73455  Biso   1.000  C
  H263     1.0000 0.60574  0.37363  0.67639  Biso   1.000  H
  C226     1.0000 0.88690  0.27488  0.71455  Biso   1.000  C
  H264     1.0000 0.82464  0.20493  0.66559  Biso   1.000  H
  C227     1.0000 0.53555  0.36159  0.76800  Biso   1.000  C
  C228     1.0000 0.54626  0.23250  0.74909  Biso   1.000  C
  C229     1.0000 0.92387  0.21880  0.74194  Biso   1.000  C
  C230     1.0000 0.90084  0.34839  0.72828  Biso   1.000  C
  C231     1.0000 0.49917  0.34500  0.81611  Biso   1.000  C
  H265     1.0000 0.54345  0.41080  0.75832  Biso   1.000  H
  C232     1.0000 0.51017  0.21452  0.79696  Biso   1.000  C
  H266     1.0000 0.56164  0.19450  0.72631  Biso   1.000  H
  C233     1.0000 0.97552  0.23444  0.78262  Biso   1.000  C
  H267     1.0000 0.91404  0.16959  0.73290  Biso   1.000  H
  H268     1.0000 0.87523  0.38611  0.71029  Biso   1.000  H
  C234     1.0000 0.95237  0.36647  0.76836  Biso   1.000  C
  C235     1.0000 0.48690  0.27238  0.82997  Biso   1.000  C
  C236     1.0000 0.47428  0.40641  0.85114  Biso   1.000  C
  C237     1.0000 0.50133  0.13653  0.81029  Biso   1.000  C
  C238     1.0000 0.98990  0.30861  0.79503  Biso   1.000  C
  C239     1.0000 0.01416  0.17752  0.81415  Biso   1.000  C
  C240     1.0000 0.96824  0.44297  0.78379  Biso   1.000  C
  H269     1.0000 0.46255  0.26168  0.86202  Biso   1.000  H
  N39      1.0000 0.48675  0.47370  0.84033  Biso   1.000  N
  H270     1.0000 0.44846  0.39499  0.88250  Biso   1.000  H
  N40      1.0000 0.47238  0.11178  0.85318  Biso   1.000  N
  H271     1.0000 0.51822  0.10191  0.78539  Biso   1.000  H
  H272     1.0000 0.02523  0.31998  0.82162  Biso   1.000  H
  N41      1.0000 0.00469  0.10923  0.80957  Biso   1.000  N
  H273     1.0000 0.04886  0.19350  0.83981  Biso   1.000  H
  H274     1.0000 0.94696  0.48103  0.76350  Biso   1.000  H
  N42      1.0000 0.00953  0.46017  0.82338  Biso   1.000  N
  C241     1.0000 0.45554  0.53029  0.87624  Biso   1.000  C
  C242     1.0000 0.46632  0.03112  0.85889  Biso   1.000  C
  C243     1.0000 0.05064  0.06080  0.84346  Biso   1.000  C
  C244     1.0000 0.02678  0.53772  0.83350  Biso   1.000  C
  C245     1.0000 0.51502  0.58593  0.89142  Biso   1.000  C
  H275     1.0000 0.43662  0.50632  0.90881  Biso   1.000  H
  C246     1.0000 0.38962  0.56762  0.84680  Biso   1.000  C
  C247     1.0000 0.50346  0.00660  0.91009  Biso   1.000  C
  H276     1.0000 0.49203  0.00738  0.82860  Biso   1.000  H
  C248     1.0000 0.38252  0.00949  0.85740  Biso   1.000  C
  C249     1.0000 0.00226  0.00632  0.87294  Biso   1.000  C
  H277     1.0000 0.07811  0.09120  0.86969  Biso   1.000  H
  C250     1.0000 0.10722  0.02030  0.80840  Biso   1.000  C
  H278     1.0000 0.99442  0.56918  0.81101  Biso   1.000  H
  C251     1.0000 0.01477  0.55631  0.89206  Biso   1.000  C
  C252     1.0000 0.10955  0.55043  0.81909  Biso   1.000  C
  N43      1.0000 0.57210  0.55076  0.92563  Biso   1.000  N
  H279     1.0000 0.53902  0.60490  0.85881  Biso   1.000  H
  C253     1.0000 0.48055  0.64989  0.92222  Biso   1.000  C
  H280     1.0000 0.40695  0.58599  0.81242  Biso   1.000  H
  H281     1.0000 0.35042  0.53112  0.84001  Biso   1.000  H
  C254     1.0000 0.35714  0.63092  0.87873  Biso   1.000  C
  N44      1.0000 0.58379  0.02236  0.91041  Biso   1.000  N
  H282     1.0000 0.48006  0.03329  0.94001  Biso   1.000  H
  C255     1.0000 0.49245  0.92328  0.91901  Biso   1.000  C
  H283     1.0000 0.35566  0.03728  0.88459  Biso   1.000  H
  H284     1.0000 0.36126  0.02252  0.82270  Biso   1.000  H
  C256     1.0000 0.37163  0.92688  0.86720  Biso   1.000  C
  N45      1.0000 0.95055  0.04394  0.90981  Biso   1.000  N
  H285     1.0000 0.97241  0.97798  0.84672  Biso   1.000  H
  C257     1.0000 0.05023  0.95279  0.90547  Biso   1.000  C
  H286     1.0000 0.08036  0.99179  0.78142  Biso   1.000  H
  C258     1.0000 0.15683  0.96921  0.84101  Biso   1.000  C
  H287     1.0000 0.13856  0.05631  0.79001  Biso   1.000  H
  N46      1.0000 0.93447  0.55192  0.90499  Biso   1.000  N
  H288     1.0000 0.04301  0.52119  0.91451  Biso   1.000  H
  C259     1.0000 0.04174  0.63508  0.90395  Biso   1.000  C
  H289     1.0000 0.14094  0.51681  0.83989  Biso   1.000  H
  H290     1.0000 0.11686  0.53900  0.78142  Biso   1.000  H
  C260     1.0000 0.13432  0.62831  0.82957  Biso   1.000  C
  C261     1.0000 0.64117  0.56224  0.91539  Biso   1.000  C
  C262     1.0000 0.41565  0.68651  0.89182  Biso   1.000  C
  H291     1.0000 0.51936  0.68667  0.92941  Biso   1.000  H
  H292     1.0000 0.46221  0.63192  0.95652  Biso   1.000  H
  H293     1.0000 0.31705  0.65439  0.85812  Biso   1.000  H
  H294     1.0000 0.33546  0.61189  0.91170  Biso   1.000  H
  C263     1.0000 0.61052  0.05620  0.95041  Biso   1.000  C
  C264     1.0000 0.40884  0.90408  0.91961  Biso   1.000  C
  H295     1.0000 0.51716  0.89598  0.89049  Biso   1.000  H
  H296     1.0000 0.51546  0.90891  0.95282  Biso   1.000  H
  H297     1.0000 0.31803  0.91568  0.86853  Biso   1.000  H
  H298     1.0000 0.39351  0.89909  0.83780  Biso   1.000  H
  C265     1.0000 0.88216  0.02940  0.90555  Biso   1.000  C
  C266     1.0000 0.10912  0.91368  0.86961  Biso   1.000  C
  H299     1.0000 0.01792  0.91590  0.92202  Biso   1.000  H
  H300     1.0000 0.07602  0.97970  0.93391  Biso   1.000  H
  H301     1.0000 0.19191  0.94380  0.81752  Biso   1.000  H
  H302     1.0000 0.18582  0.99778  0.86692  Biso   1.000  H
  C267     1.0000 0.91476  0.51648  0.94539  Biso   1.000  C
  C268     1.0000 0.12474  0.64601  0.88853  Biso   1.000  C
  H303     1.0000 0.03574  0.64540  0.94190  Biso   1.000  H
  H304     1.0000 0.01064  0.67009  0.88411  Biso   1.000  H
  H305     1.0000 0.10434  0.66232  0.80812  Biso   1.000  H
  H306     1.0000 0.18684  0.63408  0.81961  Biso   1.000  H
  C269     1.0000 0.70305  0.53195  0.94913  Biso   1.000  C
  H307     1.0000 0.65344  0.59081  0.88551  Biso   1.000  H
  H308     1.0000 0.39394  0.72551  0.91363  Biso   1.000  H
  H309     1.0000 0.43445  0.70859  0.85901  Biso   1.000  H
  C270     1.0000 0.68923  0.07240  0.96074  Biso   1.000  C
  H310     1.0000 0.57601  0.07240  0.97600  Biso   1.000  H
  H311     1.0000 0.40272  0.85110  0.92479  Biso   1.000  H
  H312     1.0000 0.38465  0.92949  0.94921  Biso   1.000  H
  C271     1.0000 0.82241  0.06091  0.94037  Biso   1.000  C
  H313     1.0000 0.86734  0.99651  0.87873  Biso   1.000  H
  H314     1.0000 0.14103  0.88211  0.89162  Biso   1.000  H
  H315     1.0000 0.08335  0.88261  0.84350  Biso   1.000  H
  C272     1.0000 0.83590  0.50910  0.96286  Biso   1.000  C
  H316     1.0000 0.95213  0.49329  0.96572  Biso   1.000  H
  H317     1.0000 0.13981  0.69688  0.89539  Biso   1.000  H
  H318     1.0000 0.15653  0.61361  0.90989  Biso   1.000  H
  C273     1.0000 0.77723  0.54183  0.93379  Biso   1.000  C
  C274     1.0000 0.68794  0.48968  0.99427  Biso   1.000  C
  C275     1.0000 0.74781  0.04471  0.92885  Biso   1.000  C
  C276     1.0000 0.70920  0.11650  0.00435  Biso   1.000  C
  C277     1.0000 0.84001  0.10518  0.98351  Biso   1.000  C
  C278     1.0000 0.81979  0.46721  0.00796  Biso   1.000  C
  H319     1.0000 0.78814  0.57062  0.90383  Biso   1.000  H
  C279     1.0000 0.74516  0.45645  0.02387  Biso   1.000  C
  H320     1.0000 0.63819  0.48352  0.00499  Biso   1.000  H
  H321     1.0000 0.73625  0.01481  0.89941  Biso   1.000  H
  C280     1.0000 0.78409  0.13392  0.01644  Biso   1.000  C
  H322     1.0000 0.67117  0.13508  0.02620  Biso   1.000  H
  H323     1.0000 0.89045  0.11611  0.99082  Biso   1.000  H
  H324     1.0000 0.85896  0.44619  0.02780  Biso   1.000  H
  C281     1.0000 0.72548  0.40791  0.06945  Biso   1.000  C
  C282     1.0000 0.80289  0.18041  0.06282  Biso   1.000  C
  N47      1.0000 0.77235  0.37479  0.09785  Biso   1.000  N
  H325     1.0000 0.67458  0.40170  0.07740  Biso   1.000  H
  N48      1.0000 0.75349  0.21347  0.09074  Biso   1.000  N
  H326     1.0000 0.85346  0.18601  0.07230  Biso   1.000  H
  C283     1.0000 0.74476  0.32858  0.14202  Biso   1.000  C
  C284     1.0000 0.77824  0.25230  0.13909  Biso   1.000  C
  H327     1.0000 0.68966  0.32470  0.13941  Biso   1.000  H
  C285     1.0000 0.76564  0.36653  0.19508  Biso   1.000  C
  H328     1.0000 0.83337  0.25691  0.13813  Biso   1.000  H
  C286     1.0000 0.75706  0.20592  0.18753  Biso   1.000  C
  H329     1.0000 0.81954  0.37579  0.19600  Biso   1.000  H
  H330     1.0000 0.73990  0.41390  0.19732  Biso   1.000  H
  C287     1.0000 0.74395  0.31871  0.24331  Biso   1.000  C
  C288     1.0000 0.77935  0.24393  0.23961  Biso   1.000  C
  H331     1.0000 0.78207  0.15810  0.18540  Biso   1.000  H
  H332     1.0000 0.70299  0.19722  0.18732  Biso   1.000  H
  H333     1.0000 0.76046  0.34289  0.27612  Biso   1.000  H
  H334     1.0000 0.68944  0.31360  0.24459  Biso   1.000  H
  H335     1.0000 0.76335  0.21380  0.26982  Biso   1.000  H
  H336     1.0000 0.83388  0.24881  0.24142  Biso   1.000  H
