data_image0
_cell_length_a       17.535
_cell_length_b       18.06
_cell_length_c       24.493
_cell_angle_alpha    90
_cell_angle_beta     90.55
_cell_angle_gamma    90

_symmetry_space_group_name_H-M    "P 1"
_symmetry_int_tables_number       1

loop_
  _symmetry_equiv_pos_as_xyz
  'x, y, z'

loop_
  _atom_site_label
  _atom_site_occupancy
  _atom_site_fract_x
  _atom_site_fract_y
  _atom_site_fract_z
  _atom_site_thermal_displace_type
  _atom_site_B_iso_or_equiv
  _atom_site_type_symbol
  N1       1.0000 0.54477  0.54507  0.59346  Biso   1.000  N
  C1       1.0000 0.49360  0.50676  0.63098  Biso   1.000  C
  C2       1.0000 0.61520  0.53029  0.59787  Biso   1.000  C
  C3       1.0000 0.44212  0.45415  0.59791  Biso   1.000  C
  H1       1.0000 0.52487  0.47702  0.65740  Biso   1.000  H
  C4       1.0000 0.44595  0.56152  0.66230  Biso   1.000  C
  C5       1.0000 0.67410  0.56307  0.56304  Biso   1.000  C
  H2       1.0000 0.63085  0.49601  0.62519  Biso   1.000  H
  C6       1.0000 0.38449  0.41523  0.63380  Biso   1.000  C
  H3       1.0000 0.41476  0.48267  0.56929  Biso   1.000  H
  H4       1.0000 0.47415  0.41661  0.57958  Biso   1.000  H
  N2       1.0000 0.49402  0.60886  0.69607  Biso   1.000  N
  H5       1.0000 0.41713  0.59319  0.63568  Biso   1.000  H
  C7       1.0000 0.38918  0.52137  0.69835  Biso   1.000  C
  C8       1.0000 0.75027  0.54668  0.57395  Biso   1.000  C
  C9       1.0000 0.65560  0.60786  0.51858  Biso   1.000  C
  C10      1.0000 0.33712  0.47087  0.66516  Biso   1.000  C
  H6       1.0000 0.35048  0.38422  0.61081  Biso   1.000  H
  H7       1.0000 0.41153  0.38228  0.65981  Biso   1.000  H
  C11      1.0000 0.48681  0.67769  0.69027  Biso   1.000  C
  H8       1.0000 0.35784  0.55831  0.71799  Biso   1.000  H
  H9       1.0000 0.41726  0.49158  0.72591  Biso   1.000  H
  C12      1.0000 0.80800  0.57536  0.54116  Biso   1.000  C
  H10      1.0000 0.76316  0.51567  0.60400  Biso   1.000  H
  C13      1.0000 0.71224  0.63760  0.48547  Biso   1.000  C
  H11      1.0000 0.60354  0.61838  0.51062  Biso   1.000  H
  H12      1.0000 0.30192  0.44441  0.68990  Biso   1.000  H
  H13      1.0000 0.30615  0.50072  0.63940  Biso   1.000  H
  C14      1.0000 0.52824  0.73472  0.72159  Biso   1.000  C
  H14      1.0000 0.45155  0.69441  0.66328  Biso   1.000  H
  C15      1.0000 0.78865  0.62032  0.49723  Biso   1.000  C
  C16      1.0000 0.88933  0.55808  0.55035  Biso   1.000  C
  C17      1.0000 0.69227  0.68350  0.43802  Biso   1.000  C
  C18      1.0000 0.58148  0.71811  0.76262  Biso   1.000  C
  C19      1.0000 0.51376  0.80825  0.70934  Biso   1.000  C
  H15      1.0000 0.82775  0.63970  0.47481  Biso   1.000  H
  N3       1.0000 0.91616  0.52248  0.59048  Biso   1.000  N
  H16      1.0000 0.92445  0.57519  0.52389  Biso   1.000  H
  N4       1.0000 0.74207  0.71622  0.40928  Biso   1.000  N
  H17      1.0000 0.63996  0.68898  0.42831  Biso   1.000  H
  H18      1.0000 0.59136  0.66800  0.77201  Biso   1.000  H
  C20      1.0000 0.62000  0.77447  0.78965  Biso   1.000  C
  C21      1.0000 0.55221  0.86584  0.73580  Biso   1.000  C
  H19      1.0000 0.47655  0.81977  0.68219  Biso   1.000  H
  C22      1.0000 0.99739  0.50559  0.58799  Biso   1.000  C
  C23      1.0000 0.71592  0.75338  0.36012  Biso   1.000  C
  C24      1.0000 0.60556  0.84839  0.77609  Biso   1.000  C
  C25      1.0000 0.67623  0.75421  0.83228  Biso   1.000  C
  C26      1.0000 0.53570  0.94241  0.72061  Biso   1.000  C
  H20      1.0000 0.01954  0.53151  0.55569  Biso   1.000  H
  C27      1.0000 0.03948  0.53062  0.63907  Biso   1.000  C
  C28      1.0000 0.00647  0.42220  0.58031  Biso   1.000  C
  H21      1.0000 0.65920  0.75891  0.36171  Biso   1.000  H
  C29      1.0000 0.75150  0.82990  0.35510  Biso   1.000  C
  C30      1.0000 0.73591  0.70504  0.31100  Biso   1.000  C
  H22      1.0000 0.63232  0.88688  0.79451  Biso   1.000  H
  N5       1.0000 0.71418  0.80083  0.86008  Biso   1.000  N
  H23      1.0000 0.68442  0.70310  0.83930  Biso   1.000  H
  N6       1.0000 0.49278  0.95858  0.68031  Biso   1.000  N
  H24      1.0000 0.55776  0.98140  0.74151  Biso   1.000  H
  N7       1.0000 0.03380  0.61080  0.64495  Biso   1.000  N
  H25      1.0000 0.01562  0.50659  0.67149  Biso   1.000  H
  C31      1.0000 0.12334  0.50853  0.63699  Biso   1.000  C
  H26      1.0000 0.97938  0.40648  0.54659  Biso   1.000  H
  H27      1.0000 0.98333  0.39590  0.61151  Biso   1.000  H
  C32      1.0000 0.09082  0.40138  0.57644  Biso   1.000  C
  N8       1.0000 0.72391  0.87702  0.39895  Biso   1.000  N
  H28      1.0000 0.80828  0.82558  0.35791  Biso   1.000  H
  C33      1.0000 0.72972  0.86523  0.30034  Biso   1.000  C
  C34      1.0000 0.71289  0.74136  0.25755  Biso   1.000  C
  H29      1.0000 0.79151  0.69557  0.31100  Biso   1.000  H
  H30      1.0000 0.70960  0.65670  0.31419  Biso   1.000  H
  C35      1.0000 0.76319  0.77087  0.90369  Biso   1.000  C
  C36      1.0000 0.47332  0.03577  0.67096  Biso   1.000  C
  C37      1.0000 0.00472  0.63555  0.68827  Biso   1.000  C
  H31      1.0000 0.14843  0.53577  0.60702  Biso   1.000  H
  H32      1.0000 0.14884  0.52270  0.67169  Biso   1.000  H
  C38      1.0000 0.13286  0.42602  0.62792  Biso   1.000  C
  H33      1.0000 0.09595  0.34718  0.57199  Biso   1.000  H
  H34      1.0000 0.11354  0.42569  0.54418  Biso   1.000  H
  C39      1.0000 0.77285  0.90781  0.42937  Biso   1.000  C
  H35      1.0000 0.75670  0.91307  0.29671  Biso   1.000  H
  H36      1.0000 0.67416  0.87542  0.29969  Biso   1.000  H
  C40      1.0000 0.74960  0.81550  0.25172  Biso   1.000  C
  H37      1.0000 0.72811  0.70930  0.22681  Biso   1.000  H
  H38      1.0000 0.65681  0.74707  0.25608  Biso   1.000  H
  C41      1.0000 0.84353  0.80094  0.89891  Biso   1.000  C
  H39      1.0000 0.76435  0.71567  0.90112  Biso   1.000  H
  C42      1.0000 0.72765  0.79380  0.95844  Biso   1.000  C
  C43      1.0000 0.48313  0.05648  0.61098  Biso   1.000  C
  H40      1.0000 0.50683  0.06800  0.69419  Biso   1.000  H
  C44      1.0000 0.39017  0.04646  0.68745  Biso   1.000  C
  C45      1.0000 0.99573  0.71406  0.70203  Biso   1.000  C
  H41      1.0000 0.98728  0.60039  0.71411  Biso   1.000  H
  H42      1.0000 0.11275  0.39867  0.65969  Biso   1.000  H
  H43      1.0000 0.18773  0.41412  0.62462  Biso   1.000  H
  C46      1.0000 0.75379  0.95687  0.47510  Biso   1.000  C
  H44      1.0000 0.82517  0.89878  0.42230  Biso   1.000  H
  H45      1.0000 0.73191  0.83909  0.21742  Biso   1.000  H
  H46      1.0000 0.80557  0.80947  0.24980  Biso   1.000  H
  N9       1.0000 0.87925  0.77442  0.84906  Biso   1.000  N
  H47      1.0000 0.84164  0.85631  0.89822  Biso   1.000  H
  C47      1.0000 0.89232  0.77564  0.94795  Biso   1.000  C
  H48      1.0000 0.72173  0.84839  0.95938  Biso   1.000  H
  H49      1.0000 0.67631  0.77148  0.96138  Biso   1.000  H
  C48      1.0000 0.77695  0.76910  0.00691  Biso   1.000  C
  N10      1.0000 0.56427  0.05365  0.59730  Biso   1.000  N
  H50      1.0000 0.45447  0.02038  0.58758  Biso   1.000  H
  C49      1.0000 0.45384  0.13450  0.59983  Biso   1.000  C
  H51      1.0000 0.35773  0.01107  0.66679  Biso   1.000  H
  H52      1.0000 0.38505  0.03511  0.72681  Biso   1.000  H
  C50      1.0000 0.36237  0.12364  0.67692  Biso   1.000  C
  C51      1.0000 0.96063  0.73178  0.75127  Biso   1.000  C
  C52      1.0000 0.01905  0.77159  0.66810  Biso   1.000  C
  C53      1.0000 0.67793  0.96910  0.49147  Biso   1.000  C
  C54      1.0000 0.81237  0.98893  0.50539  Biso   1.000  C
  C55      1.0000 0.90682  0.82231  0.81733  Biso   1.000  C
  H53      1.0000 0.89705  0.72099  0.94742  Biso   1.000  H
  H54      1.0000 0.94423  0.79690  0.94480  Biso   1.000  H
  C56      1.0000 0.85797  0.79961  0.00172  Biso   1.000  C
  H55      1.0000 0.77862  0.71440  0.00829  Biso   1.000  H
  H56      1.0000 0.75414  0.78710  0.04120  Biso   1.000  H
  C57      1.0000 0.58305  0.01739  0.55594  Biso   1.000  C
  C58      1.0000 0.37024  0.14358  0.61714  Biso   1.000  C
  H57      1.0000 0.45816  0.14540  0.56039  Biso   1.000  H
  H58      1.0000 0.48587  0.17060  0.62000  Biso   1.000  H
  H59      1.0000 0.39227  0.15903  0.69942  Biso   1.000  H
  H60      1.0000 0.30816  0.12769  0.68749  Biso   1.000  H
  C59      1.0000 0.94743  0.80404  0.76662  Biso   1.000  C
  H61      1.0000 0.94532  0.69291  0.77491  Biso   1.000  H
  H62      1.0000 0.04364  0.76069  0.63462  Biso   1.000  H
  C60      1.0000 0.00665  0.84441  0.68292  Biso   1.000  C
  C61      1.0000 0.66280  0.01069  0.53708  Biso   1.000  C
  H63      1.0000 0.63705  0.94850  0.47081  Biso   1.000  H
  H64      1.0000 0.86366  0.98128  0.49461  Biso   1.000  H
  C62      1.0000 0.79781  0.03223  0.55149  Biso   1.000  C
  H65      1.0000 0.90102  0.87309  0.82660  Biso   1.000  H
  H66      1.0000 0.85680  0.85437  0.00372  Biso   1.000  H
  H67      1.0000 0.88992  0.78117  0.03242  Biso   1.000  H
  H68      1.0000 0.54416  0.99291  0.53561  Biso   1.000  H
  H69      1.0000 0.35373  0.19540  0.61118  Biso   1.000  H
  H70      1.0000 0.33714  0.11102  0.59469  Biso   1.000  H
  C63      1.0000 0.97144  0.86041  0.73241  Biso   1.000  C
  C64      1.0000 0.03080  0.90537  0.64707  Biso   1.000  C
  C65      1.0000 0.72280  0.04341  0.56717  Biso   1.000  C
  C66      1.0000 0.86094  0.06224  0.58501  Biso   1.000  C
  H71      1.0000 0.96376  0.91058  0.74270  Biso   1.000  H
  N11      1.0000 0.01950  0.97315  0.65908  Biso   1.000  N
  H72      1.0000 0.05562  0.89380  0.61392  Biso   1.000  H
  H73      1.0000 0.71198  0.07309  0.59820  Biso   1.000  H
  N12      1.0000 0.93036  0.05078  0.57350  Biso   1.000  N
  H74      1.0000 0.84927  0.09109  0.61629  Biso   1.000  H
  C67      1.0000 0.05009  0.02935  0.62204  Biso   1.000  C
  C68      1.0000 0.98870  0.08577  0.60771  Biso   1.000  C
  H75      1.0000 0.06805  0.00487  0.58791  Biso   1.000  H
  C69      1.0000 0.11788  0.06639  0.65099  Biso   1.000  C
  H76      1.0000 0.96504  0.10487  0.64189  Biso   1.000  H
  C70      1.0000 0.02237  0.14972  0.57550  Biso   1.000  C
  H77      1.0000 0.10131  0.08583  0.68680  Biso   1.000  H
  H78      1.0000 0.15823  0.02913  0.65769  Biso   1.000  H
  C71      1.0000 0.15022  0.12946  0.61723  Biso   1.000  C
  H79      1.0000 0.98237  0.18749  0.56909  Biso   1.000  H
  C72      1.0000 0.08961  0.18549  0.60502  Biso   1.000  C
  H80      1.0000 0.03923  0.13140  0.53949  Biso   1.000  H
  H81      1.0000 0.19264  0.15338  0.63752  Biso   1.000  H
  H82      1.0000 0.17063  0.10969  0.58260  Biso   1.000  H
  H83      1.0000 0.11097  0.22530  0.58199  Biso   1.000  H
  H84      1.0000 0.07205  0.20797  0.63952  Biso   1.000  H
  N13      1.0000 0.45518  0.54507  0.40650  Biso   1.000  N
  C73      1.0000 0.38469  0.53029  0.40213  Biso   1.000  C
  C74      1.0000 0.50629  0.50676  0.36902  Biso   1.000  C
  C75      1.0000 0.32585  0.56307  0.43696  Biso   1.000  C
  H85      1.0000 0.36910  0.49601  0.37482  Biso   1.000  H
  H86      1.0000 0.47508  0.47702  0.34260  Biso   1.000  H
  C76      1.0000 0.55400  0.56152  0.33770  Biso   1.000  C
  C77      1.0000 0.55783  0.45415  0.40209  Biso   1.000  C
  C78      1.0000 0.24968  0.54668  0.42606  Biso   1.000  C
  C79      1.0000 0.34429  0.60786  0.48143  Biso   1.000  C
  N14      1.0000 0.50593  0.60886  0.30394  Biso   1.000  N
  H87      1.0000 0.58276  0.59319  0.36428  Biso   1.000  H
  C80      1.0000 0.61077  0.52137  0.30165  Biso   1.000  C
  C81      1.0000 0.61546  0.41523  0.36620  Biso   1.000  C
  H88      1.0000 0.58519  0.48267  0.43071  Biso   1.000  H
  H89      1.0000 0.52580  0.41661  0.42038  Biso   1.000  H
  C82      1.0000 0.19190  0.57536  0.45885  Biso   1.000  C
  H90      1.0000 0.23679  0.51567  0.39601  Biso   1.000  H
  C83      1.0000 0.28771  0.63760  0.51454  Biso   1.000  C
  H91      1.0000 0.39635  0.61838  0.48939  Biso   1.000  H
  C84      1.0000 0.51314  0.67769  0.30974  Biso   1.000  C
  H92      1.0000 0.64210  0.55831  0.28201  Biso   1.000  H
  H93      1.0000 0.58269  0.49158  0.27409  Biso   1.000  H
  C85      1.0000 0.66283  0.47087  0.33480  Biso   1.000  C
  H94      1.0000 0.64947  0.38422  0.38919  Biso   1.000  H
  H95      1.0000 0.58837  0.38228  0.34019  Biso   1.000  H
  C86      1.0000 0.21125  0.62032  0.50278  Biso   1.000  C
  C87      1.0000 0.11056  0.55808  0.44966  Biso   1.000  C
  C88      1.0000 0.30768  0.68350  0.56198  Biso   1.000  C
  C89      1.0000 0.47171  0.73472  0.27842  Biso   1.000  C
  H96      1.0000 0.54840  0.69441  0.33668  Biso   1.000  H
  H97      1.0000 0.69797  0.44441  0.31010  Biso   1.000  H
  H98      1.0000 0.69380  0.50072  0.36061  Biso   1.000  H
  H99      1.0000 0.17214  0.63970  0.52519  Biso   1.000  H
  N15      1.0000 0.08379  0.52248  0.40952  Biso   1.000  N
  H100     1.0000 0.07545  0.57519  0.47612  Biso   1.000  H
  N16      1.0000 0.25782  0.71622  0.59073  Biso   1.000  N
  H101     1.0000 0.35993  0.68898  0.57170  Biso   1.000  H
  C90      1.0000 0.41847  0.71811  0.23738  Biso   1.000  C
  C91      1.0000 0.48619  0.80825  0.29067  Biso   1.000  C
  C92      1.0000 0.00256  0.50559  0.41201  Biso   1.000  C
  C93      1.0000 0.28403  0.75338  0.63989  Biso   1.000  C
  H102     1.0000 0.40859  0.66800  0.22799  Biso   1.000  H
  C94      1.0000 0.37995  0.77447  0.21036  Biso   1.000  C
  C95      1.0000 0.44774  0.86584  0.26421  Biso   1.000  C
  H103     1.0000 0.52339  0.81977  0.31782  Biso   1.000  H
  H104     1.0000 0.98035  0.53151  0.44431  Biso   1.000  H
  C96      1.0000 0.96047  0.53062  0.36094  Biso   1.000  C
  C97      1.0000 0.99348  0.42220  0.41965  Biso   1.000  C
  H105     1.0000 0.34075  0.75891  0.63829  Biso   1.000  H
  C98      1.0000 0.24840  0.82990  0.64491  Biso   1.000  C
  C99      1.0000 0.26404  0.70504  0.68900  Biso   1.000  C
  C100     1.0000 0.39439  0.84839  0.22391  Biso   1.000  C
  C101     1.0000 0.32372  0.75421  0.16773  Biso   1.000  C
  C102     1.0000 0.46420  0.94241  0.27940  Biso   1.000  C
  N17      1.0000 0.96615  0.61080  0.35506  Biso   1.000  N
  H106     1.0000 0.98427  0.50659  0.32852  Biso   1.000  H
  C103     1.0000 0.87655  0.50853  0.36302  Biso   1.000  C
  H107     1.0000 0.02056  0.40648  0.45342  Biso   1.000  H
  H108     1.0000 0.01656  0.39590  0.38850  Biso   1.000  H
  C104     1.0000 0.90907  0.40138  0.42357  Biso   1.000  C
  N18      1.0000 0.27598  0.87702  0.60106  Biso   1.000  N
  H109     1.0000 0.19161  0.82558  0.64209  Biso   1.000  H
  C105     1.0000 0.27023  0.86523  0.69966  Biso   1.000  C
  C106     1.0000 0.28706  0.74136  0.74245  Biso   1.000  C
  H110     1.0000 0.20844  0.69557  0.68900  Biso   1.000  H
  H111     1.0000 0.29035  0.65670  0.68582  Biso   1.000  H
  H112     1.0000 0.36757  0.88688  0.20550  Biso   1.000  H
  N19      1.0000 0.28571  0.80083  0.13988  Biso   1.000  N
  H113     1.0000 0.31547  0.70310  0.16071  Biso   1.000  H
  N20      1.0000 0.50717  0.95858  0.31970  Biso   1.000  N
  H114     1.0000 0.44219  0.98140  0.25849  Biso   1.000  H
  C107     1.0000 0.99523  0.63555  0.31174  Biso   1.000  C
  H115     1.0000 0.85146  0.53577  0.39299  Biso   1.000  H
  H116     1.0000 0.85111  0.52270  0.32831  Biso   1.000  H
  C108     1.0000 0.86704  0.42602  0.37208  Biso   1.000  C
  H117     1.0000 0.90400  0.34718  0.42802  Biso   1.000  H
  H118     1.0000 0.88635  0.42569  0.45578  Biso   1.000  H
  C109     1.0000 0.22710  0.90781  0.57064  Biso   1.000  C
  H119     1.0000 0.24325  0.91307  0.70329  Biso   1.000  H
  H120     1.0000 0.32573  0.87542  0.70031  Biso   1.000  H
  C110     1.0000 0.25030  0.81550  0.74829  Biso   1.000  C
  H121     1.0000 0.27184  0.70930  0.77320  Biso   1.000  H
  H122     1.0000 0.34314  0.74707  0.74388  Biso   1.000  H
  C111     1.0000 0.23676  0.77087  0.09632  Biso   1.000  C
  C112     1.0000 0.52662  0.03577  0.32905  Biso   1.000  C
  C113     1.0000 0.00422  0.71406  0.29798  Biso   1.000  C
  H123     1.0000 0.01267  0.60039  0.28589  Biso   1.000  H
  H124     1.0000 0.88720  0.39867  0.34032  Biso   1.000  H
  H125     1.0000 0.81216  0.41412  0.37539  Biso   1.000  H
  C114     1.0000 0.24610  0.95687  0.52491  Biso   1.000  C
  H126     1.0000 0.17473  0.89878  0.57770  Biso   1.000  H
  H127     1.0000 0.26804  0.83909  0.78259  Biso   1.000  H
  H128     1.0000 0.19432  0.80947  0.75021  Biso   1.000  H
  C115     1.0000 0.15636  0.80094  0.10109  Biso   1.000  C
  H129     1.0000 0.23560  0.71567  0.09889  Biso   1.000  H
  C116     1.0000 0.27230  0.79380  0.04156  Biso   1.000  C
  C117     1.0000 0.51676  0.05648  0.38903  Biso   1.000  C
  H130     1.0000 0.49307  0.06800  0.30582  Biso   1.000  H
  C118     1.0000 0.60978  0.04646  0.31251  Biso   1.000  C
  C119     1.0000 0.03932  0.73178  0.24874  Biso   1.000  C
  C120     1.0000 0.98090  0.77159  0.33191  Biso   1.000  C
  C121     1.0000 0.32196  0.96910  0.50854  Biso   1.000  C
  C122     1.0000 0.18758  0.98893  0.49461  Biso   1.000  C
  N21      1.0000 0.12064  0.77442  0.15095  Biso   1.000  N
  H131     1.0000 0.15831  0.85631  0.10179  Biso   1.000  H
  C123     1.0000 0.10757  0.77564  0.05206  Biso   1.000  C
  H132     1.0000 0.27822  0.84839  0.04058  Biso   1.000  H
  H133     1.0000 0.32359  0.77148  0.03858  Biso   1.000  H
  C124     1.0000 0.22300  0.76910  0.99310  Biso   1.000  C
  N22      1.0000 0.43562  0.05365  0.40266  Biso   1.000  N
  H134     1.0000 0.54548  0.02038  0.41238  Biso   1.000  H
  C125     1.0000 0.54611  0.13450  0.40017  Biso   1.000  C
  H135     1.0000 0.64216  0.01107  0.33321  Biso   1.000  H
  H136     1.0000 0.61490  0.03511  0.27319  Biso   1.000  H
  C126     1.0000 0.63758  0.12364  0.32309  Biso   1.000  C
  C127     1.0000 0.05246  0.80404  0.23338  Biso   1.000  C
  H137     1.0000 0.05457  0.69291  0.22510  Biso   1.000  H
  H138     1.0000 0.95631  0.76069  0.36539  Biso   1.000  H
  C128     1.0000 0.99324  0.84441  0.31708  Biso   1.000  C
  H139     1.0000 0.36284  0.94850  0.52920  Biso   1.000  H
  C129     1.0000 0.33715  0.01069  0.46293  Biso   1.000  C
  H140     1.0000 0.13623  0.98128  0.50539  Biso   1.000  H
  C130     1.0000 0.20214  0.03223  0.44852  Biso   1.000  C
  C131     1.0000 0.09307  0.82231  0.18267  Biso   1.000  C
  H141     1.0000 0.10290  0.72099  0.05259  Biso   1.000  H
  H142     1.0000 0.05572  0.79690  0.05520  Biso   1.000  H
  C132     1.0000 0.14192  0.79961  0.99829  Biso   1.000  C
  H143     1.0000 0.22127  0.71440  0.99171  Biso   1.000  H
  H144     1.0000 0.24581  0.78710  0.95880  Biso   1.000  H
  C133     1.0000 0.41690  0.01739  0.44407  Biso   1.000  C
  C134     1.0000 0.62971  0.14358  0.38282  Biso   1.000  C
  H145     1.0000 0.54179  0.14540  0.43962  Biso   1.000  H
  H146     1.0000 0.51408  0.17060  0.38000  Biso   1.000  H
  H147     1.0000 0.60768  0.15903  0.30059  Biso   1.000  H
  H148     1.0000 0.69179  0.12769  0.31251  Biso   1.000  H
  C135     1.0000 0.02851  0.86041  0.26760  Biso   1.000  C
  C136     1.0000 0.96915  0.90537  0.35293  Biso   1.000  C
  C137     1.0000 0.27715  0.04341  0.43284  Biso   1.000  C
  C138     1.0000 0.13895  0.06224  0.41499  Biso   1.000  C
  H149     1.0000 0.09887  0.87309  0.17340  Biso   1.000  H
  H150     1.0000 0.14309  0.85437  0.99628  Biso   1.000  H
  H151     1.0000 0.10997  0.78117  0.96758  Biso   1.000  H
  H152     1.0000 0.45578  0.99291  0.46440  Biso   1.000  H
  H153     1.0000 0.64616  0.19540  0.38878  Biso   1.000  H
  H154     1.0000 0.66275  0.11102  0.40532  Biso   1.000  H
  H155     1.0000 0.03618  0.91058  0.25731  Biso   1.000  H
  N23      1.0000 0.98045  0.97315  0.34093  Biso   1.000  N
  H156     1.0000 0.94427  0.89380  0.38609  Biso   1.000  H
  H157     1.0000 0.28797  0.07309  0.40181  Biso   1.000  H
  N24      1.0000 0.06959  0.05078  0.42651  Biso   1.000  N
  H158     1.0000 0.15068  0.09109  0.38372  Biso   1.000  H
  C139     1.0000 0.94986  0.02935  0.37796  Biso   1.000  C
  C140     1.0000 0.01125  0.08577  0.39229  Biso   1.000  C
  H159     1.0000 0.93190  0.00487  0.41210  Biso   1.000  H
  C141     1.0000 0.88201  0.06639  0.34901  Biso   1.000  C
  C142     1.0000 0.97758  0.14972  0.42451  Biso   1.000  C
  H160     1.0000 0.03486  0.10487  0.35812  Biso   1.000  H
  H161     1.0000 0.89858  0.08583  0.31321  Biso   1.000  H
  H162     1.0000 0.84166  0.02913  0.34232  Biso   1.000  H
  C143     1.0000 0.84973  0.12946  0.38278  Biso   1.000  C
  C144     1.0000 0.91034  0.18549  0.39499  Biso   1.000  C
  H163     1.0000 0.96067  0.13140  0.46048  Biso   1.000  H
  H164     1.0000 0.01758  0.18749  0.43092  Biso   1.000  H
  H165     1.0000 0.80726  0.15338  0.36249  Biso   1.000  H
  H166     1.0000 0.82926  0.10969  0.41740  Biso   1.000  H
  H167     1.0000 0.88898  0.22530  0.41802  Biso   1.000  H
  H168     1.0000 0.92790  0.20797  0.36049  Biso   1.000  H
  C145     1.0000 0.64198  0.29961  0.49829  Biso   1.000  C
  C146     1.0000 0.72306  0.26910  0.49310  Biso   1.000  C
  H169     1.0000 0.64315  0.35437  0.49629  Biso   1.000  H
  H170     1.0000 0.61009  0.28117  0.46758  Biso   1.000  H
  C147     1.0000 0.60752  0.27569  0.55206  Biso   1.000  C
  C148     1.0000 0.77225  0.29380  0.54157  Biso   1.000  C
  H171     1.0000 0.72139  0.21440  0.49171  Biso   1.000  H
  H172     1.0000 0.74587  0.28710  0.45881  Biso   1.000  H
  C149     1.0000 0.65636  0.30094  0.60110  Biso   1.000  C
  H173     1.0000 0.60285  0.22099  0.55259  Biso   1.000  H
  H174     1.0000 0.55566  0.29690  0.55520  Biso   1.000  H
  C150     1.0000 0.73671  0.27093  0.59632  Biso   1.000  C
  H175     1.0000 0.77816  0.34839  0.54059  Biso   1.000  H
  H176     1.0000 0.82359  0.27148  0.53859  Biso   1.000  H
  N25      1.0000 0.62065  0.27442  0.65091  Biso   1.000  N
  H177     1.0000 0.65825  0.35631  0.60179  Biso   1.000  H
  N26      1.0000 0.78571  0.30083  0.63989  Biso   1.000  N
  H178     1.0000 0.73555  0.21567  0.59889  Biso   1.000  H
  C151     1.0000 0.59307  0.32231  0.68268  Biso   1.000  C
  C152     1.0000 0.82367  0.25421  0.66773  Biso   1.000  C
  C153     1.0000 0.55241  0.30404  0.73339  Biso   1.000  C
  H179     1.0000 0.59882  0.37309  0.67341  Biso   1.000  H
  C154     1.0000 0.87990  0.27447  0.71036  Biso   1.000  C
  H180     1.0000 0.81547  0.20310  0.66071  Biso   1.000  H
  C155     1.0000 0.52846  0.36041  0.76760  Biso   1.000  C
  C156     1.0000 0.53927  0.23178  0.74874  Biso   1.000  C
  C157     1.0000 0.91841  0.21811  0.73739  Biso   1.000  C
  C158     1.0000 0.89434  0.34845  0.72391  Biso   1.000  C
  C159     1.0000 0.49319  0.34441  0.81709  Biso   1.000  C
  H181     1.0000 0.53613  0.41058  0.75731  Biso   1.000  H
  C160     1.0000 0.50417  0.21406  0.79798  Biso   1.000  C
  H182     1.0000 0.55452  0.19291  0.72510  Biso   1.000  H
  C161     1.0000 0.97166  0.23472  0.77842  Biso   1.000  C
  H183     1.0000 0.90853  0.16800  0.72800  Biso   1.000  H
  H184     1.0000 0.86757  0.38688  0.70550  Biso   1.000  H
  C162     1.0000 0.94769  0.36584  0.76417  Biso   1.000  C
  C163     1.0000 0.48084  0.27159  0.83191  Biso   1.000  C
  C164     1.0000 0.46909  0.40537  0.85294  Biso   1.000  C
  C165     1.0000 0.49517  0.13560  0.81174  Biso   1.000  C
  C166     1.0000 0.98614  0.30825  0.79063  Biso   1.000  C
  C167     1.0000 0.01302  0.17774  0.80974  Biso   1.000  C
  C168     1.0000 0.96420  0.44247  0.77940  Biso   1.000  C
  H185     1.0000 0.45620  0.26069  0.86539  Biso   1.000  H
  N27      1.0000 0.48039  0.47315  0.84089  Biso   1.000  N
  H186     1.0000 0.44422  0.39380  0.88609  Biso   1.000  H
  N28      1.0000 0.46604  0.11080  0.85506  Biso   1.000  N
  H187     1.0000 0.51262  0.10039  0.78589  Biso   1.000  H
  H188     1.0000 0.02334  0.31982  0.81778  Biso   1.000  H
  N29      1.0000 0.00582  0.10886  0.80394  Biso   1.000  N
  H189     1.0000 0.04834  0.19441  0.83669  Biso   1.000  H
  H190     1.0000 0.94213  0.48140  0.75850  Biso   1.000  H
  N30      1.0000 0.00711  0.45858  0.81970  Biso   1.000  N
  C169     1.0000 0.44981  0.52935  0.87796  Biso   1.000  C
  C170     1.0000 0.46042  0.03062  0.86094  Biso   1.000  C
  C171     1.0000 0.05395  0.06157  0.83771  Biso   1.000  C
  C172     1.0000 0.02657  0.53577  0.82905  Biso   1.000  C
  C173     1.0000 0.51119  0.58577  0.89230  Biso   1.000  C
  H191     1.0000 0.43185  0.50487  0.91210  Biso   1.000  H
  C174     1.0000 0.38196  0.56639  0.84902  Biso   1.000  C
  C175     1.0000 0.50251  0.00559  0.91202  Biso   1.000  C
  H192     1.0000 0.48422  0.00659  0.82852  Biso   1.000  H
  C176     1.0000 0.37650  0.00853  0.86302  Biso   1.000  C
  C177     1.0000 0.00623  0.00676  0.86902  Biso   1.000  C
  H193     1.0000 0.08270  0.09319  0.86429  Biso   1.000  H
  C178     1.0000 0.11072  0.02137  0.80165  Biso   1.000  C
  H194     1.0000 0.99307  0.56800  0.80582  Biso   1.000  H
  C179     1.0000 0.01671  0.55648  0.88903  Biso   1.000  C
  C180     1.0000 0.10973  0.54640  0.81251  Biso   1.000  C
  N31      1.0000 0.56954  0.55078  0.92651  Biso   1.000  N
  H195     1.0000 0.53480  0.60487  0.85808  Biso   1.000  H
  C181     1.0000 0.47752  0.64972  0.92451  Biso   1.000  C
  H196     1.0000 0.39853  0.58577  0.81321  Biso   1.000  H
  H197     1.0000 0.34160  0.52907  0.84228  Biso   1.000  H
  C182     1.0000 0.34968  0.62946  0.88278  Biso   1.000  C
  N32      1.0000 0.58374  0.02254  0.90953  Biso   1.000  N
  H198     1.0000 0.48030  0.03151  0.94431  Biso   1.000  H
  C183     1.0000 0.49343  0.92220  0.91965  Biso   1.000  C
  H199     1.0000 0.35141  0.03583  0.89299  Biso   1.000  H
  H200     1.0000 0.35105  0.02270  0.82832  Biso   1.000  H
  C184     1.0000 0.36698  0.92602  0.87209  Biso   1.000  C
  N33      1.0000 0.95513  0.04507  0.90650  Biso   1.000  N
  H201     1.0000 0.97503  0.97697  0.84261  Biso   1.000  H
  C185     1.0000 0.05772  0.95415  0.90210  Biso   1.000  C
  H202     1.0000 0.08263  0.99158  0.77409  Biso   1.000  H
  C186     1.0000 0.16278  0.97087  0.83481  Biso   1.000  C
  H203     1.0000 0.14205  0.05831  0.78201  Biso   1.000  H
  N34      1.0000 0.93557  0.55360  0.90267  Biso   1.000  N
  H204     1.0000 0.04542  0.52038  0.91238  Biso   1.000  H
  C187     1.0000 0.04606  0.63450  0.90018  Biso   1.000  C
  H205     1.0000 0.14211  0.51107  0.83322  Biso   1.000  H
  H206     1.0000 0.11484  0.53511  0.77320  Biso   1.000  H
  C188     1.0000 0.13753  0.62364  0.82309  Biso   1.000  C
  C189     1.0000 0.63896  0.56224  0.91500  Biso   1.000  C
  C190     1.0000 0.41029  0.68549  0.89499  Biso   1.000  C
  H207     1.0000 0.46061  0.63140  0.96048  Biso   1.000  H
  H208     1.0000 0.51753  0.68749  0.93088  Biso   1.000  H
  H209     1.0000 0.30720  0.65338  0.86249  Biso   1.000  H
  H210     1.0000 0.32921  0.60969  0.91741  Biso   1.000  H
  C191     1.0000 0.61051  0.05808  0.94966  Biso   1.000  C
  C192     1.0000 0.40902  0.90138  0.92353  Biso   1.000  C
  H211     1.0000 0.52051  0.90648  0.95342  Biso   1.000  H
  H212     1.0000 0.51650  0.89590  0.88850  Biso   1.000  H
  H213     1.0000 0.38714  0.89867  0.84032  Biso   1.000  H
  H214     1.0000 0.31211  0.91406  0.87539  Biso   1.000  H
  C193     1.0000 0.88469  0.03029  0.90214  Biso   1.000  C
  C194     1.0000 0.11541  0.91523  0.86621  Biso   1.000  C
  H215     1.0000 0.08513  0.98267  0.93072  Biso   1.000  H
  H216     1.0000 0.02569  0.91661  0.92039  Biso   1.000  H
  H217     1.0000 0.19792  0.94441  0.81011  Biso   1.000  H
  H218     1.0000 0.19375  0.00072  0.86061  Biso   1.000  H
  C195     1.0000 0.91685  0.51739  0.94407  Biso   1.000  C
  C196     1.0000 0.12966  0.64358  0.88282  Biso   1.000  C
  H219     1.0000 0.04168  0.64540  0.93962  Biso   1.000  H
  H220     1.0000 0.01402  0.67060  0.88001  Biso   1.000  H
  H221     1.0000 0.10763  0.65897  0.80059  Biso   1.000  H
  H222     1.0000 0.19173  0.62769  0.81251  Biso   1.000  H
  C197     1.0000 0.70208  0.53223  0.94852  Biso   1.000  C
  H223     1.0000 0.65063  0.59109  0.88368  Biso   1.000  H
  H224     1.0000 0.38893  0.72530  0.91802  Biso   1.000  H
  H225     1.0000 0.42785  0.70797  0.86049  Biso   1.000  H
  C198     1.0000 0.69190  0.07536  0.95885  Biso   1.000  C
  H226     1.0000 0.57539  0.07519  0.97608  Biso   1.000  H
  H227     1.0000 0.40395  0.84718  0.92798  Biso   1.000  H
  H228     1.0000 0.38630  0.92569  0.95579  Biso   1.000  H
  C199     1.0000 0.82579  0.06312  0.93696  Biso   1.000  C
  H229     1.0000 0.86904  0.99601  0.87478  Biso   1.000  H
  H230     1.0000 0.14942  0.88416  0.88919  Biso   1.000  H
  H231     1.0000 0.08831  0.88228  0.84020  Biso   1.000  H
  C200     1.0000 0.83709  0.51069  0.96293  Biso   1.000  C
  H232     1.0000 0.95573  0.49291  0.96440  Biso   1.000  H
  H233     1.0000 0.14611  0.69540  0.88878  Biso   1.000  H
  H234     1.0000 0.16269  0.61102  0.90528  Biso   1.000  H
  C201     1.0000 0.77709  0.54341  0.93284  Biso   1.000  C
  C202     1.0000 0.68753  0.48893  0.99462  Biso   1.000  C
  C203     1.0000 0.74963  0.04668  0.92602  Biso   1.000  C
  C204     1.0000 0.71131  0.12032  0.00278  Biso   1.000  C
  C205     1.0000 0.84430  0.10786  0.98143  Biso   1.000  C
  C206     1.0000 0.82202  0.46910  0.00854  Biso   1.000  C
  H235     1.0000 0.78791  0.57309  0.90181  Biso   1.000  H
  C207     1.0000 0.74616  0.45692  0.02491  Biso   1.000  C
  H236     1.0000 0.63629  0.48128  0.00539  Biso   1.000  H
  H237     1.0000 0.73674  0.01573  0.89601  Biso   1.000  H
  C208     1.0000 0.78777  0.13765  0.01454  Biso   1.000  C
  H238     1.0000 0.67220  0.13970  0.02520  Biso   1.000  H
  H239     1.0000 0.89630  0.11838  0.98939  Biso   1.000  H
  H240     1.0000 0.86290  0.44850  0.02920  Biso   1.000  H
  C209     1.0000 0.72716  0.40781  0.07064  Biso   1.000  C
  C210     1.0000 0.80774  0.18350  0.06198  Biso   1.000  C
  N35      1.0000 0.77604  0.37702  0.10106  Biso   1.000  N
  H241     1.0000 0.67479  0.39878  0.07770  Biso   1.000  H
  N36      1.0000 0.75788  0.21622  0.09073  Biso   1.000  N
  H242     1.0000 0.85999  0.18898  0.07170  Biso   1.000  H
  C211     1.0000 0.74851  0.32990  0.14491  Biso   1.000  C
  C212     1.0000 0.78409  0.25338  0.13989  Biso   1.000  C
  H243     1.0000 0.69173  0.32558  0.14209  Biso   1.000  H
  C213     1.0000 0.77029  0.36523  0.19966  Biso   1.000  C
  H244     1.0000 0.84081  0.25891  0.13830  Biso   1.000  H
  C214     1.0000 0.76410  0.20504  0.18901  Biso   1.000  C
  H245     1.0000 0.74331  0.41312  0.20330  Biso   1.000  H
  H246     1.0000 0.82579  0.37542  0.20032  Biso   1.000  H
  C215     1.0000 0.75036  0.31550  0.24829  Biso   1.000  C
  C216     1.0000 0.78712  0.24136  0.24245  Biso   1.000  C
  H247     1.0000 0.70850  0.19557  0.18901  Biso   1.000  H
  H248     1.0000 0.79041  0.15670  0.18582  Biso   1.000  H
  H249     1.0000 0.76810  0.33909  0.28259  Biso   1.000  H
  H250     1.0000 0.69438  0.30952  0.25021  Biso   1.000  H
  H251     1.0000 0.77190  0.20930  0.27320  Biso   1.000  H
  H252     1.0000 0.84320  0.24712  0.24392  Biso   1.000  H
  C217     1.0000 0.35791  0.29961  0.50172  Biso   1.000  C
  C218     1.0000 0.39238  0.27569  0.44794  Biso   1.000  C
  C219     1.0000 0.27688  0.26910  0.50686  Biso   1.000  C
  H253     1.0000 0.35674  0.35437  0.50372  Biso   1.000  H
  H254     1.0000 0.38986  0.28117  0.53238  Biso   1.000  H
  C220     1.0000 0.34359  0.30094  0.39891  Biso   1.000  C
  H255     1.0000 0.39705  0.22099  0.44741  Biso   1.000  H
  H256     1.0000 0.44429  0.29690  0.44480  Biso   1.000  H
  C221     1.0000 0.22770  0.29380  0.45844  Biso   1.000  C
  H257     1.0000 0.27856  0.21440  0.50829  Biso   1.000  H
  H258     1.0000 0.25408  0.28710  0.54120  Biso   1.000  H
  C222     1.0000 0.26324  0.27093  0.40368  Biso   1.000  C
  N37      1.0000 0.37930  0.27442  0.34905  Biso   1.000  N
  H259     1.0000 0.34170  0.35631  0.39821  Biso   1.000  H
  H260     1.0000 0.22179  0.34839  0.45942  Biso   1.000  H
  H261     1.0000 0.17636  0.27148  0.46142  Biso   1.000  H
  N38      1.0000 0.21424  0.30083  0.36012  Biso   1.000  N
  H262     1.0000 0.26435  0.21567  0.40111  Biso   1.000  H
  C223     1.0000 0.40688  0.32231  0.31733  Biso   1.000  C
  C224     1.0000 0.17623  0.25421  0.33227  Biso   1.000  C
  C225     1.0000 0.44749  0.30404  0.26662  Biso   1.000  C
  H263     1.0000 0.40107  0.37309  0.32660  Biso   1.000  H
  C226     1.0000 0.12005  0.27447  0.28965  Biso   1.000  C
  H264     1.0000 0.18448  0.20310  0.33930  Biso   1.000  H
  C227     1.0000 0.47144  0.36041  0.23240  Biso   1.000  C
  C228     1.0000 0.46068  0.23178  0.25127  Biso   1.000  C
  C229     1.0000 0.08148  0.21811  0.26262  Biso   1.000  C
  C230     1.0000 0.10556  0.34845  0.27609  Biso   1.000  C
  C231     1.0000 0.50670  0.34441  0.18292  Biso   1.000  C
  H265     1.0000 0.46376  0.41058  0.24269  Biso   1.000  H
  C232     1.0000 0.49578  0.21406  0.20203  Biso   1.000  C
  H266     1.0000 0.44537  0.19291  0.27491  Biso   1.000  H
  C233     1.0000 0.02823  0.23472  0.22158  Biso   1.000  C
  H267     1.0000 0.09136  0.16800  0.27201  Biso   1.000  H
  H268     1.0000 0.13238  0.38688  0.29451  Biso   1.000  H
  C234     1.0000 0.05226  0.36584  0.23579  Biso   1.000  C
  C235     1.0000 0.51911  0.27159  0.16810  Biso   1.000  C
  C236     1.0000 0.53086  0.40537  0.14707  Biso   1.000  C
  C237     1.0000 0.50478  0.13560  0.18827  Biso   1.000  C
  C238     1.0000 0.01376  0.30825  0.20933  Biso   1.000  C
  C239     1.0000 0.98687  0.17774  0.19027  Biso   1.000  C
  C240     1.0000 0.03575  0.44247  0.22060  Biso   1.000  C
  H269     1.0000 0.54369  0.26069  0.13462  Biso   1.000  H
  N39      1.0000 0.51956  0.47315  0.15907  Biso   1.000  N
  H270     1.0000 0.55568  0.39380  0.11392  Biso   1.000  H
  N40      1.0000 0.53385  0.11080  0.14495  Biso   1.000  N
  H271     1.0000 0.48727  0.10039  0.21411  Biso   1.000  H
  H272     1.0000 0.97661  0.31982  0.18218  Biso   1.000  H
  N41      1.0000 0.99407  0.10886  0.19607  Biso   1.000  N
  H273     1.0000 0.95161  0.19441  0.16332  Biso   1.000  H
  H274     1.0000 0.05776  0.48140  0.24151  Biso   1.000  H
  N42      1.0000 0.99284  0.45858  0.18030  Biso   1.000  N
  C241     1.0000 0.55014  0.52935  0.12204  Biso   1.000  C
  C242     1.0000 0.53953  0.03062  0.13907  Biso   1.000  C
  C243     1.0000 0.94600  0.06157  0.16230  Biso   1.000  C
  C244     1.0000 0.97338  0.53577  0.17095  Biso   1.000  C
  C245     1.0000 0.48870  0.58577  0.10771  Biso   1.000  C
  H275     1.0000 0.56810  0.50487  0.08791  Biso   1.000  H
  C246     1.0000 0.61794  0.56639  0.15099  Biso   1.000  C
  C247     1.0000 0.49739  0.00559  0.08799  Biso   1.000  C
  H276     1.0000 0.51567  0.00659  0.17149  Biso   1.000  H
  C248     1.0000 0.62339  0.00853  0.13698  Biso   1.000  C
  C249     1.0000 0.99366  0.00676  0.13098  Biso   1.000  C
  H277     1.0000 0.91719  0.09319  0.13572  Biso   1.000  H
  C250     1.0000 0.88923  0.02137  0.19835  Biso   1.000  C
  H278     1.0000 0.00688  0.56800  0.19419  Biso   1.000  H
  C251     1.0000 0.98318  0.55648  0.11098  Biso   1.000  C
  C252     1.0000 0.89022  0.54640  0.18745  Biso   1.000  C
  N43      1.0000 0.43036  0.55078  0.07349  Biso   1.000  N
  H279     1.0000 0.46509  0.60487  0.14188  Biso   1.000  H
  C253     1.0000 0.52243  0.64972  0.07549  Biso   1.000  C
  H280     1.0000 0.60142  0.58577  0.18680  Biso   1.000  H
  H281     1.0000 0.65829  0.52907  0.15768  Biso   1.000  H
  C254     1.0000 0.65027  0.62946  0.11722  Biso   1.000  C
  N44      1.0000 0.41615  0.02254  0.09048  Biso   1.000  N
  H282     1.0000 0.51959  0.03151  0.05569  Biso   1.000  H
  C255     1.0000 0.50652  0.92220  0.08031  Biso   1.000  C
  H283     1.0000 0.64848  0.03583  0.10702  Biso   1.000  H
  H284     1.0000 0.64889  0.02270  0.17169  Biso   1.000  H
  C256     1.0000 0.63297  0.92602  0.12792  Biso   1.000  C
  N45      1.0000 0.04477  0.04507  0.09346  Biso   1.000  N
  C257     1.0000 0.94217  0.95415  0.09791  Biso   1.000  C
  H285     1.0000 0.02486  0.97697  0.15740  Biso   1.000  H
  H286     1.0000 0.91731  0.99158  0.22591  Biso   1.000  H
  C258     1.0000 0.83717  0.97087  0.16520  Biso   1.000  C
  H287     1.0000 0.85790  0.05831  0.21799  Biso   1.000  H
  N46      1.0000 0.06432  0.55360  0.09734  Biso   1.000  N
  H288     1.0000 0.95452  0.52038  0.08758  Biso   1.000  H
  C259     1.0000 0.95389  0.63450  0.09983  Biso   1.000  C
  H289     1.0000 0.85778  0.51107  0.16679  Biso   1.000  H
  H290     1.0000 0.88511  0.53511  0.22681  Biso   1.000  H
  C260     1.0000 0.86242  0.62364  0.17692  Biso   1.000  C
  C261     1.0000 0.36099  0.56224  0.08501  Biso   1.000  C
  C262     1.0000 0.58966  0.68549  0.10501  Biso   1.000  C
  H291     1.0000 0.53928  0.63140  0.03948  Biso   1.000  H
  H292     1.0000 0.48242  0.68749  0.06908  Biso   1.000  H
  H293     1.0000 0.69269  0.65338  0.13752  Biso   1.000  H
  H294     1.0000 0.67068  0.60969  0.08260  Biso   1.000  H
  C263     1.0000 0.38938  0.05808  0.05034  Biso   1.000  C
  C264     1.0000 0.59093  0.90138  0.07643  Biso   1.000  C
  H295     1.0000 0.47938  0.90648  0.04659  Biso   1.000  H
  H296     1.0000 0.48339  0.89590  0.11151  Biso   1.000  H
  H297     1.0000 0.61281  0.89867  0.15969  Biso   1.000  H
  H298     1.0000 0.68778  0.91406  0.12461  Biso   1.000  H
  C265     1.0000 0.11526  0.03029  0.09787  Biso   1.000  C
  C266     1.0000 0.88454  0.91523  0.13380  Biso   1.000  C
  H299     1.0000 0.91482  0.98267  0.06929  Biso   1.000  H
  H300     1.0000 0.97421  0.91661  0.07962  Biso   1.000  H
  H301     1.0000 0.80198  0.94441  0.18990  Biso   1.000  H
  H302     1.0000 0.80620  0.00072  0.13939  Biso   1.000  H
  C267     1.0000 0.08310  0.51739  0.05594  Biso   1.000  C
  C268     1.0000 0.87029  0.64358  0.11714  Biso   1.000  C
  H303     1.0000 0.95821  0.64540  0.06039  Biso   1.000  H
  H304     1.0000 0.98593  0.67060  0.12000  Biso   1.000  H
  H305     1.0000 0.89232  0.65897  0.19941  Biso   1.000  H
  H306     1.0000 0.80822  0.62769  0.18749  Biso   1.000  H
  C269     1.0000 0.29781  0.53223  0.05149  Biso   1.000  C
  H307     1.0000 0.34932  0.59109  0.11628  Biso   1.000  H
  H308     1.0000 0.61102  0.72530  0.08199  Biso   1.000  H
  H309     1.0000 0.57210  0.70797  0.13952  Biso   1.000  H
  C270     1.0000 0.30805  0.07536  0.04116  Biso   1.000  C
  H310     1.0000 0.42450  0.07519  0.02389  Biso   1.000  H
  H311     1.0000 0.59600  0.84718  0.07198  Biso   1.000  H
  H312     1.0000 0.61360  0.92569  0.04422  Biso   1.000  H
  C271     1.0000 0.17416  0.06312  0.06304  Biso   1.000  C
  H313     1.0000 0.13091  0.99601  0.12518  Biso   1.000  H
  H314     1.0000 0.85053  0.88416  0.11081  Biso   1.000  H
  H315     1.0000 0.91158  0.88228  0.15981  Biso   1.000  H
  C272     1.0000 0.16286  0.51069  0.03707  Biso   1.000  C
  H316     1.0000 0.04422  0.49291  0.03560  Biso   1.000  H
  H317     1.0000 0.85379  0.69540  0.11118  Biso   1.000  H
  H318     1.0000 0.83720  0.61102  0.09468  Biso   1.000  H
  C273     1.0000 0.22286  0.54341  0.06717  Biso   1.000  C
  C274     1.0000 0.31236  0.48893  0.00539  Biso   1.000  C
  C275     1.0000 0.25026  0.04668  0.07394  Biso   1.000  C
  C276     1.0000 0.28859  0.12032  0.99722  Biso   1.000  C
  C277     1.0000 0.15565  0.10786  0.01858  Biso   1.000  C
  C278     1.0000 0.17787  0.46910  0.99143  Biso   1.000  C
  H319     1.0000 0.21198  0.57309  0.09820  Biso   1.000  H
  C279     1.0000 0.25373  0.45692  0.97509  Biso   1.000  C
  H320     1.0000 0.36360  0.48128  0.99461  Biso   1.000  H
  H321     1.0000 0.26321  0.01573  0.10399  Biso   1.000  H
  C280     1.0000 0.21218  0.13765  0.98546  Biso   1.000  C
  H322     1.0000 0.32769  0.13970  0.97481  Biso   1.000  H
  H323     1.0000 0.10359  0.11838  0.01062  Biso   1.000  H
  H324     1.0000 0.13699  0.44850  0.97081  Biso   1.000  H
  C281     1.0000 0.27279  0.40781  0.92936  Biso   1.000  C
  C282     1.0000 0.19221  0.18350  0.93802  Biso   1.000  C
  N47      1.0000 0.22385  0.37702  0.89891  Biso   1.000  N
  H325     1.0000 0.32511  0.39878  0.92230  Biso   1.000  H
  N48      1.0000 0.24201  0.21622  0.90928  Biso   1.000  N
  H326     1.0000 0.13990  0.18898  0.92830  Biso   1.000  H
  C283     1.0000 0.25144  0.32990  0.85505  Biso   1.000  C
  C284     1.0000 0.21586  0.25338  0.86012  Biso   1.000  C
  H327     1.0000 0.30822  0.32558  0.85791  Biso   1.000  H
  C285     1.0000 0.22966  0.36523  0.80034  Biso   1.000  C
  H328     1.0000 0.15914  0.25891  0.86171  Biso   1.000  H
  C286     1.0000 0.23585  0.20504  0.81100  Biso   1.000  C
  H329     1.0000 0.25664  0.41312  0.79671  Biso   1.000  H
  H330     1.0000 0.17410  0.37542  0.79969  Biso   1.000  H
  C287     1.0000 0.24954  0.31550  0.75171  Biso   1.000  C
  C288     1.0000 0.21283  0.24136  0.75755  Biso   1.000  C
  H331     1.0000 0.29145  0.19557  0.81100  Biso   1.000  H
  H332     1.0000 0.20954  0.15670  0.81418  Biso   1.000  H
  H333     1.0000 0.23185  0.33909  0.71738  Biso   1.000  H
  H334     1.0000 0.30551  0.30952  0.74979  Biso   1.000  H
  H335     1.0000 0.22804  0.20930  0.72681  Biso   1.000  H
  H336     1.0000 0.15670  0.24712  0.75608  Biso   1.000  H
